MODEL 1
REMARK VINA RESULT:     -12.0      0.000      0.000
REMARK SMILES O=C(OCCOC(=O)[C@@H](Cc1cccc(F)c1)[C@H]1CCOC2(CCC2)C1)c1ccc(-c2c3nc(c(-c4ccccc4)c4ccc([nH]4)c(-c4ccccc4)c4nc(c(-c5ccccc5)c5ccc2[nH]5)C=C4)C=C3)cc1
REMARK SMILES IDX 4 1 3 2 2 3 1 4 27 5 28 6 74 7 29 8 73 9 30 10 31 11 32 12
REMARK SMILES IDX 67 13 33 14 72 15 66 16 68 17 34 18 71 19 65 20 64 21 35 23
REMARK SMILES IDX 57 24 42 25 56 26 43 27 46 28 55 29 69 30 44 31 45 32 54 34
REMARK SMILES IDX 70 35 47 36 36 37 37 38 41 39 38 40 40 41 39 42 58 43 59 44
REMARK SMILES IDX 63 45 60 46 62 47 61 48 48 49 49 50 53 51 50 52 52 53 51 54
REMARK SMILES IDX 5 55 6 56 7 57 8 58 9 59 10 60 11 61 12 62 17 63 13 64 15 65
REMARK SMILES IDX 14 66 16 67 18 68 19 69 26 70 20 71 22 72 21 73 23 74 25 75
REMARK SMILES IDX 24 76
REMARK H PARENT 68 22 46 33
REMARK Flexibility Score: inf
ROOT
ATOM      1  C   UNL A   1      34.161  31.490  27.755  1.00  0.00     0.275 C 
ENDROOT
BRANCH   1   2
ATOM      2  O   UNL A   1      33.803  32.385  28.813  1.00  0.00    -0.458 OA
BRANCH   2   3
ATOM      3  C   UNL A   1      34.523  32.661  29.921  1.00  0.00     0.338 C 
ATOM      4  O   UNL A   1      34.161  33.579  30.654  1.00  0.00    -0.246 OA
BRANCH   3   5
ATOM      5  C   UNL A   1      35.796  31.970  30.296  1.00  0.00     0.060 A 
ATOM      6  C   UNL A   1      35.943  30.799  31.593  1.00  0.00     0.016 A 
ATOM      7  C   UNL A   1      37.113  32.264  29.118  1.00  0.00     0.016 A 
ATOM      8  C   UNL A   1      37.422  29.817  31.709  1.00  0.00     0.010 A 
ATOM      9  C   UNL A   1      38.606  31.328  29.067  1.00  0.00     0.010 A 
ATOM     10  C   UNL A   1      38.899  30.061  30.335  1.00  0.00    -0.014 A 
BRANCH  10  11
ATOM     11  C   UNL A   1      40.354  29.476  29.983  1.00  0.00     0.031 A 
ATOM     12  C   UNL A   1      40.363  28.118  29.346  1.00  0.00     0.074 A 
ATOM     13  C   UNL A   1      41.563  30.067  30.202  1.00  0.00     0.049 A 
ATOM     14  N   UNL A   1      41.273  27.582  28.583  1.00  0.00    -0.248 NA
ATOM     15  C   UNL A   1      39.208  27.242  29.606  1.00  0.00     0.031 C 
ATOM     16  C   UNL A   1      41.812  31.223  31.050  1.00  0.00     0.029 A 
ATOM     17  N   UNL A   1      42.786  29.917  29.563  1.00  0.00    -0.354 N 
ATOM     18  C   UNL A   1      40.765  26.342  28.235  1.00  0.00     0.074 A 
ATOM     19  C   UNL A   1      39.520  26.159  28.928  1.00  0.00     0.031 C 
ATOM     20  C   UNL A   1      42.893  31.878  30.609  1.00  0.00     0.029 A 
ATOM     21  C   UNL A   1      43.592  31.046  29.665  1.00  0.00     0.049 A 
ATOM     22  H   UNL A   1      43.054  29.097  29.088  1.00  0.00     0.167 HD
ATOM     23  C   UNL A   1      41.288  25.439  27.382  1.00  0.00     0.031 A 
ATOM     24  C   UNL A   1      44.769  31.403  29.104  1.00  0.00     0.031 A 
ATOM     25  C   UNL A   1      42.592  25.595  26.816  1.00  0.00     0.049 A 
ATOM     26  C   UNL A   1      45.381  30.376  28.216  1.00  0.00     0.074 A 
ATOM     27  C   UNL A   1      43.289  24.726  26.005  1.00  0.00     0.029 A 
ATOM     28  N   UNL A   1      43.417  26.690  27.055  1.00  0.00    -0.354 N 
ATOM     29  N   UNL A   1      44.848  29.243  27.828  1.00  0.00    -0.248 NA
ATOM     30  C   UNL A   1      46.733  30.632  27.715  1.00  0.00     0.031 C 
ATOM     31  C   UNL A   1      44.574  25.249  25.836  1.00  0.00     0.029 A 
ATOM     32  C   UNL A   1      44.639  26.497  26.442  1.00  0.00     0.049 A 
ATOM     33  H   UNL A   1      43.168  27.482  27.583  1.00  0.00     0.167 HD
ATOM     34  C   UNL A   1      45.794  28.640  27.031  1.00  0.00     0.074 A 
ATOM     35  C   UNL A   1      46.918  29.561  26.955  1.00  0.00     0.031 C 
ATOM     36  C   UNL A   1      45.735  27.432  26.423  1.00  0.00     0.031 A 
BRANCH  23  37
ATOM     37  C   UNL A   1      40.470  24.199  27.165  1.00  0.00    -0.014 A 
ATOM     38  C   UNL A   1      40.938  22.930  27.559  1.00  0.00     0.009 A 
ATOM     39  C   UNL A   1      39.291  24.285  26.415  1.00  0.00     0.009 A 
ATOM     40  C   UNL A   1      40.277  21.773  27.143  1.00  0.00     0.001 A 
ATOM     41  C   UNL A   1      38.611  23.127  26.034  1.00  0.00     0.001 A 
ATOM     42  C   UNL A   1      39.114  21.874  26.381  1.00  0.00     0.000 A 
ENDBRANCH  23  37
BRANCH  24  43
ATOM     43  C   UNL A   1      45.446  32.719  29.391  1.00  0.00    -0.014 A 
ATOM     44  C   UNL A   1      45.272  33.843  28.563  1.00  0.00     0.009 A 
ATOM     45  C   UNL A   1      46.265  32.875  30.526  1.00  0.00     0.009 A 
ATOM     46  C   UNL A   1      45.877  35.074  28.871  1.00  0.00     0.001 A 
ATOM     47  C   UNL A   1      46.831  34.113  30.858  1.00  0.00     0.001 A 
ATOM     48  C   UNL A   1      46.641  35.213  30.028  1.00  0.00     0.000 A 
ENDBRANCH  24  43
BRANCH  36  49
ATOM     49  C   UNL A   1      46.915  27.087  25.580  1.00  0.00    -0.014 A 
ATOM     50  C   UNL A   1      47.941  26.260  26.055  1.00  0.00     0.009 A 
ATOM     51  C   UNL A   1      46.982  27.617  24.285  1.00  0.00     0.009 A 
ATOM     52  C   UNL A   1      49.057  26.023  25.257  1.00  0.00     0.001 A 
ATOM     53  C   UNL A   1      48.072  27.334  23.473  1.00  0.00     0.001 A 
ATOM     54  C   UNL A   1      49.116  26.553  23.967  1.00  0.00     0.000 A 
ENDBRANCH  36  49
ENDBRANCH  10  11
ENDBRANCH   3   5
ENDBRANCH   2   3
ENDBRANCH   1   2
BRANCH   1  55
ATOM     55  C   UNL A   1      32.999  30.572  27.324  1.00  0.00     0.274 C 
BRANCH  55  56
ATOM     56  O   UNL A   1      33.387  29.201  27.061  1.00  0.00    -0.462 OA
BRANCH  56  57
ATOM     57  C   UNL A   1      32.454  28.220  27.167  1.00  0.00     0.309 C 
ATOM     58  O   UNL A   1      31.681  28.115  28.111  1.00  0.00    -0.252 OA
BRANCH  57  59
ATOM     59  C   UNL A   1      32.469  27.243  25.981  1.00  0.00     0.107 C 
BRANCH  59  60
ATOM     60  C   UNL A   1      32.509  25.742  26.393  1.00  0.00     0.051 C 
BRANCH  60  61
ATOM     61  C   UNL A   1      33.620  24.671  25.855  1.00  0.00    -0.044 A 
ATOM     62  C   UNL A   1      33.588  23.204  26.947  1.00  0.00     0.004 A 
ATOM     63  C   UNL A   1      34.728  24.437  24.166  1.00  0.00     0.043 A 
ATOM     64  C   UNL A   1      34.443  21.722  26.481  1.00  0.00     0.003 A 
ATOM     65  C   UNL A   1      35.562  22.878  23.866  1.00  0.00     0.123 A 
ATOM     66  C   UNL A   1      35.384  21.578  25.001  1.00  0.00     0.039 A 
ATOM     67  F   UNL A   1      36.426  22.776  22.848  1.00  0.00    -0.207 F 
ENDBRANCH  60  61
ENDBRANCH  59  60
BRANCH  59  68
ATOM     68  C   UNL A   1      31.482  27.482  24.831  1.00  0.00     0.009 C 
ATOM     69  C   UNL A   1      30.543  26.315  24.539  1.00  0.00     0.033 C 
ATOM     70  C   UNL A   1      30.815  28.870  24.756  1.00  0.00     0.040 C 
ATOM     71  C   UNL A   1      29.799  26.563  23.242  1.00  0.00     0.161 C 
ATOM     72  C   UNL A   1      29.992  28.979  23.453  1.00  0.00     0.069 C 
ATOM     73  O   UNL A   1      29.128  27.816  23.333  1.00  0.00    -0.375 OA
ATOM     74  C   UNL A   1      29.270  30.348  23.267  1.00  0.00     0.035 C 
ATOM     75  C   UNL A   1      30.733  29.347  22.125  1.00  0.00     0.035 C 
ATOM     76  C   UNL A   1      29.512  30.200  21.752  1.00  0.00     0.006 C 
ENDBRANCH  59  68
ENDBRANCH  57  59
ENDBRANCH  56  57
ENDBRANCH  55  56
ENDBRANCH   1  55
TORSDOF 14
ENDMDL
MODEL 2
REMARK VINA RESULT:     -11.9      4.163      9.253
REMARK SMILES O=C(OCCOC(=O)[C@@H](Cc1cccc(F)c1)[C@H]1CCOC2(CCC2)C1)c1ccc(-c2c3nc(c(-c4ccccc4)c4ccc([nH]4)c(-c4ccccc4)c4nc(c(-c5ccccc5)c5ccc2[nH]5)C=C4)C=C3)cc1
REMARK SMILES IDX 4 1 3 2 2 3 1 4 27 5 28 6 74 7 29 8 73 9 30 10 31 11 32 12
REMARK SMILES IDX 67 13 33 14 72 15 66 16 68 17 34 18 71 19 65 20 64 21 35 23
REMARK SMILES IDX 57 24 42 25 56 26 43 27 46 28 55 29 69 30 44 31 45 32 54 34
REMARK SMILES IDX 70 35 47 36 36 37 37 38 41 39 38 40 40 41 39 42 58 43 59 44
REMARK SMILES IDX 63 45 60 46 62 47 61 48 48 49 49 50 53 51 50 52 52 53 51 54
REMARK SMILES IDX 5 55 6 56 7 57 8 58 9 59 10 60 11 61 12 62 17 63 13 64 15 65
REMARK SMILES IDX 14 66 16 67 18 68 19 69 26 70 20 71 22 72 21 73 23 74 25 75
REMARK SMILES IDX 24 76
REMARK H PARENT 68 22 46 33
REMARK Flexibility Score: inf
ROOT
ATOM      1  C   UNL A   1      36.131  23.374  26.093  1.00  0.00     0.275 C 
ENDROOT
BRANCH   1   2
ATOM      2  O   UNL A   1      37.442  23.607  25.568  1.00  0.00    -0.458 OA
BRANCH   2   3
ATOM      3  C   UNL A   1      38.616  23.448  26.216  1.00  0.00     0.338 C 
ATOM      4  O   UNL A   1      39.067  22.315  26.361  1.00  0.00    -0.246 OA
BRANCH   3   5
ATOM      5  C   UNL A   1      39.390  24.561  26.849  1.00  0.00     0.060 A 
ATOM      6  C   UNL A   1      40.563  25.556  26.008  1.00  0.00     0.016 A 
ATOM      7  C   UNL A   1      38.811  24.952  28.499  1.00  0.00     0.016 A 
ATOM      8  C   UNL A   1      41.154  27.042  26.786  1.00  0.00     0.010 A 
ATOM      9  C   UNL A   1      39.256  26.420  29.369  1.00  0.00     0.010 A 
ATOM     10  C   UNL A   1      40.451  27.564  28.619  1.00  0.00    -0.014 A 
BRANCH  10  11
ATOM     11  C   UNL A   1      40.627  28.727  29.713  1.00  0.00     0.031 A 
ATOM     12  C   UNL A   1      39.561  29.782  29.706  1.00  0.00     0.074 A 
ATOM     13  C   UNL A   1      41.627  28.862  30.630  1.00  0.00     0.049 A 
ATOM     14  N   UNL A   1      39.183  30.565  30.677  1.00  0.00    -0.248 NA
ATOM     15  C   UNL A   1      38.831  29.997  28.446  1.00  0.00     0.031 C 
ATOM     16  C   UNL A   1      42.891  28.141  30.632  1.00  0.00     0.029 A 
ATOM     17  N   UNL A   1      41.659  29.492  31.867  1.00  0.00    -0.354 N 
ATOM     18  C   UNL A   1      38.141  31.311  30.153  1.00  0.00     0.074 A 
ATOM     19  C   UNL A   1      37.997  30.963  28.766  1.00  0.00     0.031 C 
ATOM     20  C   UNL A   1      43.352  28.048  31.885  1.00  0.00     0.029 A 
ATOM     21  C   UNL A   1      42.607  28.948  32.727  1.00  0.00     0.049 A 
ATOM     22  H   UNL A   1      41.072  30.244  32.108  1.00  0.00     0.167 HD
ATOM     23  C   UNL A   1      37.351  32.198  30.788  1.00  0.00     0.031 A 
ATOM     24  C   UNL A   1      42.895  29.136  34.034  1.00  0.00     0.031 A 
ATOM     25  C   UNL A   1      37.608  32.620  32.130  1.00  0.00     0.049 A 
ATOM     26  C   UNL A   1      42.068  30.168  34.719  1.00  0.00     0.074 A 
ATOM     27  C   UNL A   1      36.949  33.572  32.876  1.00  0.00     0.029 A 
ATOM     28  N   UNL A   1      38.657  32.138  32.909  1.00  0.00    -0.354 N 
ATOM     29  N   UNL A   1      41.030  30.803  34.233  1.00  0.00    -0.248 NA
ATOM     30  C   UNL A   1      42.441  30.539  36.085  1.00  0.00     0.031 C 
ATOM     31  C   UNL A   1      37.659  33.738  34.068  1.00  0.00     0.029 A 
ATOM     32  C   UNL A   1      38.690  32.808  34.115  1.00  0.00     0.049 A 
ATOM     33  H   UNL A   1      39.282  31.426  32.639  1.00  0.00     0.167 HD
ATOM     34  C   UNL A   1      40.614  31.655  35.231  1.00  0.00     0.074 A 
ATOM     35  C   UNL A   1      41.489  31.417  36.369  1.00  0.00     0.031 C 
ATOM     36  C   UNL A   1      39.602  32.554  35.202  1.00  0.00     0.031 A 
BRANCH  23  37
ATOM     37  C   UNL A   1      36.261  32.811  29.958  1.00  0.00    -0.014 A 
ATOM     38  C   UNL A   1      36.525  33.862  29.057  1.00  0.00     0.009 A 
ATOM     39  C   UNL A   1      34.932  32.441  30.198  1.00  0.00     0.009 A 
ATOM     40  C   UNL A   1      35.474  34.571  28.472  1.00  0.00     0.001 A 
ATOM     41  C   UNL A   1      33.886  33.127  29.582  1.00  0.00     0.001 A 
ATOM     42  C   UNL A   1      34.155  34.202  28.735  1.00  0.00     0.000 A 
ENDBRANCH  23  37
BRANCH  24  43
ATOM     43  C   UNL A   1      44.004  28.399  34.743  1.00  0.00    -0.014 A 
ATOM     44  C   UNL A   1      45.288  28.954  34.896  1.00  0.00     0.009 A 
ATOM     45  C   UNL A   1      43.779  27.127  35.303  1.00  0.00     0.009 A 
ATOM     46  C   UNL A   1      46.295  28.270  35.598  1.00  0.00     0.001 A 
ATOM     47  C   UNL A   1      44.770  26.465  36.041  1.00  0.00     0.001 A 
ATOM     48  C   UNL A   1      46.031  27.035  36.185  1.00  0.00     0.000 A 
ENDBRANCH  24  43
BRANCH  36  49
ATOM     49  C   UNL A   1      39.373  33.294  36.475  1.00  0.00    -0.014 A 
ATOM     50  C   UNL A   1      38.531  32.792  37.476  1.00  0.00     0.009 A 
ATOM     51  C   UNL A   1      40.020  34.523  36.652  1.00  0.00     0.009 A 
ATOM     52  C   UNL A   1      38.292  33.552  38.617  1.00  0.00     0.001 A 
ATOM     53  C   UNL A   1      39.820  35.253  37.816  1.00  0.00     0.001 A 
ATOM     54  C   UNL A   1      38.942  34.775  38.788  1.00  0.00     0.000 A 
ENDBRANCH  36  49
ENDBRANCH  10  11
ENDBRANCH   3   5
ENDBRANCH   2   3
ENDBRANCH   1   2
BRANCH   1  55
ATOM     55  C   UNL A   1      35.014  23.650  25.066  1.00  0.00     0.274 C 
BRANCH  55  56
ATOM     56  O   UNL A   1      33.729  23.973  25.653  1.00  0.00    -0.462 OA
BRANCH  56  57
ATOM     57  C   UNL A   1      32.677  24.234  24.835  1.00  0.00     0.309 C 
ATOM     58  O   UNL A   1      31.843  23.399  24.512  1.00  0.00    -0.252 OA
BRANCH  57  59
ATOM     59  C   UNL A   1      32.642  25.690  24.343  1.00  0.00     0.107 C 
BRANCH  59  60
ATOM     60  C   UNL A   1      31.633  25.947  23.186  1.00  0.00     0.051 C 
BRANCH  60  61
ATOM     61  C   UNL A   1      30.374  26.984  23.279  1.00  0.00    -0.044 A 
ATOM     62  C   UNL A   1      30.861  28.560  22.487  1.00  0.00     0.004 A 
ATOM     63  C   UNL A   1      28.396  26.849  23.732  1.00  0.00     0.043 A 
ATOM     64  C   UNL A   1      29.643  29.801  22.136  1.00  0.00     0.003 A 
ATOM     65  C   UNL A   1      27.305  28.217  23.341  1.00  0.00     0.123 A 
ATOM     66  C   UNL A   1      27.943  29.623  22.549  1.00  0.00     0.039 A 
ATOM     67  F   UNL A   1      26.043  28.205  23.788  1.00  0.00    -0.207 F 
ENDBRANCH  60  61
ENDBRANCH  59  60
BRANCH  59  68
ATOM     68  C   UNL A   1      32.590  26.809  25.391  1.00  0.00     0.009 C 
ATOM     69  C   UNL A   1      31.569  26.597  26.505  1.00  0.00     0.033 C 
ATOM     70  C   UNL A   1      33.938  27.390  25.865  1.00  0.00     0.040 C 
ATOM     71  C   UNL A   1      31.431  27.863  27.326  1.00  0.00     0.161 C 
ATOM     72  C   UNL A   1      33.683  28.605  26.784  1.00  0.00     0.069 C 
ATOM     73  O   UNL A   1      32.717  28.238  27.807  1.00  0.00    -0.375 OA
ATOM     74  C   UNL A   1      34.981  29.279  27.326  1.00  0.00     0.035 C 
ATOM     75  C   UNL A   1      33.401  29.996  26.127  1.00  0.00     0.035 C 
ATOM     76  C   UNL A   1      34.239  30.627  27.249  1.00  0.00     0.006 C 
ENDBRANCH  59  68
ENDBRANCH  57  59
ENDBRANCH  56  57
ENDBRANCH  55  56
ENDBRANCH   1  55
TORSDOF 14
ENDMDL
MODEL 3
REMARK VINA RESULT:     -11.8      1.673      2.344
REMARK SMILES O=C(OCCOC(=O)[C@@H](Cc1cccc(F)c1)[C@H]1CCOC2(CCC2)C1)c1ccc(-c2c3nc(c(-c4ccccc4)c4ccc([nH]4)c(-c4ccccc4)c4nc(c(-c5ccccc5)c5ccc2[nH]5)C=C4)C=C3)cc1
REMARK SMILES IDX 4 1 3 2 2 3 1 4 27 5 28 6 74 7 29 8 73 9 30 10 31 11 32 12
REMARK SMILES IDX 67 13 33 14 72 15 66 16 68 17 34 18 71 19 65 20 64 21 35 23
REMARK SMILES IDX 57 24 42 25 56 26 43 27 46 28 55 29 69 30 44 31 45 32 54 34
REMARK SMILES IDX 70 35 47 36 36 37 37 38 41 39 38 40 40 41 39 42 58 43 59 44
REMARK SMILES IDX 63 45 60 46 62 47 61 48 48 49 49 50 53 51 50 52 52 53 51 54
REMARK SMILES IDX 5 55 6 56 7 57 8 58 9 59 10 60 11 61 12 62 17 63 13 64 15 65
REMARK SMILES IDX 14 66 16 67 18 68 19 69 26 70 20 71 22 72 21 73 23 74 25 75
REMARK SMILES IDX 24 76
REMARK H PARENT 68 22 46 33
REMARK Flexibility Score: inf
ROOT
ATOM      1  C   UNL A   1      32.149  29.468  27.133  1.00  0.00     0.275 C 
ENDROOT
BRANCH   1   2
ATOM      2  O   UNL A   1      33.541  29.362  27.451  1.00  0.00    -0.458 OA
BRANCH   2   3
ATOM      3  C   UNL A   1      34.340  30.338  27.933  1.00  0.00     0.338 C 
ATOM      4  O   UNL A   1      33.968  31.507  27.852  1.00  0.00    -0.246 OA
BRANCH   3   5
ATOM      5  C   UNL A   1      35.704  30.109  28.504  1.00  0.00     0.060 A 
ATOM      6  C   UNL A   1      36.015  29.582  30.146  1.00  0.00     0.016 A 
ATOM      7  C   UNL A   1      36.992  30.180  27.261  1.00  0.00     0.016 A 
ATOM      8  C   UNL A   1      37.649  29.031  30.584  1.00  0.00     0.010 A 
ATOM      9  C   UNL A   1      38.639  29.608  27.526  1.00  0.00     0.010 A 
ATOM     10  C   UNL A   1      39.112  29.012  29.175  1.00  0.00    -0.014 A 
BRANCH  10  11
ATOM     11  C   UNL A   1      40.667  28.634  29.029  1.00  0.00     0.031 A 
ATOM     12  C   UNL A   1      40.947  27.235  28.568  1.00  0.00     0.074 A 
ATOM     13  C   UNL A   1      41.744  29.433  29.280  1.00  0.00     0.049 A 
ATOM     14  N   UNL A   1      42.004  26.774  27.961  1.00  0.00    -0.248 NA
ATOM     15  C   UNL A   1      39.916  26.218  28.830  1.00  0.00     0.031 C 
ATOM     16  C   UNL A   1      41.725  30.698  29.997  1.00  0.00     0.029 A 
ATOM     17  N   UNL A   1      43.037  29.413  28.775  1.00  0.00    -0.354 N 
ATOM     18  C   UNL A   1      41.728  25.437  27.724  1.00  0.00     0.074 A 
ATOM     19  C   UNL A   1      40.458  25.132  28.322  1.00  0.00     0.031 C 
ATOM     20  C   UNL A   1      42.737  31.467  29.576  1.00  0.00     0.029 A 
ATOM     21  C   UNL A   1      43.650  30.662  28.808  1.00  0.00     0.049 A 
ATOM     22  H   UNL A   1      43.474  28.601  28.431  1.00  0.00     0.167 HD
ATOM     23  C   UNL A   1      42.468  24.544  27.040  1.00  0.00     0.031 A 
ATOM     24  C   UNL A   1      44.813  31.141  28.314  1.00  0.00     0.031 A 
ATOM     25  C   UNL A   1      43.787  24.845  26.577  1.00  0.00     0.049 A 
ATOM     26  C   UNL A   1      45.664  30.136  27.618  1.00  0.00     0.074 A 
ATOM     27  C   UNL A   1      44.690  24.018  25.945  1.00  0.00     0.029 A 
ATOM     28  N   UNL A   1      44.409  26.078  26.751  1.00  0.00    -0.354 N 
ATOM     29  N   UNL A   1      45.351  28.898  27.327  1.00  0.00    -0.248 NA
ATOM     30  C   UNL A   1      47.007  30.551  27.211  1.00  0.00     0.031 C 
ATOM     31  C   UNL A   1      45.892  24.719  25.827  1.00  0.00     0.029 A 
ATOM     32  C   UNL A   1      45.705  26.020  26.278  1.00  0.00     0.049 A 
ATOM     33  H   UNL A   1      43.989  26.873  27.153  1.00  0.00     0.167 HD
ATOM     34  C   UNL A   1      46.456  28.372  26.698  1.00  0.00     0.074 A 
ATOM     35  C   UNL A   1      47.432  29.448  26.609  1.00  0.00     0.031 C 
ATOM     36  C   UNL A   1      46.644  27.112  26.241  1.00  0.00     0.031 A 
BRANCH  23  37
ATOM     37  C   UNL A   1      41.874  23.172  26.906  1.00  0.00    -0.014 A 
ATOM     38  C   UNL A   1      40.628  22.967  26.281  1.00  0.00     0.009 A 
ATOM     39  C   UNL A   1      42.492  22.096  27.555  1.00  0.00     0.009 A 
ATOM     40  C   UNL A   1      39.987  21.730  26.372  1.00  0.00     0.001 A 
ATOM     41  C   UNL A   1      41.866  20.851  27.611  1.00  0.00     0.001 A 
ATOM     42  C   UNL A   1      40.607  20.674  27.037  1.00  0.00     0.000 A 
ENDBRANCH  23  37
BRANCH  24  43
ATOM     43  C   UNL A   1      45.251  32.573  28.495  1.00  0.00    -0.014 A 
ATOM     44  C   UNL A   1      44.918  33.577  27.568  1.00  0.00     0.009 A 
ATOM     45  C   UNL A   1      45.995  32.960  29.627  1.00  0.00     0.009 A 
ATOM     46  C   UNL A   1      45.298  34.914  27.777  1.00  0.00     0.001 A 
ATOM     47  C   UNL A   1      46.335  34.300  29.858  1.00  0.00     0.001 A 
ATOM     48  C   UNL A   1      45.991  35.277  28.930  1.00  0.00     0.000 A 
ENDBRANCH  24  43
BRANCH  36  49
ATOM     49  C   UNL A   1      47.946  26.872  25.555  1.00  0.00    -0.014 A 
ATOM     50  C   UNL A   1      49.065  26.394  26.249  1.00  0.00     0.009 A 
ATOM     51  C   UNL A   1      48.032  27.143  24.184  1.00  0.00     0.009 A 
ATOM     52  C   UNL A   1      50.278  26.253  25.581  1.00  0.00     0.001 A 
ATOM     53  C   UNL A   1      49.231  26.949  23.511  1.00  0.00     0.001 A 
ATOM     54  C   UNL A   1      50.356  26.523  24.214  1.00  0.00     0.000 A 
ENDBRANCH  36  49
ENDBRANCH  10  11
ENDBRANCH   3   5
ENDBRANCH   2   3
ENDBRANCH   1   2
BRANCH   1  55
ATOM     55  C   UNL A   1      31.875  29.442  25.615  1.00  0.00     0.274 C 
BRANCH  55  56
ATOM     56  O   UNL A   1      31.828  28.113  25.039  1.00  0.00    -0.462 OA
BRANCH  56  57
ATOM     57  C   UNL A   1      31.782  27.982  23.689  1.00  0.00     0.309 C 
ATOM     58  O   UNL A   1      32.712  28.265  22.945  1.00  0.00    -0.252 OA
BRANCH  57  59
ATOM     59  C   UNL A   1      30.433  27.447  23.180  1.00  0.00     0.107 C 
BRANCH  59  60
ATOM     60  C   UNL A   1      29.895  26.221  23.975  1.00  0.00     0.051 C 
BRANCH  60  61
ATOM     61  C   UNL A   1      30.771  24.882  24.301  1.00  0.00    -0.044 A 
ATOM     62  C   UNL A   1      30.698  24.565  26.102  1.00  0.00     0.004 A 
ATOM     63  C   UNL A   1      31.598  23.373  23.217  1.00  0.00     0.043 A 
ATOM     64  C   UNL A   1      31.281  23.027  26.765  1.00  0.00     0.003 A 
ATOM     65  C   UNL A   1      32.173  21.895  24.054  1.00  0.00     0.123 A 
ATOM     66  C   UNL A   1      31.983  21.755  25.774  1.00  0.00     0.039 A 
ATOM     67  F   UNL A   1      32.869  20.977  23.372  1.00  0.00    -0.207 F 
ENDBRANCH  60  61
ENDBRANCH  59  60
BRANCH  59  68
ATOM     68  C   UNL A   1      29.318  28.457  22.884  1.00  0.00     0.009 C 
ATOM     69  C   UNL A   1      27.955  28.099  23.470  1.00  0.00     0.033 C 
ATOM     70  C   UNL A   1      29.680  29.953  22.984  1.00  0.00     0.040 C 
ATOM     71  C   UNL A   1      26.892  29.021  22.908  1.00  0.00     0.161 C 
ATOM     72  C   UNL A   1      28.490  30.808  22.494  1.00  0.00     0.069 C 
ATOM     73  O   UNL A   1      27.276  30.368  23.163  1.00  0.00    -0.375 OA
ATOM     74  C   UNL A   1      28.743  32.345  22.549  1.00  0.00     0.035 C 
ATOM     75  C   UNL A   1      28.311  31.033  20.956  1.00  0.00     0.035 C 
ATOM     76  C   UNL A   1      27.879  32.471  21.278  1.00  0.00     0.006 C 
ENDBRANCH  59  68
ENDBRANCH  57  59
ENDBRANCH  56  57
ENDBRANCH  55  56
ENDBRANCH   1  55
TORSDOF 14
ENDMDL
