MODEL 1
REMARK VINA RESULT:      -9.7      0.000      0.000
REMARK SMILES CSc1nc(C2CC2)nc(C)c1C(=O)OCCOC(=O)c1ccc(-c2c3nc(c(-c4ccccc4)c4ccc([nH]4)c(-c4ccccc4)c4nc(c(-c5ccccc5)c5ccc2[nH]5)C=C4)C=C3)cc1
REMARK SMILES IDX 17 1 16 2 15 3 13 4 14 5 12 6 3 7 4 8 5 9 10 10 9 11 11 12
REMARK SMILES IDX 2 13 1 14 6 15 7 16 8 17 18 18 19 19 20 20 21 21 22 22 68 23
REMARK SMILES IDX 23 24 67 25 24 26 25 27 26 28 61 29 27 30 66 31 60 32 62 33
REMARK SMILES IDX 28 34 65 35 59 36 58 37 29 39 51 40 36 41 50 42 37 43 40 44
REMARK SMILES IDX 49 45 63 46 38 47 39 48 48 50 64 51 41 52 30 53 31 54 35 55
REMARK SMILES IDX 32 56 34 57 33 58 52 59 53 60 57 61 54 62 56 63 55 64 42 65
REMARK SMILES IDX 43 66 47 67 44 68 46 69 45 70
REMARK H PARENT 62 38 40 49
REMARK Flexibility Score: inf
ROOT
ATOM      1  C   UNL A   1      32.385  29.680  27.248  1.00  0.00     0.275 C 
ENDROOT
BRANCH   1   2
ATOM      2  C   UNL A   1      31.904  30.051  25.842  1.00  0.00     0.275 C 
BRANCH   2   3
ATOM      3  O   UNL A   1      32.515  29.175  24.869  1.00  0.00    -0.458 OA
BRANCH   3   4
ATOM      4  C   UNL A   1      31.761  28.778  23.816  1.00  0.00     0.342 C 
ATOM      5  O   UNL A   1      30.883  29.444  23.291  1.00  0.00    -0.246 OA
BRANCH   4   6
ATOM      6  C   UNL A   1      32.187  27.432  23.364  1.00  0.00     0.113 A 
ATOM      7  C   UNL A   1      31.567  26.273  23.821  1.00  0.00     0.114 A 
ATOM      8  N   UNL A   1      31.922  25.039  23.392  1.00  0.00    -0.225 NA
ATOM      9  C   UNL A   1      32.913  24.916  22.500  1.00  0.00     0.133 A 
ATOM     10  C   UNL A   1      33.236  27.224  22.474  1.00  0.00     0.057 A 
ATOM     11  N   UNL A   1      33.586  25.981  22.041  1.00  0.00    -0.237 NA
ATOM     12  C   UNL A   1      34.207  28.284  22.038  1.00  0.00     0.068 C 
BRANCH   7  13
ATOM     13  S   UNL A   1      30.229  26.238  25.018  1.00  0.00    -0.109 SA
ATOM     14  C   UNL A   1      28.794  26.529  23.937  1.00  0.00     0.092 C 
ENDBRANCH   7  13
BRANCH   9  15
ATOM     15  C   UNL A   1      33.337  23.535  22.061  1.00  0.00     0.058 C 
ATOM     16  C   UNL A   1      34.081  22.619  23.012  1.00  0.00     0.012 C 
ATOM     17  C   UNL A   1      32.671  22.296  22.618  1.00  0.00     0.012 C 
ENDBRANCH   9  15
ENDBRANCH   4   6
ENDBRANCH   3   4
ENDBRANCH   2   3
ENDBRANCH   1   2
BRANCH   1  18
ATOM     18  O   UNL A   1      33.819  29.550  27.272  1.00  0.00    -0.458 OA
BRANCH  18  19
ATOM     19  C   UNL A   1      34.469  30.596  27.836  1.00  0.00     0.338 C 
ATOM     20  O   UNL A   1      34.008  31.688  28.125  1.00  0.00    -0.246 OA
BRANCH  19  21
ATOM     21  C   UNL A   1      35.809  30.164  28.265  1.00  0.00     0.060 A 
ATOM     22  C   UNL A   1      36.828  30.272  27.321  1.00  0.00     0.016 A 
ATOM     23  C   UNL A   1      36.068  29.617  29.523  1.00  0.00     0.016 A 
ATOM     24  C   UNL A   1      38.119  29.865  27.637  1.00  0.00     0.010 A 
ATOM     25  C   UNL A   1      37.370  29.195  29.836  1.00  0.00     0.010 A 
ATOM     26  C   UNL A   1      38.406  29.327  28.895  1.00  0.00    -0.014 A 
BRANCH  26  27
ATOM     27  C   UNL A   1      39.783  28.838  29.143  1.00  0.00     0.031 A 
ATOM     28  C   UNL A   1      40.736  29.682  29.937  1.00  0.00     0.074 A 
ATOM     29  C   UNL A   1      40.140  27.589  28.786  1.00  0.00     0.049 A 
ATOM     30  N   UNL A   1      41.988  29.453  30.245  1.00  0.00    -0.248 NA
ATOM     31  C   UNL A   1      40.200  30.941  30.478  1.00  0.00     0.031 C 
ATOM     32  C   UNL A   1      39.264  26.609  28.145  1.00  0.00     0.029 A 
ATOM     33  N   UNL A   1      41.333  26.924  28.939  1.00  0.00    -0.354 N 
ATOM     34  C   UNL A   1      42.396  30.547  30.996  1.00  0.00     0.074 A 
ATOM     35  C   UNL A   1      41.260  31.438  31.097  1.00  0.00     0.031 C 
ATOM     36  C   UNL A   1      39.947  25.464  27.967  1.00  0.00     0.029 A 
ATOM     37  C   UNL A   1      41.323  25.651  28.420  1.00  0.00     0.049 A 
ATOM     38  H   UNL A   1      42.120  27.320  29.378  1.00  0.00     0.167 HD
ATOM     39  C   UNL A   1      43.610  30.790  31.544  1.00  0.00     0.031 A 
ATOM     40  C   UNL A   1      42.319  24.754  28.288  1.00  0.00     0.031 A 
ATOM     41  C   UNL A   1      44.743  29.909  31.433  1.00  0.00     0.049 A 
ATOM     42  C   UNL A   1      43.701  25.113  28.773  1.00  0.00     0.074 A 
ATOM     43  C   UNL A   1      46.028  30.094  31.911  1.00  0.00     0.029 A 
ATOM     44  N   UNL A   1      44.727  28.678  30.796  1.00  0.00    -0.354 N 
ATOM     45  N   UNL A   1      44.099  26.179  29.425  1.00  0.00    -0.248 NA
ATOM     46  C   UNL A   1      44.774  24.147  28.493  1.00  0.00     0.031 C 
ATOM     47  C   UNL A   1      46.807  29.005  31.506  1.00  0.00     0.029 A 
ATOM     48  C   UNL A   1      45.988  28.107  30.842  1.00  0.00     0.049 A 
ATOM     49  H   UNL A   1      43.936  28.270  30.374  1.00  0.00     0.167 HD
ATOM     50  C   UNL A   1      45.457  25.998  29.657  1.00  0.00     0.074 A 
ATOM     51  C   UNL A   1      45.812  24.713  29.092  1.00  0.00     0.031 C 
ATOM     52  C   UNL A   1      46.331  26.824  30.282  1.00  0.00     0.031 A 
BRANCH  39  53
ATOM     53  C   UNL A   1      43.796  32.107  32.243  1.00  0.00    -0.014 A 
ATOM     54  C   UNL A   1      44.140  33.275  31.545  1.00  0.00     0.009 A 
ATOM     55  C   UNL A   1      43.605  32.176  33.632  1.00  0.00     0.009 A 
ATOM     56  C   UNL A   1      44.325  34.477  32.234  1.00  0.00     0.001 A 
ATOM     57  C   UNL A   1      43.761  33.384  34.312  1.00  0.00     0.001 A 
ATOM     58  C   UNL A   1      44.132  34.531  33.614  1.00  0.00     0.000 A 
ENDBRANCH  39  53
BRANCH  40  59
ATOM     59  C   UNL A   1      42.080  23.455  27.600  1.00  0.00    -0.014 A 
ATOM     60  C   UNL A   1      41.578  22.346  28.298  1.00  0.00     0.009 A 
ATOM     61  C   UNL A   1      42.405  23.307  26.241  1.00  0.00     0.009 A 
ATOM     62  C   UNL A   1      41.437  21.111  27.658  1.00  0.00     0.001 A 
ATOM     63  C   UNL A   1      42.229  22.081  25.595  1.00  0.00     0.001 A 
ATOM     64  C   UNL A   1      41.758  20.981  26.308  1.00  0.00     0.000 A 
ENDBRANCH  40  59
BRANCH  52  65
ATOM     65  C   UNL A   1      47.750  26.347  30.438  1.00  0.00    -0.014 A 
ATOM     66  C   UNL A   1      48.194  25.734  31.621  1.00  0.00     0.009 A 
ATOM     67  C   UNL A   1      48.643  26.470  29.361  1.00  0.00     0.009 A 
ATOM     68  C   UNL A   1      49.513  25.284  31.730  1.00  0.00     0.001 A 
ATOM     69  C   UNL A   1      49.949  25.989  29.463  1.00  0.00     0.001 A 
ATOM     70  C   UNL A   1      50.386  25.406  30.650  1.00  0.00     0.000 A 
ENDBRANCH  52  65
ENDBRANCH  26  27
ENDBRANCH  19  21
ENDBRANCH  18  19
ENDBRANCH   1  18
TORSDOF 13
ENDMDL
MODEL 2
REMARK VINA RESULT:      -9.6      1.021      1.461
REMARK SMILES CSc1nc(C2CC2)nc(C)c1C(=O)OCCOC(=O)c1ccc(-c2c3nc(c(-c4ccccc4)c4ccc([nH]4)c(-c4ccccc4)c4nc(c(-c5ccccc5)c5ccc2[nH]5)C=C4)C=C3)cc1
REMARK SMILES IDX 17 1 16 2 15 3 13 4 14 5 12 6 3 7 4 8 5 9 10 10 9 11 11 12
REMARK SMILES IDX 2 13 1 14 6 15 7 16 8 17 18 18 19 19 20 20 21 21 22 22 68 23
REMARK SMILES IDX 23 24 67 25 24 26 25 27 26 28 61 29 27 30 66 31 60 32 62 33
REMARK SMILES IDX 28 34 65 35 59 36 58 37 29 39 51 40 36 41 50 42 37 43 40 44
REMARK SMILES IDX 49 45 63 46 38 47 39 48 48 50 64 51 41 52 30 53 31 54 35 55
REMARK SMILES IDX 32 56 34 57 33 58 52 59 53 60 57 61 54 62 56 63 55 64 42 65
REMARK SMILES IDX 43 66 47 67 44 68 46 69 45 70
REMARK H PARENT 62 38 40 49
REMARK Flexibility Score: inf
ROOT
ATOM      1  C   UNL A   1      32.560  29.569  26.805  1.00  0.00     0.275 C 
ENDROOT
BRANCH   1   2
ATOM      2  C   UNL A   1      32.609  28.714  25.535  1.00  0.00     0.275 C 
BRANCH   2   3
ATOM      3  O   UNL A   1      31.816  27.521  25.717  1.00  0.00    -0.458 OA
BRANCH   3   4
ATOM      4  C   UNL A   1      31.422  26.851  24.607  1.00  0.00     0.342 C 
ATOM      5  O   UNL A   1      30.401  27.075  23.977  1.00  0.00    -0.246 OA
BRANCH   4   6
ATOM      6  C   UNL A   1      32.435  25.832  24.241  1.00  0.00     0.113 A 
ATOM      7  C   UNL A   1      32.639  24.689  25.008  1.00  0.00     0.114 A 
ATOM      8  N   UNL A   1      33.537  23.734  24.669  1.00  0.00    -0.225 NA
ATOM      9  C   UNL A   1      34.269  23.890  23.559  1.00  0.00     0.133 A 
ATOM     10  C   UNL A   1      33.263  25.947  23.128  1.00  0.00     0.057 A 
ATOM     11  N   UNL A   1      34.160  24.981  22.788  1.00  0.00    -0.237 NA
ATOM     12  C   UNL A   1      33.405  27.189  22.296  1.00  0.00     0.068 C 
BRANCH   7  13
ATOM     13  S   UNL A   1      31.759  24.312  26.528  1.00  0.00    -0.109 SA
ATOM     14  C   UNL A   1      30.719  22.920  25.985  1.00  0.00     0.092 C 
ENDBRANCH   7  13
BRANCH   9  15
ATOM     15  C   UNL A   1      35.303  22.845  23.211  1.00  0.00     0.058 C 
ATOM     16  C   UNL A   1      36.754  23.037  23.602  1.00  0.00     0.012 C 
ATOM     17  C   UNL A   1      35.934  21.980  24.279  1.00  0.00     0.012 C 
ENDBRANCH   9  15
ENDBRANCH   4   6
ENDBRANCH   3   4
ENDBRANCH   2   3
ENDBRANCH   1   2
BRANCH   1  18
ATOM     18  O   UNL A   1      33.737  29.349  27.606  1.00  0.00    -0.458 OA
BRANCH  18  19
ATOM     19  C   UNL A   1      34.495  30.454  27.808  1.00  0.00     0.338 C 
ATOM     20  O   UNL A   1      34.124  31.616  27.816  1.00  0.00    -0.246 OA
BRANCH  19  21
ATOM     21  C   UNL A   1      35.843  30.049  28.237  1.00  0.00     0.060 A 
ATOM     22  C   UNL A   1      36.845  30.105  27.271  1.00  0.00     0.016 A 
ATOM     23  C   UNL A   1      36.126  29.576  29.520  1.00  0.00     0.016 A 
ATOM     24  C   UNL A   1      38.142  29.719  27.587  1.00  0.00     0.010 A 
ATOM     25  C   UNL A   1      37.433  29.175  29.833  1.00  0.00     0.010 A 
ATOM     26  C   UNL A   1      38.453  29.255  28.867  1.00  0.00    -0.014 A 
BRANCH  26  27
ATOM     27  C   UNL A   1      39.835  28.783  29.119  1.00  0.00     0.031 A 
ATOM     28  C   UNL A   1      40.779  29.644  29.906  1.00  0.00     0.074 A 
ATOM     29  C   UNL A   1      40.206  27.535  28.773  1.00  0.00     0.049 A 
ATOM     30  N   UNL A   1      42.033  29.431  30.215  1.00  0.00    -0.248 NA
ATOM     31  C   UNL A   1      40.229  30.901  30.437  1.00  0.00     0.031 C 
ATOM     32  C   UNL A   1      39.341  26.540  28.140  1.00  0.00     0.029 A 
ATOM     33  N   UNL A   1      41.406  26.884  28.930  1.00  0.00    -0.354 N 
ATOM     34  C   UNL A   1      42.430  30.535  30.958  1.00  0.00     0.074 A 
ATOM     35  C   UNL A   1      41.284  31.415  31.052  1.00  0.00     0.031 C 
ATOM     36  C   UNL A   1      40.036  25.402  27.971  1.00  0.00     0.029 A 
ATOM     37  C   UNL A   1      41.410  25.607  28.422  1.00  0.00     0.049 A 
ATOM     38  H   UNL A   1      42.188  27.293  29.365  1.00  0.00     0.167 HD
ATOM     39  C   UNL A   1      43.641  30.796  31.502  1.00  0.00     0.031 A 
ATOM     40  C   UNL A   1      42.416  24.720  28.296  1.00  0.00     0.031 A 
ATOM     41  C   UNL A   1      44.784  29.927  31.398  1.00  0.00     0.049 A 
ATOM     42  C   UNL A   1      43.793  25.099  28.778  1.00  0.00     0.074 A 
ATOM     43  C   UNL A   1      46.067  30.131  31.874  1.00  0.00     0.029 A 
ATOM     44  N   UNL A   1      44.781  28.691  30.771  1.00  0.00    -0.354 N 
ATOM     45  N   UNL A   1      44.180  26.174  29.421  1.00  0.00    -0.248 NA
ATOM     46  C   UNL A   1      44.877  24.142  28.506  1.00  0.00     0.031 C 
ATOM     47  C   UNL A   1      46.858  29.047  31.478  1.00  0.00     0.029 A 
ATOM     48  C   UNL A   1      46.049  28.134  30.821  1.00  0.00     0.049 A 
ATOM     49  H   UNL A   1      43.995  28.271  30.353  1.00  0.00     0.167 HD
ATOM     50  C   UNL A   1      45.540  26.010  29.654  1.00  0.00     0.074 A 
ATOM     51  C   UNL A   1      45.909  24.724  29.100  1.00  0.00     0.031 C 
ATOM     52  C   UNL A   1      46.406  26.850  30.272  1.00  0.00     0.031 A 
BRANCH  39  53
ATOM     53  C   UNL A   1      43.813  32.122  32.190  1.00  0.00    -0.014 A 
ATOM     54  C   UNL A   1      43.597  32.275  33.568  1.00  0.00     0.009 A 
ATOM     55  C   UNL A   1      44.215  33.236  31.436  1.00  0.00     0.009 A 
ATOM     56  C   UNL A   1      43.746  33.528  34.168  1.00  0.00     0.001 A 
ATOM     57  C   UNL A   1      44.392  34.479  32.044  1.00  0.00     0.001 A 
ATOM     58  C   UNL A   1      44.147  34.626  33.407  1.00  0.00     0.000 A 
ENDBRANCH  39  53
BRANCH  40  59
ATOM     59  C   UNL A   1      42.191  23.413  27.619  1.00  0.00    -0.014 A 
ATOM     60  C   UNL A   1      42.500  23.238  26.261  1.00  0.00     0.009 A 
ATOM     61  C   UNL A   1      41.615  22.344  28.323  1.00  0.00     0.009 A 
ATOM     62  C   UNL A   1      42.207  22.031  25.619  1.00  0.00     0.001 A 
ATOM     63  C   UNL A   1      41.356  21.127  27.688  1.00  0.00     0.001 A 
ATOM     64  C   UNL A   1      41.641  20.977  26.333  1.00  0.00     0.000 A 
ENDBRANCH  40  59
BRANCH  52  65
ATOM     65  C   UNL A   1      47.829  26.390  30.431  1.00  0.00    -0.014 A 
ATOM     66  C   UNL A   1      48.275  25.772  31.610  1.00  0.00     0.009 A 
ATOM     67  C   UNL A   1      48.726  26.535  29.360  1.00  0.00     0.009 A 
ATOM     68  C   UNL A   1      49.599  25.339  31.723  1.00  0.00     0.001 A 
ATOM     69  C   UNL A   1      50.039  26.071  29.464  1.00  0.00     0.001 A 
ATOM     70  C   UNL A   1      50.476  25.482  30.648  1.00  0.00     0.000 A 
ENDBRANCH  52  65
ENDBRANCH  26  27
ENDBRANCH  19  21
ENDBRANCH  18  19
ENDBRANCH   1  18
TORSDOF 13
ENDMDL
MODEL 3
REMARK VINA RESULT:      -9.6      3.116      6.785
REMARK SMILES CSc1nc(C2CC2)nc(C)c1C(=O)OCCOC(=O)c1ccc(-c2c3nc(c(-c4ccccc4)c4ccc([nH]4)c(-c4ccccc4)c4nc(c(-c5ccccc5)c5ccc2[nH]5)C=C4)C=C3)cc1
REMARK SMILES IDX 17 1 16 2 15 3 13 4 14 5 12 6 3 7 4 8 5 9 10 10 9 11 11 12
REMARK SMILES IDX 2 13 1 14 6 15 7 16 8 17 18 18 19 19 20 20 21 21 22 22 68 23
REMARK SMILES IDX 23 24 67 25 24 26 25 27 26 28 61 29 27 30 66 31 60 32 62 33
REMARK SMILES IDX 28 34 65 35 59 36 58 37 29 39 51 40 36 41 50 42 37 43 40 44
REMARK SMILES IDX 49 45 63 46 38 47 39 48 48 50 64 51 41 52 30 53 31 54 35 55
REMARK SMILES IDX 32 56 34 57 33 58 52 59 53 60 57 61 54 62 56 63 55 64 42 65
REMARK SMILES IDX 43 66 47 67 44 68 46 69 45 70
REMARK H PARENT 62 38 40 49
REMARK Flexibility Score: inf
ROOT
ATOM      1  C   UNL A   1      31.589  30.147  25.798  1.00  0.00     0.275 C 
ENDROOT
BRANCH   1   2
ATOM      2  C   UNL A   1      31.420  28.980  24.820  1.00  0.00     0.275 C 
BRANCH   2   3
ATOM      3  O   UNL A   1      31.529  27.726  25.529  1.00  0.00    -0.458 OA
BRANCH   3   4
ATOM      4  C   UNL A   1      31.272  26.588  24.840  1.00  0.00     0.342 C 
ATOM      5  O   UNL A   1      30.219  26.329  24.281  1.00  0.00    -0.246 OA
BRANCH   4   6
ATOM      6  C   UNL A   1      32.474  25.720  24.825  1.00  0.00     0.113 A 
ATOM      7  C   UNL A   1      33.412  25.780  23.799  1.00  0.00     0.114 A 
ATOM      8  N   UNL A   1      34.531  25.018  23.789  1.00  0.00    -0.225 NA
ATOM      9  C   UNL A   1      34.749  24.163  24.795  1.00  0.00     0.133 A 
ATOM     10  C   UNL A   1      32.745  24.777  25.813  1.00  0.00     0.057 A 
ATOM     11  N   UNL A   1      33.875  24.017  25.801  1.00  0.00    -0.237 NA
ATOM     12  C   UNL A   1      31.773  24.355  26.877  1.00  0.00     0.068 C 
BRANCH   7  13
ATOM     13  S   UNL A   1      33.287  26.856  22.367  1.00  0.00    -0.109 SA
ATOM     14  C   UNL A   1      32.492  25.740  21.168  1.00  0.00     0.092 C 
ENDBRANCH   7  13
BRANCH   9  15
ATOM     15  C   UNL A   1      35.975  23.281  24.755  1.00  0.00     0.058 C 
ATOM     16  C   UNL A   1      35.883  21.857  24.247  1.00  0.00     0.012 C 
ATOM     17  C   UNL A   1      36.615  22.888  23.442  1.00  0.00     0.012 C 
ENDBRANCH   9  15
ENDBRANCH   4   6
ENDBRANCH   3   4
ENDBRANCH   2   3
ENDBRANCH   1   2
BRANCH   1  18
ATOM     18  O   UNL A   1      32.985  30.384  26.062  1.00  0.00    -0.458 OA
BRANCH  18  19
ATOM     19  C   UNL A   1      33.230  31.399  26.924  1.00  0.00     0.338 C 
ATOM     20  O   UNL A   1      32.484  32.319  27.219  1.00  0.00    -0.246 OA
BRANCH  19  21
ATOM     21  C   UNL A   1      34.482  31.132  27.650  1.00  0.00     0.060 A 
ATOM     22  C   UNL A   1      34.716  29.809  28.018  1.00  0.00     0.016 A 
ATOM     23  C   UNL A   1      35.381  32.135  28.015  1.00  0.00     0.016 A 
ATOM     24  C   UNL A   1      35.864  29.474  28.726  1.00  0.00     0.010 A 
ATOM     25  C   UNL A   1      36.533  31.796  28.742  1.00  0.00     0.010 A 
ATOM     26  C   UNL A   1      36.786  30.458  29.092  1.00  0.00    -0.014 A 
BRANCH  26  27
ATOM     27  C   UNL A   1      37.949  30.049  29.914  1.00  0.00     0.031 A 
ATOM     28  C   UNL A   1      39.040  29.226  29.295  1.00  0.00     0.074 A 
ATOM     29  C   UNL A   1      38.104  30.526  31.164  1.00  0.00     0.049 A 
ATOM     30  N   UNL A   1      40.126  28.743  29.843  1.00  0.00    -0.248 NA
ATOM     31  C   UNL A   1      38.901  28.928  27.861  1.00  0.00     0.031 C 
ATOM     32  C   UNL A   1      37.197  31.457  31.834  1.00  0.00     0.029 A 
ATOM     33  N   UNL A   1      39.101  30.309  32.085  1.00  0.00    -0.354 N 
ATOM     34  C   UNL A   1      40.790  28.067  28.828  1.00  0.00     0.074 A 
ATOM     35  C   UNL A   1      39.984  28.201  27.633  1.00  0.00     0.031 C 
ATOM     36  C   UNL A   1      37.683  31.739  33.055  1.00  0.00     0.029 A 
ATOM     37  C   UNL A   1      38.898  30.959  33.279  1.00  0.00     0.049 A 
ATOM     38  H   UNL A   1      39.886  29.742  31.907  1.00  0.00     0.167 HD
ATOM     39  C   UNL A   1      41.959  27.387  28.890  1.00  0.00     0.031 A 
ATOM     40  C   UNL A   1      39.589  30.901  34.434  1.00  0.00     0.031 A 
ATOM     41  C   UNL A   1      42.754  27.243  30.081  1.00  0.00     0.049 A 
ATOM     42  C   UNL A   1      40.806  30.015  34.518  1.00  0.00     0.074 A 
ATOM     43  C   UNL A   1      43.928  26.530  30.253  1.00  0.00     0.029 A 
ATOM     44  N   UNL A   1      42.454  27.820  31.305  1.00  0.00    -0.354 N 
ATOM     45  N   UNL A   1      41.394  29.322  33.572  1.00  0.00    -0.248 NA
ATOM     46  C   UNL A   1      41.450  29.895  35.835  1.00  0.00     0.031 C 
ATOM     47  C   UNL A   1      44.302  26.621  31.597  1.00  0.00     0.029 A 
ATOM     48  C   UNL A   1      43.403  27.453  32.245  1.00  0.00     0.049 A 
ATOM     49  H   UNL A   1      41.680  28.403  31.481  1.00  0.00     0.167 HD
ATOM     50  C   UNL A   1      42.488  28.710  34.172  1.00  0.00     0.074 A 
ATOM     51  C   UNL A   1      42.494  29.126  35.559  1.00  0.00     0.031 C 
ATOM     52  C   UNL A   1      43.405  27.877  33.623  1.00  0.00     0.031 A 
BRANCH  39  53
ATOM     53  C   UNL A   1      42.405  26.674  27.644  1.00  0.00    -0.014 A 
ATOM     54  C   UNL A   1      43.242  27.285  26.699  1.00  0.00     0.009 A 
ATOM     55  C   UNL A   1      41.983  25.352  27.426  1.00  0.00     0.009 A 
ATOM     56  C   UNL A   1      43.618  26.597  25.542  1.00  0.00     0.001 A 
ATOM     57  C   UNL A   1      42.385  24.658  26.285  1.00  0.00     0.001 A 
ATOM     58  C   UNL A   1      43.192  25.284  25.339  1.00  0.00     0.000 A 
ENDBRANCH  39  53
BRANCH  40  59
ATOM     59  C   UNL A   1      39.114  31.638  35.637  1.00  0.00    -0.014 A 
ATOM     60  C   UNL A   1      38.158  31.079  36.499  1.00  0.00     0.009 A 
ATOM     61  C   UNL A   1      39.583  32.935  35.900  1.00  0.00     0.009 A 
ATOM     62  C   UNL A   1      37.661  31.816  37.578  1.00  0.00     0.001 A 
ATOM     63  C   UNL A   1      39.111  33.656  36.999  1.00  0.00     0.001 A 
ATOM     64  C   UNL A   1      38.141  33.101  37.830  1.00  0.00     0.000 A 
ENDBRANCH  40  59
BRANCH  52  65
ATOM     65  C   UNL A   1      44.526  27.397  34.504  1.00  0.00    -0.014 A 
ATOM     66  C   UNL A   1      44.450  26.174  35.190  1.00  0.00     0.009 A 
ATOM     67  C   UNL A   1      45.699  28.161  34.608  1.00  0.00     0.009 A 
ATOM     68  C   UNL A   1      45.515  25.745  35.987  1.00  0.00     0.001 A 
ATOM     69  C   UNL A   1      46.774  27.713  35.378  1.00  0.00     0.001 A 
ATOM     70  C   UNL A   1      46.677  26.511  36.074  1.00  0.00     0.000 A 
ENDBRANCH  52  65
ENDBRANCH  26  27
ENDBRANCH  19  21
ENDBRANCH  18  19
ENDBRANCH   1  18
TORSDOF 13
ENDMDL
