MODEL 1
REMARK VINA RESULT:     -10.1      0.000      0.000
REMARK SMILES C/C(=C/C[N@H+]1C[C@H]2CCC[N@H+]2C[C@@H]1C)C(=O)OCCOC(=O)c1ccc(-c2c3nc(c(-c4ccccc4)c4ccc([nH]4)c(-c4ccccc4)c4nc(c(-c5ccccc5)c5ccc2[nH]5)C=C4)C=C3)cc1
REMARK SMILES IDX 18 1 17 2 15 3 16 4 2 5 1 6 3 7 4 8 5 9 6 10 13 11 7 13
REMARK SMILES IDX 12 14 14 15 8 16 11 17 9 18 10 19 19 21 20 22 21 23 22 24
REMARK SMILES IDX 23 25 24 26 70 27 25 28 69 29 26 30 27 31 28 32 63 33 29 34
REMARK SMILES IDX 68 35 62 36 64 37 30 38 67 39 61 40 60 41 31 43 53 44 38 45
REMARK SMILES IDX 52 46 39 47 42 48 51 49 65 50 40 51 41 52 50 54 66 55 43 56
REMARK SMILES IDX 32 57 33 58 37 59 34 60 36 61 35 62 54 63 55 64 59 65 56 66
REMARK SMILES IDX 58 67 57 68 44 69 45 70 49 71 46 72 48 73 47 74
REMARK H PARENT 5 12 11 20 64 42 42 53
REMARK Flexibility Score: inf
ROOT
ATOM      1  C   UNL A   1      42.533  20.831  26.128  1.00  0.00     0.275 C 
ENDROOT
BRANCH   1   2
ATOM      2  O   UNL A   1      41.412  21.721  25.971  1.00  0.00    -0.459 OA
BRANCH   2   3
ATOM      3  C   UNL A   1      40.516  21.780  26.985  1.00  0.00     0.333 C 
ATOM      4  O   UNL A   1      40.632  21.235  28.073  1.00  0.00    -0.247 OA
BRANCH   3   5
ATOM      5  C   UNL A   1      39.446  22.773  26.685  1.00  0.00     0.036 C 
ATOM      6  C   UNL A   1      39.525  24.076  27.430  1.00  0.00     0.052 C 
ATOM      7  C   UNL A   1      38.375  22.524  25.907  1.00  0.00     0.044 C 
BRANCH   7   8
ATOM      8  C   UNL A   1      37.942  21.224  25.297  1.00  0.00     0.292 C 
BRANCH   8   9
ATOM      9  N   UNL A   1      36.633  21.385  24.658  1.00  0.00    -0.320 N 
ATOM     10  C   UNL A   1      35.542  20.744  25.408  1.00  0.00     0.328 C 
ATOM     11  C   UNL A   1      36.331  22.804  24.345  1.00  0.00     0.237 C 
ATOM     12  H   UNL A   1      36.697  20.889  23.769  1.00  0.00     0.348 HD
ATOM     13  C   UNL A   1      34.196  20.912  24.679  1.00  0.00     0.240 C 
ATOM     14  C   UNL A   1      34.879  23.260  24.708  1.00  0.00     0.328 C 
ATOM     15  C   UNL A   1      36.613  23.018  22.856  1.00  0.00     0.081 C 
ATOM     16  C   UNL A   1      33.030  20.344  25.488  1.00  0.00     0.077 C 
ATOM     17  N   UNL A   1      33.827  22.303  24.343  1.00  0.00    -0.323 N 
ATOM     18  C   UNL A   1      31.871  21.243  25.108  1.00  0.00     0.068 C 
ATOM     19  C   UNL A   1      32.540  22.599  24.977  1.00  0.00     0.263 C 
ATOM     20  H   UNL A   1      33.730  22.399  23.332  1.00  0.00     0.348 HD
ENDBRANCH   8   9
ENDBRANCH   7   8
ENDBRANCH   3   5
ENDBRANCH   2   3
ENDBRANCH   1   2
BRANCH   1  21
ATOM     21  C   UNL A   1      43.737  21.394  25.376  1.00  0.00     0.275 C 
BRANCH  21  22
ATOM     22  O   UNL A   1      44.356  22.417  26.174  1.00  0.00    -0.458 OA
BRANCH  22  23
ATOM     23  C   UNL A   1      44.361  23.658  25.644  1.00  0.00     0.338 C 
ATOM     24  O   UNL A   1      44.730  24.008  24.535  1.00  0.00    -0.246 OA
BRANCH  23  25
ATOM     25  C   UNL A   1      43.757  24.573  26.619  1.00  0.00     0.060 A 
ATOM     26  C   UNL A   1      43.830  25.942  26.377  1.00  0.00     0.016 A 
ATOM     27  C   UNL A   1      43.191  24.090  27.797  1.00  0.00     0.016 A 
ATOM     28  C   UNL A   1      43.396  26.848  27.337  1.00  0.00     0.010 A 
ATOM     29  C   UNL A   1      42.682  25.000  28.728  1.00  0.00     0.010 A 
ATOM     30  C   UNL A   1      42.799  26.388  28.517  1.00  0.00    -0.014 A 
BRANCH  30  31
ATOM     31  C   UNL A   1      42.311  27.353  29.535  1.00  0.00     0.031 A 
ATOM     32  C   UNL A   1      43.075  27.553  30.814  1.00  0.00     0.074 A 
ATOM     33  C   UNL A   1      41.183  28.057  29.314  1.00  0.00     0.049 A 
ATOM     34  N   UNL A   1      42.728  28.215  31.888  1.00  0.00    -0.248 NA
ATOM     35  C   UNL A   1      44.401  26.920  30.898  1.00  0.00     0.031 C 
ATOM     36  C   UNL A   1      40.373  28.006  28.095  1.00  0.00     0.029 A 
ATOM     37  N   UNL A   1      40.524  28.958  30.112  1.00  0.00    -0.354 N 
ATOM     38  C   UNL A   1      43.766  28.036  32.793  1.00  0.00     0.074 A 
ATOM     39  C   UNL A   1      44.759  27.207  32.142  1.00  0.00     0.031 C 
ATOM     40  C   UNL A   1      39.343  28.857  28.218  1.00  0.00     0.029 A 
ATOM     41  C   UNL A   1      39.374  29.453  29.548  1.00  0.00     0.049 A 
ATOM     42  H   UNL A   1      40.845  29.225  31.005  1.00  0.00     0.167 HD
ATOM     43  C   UNL A   1      43.878  28.513  34.055  1.00  0.00     0.031 A 
ATOM     44  C   UNL A   1      38.426  30.261  30.056  1.00  0.00     0.031 A 
ATOM     45  C   UNL A   1      42.908  29.363  34.693  1.00  0.00     0.049 A 
ATOM     46  C   UNL A   1      38.548  30.736  31.474  1.00  0.00     0.074 A 
ATOM     47  C   UNL A   1      42.939  29.904  35.967  1.00  0.00     0.029 A 
ATOM     48  N   UNL A   1      41.738  29.805  34.097  1.00  0.00    -0.354 N 
ATOM     49  N   UNL A   1      39.509  30.517  32.338  1.00  0.00    -0.248 NA
ATOM     50  C   UNL A   1      37.441  31.553  31.994  1.00  0.00     0.031 C 
ATOM     51  C   UNL A   1      41.768  30.646  36.154  1.00  0.00     0.029 A 
ATOM     52  C   UNL A   1      41.030  30.598  34.983  1.00  0.00     0.049 A 
ATOM     53  H   UNL A   1      41.453  29.588  33.180  1.00  0.00     0.167 HD
ATOM     54  C   UNL A   1      39.125  31.168  33.502  1.00  0.00     0.074 A 
ATOM     55  C   UNL A   1      37.856  31.810  33.228  1.00  0.00     0.031 C 
ATOM     56  C   UNL A   1      39.765  31.222  34.695  1.00  0.00     0.031 A 
BRANCH  43  57
ATOM     57  C   UNL A   1      45.078  28.086  34.851  1.00  0.00    -0.014 A 
ATOM     58  C   UNL A   1      46.258  28.845  34.861  1.00  0.00     0.009 A 
ATOM     59  C   UNL A   1      45.010  26.919  35.627  1.00  0.00     0.009 A 
ATOM     60  C   UNL A   1      47.357  28.427  35.615  1.00  0.00     0.001 A 
ATOM     61  C   UNL A   1      46.102  26.515  36.396  1.00  0.00     0.001 A 
ATOM     62  C   UNL A   1      47.277  27.265  36.384  1.00  0.00     0.000 A 
ENDBRANCH  43  57
BRANCH  44  63
ATOM     63  C   UNL A   1      37.244  30.623  29.233  1.00  0.00    -0.014 A 
ATOM     64  C   UNL A   1      36.253  29.674  28.950  1.00  0.00     0.009 A 
ATOM     65  C   UNL A   1      37.100  31.928  28.733  1.00  0.00     0.009 A 
ATOM     66  C   UNL A   1      35.145  30.020  28.172  1.00  0.00     0.001 A 
ATOM     67  C   UNL A   1      35.979  32.278  27.979  1.00  0.00     0.001 A 
ATOM     68  C   UNL A   1      35.006  31.322  27.693  1.00  0.00     0.000 A 
ENDBRANCH  44  63
BRANCH  56  69
ATOM     69  C   UNL A   1      39.106  32.013  35.784  1.00  0.00    -0.014 A 
ATOM     70  C   UNL A   1      39.358  33.386  35.929  1.00  0.00     0.009 A 
ATOM     71  C   UNL A   1      38.200  31.387  36.653  1.00  0.00     0.009 A 
ATOM     72  C   UNL A   1      38.729  34.113  36.941  1.00  0.00     0.001 A 
ATOM     73  C   UNL A   1      37.558  32.120  37.650  1.00  0.00     0.001 A 
ATOM     74  C   UNL A   1      37.828  33.481  37.798  1.00  0.00     0.000 A 
ENDBRANCH  56  69
ENDBRANCH  30  31
ENDBRANCH  23  25
ENDBRANCH  22  23
ENDBRANCH  21  22
ENDBRANCH   1  21
TORSDOF 13
ENDMDL
MODEL 2
REMARK VINA RESULT:     -10.0      3.791      7.734
REMARK SMILES C/C(=C/C[N@H+]1C[C@H]2CCC[N@H+]2C[C@@H]1C)C(=O)OCCOC(=O)c1ccc(-c2c3nc(c(-c4ccccc4)c4ccc([nH]4)c(-c4ccccc4)c4nc(c(-c5ccccc5)c5ccc2[nH]5)C=C4)C=C3)cc1
REMARK SMILES IDX 18 1 17 2 15 3 16 4 2 5 1 6 3 7 4 8 5 9 6 10 13 11 7 13
REMARK SMILES IDX 12 14 14 15 8 16 11 17 9 18 10 19 19 21 20 22 21 23 22 24
REMARK SMILES IDX 23 25 24 26 70 27 25 28 69 29 26 30 27 31 28 32 63 33 29 34
REMARK SMILES IDX 68 35 62 36 64 37 30 38 67 39 61 40 60 41 31 43 53 44 38 45
REMARK SMILES IDX 52 46 39 47 42 48 51 49 65 50 40 51 41 52 50 54 66 55 43 56
REMARK SMILES IDX 32 57 33 58 37 59 34 60 36 61 35 62 54 63 55 64 59 65 56 66
REMARK SMILES IDX 58 67 57 68 44 69 45 70 49 71 46 72 48 73 47 74
REMARK H PARENT 5 12 11 20 64 42 42 53
REMARK Flexibility Score: inf
ROOT
ATOM      1  C   UNL A   1      37.953  20.100  24.952  1.00  0.00     0.275 C 
ENDROOT
BRANCH   1   2
ATOM      2  O   UNL A   1      36.905  21.012  25.330  1.00  0.00    -0.459 OA
BRANCH   2   3
ATOM      3  C   UNL A   1      36.819  22.179  24.649  1.00  0.00     0.333 C 
ATOM      4  O   UNL A   1      36.780  22.295  23.433  1.00  0.00    -0.247 OA
BRANCH   3   5
ATOM      5  C   UNL A   1      36.569  23.315  25.581  1.00  0.00     0.036 C 
ATOM      6  C   UNL A   1      37.788  23.955  26.184  1.00  0.00     0.052 C 
ATOM      7  C   UNL A   1      35.348  23.701  25.999  1.00  0.00     0.044 C 
BRANCH   7   8
ATOM      8  C   UNL A   1      34.024  23.040  25.759  1.00  0.00     0.292 C 
BRANCH   8   9
ATOM      9  N   UNL A   1      33.159  23.927  24.976  1.00  0.00    -0.320 N 
ATOM     10  C   UNL A   1      32.609  25.041  25.765  1.00  0.00     0.328 C 
ATOM     11  C   UNL A   1      33.817  24.401  23.733  1.00  0.00     0.237 C 
ATOM     12  H   UNL A   1      32.361  23.357  24.695  1.00  0.00     0.348 HD
ATOM     13  C   UNL A   1      31.681  25.922  24.906  1.00  0.00     0.240 C 
ATOM     14  C   UNL A   1      33.635  25.926  23.436  1.00  0.00     0.328 C 
ATOM     15  C   UNL A   1      33.282  23.553  22.576  1.00  0.00     0.081 C 
ATOM     16  C   UNL A   1      31.179  27.144  25.674  1.00  0.00     0.077 C 
ATOM     17  N   UNL A   1      32.276  26.436  23.655  1.00  0.00    -0.323 N 
ATOM     18  C   UNL A   1      31.034  28.198  24.596  1.00  0.00     0.068 C 
ATOM     19  C   UNL A   1      32.213  27.899  23.687  1.00  0.00     0.263 C 
ATOM     20  H   UNL A   1      31.742  26.097  22.855  1.00  0.00     0.348 HD
ENDBRANCH   8   9
ENDBRANCH   7   8
ENDBRANCH   3   5
ENDBRANCH   2   3
ENDBRANCH   1   2
BRANCH   1  21
ATOM     21  C   UNL A   1      39.281  20.584  25.530  1.00  0.00     0.275 C 
BRANCH  21  22
ATOM     22  O   UNL A   1      40.090  19.446  25.871  1.00  0.00    -0.458 OA
BRANCH  22  23
ATOM     23  C   UNL A   1      41.424  19.654  25.895  1.00  0.00     0.338 C 
ATOM     24  O   UNL A   1      42.310  18.949  25.439  1.00  0.00    -0.246 OA
BRANCH  23  25
ATOM     25  C   UNL A   1      41.671  20.959  26.517  1.00  0.00     0.060 A 
ATOM     26  C   UNL A   1      41.971  22.040  25.692  1.00  0.00     0.016 A 
ATOM     27  C   UNL A   1      41.679  21.101  27.903  1.00  0.00     0.016 A 
ATOM     28  C   UNL A   1      42.347  23.259  26.242  1.00  0.00     0.010 A 
ATOM     29  C   UNL A   1      41.980  22.349  28.456  1.00  0.00     0.010 A 
ATOM     30  C   UNL A   1      42.338  23.434  27.632  1.00  0.00    -0.014 A 
BRANCH  30  31
ATOM     31  C   UNL A   1      42.715  24.743  28.224  1.00  0.00     0.031 A 
ATOM     32  C   UNL A   1      41.664  25.786  28.479  1.00  0.00     0.074 A 
ATOM     33  C   UNL A   1      44.001  24.999  28.538  1.00  0.00     0.049 A 
ATOM     34  N   UNL A   1      41.812  27.039  28.827  1.00  0.00    -0.248 NA
ATOM     35  C   UNL A   1      40.263  25.368  28.316  1.00  0.00     0.031 C 
ATOM     36  C   UNL A   1      45.115  24.059  28.398  1.00  0.00     0.029 A 
ATOM     37  N   UNL A   1      44.586  26.132  29.045  1.00  0.00    -0.354 N 
ATOM     38  C   UNL A   1      40.530  27.572  28.873  1.00  0.00     0.074 A 
ATOM     39  C   UNL A   1      39.615  26.506  28.523  1.00  0.00     0.031 C 
ATOM     40  C   UNL A   1      46.241  24.645  28.832  1.00  0.00     0.029 A 
ATOM     41  C   UNL A   1      45.945  26.023  29.206  1.00  0.00     0.049 A 
ATOM     42  H   UNL A   1      44.079  26.946  29.271  1.00  0.00     0.167 HD
ATOM     43  C   UNL A   1      40.151  28.836  29.174  1.00  0.00     0.031 A 
ATOM     44  C   UNL A   1      46.861  26.938  29.573  1.00  0.00     0.031 A 
ATOM     45  C   UNL A   1      41.056  29.888  29.553  1.00  0.00     0.049 A 
ATOM     46  C   UNL A   1      46.422  28.346  29.852  1.00  0.00     0.074 A 
ATOM     47  C   UNL A   1      40.764  31.200  29.885  1.00  0.00     0.029 A 
ATOM     48  N   UNL A   1      42.430  29.742  29.663  1.00  0.00    -0.354 N 
ATOM     49  N   UNL A   1      45.212  28.850  29.841  1.00  0.00    -0.248 NA
ATOM     50  C   UNL A   1      47.479  29.316  30.172  1.00  0.00     0.031 C 
ATOM     51  C   UNL A   1      41.967  31.859  30.162  1.00  0.00     0.029 A 
ATOM     52  C   UNL A   1      43.002  30.945  30.041  1.00  0.00     0.049 A 
ATOM     53  H   UNL A   1      42.925  28.908  29.499  1.00  0.00     0.167 HD
ATOM     54  C   UNL A   1      45.361  30.193  30.154  1.00  0.00     0.074 A 
ATOM     55  C   UNL A   1      46.775  30.422  30.372  1.00  0.00     0.031 C 
ATOM     56  C   UNL A   1      44.410  31.155  30.245  1.00  0.00     0.031 A 
BRANCH  43  57
ATOM     57  C   UNL A   1      38.691  29.165  29.059  1.00  0.00    -0.014 A 
ATOM     58  C   UNL A   1      37.831  29.080  30.165  1.00  0.00     0.009 A 
ATOM     59  C   UNL A   1      38.176  29.597  27.827  1.00  0.00     0.009 A 
ATOM     60  C   UNL A   1      36.478  29.397  30.030  1.00  0.00     0.001 A 
ATOM     61  C   UNL A   1      36.829  29.934  27.700  1.00  0.00     0.001 A 
ATOM     62  C   UNL A   1      35.978  29.827  28.800  1.00  0.00     0.000 A 
ENDBRANCH  43  57
BRANCH  44  63
ATOM     63  C   UNL A   1      48.296  26.564  29.638  1.00  0.00    -0.014 A 
ATOM     64  C   UNL A   1      48.840  26.022  30.810  1.00  0.00     0.009 A 
ATOM     65  C   UNL A   1      49.127  26.740  28.519  1.00  0.00     0.009 A 
ATOM     66  C   UNL A   1      50.192  25.675  30.866  1.00  0.00     0.001 A 
ATOM     67  C   UNL A   1      50.471  26.368  28.570  1.00  0.00     0.001 A 
ATOM     68  C   UNL A   1      51.005  25.842  29.745  1.00  0.00     0.000 A 
ENDBRANCH  44  63
BRANCH  56  69
ATOM     69  C   UNL A   1      44.871  32.535  30.607  1.00  0.00    -0.014 A 
ATOM     70  C   UNL A   1      44.987  32.925  31.950  1.00  0.00     0.009 A 
ATOM     71  C   UNL A   1      45.227  33.441  29.597  1.00  0.00     0.009 A 
ATOM     72  C   UNL A   1      45.427  34.209  32.273  1.00  0.00     0.001 A 
ATOM     73  C   UNL A   1      45.685  34.717  29.924  1.00  0.00     0.001 A 
ATOM     74  C   UNL A   1      45.780  35.102  31.261  1.00  0.00     0.000 A 
ENDBRANCH  56  69
ENDBRANCH  30  31
ENDBRANCH  23  25
ENDBRANCH  22  23
ENDBRANCH  21  22
ENDBRANCH   1  21
TORSDOF 13
ENDMDL
MODEL 3
REMARK VINA RESULT:     -10.0      4.081      8.877
REMARK SMILES C/C(=C/C[N@H+]1C[C@H]2CCC[N@H+]2C[C@@H]1C)C(=O)OCCOC(=O)c1ccc(-c2c3nc(c(-c4ccccc4)c4ccc([nH]4)c(-c4ccccc4)c4nc(c(-c5ccccc5)c5ccc2[nH]5)C=C4)C=C3)cc1
REMARK SMILES IDX 18 1 17 2 15 3 16 4 2 5 1 6 3 7 4 8 5 9 6 10 13 11 7 13
REMARK SMILES IDX 12 14 14 15 8 16 11 17 9 18 10 19 19 21 20 22 21 23 22 24
REMARK SMILES IDX 23 25 24 26 70 27 25 28 69 29 26 30 27 31 28 32 63 33 29 34
REMARK SMILES IDX 68 35 62 36 64 37 30 38 67 39 61 40 60 41 31 43 53 44 38 45
REMARK SMILES IDX 52 46 39 47 42 48 51 49 65 50 40 51 41 52 50 54 66 55 43 56
REMARK SMILES IDX 32 57 33 58 37 59 34 60 36 61 35 62 54 63 55 64 59 65 56 66
REMARK SMILES IDX 58 67 57 68 44 69 45 70 49 71 46 72 48 73 47 74
REMARK H PARENT 5 12 11 20 64 42 42 53
REMARK Flexibility Score: inf
ROOT
ATOM      1  C   UNL A   1      32.583  31.100  26.917  1.00  0.00     0.275 C 
ENDROOT
BRANCH   1   2
ATOM      2  O   UNL A   1      31.704  29.962  26.831  1.00  0.00    -0.459 OA
BRANCH   2   3
ATOM      3  C   UNL A   1      32.147  28.792  27.349  1.00  0.00     0.333 C 
ATOM      4  O   UNL A   1      31.473  27.983  27.968  1.00  0.00    -0.247 OA
BRANCH   3   5
ATOM      5  C   UNL A   1      33.537  28.507  26.890  1.00  0.00     0.036 C 
ATOM      6  C   UNL A   1      34.635  29.228  27.621  1.00  0.00     0.052 C 
ATOM      7  C   UNL A   1      33.843  27.766  25.808  1.00  0.00     0.044 C 
BRANCH   7   8
ATOM      8  C   UNL A   1      32.921  27.190  24.775  1.00  0.00     0.292 C 
BRANCH   8   9
ATOM      9  N   UNL A   1      32.827  25.738  24.945  1.00  0.00    -0.320 N 
ATOM     10  C   UNL A   1      33.975  25.164  25.664  1.00  0.00     0.328 C 
ATOM     11  C   UNL A   1      31.535  25.324  25.546  1.00  0.00     0.237 C 
ATOM     12  H   UNL A   1      32.858  25.347  24.003  1.00  0.00     0.348 HD
ATOM     13  C   UNL A   1      33.845  23.634  25.785  1.00  0.00     0.240 C 
ATOM     14  C   UNL A   1      31.652  24.248  26.676  1.00  0.00     0.328 C 
ATOM     15  C   UNL A   1      30.637  24.826  24.411  1.00  0.00     0.081 C 
ATOM     16  C   UNL A   1      34.973  23.027  26.617  1.00  0.00     0.077 C 
ATOM     17  N   UNL A   1      32.583  23.152  26.384  1.00  0.00    -0.323 N 
ATOM     18  C   UNL A   1      34.314  21.836  27.282  1.00  0.00     0.068 C 
ATOM     19  C   UNL A   1      32.915  22.354  27.567  1.00  0.00     0.263 C 
ATOM     20  H   UNL A   1      32.087  22.564  25.714  1.00  0.00     0.348 HD
ENDBRANCH   8   9
ENDBRANCH   7   8
ENDBRANCH   3   5
ENDBRANCH   2   3
ENDBRANCH   1   2
BRANCH   1  21
ATOM     21  C   UNL A   1      31.780  32.334  27.323  1.00  0.00     0.275 C 
BRANCH  21  22
ATOM     22  O   UNL A   1      32.628  33.493  27.250  1.00  0.00    -0.458 OA
BRANCH  22  23
ATOM     23  C   UNL A   1      33.037  34.001  28.432  1.00  0.00     0.338 C 
ATOM     24  O   UNL A   1      32.432  34.743  29.188  1.00  0.00    -0.246 OA
BRANCH  23  25
ATOM     25  C   UNL A   1      34.361  33.445  28.733  1.00  0.00     0.060 A 
ATOM     26  C   UNL A   1      34.494  32.617  29.844  1.00  0.00     0.016 A 
ATOM     27  C   UNL A   1      35.474  33.797  27.972  1.00  0.00     0.016 A 
ATOM     28  C   UNL A   1      35.751  32.180  30.247  1.00  0.00     0.010 A 
ATOM     29  C   UNL A   1      36.728  33.293  28.331  1.00  0.00     0.010 A 
ATOM     30  C   UNL A   1      36.882  32.499  29.484  1.00  0.00    -0.014 A 
BRANCH  30  31
ATOM     31  C   UNL A   1      38.223  32.014  29.897  1.00  0.00     0.031 A 
ATOM     32  C   UNL A   1      38.754  30.714  29.361  1.00  0.00     0.074 A 
ATOM     33  C   UNL A   1      38.972  32.739  30.751  1.00  0.00     0.049 A 
ATOM     34  N   UNL A   1      39.816  30.042  29.726  1.00  0.00    -0.248 NA
ATOM     35  C   UNL A   1      37.986  30.083  28.276  1.00  0.00     0.031 C 
ATOM     36  C   UNL A   1      38.607  34.045  31.305  1.00  0.00     0.029 A 
ATOM     37  N   UNL A   1      40.202  32.478  31.301  1.00  0.00    -0.354 N 
ATOM     38  C   UNL A   1      39.816  28.887  28.955  1.00  0.00     0.074 A 
ATOM     39  C   UNL A   1      38.651  28.950  28.097  1.00  0.00     0.031 C 
ATOM     40  C   UNL A   1      39.602  34.480  32.093  1.00  0.00     0.029 A 
ATOM     41  C   UNL A   1      40.635  33.454  32.164  1.00  0.00     0.049 A 
ATOM     42  H   UNL A   1      40.724  31.668  31.097  1.00  0.00     0.167 HD
ATOM     43  C   UNL A   1      40.703  27.864  28.965  1.00  0.00     0.031 A 
ATOM     44  C   UNL A   1      41.721  33.504  32.957  1.00  0.00     0.031 A 
ATOM     45  C   UNL A   1      41.878  27.815  29.794  1.00  0.00     0.049 A 
ATOM     46  C   UNL A   1      42.662  32.336  32.989  1.00  0.00     0.074 A 
ATOM     47  C   UNL A   1      42.841  26.823  29.867  1.00  0.00     0.029 A 
ATOM     48  N   UNL A   1      42.255  28.809  30.683  1.00  0.00    -0.354 N 
ATOM     49  N   UNL A   1      42.623  31.226  32.293  1.00  0.00    -0.248 NA
ATOM     50  C   UNL A   1      43.787  32.418  33.933  1.00  0.00     0.031 C 
ATOM     51  C   UNL A   1      43.784  27.202  30.829  1.00  0.00     0.029 A 
ATOM     52  C   UNL A   1      43.428  28.446  31.323  1.00  0.00     0.049 A 
ATOM     53  H   UNL A   1      41.763  29.648  30.836  1.00  0.00     0.167 HD
ATOM     54  C   UNL A   1      43.714  30.479  32.712  1.00  0.00     0.074 A 
ATOM     55  C   UNL A   1      44.411  31.270  33.705  1.00  0.00     0.031 C 
ATOM     56  C   UNL A   1      44.101  29.243  32.314  1.00  0.00     0.031 A 
BRANCH  43  57
ATOM     57  C   UNL A   1      40.409  26.687  28.082  1.00  0.00    -0.014 A 
ATOM     58  C   UNL A   1      40.932  26.597  26.783  1.00  0.00     0.009 A 
ATOM     59  C   UNL A   1      39.619  25.636  28.574  1.00  0.00     0.009 A 
ATOM     60  C   UNL A   1      40.646  25.487  25.985  1.00  0.00     0.001 A 
ATOM     61  C   UNL A   1      39.353  24.519  27.782  1.00  0.00     0.001 A 
ATOM     62  C   UNL A   1      39.860  24.448  26.486  1.00  0.00     0.000 A 
ENDBRANCH  43  57
BRANCH  44  63
ATOM     63  C   UNL A   1      41.943  34.681  33.835  1.00  0.00    -0.014 A 
ATOM     64  C   UNL A   1      42.674  35.785  33.376  1.00  0.00     0.009 A 
ATOM     65  C   UNL A   1      41.414  34.707  35.136  1.00  0.00     0.009 A 
ATOM     66  C   UNL A   1      42.883  36.889  34.208  1.00  0.00     0.001 A 
ATOM     67  C   UNL A   1      41.601  35.821  35.955  1.00  0.00     0.001 A 
ATOM     68  C   UNL A   1      42.341  36.908  35.493  1.00  0.00     0.000 A 
ENDBRANCH  44  63
BRANCH  56  69
ATOM     69  C   UNL A   1      45.339  28.681  32.946  1.00  0.00    -0.014 A 
ATOM     70  C   UNL A   1      46.597  28.866  32.353  1.00  0.00     0.009 A 
ATOM     71  C   UNL A   1      45.251  27.991  34.164  1.00  0.00     0.009 A 
ATOM     72  C   UNL A   1      47.743  28.348  32.958  1.00  0.00     0.001 A 
ATOM     73  C   UNL A   1      46.400  27.491  34.776  1.00  0.00     0.001 A 
ATOM     74  C   UNL A   1      47.644  27.664  34.170  1.00  0.00     0.000 A 
ENDBRANCH  56  69
ENDBRANCH  30  31
ENDBRANCH  23  25
ENDBRANCH  22  23
ENDBRANCH  21  22
ENDBRANCH   1  21
TORSDOF 13
ENDMDL
