MODEL 1
REMARK VINA RESULT:     -10.7      0.000      0.000
REMARK SMILES CC[NH2+][C@@]1(C(=O)OCCOC(=O)c2ccc(-c3c4nc(c(-c5ccccc5)c5ccc([nH]5)c(-c5ccccc5)c5nc(c(-c6ccccc6)c6ccc3[nH]6)C=C5)C=C4)cc2)CC[C@H](Oc2ccc3c(c2)OCO3)C1
REMARK SMILES IDX 8 1 7 2 5 3 6 4 4 5 61 6 74 7 62 8 63 9 3 10 2 13 1 14 64 15
REMARK SMILES IDX 65 16 66 17 70 18 67 19 69 20 68 21 71 22 73 23 72 24 9 25
REMARK SMILES IDX 10 26 11 27 12 28 13 29 14 30 60 31 15 32 59 33 16 34 17 35
REMARK SMILES IDX 18 36 53 37 19 38 58 39 52 40 54 41 20 42 57 43 51 44 50 45
REMARK SMILES IDX 21 47 43 48 28 49 42 50 29 51 32 52 41 53 55 54 30 55 31 56
REMARK SMILES IDX 40 58 56 59 33 60 22 61 23 62 27 63 24 64 26 65 25 66 44 67
REMARK SMILES IDX 45 68 49 69 46 70 48 71 47 72 34 73 35 74 39 75 36 76 38 77
REMARK SMILES IDX 37 78
REMARK H PARENT 3 11 3 12 54 46 32 57
REMARK Flexibility Score: inf
ROOT
ATOM      1  C   UNL A   1      36.643  22.570  23.708  1.00  0.00     0.274 C 
ENDROOT
BRANCH   1   2
ATOM      2  O   UNL A   1      35.643  23.334  24.409  1.00  0.00    -0.457 OA
BRANCH   2   3
ATOM      3  C   UNL A   1      34.357  23.212  23.983  1.00  0.00     0.368 C 
ATOM      4  O   UNL A   1      34.051  23.148  22.795  1.00  0.00    -0.245 OA
BRANCH   3   5
ATOM      5  C   UNL A   1      33.318  23.258  25.166  1.00  0.00     0.198 C 
ATOM      6  C   UNL A   1      33.953  22.711  26.448  1.00  0.00     0.085 C 
ATOM      7  C   UNL A   1      32.121  22.299  24.976  1.00  0.00     0.126 C 
ATOM      8  C   UNL A   1      33.866  21.200  26.295  1.00  0.00     0.052 C 
ATOM      9  C   UNL A   1      32.571  20.928  25.518  1.00  0.00     0.180 C 
BRANCH   5  10
ATOM     10  N   UNL A   1      32.793  24.644  25.312  1.00  0.00    -0.332 N 
ATOM     11  H   UNL A   1      32.266  24.872  24.469  1.00  0.00     0.347 HD
ATOM     12  H   UNL A   1      32.225  24.643  26.160  1.00  0.00     0.347 HD
BRANCH  10  13
ATOM     13  C   UNL A   1      33.810  25.681  25.504  1.00  0.00     0.257 C 
ATOM     14  C   UNL A   1      33.153  26.918  26.096  1.00  0.00     0.071 C 
ENDBRANCH  10  13
ENDBRANCH   5  10
BRANCH   9  15
ATOM     15  O   UNL A   1      32.761  20.076  24.392  1.00  0.00    -0.490 OA
BRANCH  15  16
ATOM     16  C   UNL A   1      33.246  18.816  24.562  1.00  0.00     0.123 A 
ATOM     17  C   UNL A   1      34.570  18.403  24.335  1.00  0.00     0.050 A 
ATOM     18  C   UNL A   1      32.288  17.901  25.009  1.00  0.00     0.097 A 
ATOM     19  C   UNL A   1      34.937  17.064  24.529  1.00  0.00     0.054 A 
ATOM     20  C   UNL A   1      32.677  16.597  25.204  1.00  0.00     0.169 A 
ATOM     21  C   UNL A   1      33.968  16.188  24.967  1.00  0.00     0.166 A 
ATOM     22  O   UNL A   1      31.880  15.584  25.639  1.00  0.00    -0.453 OA
ATOM     23  O   UNL A   1      34.144  14.866  25.228  1.00  0.00    -0.454 OA
ATOM     24  C   UNL A   1      32.847  14.522  25.760  1.00  0.00     0.468 C 
ENDBRANCH  15  16
ENDBRANCH   9  15
ENDBRANCH   3   5
ENDBRANCH   2   3
ENDBRANCH   1   2
BRANCH   1  25
ATOM     25  C   UNL A   1      37.068  21.344  24.516  1.00  0.00     0.275 C 
BRANCH  25  26
ATOM     26  O   UNL A   1      37.530  21.731  25.823  1.00  0.00    -0.458 OA
BRANCH  26  27
ATOM     27  C   UNL A   1      38.838  21.475  26.060  1.00  0.00     0.338 C 
ATOM     28  O   UNL A   1      39.471  20.481  25.747  1.00  0.00    -0.246 OA
BRANCH  27  29
ATOM     29  C   UNL A   1      39.477  22.669  26.637  1.00  0.00     0.060 A 
ATOM     30  C   UNL A   1      39.000  23.909  26.209  1.00  0.00     0.016 A 
ATOM     31  C   UNL A   1      40.559  22.589  27.516  1.00  0.00     0.016 A 
ATOM     32  C   UNL A   1      39.592  25.081  26.666  1.00  0.00     0.010 A 
ATOM     33  C   UNL A   1      41.169  23.771  27.961  1.00  0.00     0.010 A 
ATOM     34  C   UNL A   1      40.691  25.022  27.531  1.00  0.00    -0.014 A 
BRANCH  34  35
ATOM     35  C   UNL A   1      41.371  26.286  27.895  1.00  0.00     0.031 A 
ATOM     36  C   UNL A   1      42.708  26.606  27.291  1.00  0.00     0.074 A 
ATOM     37  C   UNL A   1      40.747  27.191  28.670  1.00  0.00     0.049 A 
ATOM     38  N   UNL A   1      43.441  27.681  27.430  1.00  0.00    -0.248 NA
ATOM     39  C   UNL A   1      43.290  25.586  26.405  1.00  0.00     0.031 C 
ATOM     40  C   UNL A   1      39.417  27.028  29.256  1.00  0.00     0.029 A 
ATOM     41  N   UNL A   1      41.142  28.442  29.074  1.00  0.00    -0.354 N 
ATOM     42  C   UNL A   1      44.564  27.475  26.640  1.00  0.00     0.074 A 
ATOM     43  C   UNL A   1      44.429  26.161  26.045  1.00  0.00     0.031 C 
ATOM     44  C   UNL A   1      39.096  28.148  29.925  1.00  0.00     0.029 A 
ATOM     45  C   UNL A   1      40.211  29.089  29.849  1.00  0.00     0.049 A 
ATOM     46  H   UNL A   1      42.009  28.838  28.830  1.00  0.00     0.167 HD
ATOM     47  C   UNL A   1      45.612  28.304  26.424  1.00  0.00     0.031 A 
ATOM     48  C   UNL A   1      40.261  30.297  30.441  1.00  0.00     0.031 A 
ATOM     49  C   UNL A   1      45.770  29.594  27.040  1.00  0.00     0.049 A 
ATOM     50  C   UNL A   1      41.488  31.152  30.269  1.00  0.00     0.074 A 
ATOM     51  C   UNL A   1      46.829  30.480  26.930  1.00  0.00     0.029 A 
ATOM     52  N   UNL A   1      44.842  30.182  27.883  1.00  0.00    -0.354 N 
ATOM     53  N   UNL A   1      42.553  30.936  29.536  1.00  0.00    -0.248 NA
ATOM     54  C   UNL A   1      41.518  32.422  31.011  1.00  0.00     0.031 C 
ATOM     55  C   UNL A   1      46.557  31.589  27.740  1.00  0.00     0.029 A 
ATOM     56  C   UNL A   1      45.308  31.414  28.313  1.00  0.00     0.049 A 
ATOM     57  H   UNL A   1      43.979  29.785  28.140  1.00  0.00     0.167 HD
ATOM     58  C   UNL A   1      43.367  32.049  29.713  1.00  0.00     0.074 A 
ATOM     59  C   UNL A   1      42.661  32.949  30.600  1.00  0.00     0.031 C 
ATOM     60  C   UNL A   1      44.593  32.300  29.191  1.00  0.00     0.031 A 
BRANCH  47  61
ATOM     61  C   UNL A   1      46.690  27.817  25.501  1.00  0.00    -0.014 A 
ATOM     62  C   UNL A   1      46.657  28.116  24.130  1.00  0.00     0.009 A 
ATOM     63  C   UNL A   1      47.765  27.075  26.013  1.00  0.00     0.009 A 
ATOM     64  C   UNL A   1      47.668  27.656  23.284  1.00  0.00     0.001 A 
ATOM     65  C   UNL A   1      48.786  26.636  25.168  1.00  0.00     0.001 A 
ATOM     66  C   UNL A   1      48.733  26.921  23.804  1.00  0.00     0.000 A 
ENDBRANCH  47  61
BRANCH  48  67
ATOM     67  C   UNL A   1      39.138  30.771  31.292  1.00  0.00    -0.014 A 
ATOM     68  C   UNL A   1      39.079  30.439  32.655  1.00  0.00     0.009 A 
ATOM     69  C   UNL A   1      38.083  31.505  30.728  1.00  0.00     0.009 A 
ATOM     70  C   UNL A   1      37.968  30.799  33.424  1.00  0.00     0.001 A 
ATOM     71  C   UNL A   1      36.990  31.890  31.505  1.00  0.00     0.001 A 
ATOM     72  C   UNL A   1      36.926  31.524  32.848  1.00  0.00     0.000 A 
ENDBRANCH  48  67
BRANCH  60  73
ATOM     73  C   UNL A   1      45.228  33.616  29.543  1.00  0.00    -0.014 A 
ATOM     74  C   UNL A   1      46.068  33.744  30.661  1.00  0.00     0.009 A 
ATOM     75  C   UNL A   1      45.003  34.737  28.729  1.00  0.00     0.009 A 
ATOM     76  C   UNL A   1      46.636  34.979  30.978  1.00  0.00     0.001 A 
ATOM     77  C   UNL A   1      45.595  35.963  29.033  1.00  0.00     0.001 A 
ATOM     78  C   UNL A   1      46.402  36.086  30.163  1.00  0.00     0.000 A 
ENDBRANCH  60  73
ENDBRANCH  34  35
ENDBRANCH  27  29
ENDBRANCH  26  27
ENDBRANCH  25  26
ENDBRANCH   1  25
TORSDOF 15
ENDMDL
MODEL 2
REMARK VINA RESULT:     -10.6      5.826     10.932
REMARK SMILES CC[NH2+][C@@]1(C(=O)OCCOC(=O)c2ccc(-c3c4nc(c(-c5ccccc5)c5ccc([nH]5)c(-c5ccccc5)c5nc(c(-c6ccccc6)c6ccc3[nH]6)C=C5)C=C4)cc2)CC[C@H](Oc2ccc3c(c2)OCO3)C1
REMARK SMILES IDX 8 1 7 2 5 3 6 4 4 5 61 6 74 7 62 8 63 9 3 10 2 13 1 14 64 15
REMARK SMILES IDX 65 16 66 17 70 18 67 19 69 20 68 21 71 22 73 23 72 24 9 25
REMARK SMILES IDX 10 26 11 27 12 28 13 29 14 30 60 31 15 32 59 33 16 34 17 35
REMARK SMILES IDX 18 36 53 37 19 38 58 39 52 40 54 41 20 42 57 43 51 44 50 45
REMARK SMILES IDX 21 47 43 48 28 49 42 50 29 51 32 52 41 53 55 54 30 55 31 56
REMARK SMILES IDX 40 58 56 59 33 60 22 61 23 62 27 63 24 64 26 65 25 66 44 67
REMARK SMILES IDX 45 68 49 69 46 70 48 71 47 72 34 73 35 74 39 75 36 76 38 77
REMARK SMILES IDX 37 78
REMARK H PARENT 3 11 3 12 54 46 32 57
REMARK Flexibility Score: inf
ROOT
ATOM      1  C   UNL A   1      34.679  33.384  29.486  1.00  0.00     0.274 C 
ENDROOT
BRANCH   1   2
ATOM      2  O   UNL A   1      34.001  33.853  30.667  1.00  0.00    -0.457 OA
BRANCH   2   3
ATOM      3  C   UNL A   1      34.419  33.355  31.862  1.00  0.00     0.368 C 
ATOM      4  O   UNL A   1      34.451  32.153  32.109  1.00  0.00    -0.245 OA
BRANCH   3   5
ATOM      5  C   UNL A   1      34.764  34.486  32.903  1.00  0.00     0.198 C 
ATOM      6  C   UNL A   1      36.090  35.157  32.535  1.00  0.00     0.085 C 
ATOM      7  C   UNL A   1      35.067  33.950  34.321  1.00  0.00     0.126 C 
ATOM      8  C   UNL A   1      37.152  34.206  33.064  1.00  0.00     0.052 C 
ATOM      9  C   UNL A   1      36.563  33.579  34.336  1.00  0.00     0.180 C 
BRANCH   5  10
ATOM     10  N   UNL A   1      33.624  35.440  32.994  1.00  0.00    -0.332 N 
ATOM     11  H   UNL A   1      32.903  35.134  32.340  1.00  0.00     0.347 HD
ATOM     12  H   UNL A   1      33.322  35.428  33.968  1.00  0.00     0.347 HD
BRANCH  10  13
ATOM     13  C   UNL A   1      33.950  36.835  32.687  1.00  0.00     0.257 C 
ATOM     14  C   UNL A   1      33.206  37.254  31.429  1.00  0.00     0.071 C 
ENDBRANCH  10  13
ENDBRANCH   5  10
BRANCH   9  15
ATOM     15  O   UNL A   1      36.640  32.157  34.348  1.00  0.00    -0.490 OA
BRANCH  15  16
ATOM     16  C   UNL A   1      37.851  31.538  34.412  1.00  0.00     0.123 A 
ATOM     17  C   UNL A   1      38.955  31.960  35.171  1.00  0.00     0.050 A 
ATOM     18  C   UNL A   1      37.932  30.381  33.631  1.00  0.00     0.097 A 
ATOM     19  C   UNL A   1      40.158  31.242  35.132  1.00  0.00     0.054 A 
ATOM     20  C   UNL A   1      39.119  29.687  33.621  1.00  0.00     0.169 A 
ATOM     21  C   UNL A   1      40.205  30.108  34.350  1.00  0.00     0.166 A 
ATOM     22  O   UNL A   1      39.368  28.545  32.926  1.00  0.00    -0.453 OA
ATOM     23  O   UNL A   1      41.273  29.278  34.208  1.00  0.00    -0.454 OA
ATOM     24  C   UNL A   1      40.694  28.234  33.395  1.00  0.00     0.468 C 
ENDBRANCH  15  16
ENDBRANCH   9  15
ENDBRANCH   3   5
ENDBRANCH   2   3
ENDBRANCH   1   2
BRANCH   1  25
ATOM     25  C   UNL A   1      33.730  32.602  28.579  1.00  0.00     0.275 C 
BRANCH  25  26
ATOM     26  O   UNL A   1      34.467  31.857  27.592  1.00  0.00    -0.458 OA
BRANCH  26  27
ATOM     27  C   UNL A   1      34.537  30.525  27.823  1.00  0.00     0.338 C 
ATOM     28  O   UNL A   1      33.682  29.685  27.598  1.00  0.00    -0.246 OA
BRANCH  27  29
ATOM     29  C   UNL A   1      35.897  30.171  28.259  1.00  0.00     0.060 A 
ATOM     30  C   UNL A   1      36.916  30.300  27.315  1.00  0.00     0.016 A 
ATOM     31  C   UNL A   1      36.167  29.659  29.530  1.00  0.00     0.016 A 
ATOM     32  C   UNL A   1      38.218  29.930  27.636  1.00  0.00     0.010 A 
ATOM     33  C   UNL A   1      37.475  29.266  29.847  1.00  0.00     0.010 A 
ATOM     34  C   UNL A   1      38.504  29.395  28.897  1.00  0.00    -0.014 A 
BRANCH  34  35
ATOM     35  C   UNL A   1      39.875  28.898  29.157  1.00  0.00     0.031 A 
ATOM     36  C   UNL A   1      40.819  29.730  29.975  1.00  0.00     0.074 A 
ATOM     37  C   UNL A   1      40.234  27.663  28.761  1.00  0.00     0.049 A 
ATOM     38  N   UNL A   1      42.037  29.454  30.367  1.00  0.00    -0.248 NA
ATOM     39  C   UNL A   1      40.323  31.042  30.420  1.00  0.00     0.031 C 
ATOM     40  C   UNL A   1      39.382  26.731  28.024  1.00  0.00     0.029 A 
ATOM     41  N   UNL A   1      41.405  26.972  28.950  1.00  0.00    -0.354 N 
ATOM     42  C   UNL A   1      42.448  30.549  31.117  1.00  0.00     0.074 A 
ATOM     43  C   UNL A   1      41.361  31.505  31.101  1.00  0.00     0.031 C 
ATOM     44  C   UNL A   1      40.050  25.579  27.844  1.00  0.00     0.029 A 
ATOM     45  C   UNL A   1      41.389  25.707  28.416  1.00  0.00     0.049 A 
ATOM     46  H   UNL A   1      42.181  27.347  29.424  1.00  0.00     0.167 HD
ATOM     47  C   UNL A   1      43.623  30.740  31.762  1.00  0.00     0.031 A 
ATOM     48  C   UNL A   1      42.351  24.766  28.381  1.00  0.00     0.031 A 
ATOM     49  C   UNL A   1      44.720  29.810  31.750  1.00  0.00     0.049 A 
ATOM     50  C   UNL A   1      43.685  25.052  29.016  1.00  0.00     0.074 A 
ATOM     51  C   UNL A   1      45.973  29.945  32.324  1.00  0.00     0.029 A 
ATOM     52  N   UNL A   1      44.695  28.572  31.130  1.00  0.00    -0.354 N 
ATOM     53  N   UNL A   1      44.069  26.101  29.702  1.00  0.00    -0.248 NA
ATOM     54  C   UNL A   1      44.722  24.019  28.867  1.00  0.00     0.031 C 
ATOM     55  C   UNL A   1      46.720  28.802  32.017  1.00  0.00     0.029 A 
ATOM     56  C   UNL A   1      45.914  27.937  31.295  1.00  0.00     0.049 A 
ATOM     57  H   UNL A   1      43.925  28.198  30.644  1.00  0.00     0.167 HD
ATOM     58  C   UNL A   1      45.381  25.844  30.085  1.00  0.00     0.074 A 
ATOM     59  C   UNL A   1      45.717  24.531  29.576  1.00  0.00     0.031 C 
ATOM     60  C   UNL A   1      46.233  26.628  30.788  1.00  0.00     0.031 A 
BRANCH  47  61
ATOM     61  C   UNL A   1      43.789  32.030  32.511  1.00  0.00    -0.014 A 
ATOM     62  C   UNL A   1      44.249  33.186  31.864  1.00  0.00     0.009 A 
ATOM     63  C   UNL A   1      43.455  32.095  33.872  1.00  0.00     0.009 A 
ATOM     64  C   UNL A   1      44.398  34.379  32.575  1.00  0.00     0.001 A 
ATOM     65  C   UNL A   1      43.583  33.295  34.574  1.00  0.00     0.001 A 
ATOM     66  C   UNL A   1      44.060  34.433  33.926  1.00  0.00     0.000 A 
ENDBRANCH  47  61
BRANCH  48  67
ATOM     67  C   UNL A   1      42.119  23.472  27.686  1.00  0.00    -0.014 A 
ATOM     68  C   UNL A   1      42.495  23.298  26.345  1.00  0.00     0.009 A 
ATOM     69  C   UNL A   1      41.460  22.422  28.346  1.00  0.00     0.009 A 
ATOM     70  C   UNL A   1      42.179  22.116  25.669  1.00  0.00     0.001 A 
ATOM     71  C   UNL A   1      41.174  21.232  27.677  1.00  0.00     0.001 A 
ATOM     72  C   UNL A   1      41.521  21.085  26.336  1.00  0.00     0.000 A 
ENDBRANCH  48  67
BRANCH  60  73
ATOM     73  C   UNL A   1      47.598  26.069  31.076  1.00  0.00    -0.014 A 
ATOM     74  C   UNL A   1      47.931  25.577  32.349  1.00  0.00     0.009 A 
ATOM     75  C   UNL A   1      48.556  26.011  30.052  1.00  0.00     0.009 A 
ATOM     76  C   UNL A   1      49.209  25.075  32.599  1.00  0.00     0.001 A 
ATOM     77  C   UNL A   1      49.824  25.483  30.298  1.00  0.00     0.001 A 
ATOM     78  C   UNL A   1      50.153  25.025  31.573  1.00  0.00     0.000 A 
ENDBRANCH  60  73
ENDBRANCH  34  35
ENDBRANCH  27  29
ENDBRANCH  26  27
ENDBRANCH  25  26
ENDBRANCH   1  25
TORSDOF 15
ENDMDL
MODEL 3
REMARK VINA RESULT:     -10.5      2.197      2.859
REMARK SMILES CC[NH2+][C@@]1(C(=O)OCCOC(=O)c2ccc(-c3c4nc(c(-c5ccccc5)c5ccc([nH]5)c(-c5ccccc5)c5nc(c(-c6ccccc6)c6ccc3[nH]6)C=C5)C=C4)cc2)CC[C@H](Oc2ccc3c(c2)OCO3)C1
REMARK SMILES IDX 8 1 7 2 5 3 6 4 4 5 61 6 74 7 62 8 63 9 3 10 2 13 1 14 64 15
REMARK SMILES IDX 65 16 66 17 70 18 67 19 69 20 68 21 71 22 73 23 72 24 9 25
REMARK SMILES IDX 10 26 11 27 12 28 13 29 14 30 60 31 15 32 59 33 16 34 17 35
REMARK SMILES IDX 18 36 53 37 19 38 58 39 52 40 54 41 20 42 57 43 51 44 50 45
REMARK SMILES IDX 21 47 43 48 28 49 42 50 29 51 32 52 41 53 55 54 30 55 31 56
REMARK SMILES IDX 40 58 56 59 33 60 22 61 23 62 27 63 24 64 26 65 25 66 44 67
REMARK SMILES IDX 45 68 49 69 46 70 48 71 47 72 34 73 35 74 39 75 36 76 38 77
REMARK SMILES IDX 37 78
REMARK H PARENT 3 11 3 12 54 46 32 57
REMARK Flexibility Score: inf
ROOT
ATOM      1  C   UNL A   1      37.576  20.885  25.233  1.00  0.00     0.274 C 
ENDROOT
BRANCH   1   2
ATOM      2  O   UNL A   1      36.877  22.100  25.565  1.00  0.00    -0.457 OA
BRANCH   2   3
ATOM      3  C   UNL A   1      35.875  22.488  24.730  1.00  0.00     0.368 C 
ATOM      4  O   UNL A   1      36.000  22.524  23.509  1.00  0.00    -0.245 OA
BRANCH   3   5
ATOM      5  C   UNL A   1      34.590  22.966  25.506  1.00  0.00     0.198 C 
ATOM      6  C   UNL A   1      34.492  22.252  26.857  1.00  0.00     0.085 C 
ATOM      7  C   UNL A   1      33.266  22.543  24.830  1.00  0.00     0.126 C 
ATOM      8  C   UNL A   1      33.905  20.889  26.519  1.00  0.00     0.052 C 
ATOM      9  C   UNL A   1      32.954  21.120  25.336  1.00  0.00     0.180 C 
BRANCH   5  10
ATOM     10  N   UNL A   1      34.605  24.451  25.623  1.00  0.00    -0.332 N 
ATOM     11  H   UNL A   1      35.325  24.707  26.300  1.00  0.00     0.347 HD
ATOM     12  H   UNL A   1      34.784  24.807  24.684  1.00  0.00     0.347 HD
BRANCH  10  13
ATOM     13  C   UNL A   1      33.343  25.058  26.055  1.00  0.00     0.257 C 
ATOM     14  C   UNL A   1      33.274  26.485  25.535  1.00  0.00     0.071 C 
ENDBRANCH  10  13
ENDBRANCH   5  10
BRANCH   9  15
ATOM     15  O   UNL A   1      33.187  20.231  24.248  1.00  0.00    -0.490 OA
BRANCH  15  16
ATOM     16  C   UNL A   1      33.567  18.946  24.485  1.00  0.00     0.123 A 
ATOM     17  C   UNL A   1      34.876  18.441  24.397  1.00  0.00     0.050 A 
ATOM     18  C   UNL A   1      32.510  18.106  24.849  1.00  0.00     0.097 A 
ATOM     19  C   UNL A   1      35.130  17.086  24.647  1.00  0.00     0.054 A 
ATOM     20  C   UNL A   1      32.789  16.783  25.101  1.00  0.00     0.169 A 
ATOM     21  C   UNL A   1      34.066  16.285  25.001  1.00  0.00     0.166 A 
ATOM     22  O   UNL A   1      31.886  15.835  25.471  1.00  0.00    -0.453 OA
ATOM     23  O   UNL A   1      34.126  14.960  25.299  1.00  0.00    -0.454 OA
ATOM     24  C   UNL A   1      32.762  14.715  25.704  1.00  0.00     0.468 C 
ENDBRANCH  15  16
ENDBRANCH   9  15
ENDBRANCH   3   5
ENDBRANCH   2   3
ENDBRANCH   1   2
BRANCH   1  25
ATOM     25  C   UNL A   1      39.064  20.997  25.561  1.00  0.00     0.275 C 
BRANCH  25  26
ATOM     26  O   UNL A   1      39.606  19.711  25.913  1.00  0.00    -0.458 OA
BRANCH  26  27
ATOM     27  C   UNL A   1      40.955  19.675  26.015  1.00  0.00     0.338 C 
ATOM     28  O   UNL A   1      41.707  18.796  25.628  1.00  0.00    -0.246 OA
BRANCH  27  29
ATOM     29  C   UNL A   1      41.445  20.959  26.538  1.00  0.00     0.060 A 
ATOM     30  C   UNL A   1      41.217  21.219  27.890  1.00  0.00     0.016 A 
ATOM     31  C   UNL A   1      42.048  21.920  25.722  1.00  0.00     0.016 A 
ATOM     32  C   UNL A   1      41.601  22.436  28.443  1.00  0.00     0.010 A 
ATOM     33  C   UNL A   1      42.415  23.155  26.275  1.00  0.00     0.010 A 
ATOM     34  C   UNL A   1      42.187  23.420  27.637  1.00  0.00    -0.014 A 
BRANCH  34  35
ATOM     35  C   UNL A   1      42.466  24.746  28.234  1.00  0.00     0.031 A 
ATOM     36  C   UNL A   1      43.878  25.111  28.592  1.00  0.00     0.074 A 
ATOM     37  C   UNL A   1      41.484  25.657  28.350  1.00  0.00     0.049 A 
ATOM     38  N   UNL A   1      44.344  26.238  29.067  1.00  0.00    -0.248 NA
ATOM     39  C   UNL A   1      44.900  24.076  28.375  1.00  0.00     0.031 C 
ATOM     40  C   UNL A   1      40.088  25.447  27.969  1.00  0.00     0.029 A 
ATOM     41  N   UNL A   1      41.519  26.954  28.797  1.00  0.00    -0.354 N 
ATOM     42  C   UNL A   1      45.715  26.054  29.193  1.00  0.00     0.074 A 
ATOM     43  C   UNL A   1      46.002  24.698  28.771  1.00  0.00     0.031 C 
ATOM     44  C   UNL A   1      39.403  26.585  28.176  1.00  0.00     0.029 A 
ATOM     45  C   UNL A   1      40.303  27.588  28.741  1.00  0.00     0.049 A 
ATOM     46  H   UNL A   1      42.339  27.388  29.125  1.00  0.00     0.167 HD
ATOM     47  C   UNL A   1      46.652  26.934  29.619  1.00  0.00     0.031 A 
ATOM     48  C   UNL A   1      39.953  28.833  29.117  1.00  0.00     0.031 A 
ATOM     49  C   UNL A   1      46.370  28.268  30.074  1.00  0.00     0.049 A 
ATOM     50  C   UNL A   1      41.000  29.752  29.688  1.00  0.00     0.074 A 
ATOM     51  C   UNL A   1      47.247  29.211  30.583  1.00  0.00     0.029 A 
ATOM     52  N   UNL A   1      45.112  28.848  30.078  1.00  0.00    -0.354 N 
ATOM     53  N   UNL A   1      42.289  29.558  29.822  1.00  0.00    -0.248 NA
ATOM     54  C   UNL A   1      40.537  31.066  30.161  1.00  0.00     0.031 C 
ATOM     55  C   UNL A   1      46.512  30.350  30.931  1.00  0.00     0.029 A 
ATOM     56  C   UNL A   1      45.186  30.132  30.592  1.00  0.00     0.049 A 
ATOM     57  H   UNL A   1      44.287  28.413  29.763  1.00  0.00     0.167 HD
ATOM     58  C   UNL A   1      42.793  30.730  30.374  1.00  0.00     0.074 A 
ATOM     59  C   UNL A   1      41.675  31.638  30.525  1.00  0.00     0.031 C 
ATOM     60  C   UNL A   1      44.067  31.026  30.731  1.00  0.00     0.031 A 
BRANCH  47  61
ATOM     61  C   UNL A   1      48.076  26.459  29.640  1.00  0.00    -0.014 A 
ATOM     62  C   UNL A   1      48.921  26.659  28.538  1.00  0.00     0.009 A 
ATOM     63  C   UNL A   1      48.584  25.828  30.786  1.00  0.00     0.009 A 
ATOM     64  C   UNL A   1      50.243  26.211  28.574  1.00  0.00     0.001 A 
ATOM     65  C   UNL A   1      49.913  25.403  30.827  1.00  0.00     0.001 A 
ATOM     66  C   UNL A   1      50.739  25.589  29.719  1.00  0.00     0.000 A 
ENDBRANCH  47  61
BRANCH  48  67
ATOM     67  C   UNL A   1      38.541  29.287  29.013  1.00  0.00    -0.014 A 
ATOM     68  C   UNL A   1      38.062  29.885  27.838  1.00  0.00     0.009 A 
ATOM     69  C   UNL A   1      37.681  29.181  30.118  1.00  0.00     0.009 A 
ATOM     70  C   UNL A   1      36.765  30.403  27.784  1.00  0.00     0.001 A 
ATOM     71  C   UNL A   1      36.376  29.671  30.052  1.00  0.00     0.001 A 
ATOM     72  C   UNL A   1      35.924  30.295  28.890  1.00  0.00     0.000 A 
ENDBRANCH  48  67
BRANCH  60  73
ATOM     73  C   UNL A   1      44.320  32.399  31.285  1.00  0.00    -0.014 A 
ATOM     74  C   UNL A   1      44.634  33.479  30.444  1.00  0.00     0.009 A 
ATOM     75  C   UNL A   1      44.219  32.621  32.667  1.00  0.00     0.009 A 
ATOM     76  C   UNL A   1      44.881  34.743  30.981  1.00  0.00     0.001 A 
ATOM     77  C   UNL A   1      44.439  33.892  33.199  1.00  0.00     0.001 A 
ATOM     78  C   UNL A   1      44.780  34.950  32.357  1.00  0.00     0.000 A 
ENDBRANCH  60  73
ENDBRANCH  34  35
ENDBRANCH  27  29
ENDBRANCH  26  27
ENDBRANCH  25  26
ENDBRANCH   1  25
TORSDOF 15
ENDMDL
