MODEL 1
REMARK VINA RESULT:     -11.7      0.000      0.000
REMARK SMILES COc1ccc(-c2ccc(S(=O)(=O)NC(C)(C)C)cc2)c(C(=O)OCCOC(=O)c2ccc(-c3c4nc(c(-c5ccccc5)c5ccc([nH]5)c(-c5ccccc5)c5nc(c(-c6ccccc6)c6ccc3[nH]6)C=C5)C=C4)cc2)c1
REMARK SMILES IDX 25 1 24 2 22 3 23 4 21 5 3 6 4 7 78 8 5 9 6 10 2 11 1 12
REMARK SMILES IDX 7 13 8 14 20 15 9 16 19 17 10 18 11 19 12 20 13 21 14 22
REMARK SMILES IDX 15 24 16 25 17 26 18 27 26 28 27 29 28 30 29 31 30 32 31 33
REMARK SMILES IDX 77 34 32 35 76 36 33 37 34 38 35 39 70 40 36 41 75 42 69 43
REMARK SMILES IDX 71 44 37 45 74 46 68 47 67 48 38 50 60 51 45 52 59 53 46 54
REMARK SMILES IDX 49 55 58 56 72 57 47 58 48 59 57 61 73 62 50 63 39 64 40 65
REMARK SMILES IDX 44 66 41 67 43 68 42 69 61 70 62 71 66 72 63 73 65 74 64 75
REMARK SMILES IDX 51 76 52 77 56 78 53 79 55 80 54 81
REMARK H PARENT 14 23 71 49 49 60
REMARK Flexibility Score: inf
ROOT
ATOM      1  C   UNL A   1      36.927  22.163  24.860  1.00  0.00     0.275 C 
ENDROOT
BRANCH   1   2
ATOM      2  O   UNL A   1      36.289  20.875  24.998  1.00  0.00    -0.458 OA
BRANCH   2   3
ATOM      3  C   UNL A   1      35.024  20.892  25.494  1.00  0.00     0.339 C 
ATOM      4  O   UNL A   1      34.662  21.425  26.529  1.00  0.00    -0.246 OA
BRANCH   3   5
ATOM      5  C   UNL A   1      34.123  20.093  24.628  1.00  0.00     0.071 A 
ATOM      6  C   UNL A   1      33.462  17.868  23.933  1.00  0.00     0.119 A 
ATOM      7  C   UNL A   1      32.394  18.425  23.227  1.00  0.00     0.047 A 
ATOM      8  C   UNL A   1      34.338  18.705  24.615  1.00  0.00     0.062 A 
ATOM      9  C   UNL A   1      32.185  19.811  23.219  1.00  0.00     0.013 A 
ATOM     10  C   UNL A   1      33.039  20.670  23.922  1.00  0.00    -0.004 A 
BRANCH   6  11
ATOM     11  O   UNL A   1      33.569  16.505  23.877  1.00  0.00    -0.497 OA
ATOM     12  C   UNL A   1      34.338  15.912  24.921  1.00  0.00     0.278 C 
ENDBRANCH   6  11
BRANCH  10  13
ATOM     13  C   UNL A   1      32.837  22.120  23.830  1.00  0.00    -0.017 A 
ATOM     14  C   UNL A   1      33.776  23.126  22.710  1.00  0.00     0.010 A 
ATOM     15  C   UNL A   1      31.387  22.865  24.607  1.00  0.00     0.010 A 
ATOM     16  C   UNL A   1      33.351  24.818  22.310  1.00  0.00     0.022 A 
ATOM     17  C   UNL A   1      30.890  24.754  24.083  1.00  0.00     0.022 A 
ATOM     18  C   UNL A   1      31.946  25.651  22.969  1.00  0.00     0.082 A 
BRANCH  18  19
ATOM     19  S   UNL A   1      31.752  27.404  22.786  1.00  0.00     0.241 S 
ATOM     20  O   UNL A   1      33.006  27.966  22.351  1.00  0.00    -0.207 OA
ATOM     21  O   UNL A   1      30.555  27.560  21.985  1.00  0.00    -0.207 OA
BRANCH  19  22
ATOM     22  N   UNL A   1      31.314  28.049  24.288  1.00  0.00    -0.206 NA
ATOM     23  H   UNL A   1      30.440  27.577  24.518  1.00  0.00     0.141 HD
BRANCH  22  24
ATOM     24  C   UNL A   1      32.076  28.068  25.585  1.00  0.00     0.025 C 
ATOM     25  C   UNL A   1      33.519  27.575  25.505  1.00  0.00     0.028 C 
ATOM     26  C   UNL A   1      32.075  29.540  26.058  1.00  0.00     0.028 C 
ATOM     27  C   UNL A   1      31.365  27.290  26.682  1.00  0.00     0.028 C 
ENDBRANCH  22  24
ENDBRANCH  19  22
ENDBRANCH  18  19
ENDBRANCH  10  13
ENDBRANCH   3   5
ENDBRANCH   2   3
ENDBRANCH   1   2
BRANCH   1  28
ATOM     28  C   UNL A   1      38.146  22.271  25.774  1.00  0.00     0.275 C 
BRANCH  28  29
ATOM     29  O   UNL A   1      38.683  23.605  25.713  1.00  0.00    -0.458 OA
BRANCH  29  30
ATOM     30  C   UNL A   1      39.841  23.737  26.387  1.00  0.00     0.338 C 
ATOM     31  O   UNL A   1      40.752  22.924  26.455  1.00  0.00    -0.246 OA
BRANCH  30  32
ATOM     32  C   UNL A   1      39.998  25.054  27.005  1.00  0.00     0.060 A 
ATOM     33  C   UNL A   1      41.557  25.942  26.946  1.00  0.00     0.016 A 
ATOM     34  C   UNL A   1      38.954  25.322  28.392  1.00  0.00     0.016 A 
ATOM     35  C   UNL A   1      42.034  27.133  28.512  1.00  0.00     0.010 A 
ATOM     36  C   UNL A   1      39.366  26.426  29.728  1.00  0.00     0.010 A 
ATOM     37  C   UNL A   1      40.870  27.375  29.859  1.00  0.00    -0.014 A 
BRANCH  37  38
ATOM     38  C   UNL A   1      40.950  28.647  30.766  1.00  0.00     0.031 A 
ATOM     39  C   UNL A   1      41.677  28.588  32.109  1.00  0.00     0.074 A 
ATOM     40  C   UNL A   1      40.200  29.772  30.598  1.00  0.00     0.049 A 
ATOM     41  N   UNL A   1      41.443  29.235  33.231  1.00  0.00    -0.248 NA
ATOM     42  C   UNL A   1      42.785  27.635  32.214  1.00  0.00     0.031 C 
ATOM     43  C   UNL A   1      39.492  30.228  29.410  1.00  0.00     0.029 A 
ATOM     44  N   UNL A   1      39.801  30.719  31.541  1.00  0.00    -0.354 N 
ATOM     45  C   UNL A   1      42.316  28.694  34.172  1.00  0.00     0.074 A 
ATOM     46  C   UNL A   1      42.946  27.561  33.528  1.00  0.00     0.031 C 
ATOM     47  C   UNL A   1      38.575  31.147  29.726  1.00  0.00     0.029 A 
ATOM     48  C   UNL A   1      38.718  31.475  31.129  1.00  0.00     0.049 A 
ATOM     49  H   UNL A   1      40.246  30.836  32.411  1.00  0.00     0.167 HD
ATOM     50  C   UNL A   1      42.670  29.142  35.406  1.00  0.00     0.031 A 
ATOM     51  C   UNL A   1      37.925  32.376  31.742  1.00  0.00     0.031 A 
ATOM     52  C   UNL A   1      42.214  30.378  35.993  1.00  0.00     0.049 A 
ATOM     53  C   UNL A   1      38.295  32.886  33.093  1.00  0.00     0.074 A 
ATOM     54  C   UNL A   1      42.687  31.019  37.130  1.00  0.00     0.029 A 
ATOM     55  N   UNL A   1      41.218  31.185  35.475  1.00  0.00    -0.354 N 
ATOM     56  N   UNL A   1      39.184  32.419  33.929  1.00  0.00    -0.248 NA
ATOM     57  C   UNL A   1      37.641  34.129  33.531  1.00  0.00     0.031 C 
ATOM     58  C   UNL A   1      41.957  32.200  37.311  1.00  0.00     0.029 A 
ATOM     59  C   UNL A   1      41.061  32.315  36.265  1.00  0.00     0.049 A 
ATOM     60  H   UNL A   1      40.696  30.987  34.664  1.00  0.00     0.167 HD
ATOM     61  C   UNL A   1      39.275  33.365  34.939  1.00  0.00     0.074 A 
ATOM     62  C   UNL A   1      38.320  34.408  34.635  1.00  0.00     0.031 C 
ATOM     63  C   UNL A   1      40.128  33.376  35.990  1.00  0.00     0.031 A 
BRANCH  50  64
ATOM     64  C   UNL A   1      43.693  28.334  36.176  1.00  0.00    -0.014 A 
ATOM     65  C   UNL A   1      45.061  28.659  36.135  1.00  0.00     0.009 A 
ATOM     66  C   UNL A   1      43.288  27.254  36.976  1.00  0.00     0.009 A 
ATOM     67  C   UNL A   1      46.005  27.867  36.790  1.00  0.00     0.001 A 
ATOM     68  C   UNL A   1      44.230  26.496  37.677  1.00  0.00     0.001 A 
ATOM     69  C   UNL A   1      45.589  26.787  37.562  1.00  0.00     0.000 A 
ENDBRANCH  50  64
BRANCH  51  70
ATOM     70  C   UNL A   1      36.773  32.970  31.006  1.00  0.00    -0.014 A 
ATOM     71  C   UNL A   1      36.983  33.832  29.917  1.00  0.00     0.009 A 
ATOM     72  C   UNL A   1      35.458  32.647  31.372  1.00  0.00     0.009 A 
ATOM     73  C   UNL A   1      35.900  34.383  29.229  1.00  0.00     0.001 A 
ATOM     74  C   UNL A   1      34.376  33.192  30.673  1.00  0.00     0.001 A 
ATOM     75  C   UNL A   1      34.598  34.064  29.608  1.00  0.00     0.000 A 
ENDBRANCH  51  70
BRANCH  63  76
ATOM     76  C   UNL A   1      40.147  34.608  36.847  1.00  0.00    -0.014 A 
ATOM     77  C   UNL A   1      41.029  35.670  36.605  1.00  0.00     0.009 A 
ATOM     78  C   UNL A   1      39.261  34.695  37.934  1.00  0.00     0.009 A 
ATOM     79  C   UNL A   1      41.052  36.777  37.457  1.00  0.00     0.001 A 
ATOM     80  C   UNL A   1      39.265  35.815  38.766  1.00  0.00     0.001 A 
ATOM     81  C   UNL A   1      40.168  36.850  38.534  1.00  0.00     0.000 A 
ENDBRANCH  63  76
ENDBRANCH  37  38
ENDBRANCH  30  32
ENDBRANCH  29  30
ENDBRANCH  28  29
ENDBRANCH   1  28
TORSDOF 16
ENDMDL
MODEL 2
REMARK VINA RESULT:     -11.7      5.305     10.737
REMARK SMILES COc1ccc(-c2ccc(S(=O)(=O)NC(C)(C)C)cc2)c(C(=O)OCCOC(=O)c2ccc(-c3c4nc(c(-c5ccccc5)c5ccc([nH]5)c(-c5ccccc5)c5nc(c(-c6ccccc6)c6ccc3[nH]6)C=C5)C=C4)cc2)c1
REMARK SMILES IDX 25 1 24 2 22 3 23 4 21 5 3 6 4 7 78 8 5 9 6 10 2 11 1 12
REMARK SMILES IDX 7 13 8 14 20 15 9 16 19 17 10 18 11 19 12 20 13 21 14 22
REMARK SMILES IDX 15 24 16 25 17 26 18 27 26 28 27 29 28 30 29 31 30 32 31 33
REMARK SMILES IDX 77 34 32 35 76 36 33 37 34 38 35 39 70 40 36 41 75 42 69 43
REMARK SMILES IDX 71 44 37 45 74 46 68 47 67 48 38 50 60 51 45 52 59 53 46 54
REMARK SMILES IDX 49 55 58 56 72 57 47 58 48 59 57 61 73 62 50 63 39 64 40 65
REMARK SMILES IDX 44 66 41 67 43 68 42 69 61 70 62 71 66 72 63 73 65 74 64 75
REMARK SMILES IDX 51 76 52 77 56 78 53 79 55 80 54 81
REMARK H PARENT 14 23 71 49 49 60
REMARK Flexibility Score: inf
ROOT
ATOM      1  C   UNL A   1      32.332  29.551  26.844  1.00  0.00     0.275 C 
ENDROOT
BRANCH   1   2
ATOM      2  O   UNL A   1      31.679  30.157  25.707  1.00  0.00    -0.458 OA
BRANCH   2   3
ATOM      3  C   UNL A   1      31.685  29.425  24.562  1.00  0.00     0.339 C 
ATOM      4  O   UNL A   1      32.667  28.963  24.006  1.00  0.00    -0.246 OA
BRANCH   3   5
ATOM      5  C   UNL A   1      30.310  29.315  24.017  1.00  0.00     0.071 A 
ATOM      6  C   UNL A   1      28.408  30.515  23.115  1.00  0.00     0.119 A 
ATOM      7  C   UNL A   1      27.812  29.295  22.796  1.00  0.00     0.047 A 
ATOM      8  C   UNL A   1      29.647  30.524  23.746  1.00  0.00     0.062 A 
ATOM      9  C   UNL A   1      28.458  28.084  23.083  1.00  0.00     0.013 A 
ATOM     10  C   UNL A   1      29.719  28.070  23.692  1.00  0.00    -0.004 A 
BRANCH   6  11
ATOM     11  O   UNL A   1      27.692  31.634  22.787  1.00  0.00    -0.497 OA
ATOM     12  C   UNL A   1      28.358  32.550  21.920  1.00  0.00     0.278 C 
ENDBRANCH   6  11
BRANCH  10  13
ATOM     13  C   UNL A   1      30.333  26.786  24.047  1.00  0.00    -0.017 A 
ATOM     14  C   UNL A   1      31.410  25.923  22.931  1.00  0.00     0.010 A 
ATOM     15  C   UNL A   1      30.281  26.222  25.762  1.00  0.00     0.010 A 
ATOM     16  C   UNL A   1      32.443  24.546  23.422  1.00  0.00     0.022 A 
ATOM     17  C   UNL A   1      31.512  24.711  26.305  1.00  0.00     0.022 A 
ATOM     18  C   UNL A   1      32.514  23.921  25.067  1.00  0.00     0.082 A 
BRANCH  18  19
ATOM     19  S   UNL A   1      33.306  22.376  25.426  1.00  0.00     0.241 S 
ATOM     20  O   UNL A   1      33.730  22.382  26.804  1.00  0.00    -0.207 OA
ATOM     21  O   UNL A   1      32.385  21.369  24.942  1.00  0.00    -0.207 OA
BRANCH  19  22
ATOM     22  N   UNL A   1      34.646  22.216  24.405  1.00  0.00    -0.206 NA
ATOM     23  H   UNL A   1      34.404  22.771  23.585  1.00  0.00     0.141 HD
BRANCH  22  24
ATOM     24  C   UNL A   1      36.092  22.544  24.659  1.00  0.00     0.025 C 
ATOM     25  C   UNL A   1      36.878  21.488  25.434  1.00  0.00     0.028 C 
ATOM     26  C   UNL A   1      36.737  22.729  23.267  1.00  0.00     0.028 C 
ATOM     27  C   UNL A   1      36.263  23.881  25.365  1.00  0.00     0.028 C 
ENDBRANCH  22  24
ENDBRANCH  19  22
ENDBRANCH  18  19
ENDBRANCH  10  13
ENDBRANCH   3   5
ENDBRANCH   2   3
ENDBRANCH   1   2
BRANCH   1  28
ATOM     28  C   UNL A   1      33.382  30.488  27.435  1.00  0.00     0.275 C 
BRANCH  28  29
ATOM     29  O   UNL A   1      34.480  29.719  27.962  1.00  0.00    -0.458 OA
BRANCH  29  30
ATOM     30  C   UNL A   1      35.381  30.472  28.622  1.00  0.00     0.338 C 
ATOM     31  O   UNL A   1      35.200  31.576  29.115  1.00  0.00    -0.246 OA
BRANCH  30  32
ATOM     32  C   UNL A   1      36.665  29.794  28.811  1.00  0.00     0.060 A 
ATOM     33  C   UNL A   1      37.532  29.844  30.382  1.00  0.00     0.016 A 
ATOM     34  C   UNL A   1      37.626  29.662  27.347  1.00  0.00     0.016 A 
ATOM     35  C   UNL A   1      39.556  29.816  30.352  1.00  0.00     0.010 A 
ATOM     36  C   UNL A   1      39.405  29.572  27.350  1.00  0.00     0.010 A 
ATOM     37  C   UNL A   1      40.441  29.629  28.800  1.00  0.00    -0.014 A 
BRANCH  37  38
ATOM     38  C   UNL A   1      41.902  29.070  28.775  1.00  0.00     0.031 A 
ATOM     39  C   UNL A   1      43.081  30.014  28.548  1.00  0.00     0.074 A 
ATOM     40  C   UNL A   1      42.230  27.750  28.680  1.00  0.00     0.049 A 
ATOM     41  N   UNL A   1      44.237  29.803  27.955  1.00  0.00    -0.248 NA
ATOM     42  C   UNL A   1      42.914  31.396  29.006  1.00  0.00     0.031 C 
ATOM     43  C   UNL A   1      41.409  26.583  28.968  1.00  0.00     0.029 A 
ATOM     44  N   UNL A   1      43.383  27.160  28.164  1.00  0.00    -0.354 N 
ATOM     45  C   UNL A   1      44.872  31.041  27.902  1.00  0.00     0.074 A 
ATOM     46  C   UNL A   1      43.898  32.008  28.363  1.00  0.00     0.031 C 
ATOM     47  C   UNL A   1      41.926  25.486  28.405  1.00  0.00     0.029 A 
ATOM     48  C   UNL A   1      43.212  25.828  27.832  1.00  0.00     0.049 A 
ATOM     49  H   UNL A   1      44.233  27.643  28.049  1.00  0.00     0.167 HD
ATOM     50  C   UNL A   1      46.164  31.359  27.624  1.00  0.00     0.031 A 
ATOM     51  C   UNL A   1      43.976  24.923  27.189  1.00  0.00     0.031 A 
ATOM     52  C   UNL A   1      47.208  30.399  27.363  1.00  0.00     0.049 A 
ATOM     53  C   UNL A   1      45.398  25.246  26.877  1.00  0.00     0.074 A 
ATOM     54  C   UNL A   1      48.578  30.612  27.294  1.00  0.00     0.029 A 
ATOM     55  N   UNL A   1      47.012  29.043  27.173  1.00  0.00    -0.354 N 
ATOM     56  N   UNL A   1      46.002  26.405  26.921  1.00  0.00    -0.248 NA
ATOM     57  C   UNL A   1      46.276  24.112  26.553  1.00  0.00     0.031 C 
ATOM     58  C   UNL A   1      49.206  29.388  27.036  1.00  0.00     0.029 A 
ATOM     59  C   UNL A   1      48.232  28.408  26.987  1.00  0.00     0.049 A 
ATOM     60  H   UNL A   1      46.136  28.594  27.170  1.00  0.00     0.167 HD
ATOM     61  C   UNL A   1      47.348  26.126  26.738  1.00  0.00     0.074 A 
ATOM     62  C   UNL A   1      47.466  24.698  26.537  1.00  0.00     0.031 C 
ATOM     63  C   UNL A   1      48.388  26.990  26.793  1.00  0.00     0.031 A 
BRANCH  50  64
ATOM     64  C   UNL A   1      46.555  32.820  27.693  1.00  0.00    -0.014 A 
ATOM     65  C   UNL A   1      46.512  33.643  26.553  1.00  0.00     0.009 A 
ATOM     66  C   UNL A   1      46.941  33.393  28.915  1.00  0.00     0.009 A 
ATOM     67  C   UNL A   1      46.941  34.970  26.612  1.00  0.00     0.001 A 
ATOM     68  C   UNL A   1      47.317  34.738  28.983  1.00  0.00     0.001 A 
ATOM     69  C   UNL A   1      47.341  35.517  27.826  1.00  0.00     0.000 A 
ENDBRANCH  50  64
BRANCH  51  70
ATOM     70  C   UNL A   1      43.445  23.554  26.933  1.00  0.00    -0.014 A 
ATOM     71  C   UNL A   1      43.089  22.711  27.997  1.00  0.00     0.009 A 
ATOM     72  C   UNL A   1      43.263  23.102  25.618  1.00  0.00     0.009 A 
ATOM     73  C   UNL A   1      42.589  21.431  27.752  1.00  0.00     0.001 A 
ATOM     74  C   UNL A   1      42.751  21.823  25.375  1.00  0.00     0.001 A 
ATOM     75  C   UNL A   1      42.421  20.987  26.441  1.00  0.00     0.000 A 
ENDBRANCH  51  70
BRANCH  63  76
ATOM     76  C   UNL A   1      49.771  26.407  26.736  1.00  0.00    -0.014 A 
ATOM     77  C   UNL A   1      50.475  26.046  27.894  1.00  0.00     0.009 A 
ATOM     78  C   UNL A   1      50.384  26.229  25.485  1.00  0.00     0.009 A 
ATOM     79  C   UNL A   1      51.779  25.555  27.802  1.00  0.00     0.001 A 
ATOM     80  C   UNL A   1      51.676  25.710  25.394  1.00  0.00     0.001 A 
ATOM     81  C   UNL A   1      52.376  25.384  26.553  1.00  0.00     0.000 A 
ENDBRANCH  63  76
ENDBRANCH  37  38
ENDBRANCH  30  32
ENDBRANCH  29  30
ENDBRANCH  28  29
ENDBRANCH   1  28
TORSDOF 16
ENDMDL
MODEL 3
REMARK VINA RESULT:     -11.6      1.962      2.552
REMARK SMILES COc1ccc(-c2ccc(S(=O)(=O)NC(C)(C)C)cc2)c(C(=O)OCCOC(=O)c2ccc(-c3c4nc(c(-c5ccccc5)c5ccc([nH]5)c(-c5ccccc5)c5nc(c(-c6ccccc6)c6ccc3[nH]6)C=C5)C=C4)cc2)c1
REMARK SMILES IDX 25 1 24 2 22 3 23 4 21 5 3 6 4 7 78 8 5 9 6 10 2 11 1 12
REMARK SMILES IDX 7 13 8 14 20 15 9 16 19 17 10 18 11 19 12 20 13 21 14 22
REMARK SMILES IDX 15 24 16 25 17 26 18 27 26 28 27 29 28 30 29 31 30 32 31 33
REMARK SMILES IDX 77 34 32 35 76 36 33 37 34 38 35 39 70 40 36 41 75 42 69 43
REMARK SMILES IDX 71 44 37 45 74 46 68 47 67 48 38 50 60 51 45 52 59 53 46 54
REMARK SMILES IDX 49 55 58 56 72 57 47 58 48 59 57 61 73 62 50 63 39 64 40 65
REMARK SMILES IDX 44 66 41 67 43 68 42 69 61 70 62 71 66 72 63 73 65 74 64 75
REMARK SMILES IDX 51 76 52 77 56 78 53 79 55 80 54 81
REMARK H PARENT 14 23 71 49 49 60
REMARK Flexibility Score: inf
ROOT
ATOM      1  C   UNL A   1      36.183  21.819  25.772  1.00  0.00     0.275 C 
ENDROOT
BRANCH   1   2
ATOM      2  O   UNL A   1      34.925  22.524  25.697  1.00  0.00    -0.458 OA
BRANCH   2   3
ATOM      3  C   UNL A   1      33.826  21.814  26.059  1.00  0.00     0.339 C 
ATOM      4  O   UNL A   1      33.312  21.794  27.165  1.00  0.00    -0.246 OA
BRANCH   3   5
ATOM      5  C   UNL A   1      33.352  20.985  24.924  1.00  0.00     0.071 A 
ATOM      6  C   UNL A   1      33.053  18.737  24.071  1.00  0.00     0.119 A 
ATOM      7  C   UNL A   1      32.344  19.261  22.989  1.00  0.00     0.047 A 
ATOM      8  C   UNL A   1      33.576  19.601  25.026  1.00  0.00     0.062 A 
ATOM      9  C   UNL A   1      32.135  20.642  22.870  1.00  0.00     0.013 A 
ATOM     10  C   UNL A   1      32.628  21.529  23.836  1.00  0.00    -0.004 A 
BRANCH   6  11
ATOM     11  O   UNL A   1      33.193  17.376  24.090  1.00  0.00    -0.497 OA
ATOM     12  C   UNL A   1      34.125  16.846  23.150  1.00  0.00     0.278 C 
ENDBRANCH   6  11
BRANCH  10  13
ATOM     13  C   UNL A   1      32.458  22.973  23.641  1.00  0.00    -0.017 A 
ATOM     14  C   UNL A   1      31.221  23.896  24.516  1.00  0.00     0.010 A 
ATOM     15  C   UNL A   1      33.731  23.906  22.763  1.00  0.00     0.010 A 
ATOM     16  C   UNL A   1      31.183  25.684  24.579  1.00  0.00     0.022 A 
ATOM     17  C   UNL A   1      33.705  25.923  22.911  1.00  0.00     0.022 A 
ATOM     18  C   UNL A   1      32.382  26.711  23.799  1.00  0.00     0.082 A 
BRANCH  18  19
ATOM     19  S   UNL A   1      32.124  28.457  23.632  1.00  0.00     0.241 S 
ATOM     20  O   UNL A   1      33.357  29.069  23.206  1.00  0.00    -0.207 OA
ATOM     21  O   UNL A   1      30.925  28.576  22.828  1.00  0.00    -0.207 OA
BRANCH  19  22
ATOM     22  N   UNL A   1      31.657  29.072  25.138  1.00  0.00    -0.206 NA
ATOM     23  H   UNL A   1      30.760  28.624  25.324  1.00  0.00     0.141 HD
BRANCH  22  24
ATOM     24  C   UNL A   1      32.375  29.024  26.459  1.00  0.00     0.025 C 
ATOM     25  C   UNL A   1      33.837  28.590  26.397  1.00  0.00     0.028 C 
ATOM     26  C   UNL A   1      32.301  30.457  27.035  1.00  0.00     0.028 C 
ATOM     27  C   UNL A   1      31.657  28.144  27.472  1.00  0.00     0.028 C 
ENDBRANCH  22  24
ENDBRANCH  19  22
ENDBRANCH  18  19
ENDBRANCH  10  13
ENDBRANCH   3   5
ENDBRANCH   2   3
ENDBRANCH   1   2
BRANCH   1  28
ATOM     28  C   UNL A   1      37.293  22.603  25.078  1.00  0.00     0.275 C 
BRANCH  28  29
ATOM     29  O   UNL A   1      38.509  21.832  25.081  1.00  0.00    -0.458 OA
BRANCH  29  30
ATOM     30  C   UNL A   1      39.229  21.989  26.207  1.00  0.00     0.338 C 
ATOM     31  O   UNL A   1      39.634  21.109  26.953  1.00  0.00    -0.246 OA
BRANCH  30  32
ATOM     32  C   UNL A   1      39.611  23.381  26.454  1.00  0.00     0.060 A 
ATOM     33  C   UNL A   1      41.290  23.957  26.188  1.00  0.00     0.016 A 
ATOM     34  C   UNL A   1      38.660  24.173  27.701  1.00  0.00     0.016 A 
ATOM     35  C   UNL A   1      41.992  25.429  27.389  1.00  0.00     0.010 A 
ATOM     36  C   UNL A   1      39.277  25.511  28.700  1.00  0.00     0.010 A 
ATOM     37  C   UNL A   1      40.918  26.205  28.601  1.00  0.00    -0.014 A 
BRANCH  37  38
ATOM     38  C   UNL A   1      41.224  27.642  29.138  1.00  0.00     0.031 A 
ATOM     39  C   UNL A   1      42.293  27.850  30.209  1.00  0.00     0.074 A 
ATOM     40  C   UNL A   1      40.438  28.736  28.927  1.00  0.00     0.049 A 
ATOM     41  N   UNL A   1      42.366  28.742  31.174  1.00  0.00    -0.248 NA
ATOM     42  C   UNL A   1      43.402  26.893  30.224  1.00  0.00     0.031 C 
ATOM     43  C   UNL A   1      39.424  28.948  27.904  1.00  0.00     0.029 A 
ATOM     44  N   UNL A   1      40.299  29.887  29.701  1.00  0.00    -0.354 N 
ATOM     45  C   UNL A   1      43.473  28.384  31.941  1.00  0.00     0.074 A 
ATOM     46  C   UNL A   1      43.919  27.107  31.425  1.00  0.00     0.031 C 
ATOM     47  C   UNL A   1      38.614  29.957  28.239  1.00  0.00     0.029 A 
ATOM     48  C   UNL A   1      39.132  30.584  29.438  1.00  0.00     0.049 A 
ATOM     49  H   UNL A   1      40.964  30.175  30.368  1.00  0.00     0.167 HD
ATOM     50  C   UNL A   1      44.145  29.079  32.897  1.00  0.00     0.031 A 
ATOM     51  C   UNL A   1      38.524  31.636  30.020  1.00  0.00     0.031 A 
ATOM     52  C   UNL A   1      43.849  30.436  33.287  1.00  0.00     0.049 A 
ATOM     53  C   UNL A   1      39.243  32.417  31.067  1.00  0.00     0.074 A 
ATOM     54  C   UNL A   1      44.606  31.291  34.076  1.00  0.00     0.029 A 
ATOM     55  N   UNL A   1      42.736  31.153  32.889  1.00  0.00    -0.354 N 
ATOM     56  N   UNL A   1      40.336  32.106  31.714  1.00  0.00    -0.248 NA
ATOM     57  C   UNL A   1      38.716  33.755  31.370  1.00  0.00     0.031 C 
ATOM     58  C   UNL A   1      43.936  32.516  34.174  1.00  0.00     0.029 A 
ATOM     59  C   UNL A   1      42.784  32.438  33.413  1.00  0.00     0.049 A 
ATOM     60  H   UNL A   1      42.014  30.804  32.317  1.00  0.00     0.167 HD
ATOM     61  C   UNL A   1      40.686  33.249  32.417  1.00  0.00     0.074 A 
ATOM     62  C   UNL A   1      39.668  34.242  32.155  1.00  0.00     0.031 C 
ATOM     63  C   UNL A   1      41.795  33.453  33.166  1.00  0.00     0.031 A 
BRANCH  50  64
ATOM     64  C   UNL A   1      45.354  28.416  33.522  1.00  0.00    -0.014 A 
ATOM     65  C   UNL A   1      45.228  27.579  34.645  1.00  0.00     0.009 A 
ATOM     66  C   UNL A   1      46.630  28.603  32.969  1.00  0.00     0.009 A 
ATOM     67  C   UNL A   1      46.356  27.029  35.257  1.00  0.00     0.001 A 
ATOM     68  C   UNL A   1      47.752  28.005  33.551  1.00  0.00     0.001 A 
ATOM     69  C   UNL A   1      47.617  27.240  34.709  1.00  0.00     0.000 A 
ENDBRANCH  50  64
BRANCH  51  70
ATOM     70  C   UNL A   1      37.205  32.104  29.509  1.00  0.00    -0.014 A 
ATOM     71  C   UNL A   1      36.008  31.639  30.075  1.00  0.00     0.009 A 
ATOM     72  C   UNL A   1      37.144  33.048  28.473  1.00  0.00     0.009 A 
ATOM     73  C   UNL A   1      34.775  32.084  29.594  1.00  0.00     0.001 A 
ATOM     74  C   UNL A   1      35.908  33.501  28.001  1.00  0.00     0.001 A 
ATOM     75  C   UNL A   1      34.726  33.013  28.557  1.00  0.00     0.000 A 
ENDBRANCH  51  70
BRANCH  63  76
ATOM     76  C   UNL A   1      42.030  34.843  33.682  1.00  0.00    -0.014 A 
ATOM     77  C   UNL A   1      42.839  35.764  33.001  1.00  0.00     0.009 A 
ATOM     78  C   UNL A   1      41.429  35.232  34.891  1.00  0.00     0.009 A 
ATOM     79  C   UNL A   1      43.075  37.031  33.540  1.00  0.00     0.001 A 
ATOM     80  C   UNL A   1      41.642  36.508  35.412  1.00  0.00     0.001 A 
ATOM     81  C   UNL A   1      42.473  37.403  34.742  1.00  0.00     0.000 A 
ENDBRANCH  63  76
ENDBRANCH  37  38
ENDBRANCH  30  32
ENDBRANCH  29  30
ENDBRANCH  28  29
ENDBRANCH   1  28
TORSDOF 16
ENDMDL
