MODEL 1
REMARK VINA RESULT:     -10.9      0.000      0.000
REMARK SMILES COc1c(C)cc(Br)cc1C(=O)Nc1ccc(O)c(C(=O)OCCOC(=O)c2ccc(-c3c4nc(c(-c5ccccc5)c5ccc([nH]5)c(-c5ccccc5)c5nc(c(-c6ccccc6)c6ccc3[nH]6)C=C5)C=C4)cc2)c1
REMARK SMILES IDX 23 1 22 2 20 3 21 4 19 5 14 6 15 7 76 8 16 9 17 10 13 11
REMARK SMILES IDX 11 12 12 13 10 15 3 16 4 17 5 18 6 19 9 20 7 21 8 22 2 23
REMARK SMILES IDX 1 24 18 25 24 27 25 28 26 29 27 30 28 31 29 32 75 33 30 34
REMARK SMILES IDX 74 35 31 36 32 37 33 38 68 39 34 40 73 41 67 42 69 43 35 44
REMARK SMILES IDX 72 45 66 46 65 47 36 49 58 50 43 51 57 52 44 53 47 54 56 55
REMARK SMILES IDX 70 56 45 57 46 58 55 60 71 61 48 62 37 63 38 64 42 65 39 66
REMARK SMILES IDX 41 67 40 68 59 69 60 70 64 71 61 72 63 73 62 74 49 75 50 76
REMARK SMILES IDX 54 77 51 78 53 79 52 80
REMARK H PARENT 13 14 18 26 69 48 47 59
REMARK Flexibility Score: inf
ROOT
ATOM      1  C   UNL A   1      34.193  34.184  28.443  1.00  0.00     0.275 C 
ENDROOT
BRANCH   1   2
ATOM      2  O   UNL A   1      33.181  34.418  29.439  1.00  0.00    -0.458 OA
BRANCH   2   3
ATOM      3  C   UNL A   1      32.898  35.705  29.731  1.00  0.00     0.342 C 
ATOM      4  O   UNL A   1      32.239  36.464  29.033  1.00  0.00    -0.246 OA
BRANCH   3   5
ATOM      5  C   UNL A   1      33.363  36.087  31.093  1.00  0.00     0.103 A 
ATOM      6  C   UNL A   1      34.123  35.288  33.263  1.00  0.00     0.042 A 
ATOM      7  C   UNL A   1      34.261  36.596  33.711  1.00  0.00     0.030 A 
ATOM      8  C   UNL A   1      33.723  35.032  31.951  1.00  0.00     0.045 A 
ATOM      9  C   UNL A   1      33.884  37.653  32.880  1.00  0.00     0.049 A 
ATOM     10  C   UNL A   1      33.407  37.398  31.588  1.00  0.00     0.130 A 
BRANCH   6  11
ATOM     11  N   UNL A   1      34.542  34.242  34.082  1.00  0.00    -0.322 N 
ATOM     12  C   UNL A   1      35.823  33.911  34.460  1.00  0.00     0.259 C 
ATOM     13  O   UNL A   1      35.966  33.468  35.604  1.00  0.00    -0.269 OA
ATOM     14  H   UNL A   1      33.827  33.663  34.436  1.00  0.00     0.170 HD
BRANCH  12  15
ATOM     15  C   UNL A   1      36.986  33.804  33.520  1.00  0.00     0.083 A 
ATOM     16  C   UNL A   1      37.006  33.373  32.176  1.00  0.00     0.134 A 
ATOM     17  C   UNL A   1      38.179  33.557  31.396  1.00  0.00    -0.007 A 
ATOM     18  C   UNL A   1      38.246  33.278  29.917  1.00  0.00     0.048 C 
ATOM     19  C   UNL A   1      39.345  34.057  31.995  1.00  0.00     0.023 A 
ATOM     20  C   UNL A   1      38.176  34.325  34.078  1.00  0.00     0.033 A 
ATOM     21  C   UNL A   1      39.339  34.436  33.328  1.00  0.00     0.019 A 
ATOM     22  Br  UNL A   1      40.902  35.168  34.098  1.00  0.00    -0.051 Br
BRANCH  16  23
ATOM     23  O   UNL A   1      35.861  32.909  31.585  1.00  0.00    -0.496 OA
ATOM     24  C   UNL A   1      35.602  31.528  31.856  1.00  0.00     0.278 C 
ENDBRANCH  16  23
ENDBRANCH  12  15
ENDBRANCH   6  11
BRANCH  10  25
ATOM     25  O   UNL A   1      32.903  38.440  30.863  1.00  0.00    -0.507 OA
ATOM     26  H   UNL A   1      32.808  38.362  29.934  1.00  0.00     0.293 HD
ENDBRANCH  10  25
ENDBRANCH   3   5
ENDBRANCH   2   3
ENDBRANCH   1   2
BRANCH   1  27
ATOM     27  C   UNL A   1      34.020  32.780  27.873  1.00  0.00     0.275 C 
BRANCH  27  28
ATOM     28  O   UNL A   1      35.087  31.932  28.340  1.00  0.00    -0.458 OA
BRANCH  28  29
ATOM     29  C   UNL A   1      34.966  30.621  28.032  1.00  0.00     0.338 C 
ATOM     30  O   UNL A   1      33.984  30.032  27.618  1.00  0.00    -0.246 OA
BRANCH  29  31
ATOM     31  C   UNL A   1      36.250  29.947  28.266  1.00  0.00     0.060 A 
ATOM     32  C   UNL A   1      36.483  29.305  29.482  1.00  0.00     0.016 A 
ATOM     33  C   UNL A   1      37.271  30.068  27.327  1.00  0.00     0.016 A 
ATOM     34  C   UNL A   1      37.763  28.860  29.803  1.00  0.00     0.010 A 
ATOM     35  C   UNL A   1      38.529  29.533  27.612  1.00  0.00     0.010 A 
ATOM     36  C   UNL A   1      38.802  28.956  28.867  1.00  0.00    -0.014 A 
BRANCH  36  37
ATOM     37  C   UNL A   1      40.179  28.491  29.189  1.00  0.00     0.031 A 
ATOM     38  C   UNL A   1      41.126  29.400  29.931  1.00  0.00     0.074 A 
ATOM     39  C   UNL A   1      40.603  27.272  28.800  1.00  0.00     0.049 A 
ATOM     40  N   UNL A   1      42.419  29.291  30.101  1.00  0.00    -0.248 NA
ATOM     41  C   UNL A   1      40.538  30.601  30.547  1.00  0.00     0.031 C 
ATOM     42  C   UNL A   1      39.787  26.258  28.129  1.00  0.00     0.029 A 
ATOM     43  N   UNL A   1      41.838  26.681  28.911  1.00  0.00    -0.354 N 
ATOM     44  C   UNL A   1      42.808  30.436  30.786  1.00  0.00     0.074 A 
ATOM     45  C   UNL A   1      41.615  31.227  30.999  1.00  0.00     0.031 C 
ATOM     46  C   UNL A   1      40.533  25.164  27.915  1.00  0.00     0.029 A 
ATOM     47  C   UNL A   1      41.900  25.430  28.346  1.00  0.00     0.049 A 
ATOM     48  H   UNL A   1      42.605  27.112  29.353  1.00  0.00     0.167 HD
ATOM     49  C   UNL A   1      44.049  30.797  31.195  1.00  0.00     0.031 A 
ATOM     50  C   UNL A   1      42.945  24.606  28.149  1.00  0.00     0.031 A 
ATOM     51  C   UNL A   1      45.227  29.990  31.018  1.00  0.00     0.049 A 
ATOM     52  C   UNL A   1      44.319  25.048  28.565  1.00  0.00     0.074 A 
ATOM     53  C   UNL A   1      46.528  30.263  31.407  1.00  0.00     0.029 A 
ATOM     54  N   UNL A   1      45.244  28.742  30.416  1.00  0.00    -0.354 N 
ATOM     55  N   UNL A   1      44.686  26.158  29.156  1.00  0.00    -0.248 NA
ATOM     56  C   UNL A   1      45.427  24.127  28.271  1.00  0.00     0.031 C 
ATOM     57  C   UNL A   1      47.338  29.198  31.002  1.00  0.00     0.029 A 
ATOM     58  C   UNL A   1      46.534  28.239  30.409  1.00  0.00     0.049 A 
ATOM     59  H   UNL A   1      44.456  28.282  30.047  1.00  0.00     0.167 HD
ATOM     60  C   UNL A   1      46.060  26.062  29.323  1.00  0.00     0.074 A 
ATOM     61  C   UNL A   1      46.460  24.779  28.784  1.00  0.00     0.031 C 
ATOM     62  C   UNL A   1      46.915  26.958  29.873  1.00  0.00     0.031 A 
BRANCH  49  63
ATOM     63  C   UNL A   1      44.203  32.149  31.836  1.00  0.00    -0.014 A 
ATOM     64  C   UNL A   1      44.215  32.308  33.230  1.00  0.00     0.009 A 
ATOM     65  C   UNL A   1      44.374  33.282  31.022  1.00  0.00     0.009 A 
ATOM     66  C   UNL A   1      44.358  33.579  33.794  1.00  0.00     0.001 A 
ATOM     67  C   UNL A   1      44.546  34.545  31.589  1.00  0.00     0.001 A 
ATOM     68  C   UNL A   1      44.528  34.694  32.975  1.00  0.00     0.000 A 
ENDBRANCH  49  63
BRANCH  50  69
ATOM     69  C   UNL A   1      42.741  23.296  27.475  1.00  0.00    -0.014 A 
ATOM     70  C   UNL A   1      42.340  22.171  28.210  1.00  0.00     0.009 A 
ATOM     71  C   UNL A   1      42.941  23.167  26.091  1.00  0.00     0.009 A 
ATOM     72  C   UNL A   1      42.159  20.940  27.576  1.00  0.00     0.001 A 
ATOM     73  C   UNL A   1      42.728  21.943  25.455  1.00  0.00     0.001 A 
ATOM     74  C   UNL A   1      42.345  20.829  26.198  1.00  0.00     0.000 A 
ENDBRANCH  50  69
BRANCH  62  75
ATOM     75  C   UNL A   1      48.360  26.562  29.959  1.00  0.00    -0.014 A 
ATOM     76  C   UNL A   1      49.276  26.924  28.960  1.00  0.00     0.009 A 
ATOM     77  C   UNL A   1      48.816  25.847  31.077  1.00  0.00     0.009 A 
ATOM     78  C   UNL A   1      50.619  26.551  29.067  1.00  0.00     0.001 A 
ATOM     79  C   UNL A   1      50.161  25.498  31.194  1.00  0.00     0.001 A 
ATOM     80  C   UNL A   1      51.059  25.844  30.186  1.00  0.00     0.000 A 
ENDBRANCH  62  75
ENDBRANCH  36  37
ENDBRANCH  29  31
ENDBRANCH  28  29
ENDBRANCH  27  28
ENDBRANCH   1  27
TORSDOF 15
ENDMDL
MODEL 2
REMARK VINA RESULT:     -10.5      4.748     12.291
REMARK SMILES COc1c(C)cc(Br)cc1C(=O)Nc1ccc(O)c(C(=O)OCCOC(=O)c2ccc(-c3c4nc(c(-c5ccccc5)c5ccc([nH]5)c(-c5ccccc5)c5nc(c(-c6ccccc6)c6ccc3[nH]6)C=C5)C=C4)cc2)c1
REMARK SMILES IDX 23 1 22 2 20 3 21 4 19 5 14 6 15 7 76 8 16 9 17 10 13 11
REMARK SMILES IDX 11 12 12 13 10 15 3 16 4 17 5 18 6 19 9 20 7 21 8 22 2 23
REMARK SMILES IDX 1 24 18 25 24 27 25 28 26 29 27 30 28 31 29 32 75 33 30 34
REMARK SMILES IDX 74 35 31 36 32 37 33 38 68 39 34 40 73 41 67 42 69 43 35 44
REMARK SMILES IDX 72 45 66 46 65 47 36 49 58 50 43 51 57 52 44 53 47 54 56 55
REMARK SMILES IDX 70 56 45 57 46 58 55 60 71 61 48 62 37 63 38 64 42 65 39 66
REMARK SMILES IDX 41 67 40 68 59 69 60 70 64 71 61 72 63 73 62 74 49 75 50 76
REMARK SMILES IDX 54 77 51 78 53 79 52 80
REMARK H PARENT 13 14 18 26 69 48 47 59
REMARK Flexibility Score: inf
ROOT
ATOM      1  C   UNL A   1      40.667  20.170  26.171  1.00  0.00     0.275 C 
ENDROOT
BRANCH   1   2
ATOM      2  O   UNL A   1      42.060  20.389  25.886  1.00  0.00    -0.458 OA
BRANCH   2   3
ATOM      3  C   UNL A   1      42.830  19.291  25.728  1.00  0.00     0.342 C 
ATOM      4  O   UNL A   1      42.432  18.134  25.753  1.00  0.00    -0.246 OA
BRANCH   3   5
ATOM      5  C   UNL A   1      44.234  19.637  25.370  1.00  0.00     0.103 A 
ATOM      6  C   UNL A   1      45.711  21.293  24.371  1.00  0.00     0.042 A 
ATOM      7  C   UNL A   1      46.811  20.478  24.616  1.00  0.00     0.030 A 
ATOM      8  C   UNL A   1      44.439  20.900  24.786  1.00  0.00     0.045 A 
ATOM      9  C   UNL A   1      46.621  19.212  25.173  1.00  0.00     0.049 A 
ATOM     10  C   UNL A   1      45.334  18.781  25.520  1.00  0.00     0.130 A 
BRANCH   6  11
ATOM     11  N   UNL A   1      45.914  22.571  23.856  1.00  0.00    -0.322 N 
ATOM     12  C   UNL A   1      46.481  23.663  24.474  1.00  0.00     0.259 C 
ATOM     13  O   UNL A   1      47.160  24.410  23.763  1.00  0.00    -0.269 OA
ATOM     14  H   UNL A   1      45.612  22.711  22.929  1.00  0.00     0.170 HD
BRANCH  12  15
ATOM     15  C   UNL A   1      46.127  24.140  25.849  1.00  0.00     0.083 A 
ATOM     16  C   UNL A   1      44.879  24.106  26.508  1.00  0.00     0.134 A 
ATOM     17  C   UNL A   1      44.806  24.409  27.894  1.00  0.00    -0.007 A 
ATOM     18  C   UNL A   1      43.555  24.246  28.717  1.00  0.00     0.048 C 
ATOM     19  C   UNL A   1      45.952  24.853  28.573  1.00  0.00     0.023 A 
ATOM     20  C   UNL A   1      47.261  24.568  26.577  1.00  0.00     0.033 A 
ATOM     21  C   UNL A   1      47.169  24.931  27.914  1.00  0.00     0.019 A 
ATOM     22  Br  UNL A   1      48.713  25.467  28.863  1.00  0.00    -0.051 Br
BRANCH  16  23
ATOM     23  O   UNL A   1      43.766  23.649  25.853  1.00  0.00    -0.496 OA
ATOM     24  C   UNL A   1      43.151  24.640  25.023  1.00  0.00     0.278 C 
ENDBRANCH  16  23
ENDBRANCH  12  15
ENDBRANCH   6  11
BRANCH  10  25
ATOM     25  O   UNL A   1      45.167  17.484  25.914  1.00  0.00    -0.507 OA
ATOM     26  H   UNL A   1      45.751  16.821  25.603  1.00  0.00     0.293 HD
ENDBRANCH  10  25
ENDBRANCH   3   5
ENDBRANCH   2   3
ENDBRANCH   1   2
BRANCH   1  27
ATOM     27  C   UNL A   1      40.113  21.377  26.921  1.00  0.00     0.275 C 
BRANCH  27  28
ATOM     28  O   UNL A   1      39.994  22.495  26.021  1.00  0.00    -0.458 OA
BRANCH  28  29
ATOM     29  C   UNL A   1      38.990  23.359  26.295  1.00  0.00     0.338 C 
ATOM     30  O   UNL A   1      37.803  23.235  26.053  1.00  0.00    -0.246 OA
BRANCH  29  31
ATOM     31  C   UNL A   1      39.539  24.542  26.970  1.00  0.00     0.060 A 
ATOM     32  C   UNL A   1      39.337  24.712  28.339  1.00  0.00     0.016 A 
ATOM     33  C   UNL A   1      40.138  25.547  26.216  1.00  0.00     0.016 A 
ATOM     34  C   UNL A   1      39.652  25.926  28.946  1.00  0.00     0.010 A 
ATOM     35  C   UNL A   1      40.543  26.726  26.846  1.00  0.00     0.010 A 
ATOM     36  C   UNL A   1      40.271  26.946  28.211  1.00  0.00    -0.014 A 
BRANCH  36  37
ATOM     37  C   UNL A   1      40.614  28.254  28.836  1.00  0.00     0.031 A 
ATOM     38  C   UNL A   1      42.007  28.495  29.358  1.00  0.00     0.074 A 
ATOM     39  C   UNL A   1      39.683  29.220  28.967  1.00  0.00     0.049 A 
ATOM     40  N   UNL A   1      42.448  29.450  30.137  1.00  0.00    -0.248 NA
ATOM     41  C   UNL A   1      43.037  27.518  28.964  1.00  0.00     0.031 C 
ATOM     42  C   UNL A   1      38.312  29.158  28.459  1.00  0.00     0.029 A 
ATOM     43  N   UNL A   1      39.754  30.448  29.579  1.00  0.00    -0.354 N 
ATOM     44  C   UNL A   1      43.786  29.156  30.377  1.00  0.00     0.074 A 
ATOM     45  C   UNL A   1      44.084  27.932  29.663  1.00  0.00     0.031 C 
ATOM     46  C   UNL A   1      37.682  30.306  28.753  1.00  0.00     0.029 A 
ATOM     47  C   UNL A   1      38.570  31.144  29.550  1.00  0.00     0.049 A 
ATOM     48  H   UNL A   1      40.574  30.795  29.997  1.00  0.00     0.167 HD
ATOM     49  C   UNL A   1      44.681  29.840  31.129  1.00  0.00     0.031 A 
ATOM     50  C   UNL A   1      38.216  32.301  30.138  1.00  0.00     0.031 A 
ATOM     51  C   UNL A   1      44.393  31.077  31.805  1.00  0.00     0.049 A 
ATOM     52  C   UNL A   1      39.210  33.017  31.008  1.00  0.00     0.074 A 
ATOM     53  C   UNL A   1      45.236  31.854  32.583  1.00  0.00     0.029 A 
ATOM     54  N   UNL A   1      43.171  31.730  31.768  1.00  0.00    -0.354 N 
ATOM     55  N   UNL A   1      40.452  32.699  31.278  1.00  0.00    -0.248 NA
ATOM     56  C   UNL A   1      38.745  34.246  31.667  1.00  0.00     0.031 C 
ATOM     57  C   UNL A   1      44.511  32.954  33.050  1.00  0.00     0.029 A 
ATOM     58  C   UNL A   1      43.232  32.890  32.521  1.00  0.00     0.049 A 
ATOM     59  H   UNL A   1      42.377  31.414  31.279  1.00  0.00     0.167 HD
ATOM     60  C   UNL A   1      40.923  33.696  32.120  1.00  0.00     0.074 A 
ATOM     61  C   UNL A   1      39.838  34.637  32.306  1.00  0.00     0.031 C 
ATOM     62  C   UNL A   1      42.146  33.819  32.691  1.00  0.00     0.031 A 
BRANCH  49  63
ATOM     63  C   UNL A   1      46.049  29.239  31.298  1.00  0.00    -0.014 A 
ATOM     64  C   UNL A   1      47.111  29.569  30.443  1.00  0.00     0.009 A 
ATOM     65  C   UNL A   1      46.284  28.350  32.360  1.00  0.00     0.009 A 
ATOM     66  C   UNL A   1      48.371  28.992  30.627  1.00  0.00     0.001 A 
ATOM     67  C   UNL A   1      47.551  27.797  32.558  1.00  0.00     0.001 A 
ATOM     68  C   UNL A   1      48.590  28.111  31.685  1.00  0.00     0.000 A 
ENDBRANCH  49  63
BRANCH  50  69
ATOM     69  C   UNL A   1      36.837  32.829  29.967  1.00  0.00    -0.014 A 
ATOM     70  C   UNL A   1      36.507  33.613  28.852  1.00  0.00     0.009 A 
ATOM     71  C   UNL A   1      35.841  32.547  30.917  1.00  0.00     0.009 A 
ATOM     72  C   UNL A   1      35.213  34.116  28.700  1.00  0.00     0.001 A 
ATOM     73  C   UNL A   1      34.541  33.024  30.746  1.00  0.00     0.001 A 
ATOM     74  C   UNL A   1      34.230  33.815  29.642  1.00  0.00     0.000 A 
ENDBRANCH  50  69
BRANCH  62  75
ATOM     75  C   UNL A   1      42.388  35.037  33.533  1.00  0.00    -0.014 A 
ATOM     76  C   UNL A   1      42.055  35.061  34.896  1.00  0.00     0.009 A 
ATOM     77  C   UNL A   1      42.995  36.166  32.959  1.00  0.00     0.009 A 
ATOM     78  C   UNL A   1      42.298  36.204  35.661  1.00  0.00     0.001 A 
ATOM     79  C   UNL A   1      43.260  37.296  33.731  1.00  0.00     0.001 A 
ATOM     80  C   UNL A   1      42.905  37.317  35.079  1.00  0.00     0.000 A 
ENDBRANCH  62  75
ENDBRANCH  36  37
ENDBRANCH  29  31
ENDBRANCH  28  29
ENDBRANCH  27  28
ENDBRANCH   1  27
TORSDOF 15
ENDMDL
MODEL 3
REMARK VINA RESULT:     -10.3      5.596     10.173
REMARK SMILES COc1c(C)cc(Br)cc1C(=O)Nc1ccc(O)c(C(=O)OCCOC(=O)c2ccc(-c3c4nc(c(-c5ccccc5)c5ccc([nH]5)c(-c5ccccc5)c5nc(c(-c6ccccc6)c6ccc3[nH]6)C=C5)C=C4)cc2)c1
REMARK SMILES IDX 23 1 22 2 20 3 21 4 19 5 14 6 15 7 76 8 16 9 17 10 13 11
REMARK SMILES IDX 11 12 12 13 10 15 3 16 4 17 5 18 6 19 9 20 7 21 8 22 2 23
REMARK SMILES IDX 1 24 18 25 24 27 25 28 26 29 27 30 28 31 29 32 75 33 30 34
REMARK SMILES IDX 74 35 31 36 32 37 33 38 68 39 34 40 73 41 67 42 69 43 35 44
REMARK SMILES IDX 72 45 66 46 65 47 36 49 58 50 43 51 57 52 44 53 47 54 56 55
REMARK SMILES IDX 70 56 45 57 46 58 55 60 71 61 48 62 37 63 38 64 42 65 39 66
REMARK SMILES IDX 41 67 40 68 59 69 60 70 64 71 61 72 63 73 62 74 49 75 50 76
REMARK SMILES IDX 54 77 51 78 53 79 52 80
REMARK H PARENT 13 14 18 26 69 48 47 59
REMARK Flexibility Score: inf
ROOT
ATOM      1  C   UNL A   1      31.323  28.812  24.649  1.00  0.00     0.275 C 
ENDROOT
BRANCH   1   2
ATOM      2  O   UNL A   1      30.290  28.971  23.661  1.00  0.00    -0.458 OA
BRANCH   2   3
ATOM      3  C   UNL A   1      29.440  27.935  23.494  1.00  0.00     0.342 C 
ATOM      4  O   UNL A   1      28.233  28.028  23.316  1.00  0.00    -0.246 OA
BRANCH   3   5
ATOM      5  C   UNL A   1      30.155  26.632  23.408  1.00  0.00     0.103 A 
ATOM      6  C   UNL A   1      30.638  24.518  24.515  1.00  0.00     0.042 A 
ATOM      7  C   UNL A   1      31.423  24.120  23.439  1.00  0.00     0.030 A 
ATOM      8  C   UNL A   1      29.970  25.742  24.482  1.00  0.00     0.045 A 
ATOM      9  C   UNL A   1      31.637  25.001  22.377  1.00  0.00     0.049 A 
ATOM     10  C   UNL A   1      31.030  26.264  22.376  1.00  0.00     0.130 A 
BRANCH   6  11
ATOM     11  N   UNL A   1      30.394  23.617  25.548  1.00  0.00    -0.322 N 
ATOM     12  C   UNL A   1      31.306  22.941  26.327  1.00  0.00     0.259 C 
ATOM     13  O   UNL A   1      30.998  22.761  27.509  1.00  0.00    -0.269 OA
ATOM     14  H   UNL A   1      29.446  23.442  25.747  1.00  0.00     0.170 HD
BRANCH  12  15
ATOM     15  C   UNL A   1      32.492  22.197  25.793  1.00  0.00     0.083 A 
ATOM     16  C   UNL A   1      33.858  22.550  25.840  1.00  0.00     0.134 A 
ATOM     17  C   UNL A   1      34.845  21.597  25.468  1.00  0.00    -0.007 A 
ATOM     18  C   UNL A   1      36.324  21.824  25.636  1.00  0.00     0.048 C 
ATOM     19  C   UNL A   1      34.453  20.354  24.947  1.00  0.00     0.023 A 
ATOM     20  C   UNL A   1      32.143  20.925  25.285  1.00  0.00     0.033 A 
ATOM     21  C   UNL A   1      33.110  20.025  24.857  1.00  0.00     0.019 A 
ATOM     22  Br  UNL A   1      32.607  18.321  24.214  1.00  0.00    -0.051 Br
BRANCH  16  23
ATOM     23  O   UNL A   1      34.240  23.753  26.372  1.00  0.00    -0.496 OA
ATOM     24  C   UNL A   1      34.498  24.754  25.383  1.00  0.00     0.278 C 
ENDBRANCH  16  23
ENDBRANCH  12  15
ENDBRANCH   6  11
BRANCH  10  25
ATOM     25  O   UNL A   1      31.384  27.155  21.404  1.00  0.00    -0.507 OA
ATOM     26  H   UNL A   1      32.183  27.036  20.928  1.00  0.00     0.293 HD
ENDBRANCH  10  25
ENDBRANCH   3   5
ENDBRANCH   2   3
ENDBRANCH   1   2
BRANCH   1  27
ATOM     27  C   UNL A   1      31.462  30.107  25.443  1.00  0.00     0.275 C 
BRANCH  27  28
ATOM     28  O   UNL A   1      32.847  30.329  25.772  1.00  0.00    -0.458 OA
BRANCH  28  29
ATOM     29  C   UNL A   1      33.071  31.171  26.806  1.00  0.00     0.338 C 
ATOM     30  O   UNL A   1      32.334  32.035  27.248  1.00  0.00    -0.246 OA
BRANCH  29  31
ATOM     31  C   UNL A   1      34.397  30.898  27.376  1.00  0.00     0.060 A 
ATOM     32  C   UNL A   1      34.778  29.584  27.643  1.00  0.00     0.016 A 
ATOM     33  C   UNL A   1      35.207  31.961  27.768  1.00  0.00     0.016 A 
ATOM     34  C   UNL A   1      35.929  29.328  28.384  1.00  0.00     0.010 A 
ATOM     35  C   UNL A   1      36.412  31.696  28.424  1.00  0.00     0.010 A 
ATOM     36  C   UNL A   1      36.770  30.379  28.774  1.00  0.00    -0.014 A 
BRANCH  36  37
ATOM     37  C   UNL A   1      38.004  30.130  29.570  1.00  0.00     0.031 A 
ATOM     38  C   UNL A   1      39.134  29.330  28.974  1.00  0.00     0.074 A 
ATOM     39  C   UNL A   1      38.114  30.590  30.832  1.00  0.00     0.049 A 
ATOM     40  N   UNL A   1      40.177  28.802  29.562  1.00  0.00    -0.248 NA
ATOM     41  C   UNL A   1      39.068  29.075  27.525  1.00  0.00     0.031 C 
ATOM     42  C   UNL A   1      37.134  31.429  31.524  1.00  0.00     0.029 A 
ATOM     43  N   UNL A   1      39.108  30.408  31.762  1.00  0.00    -0.354 N 
ATOM     44  C   UNL A   1      40.857  28.103  28.570  1.00  0.00     0.074 A 
ATOM     45  C   UNL A   1      40.106  28.271  27.344  1.00  0.00     0.031 C 
ATOM     46  C   UNL A   1      37.587  31.711  32.755  1.00  0.00     0.029 A 
ATOM     47  C   UNL A   1      38.841  31.000  32.973  1.00  0.00     0.049 A 
ATOM     48  H   UNL A   1      39.932  29.902  31.579  1.00  0.00     0.167 HD
ATOM     49  C   UNL A   1      41.998  27.381  28.675  1.00  0.00     0.031 A 
ATOM     50  C   UNL A   1      39.499  30.940  34.145  1.00  0.00     0.031 A 
ATOM     51  C   UNL A   1      42.764  27.248  29.886  1.00  0.00     0.049 A 
ATOM     52  C   UNL A   1      40.735  30.093  34.251  1.00  0.00     0.074 A 
ATOM     53  C   UNL A   1      43.941  26.547  30.092  1.00  0.00     0.029 A 
ATOM     54  N   UNL A   1      42.439  27.844  31.094  1.00  0.00    -0.354 N 
ATOM     55  N   UNL A   1      41.335  29.386  33.325  1.00  0.00    -0.248 NA
ATOM     56  C   UNL A   1      41.377  30.024  35.572  1.00  0.00     0.031 C 
ATOM     57  C   UNL A   1      44.304  26.686  31.435  1.00  0.00     0.029 A 
ATOM     58  C   UNL A   1      43.383  27.516  32.052  1.00  0.00     0.049 A 
ATOM     59  H   UNL A   1      41.652  28.416  31.248  1.00  0.00     0.167 HD
ATOM     60  C   UNL A   1      42.433  28.806  33.943  1.00  0.00     0.074 A 
ATOM     61  C   UNL A   1      42.425  29.253  35.320  1.00  0.00     0.031 C 
ATOM     62  C   UNL A   1      43.364  27.973  33.417  1.00  0.00     0.031 A 
BRANCH  49  63
ATOM     63  C   UNL A   1      42.465  26.638  27.453  1.00  0.00    -0.014 A 
ATOM     64  C   UNL A   1      43.391  27.197  26.559  1.00  0.00     0.009 A 
ATOM     65  C   UNL A   1      41.991  25.338  27.215  1.00  0.00     0.009 A 
ATOM     66  C   UNL A   1      43.804  26.481  25.432  1.00  0.00     0.001 A 
ATOM     67  C   UNL A   1      42.428  24.614  26.104  1.00  0.00     0.001 A 
ATOM     68  C   UNL A   1      43.326  25.191  25.208  1.00  0.00     0.000 A 
ENDBRANCH  49  63
BRANCH  50  69
ATOM     69  C   UNL A   1      38.970  31.663  35.331  1.00  0.00    -0.014 A 
ATOM     70  C   UNL A   1      38.146  31.007  36.257  1.00  0.00     0.009 A 
ATOM     71  C   UNL A   1      39.291  33.014  35.546  1.00  0.00     0.009 A 
ATOM     72  C   UNL A   1      37.642  31.692  37.365  1.00  0.00     0.001 A 
ATOM     73  C   UNL A   1      38.811  33.686  36.671  1.00  0.00     0.001 A 
ATOM     74  C   UNL A   1      37.980  33.028  37.575  1.00  0.00     0.000 A 
ENDBRANCH  50  69
BRANCH  62  75
ATOM     75  C   UNL A   1      44.476  27.530  34.322  1.00  0.00    -0.014 A 
ATOM     76  C   UNL A   1      44.416  26.307  35.007  1.00  0.00     0.009 A 
ATOM     77  C   UNL A   1      45.617  28.335  34.461  1.00  0.00     0.009 A 
ATOM     78  C   UNL A   1      45.468  25.912  35.837  1.00  0.00     0.001 A 
ATOM     79  C   UNL A   1      46.677  27.926  35.271  1.00  0.00     0.001 A 
ATOM     80  C   UNL A   1      46.598  26.719  35.964  1.00  0.00     0.000 A 
ENDBRANCH  62  75
ENDBRANCH  36  37
ENDBRANCH  29  31
ENDBRANCH  28  29
ENDBRANCH  27  28
ENDBRANCH   1  27
TORSDOF 15
ENDMDL
