MODEL 1
REMARK VINA RESULT:      -9.6      0.000      0.000
REMARK SMILES [NH3+][C@H]1CCCC[C@@H]1C(=O)N1CC(C(=O)OCCOC(=O)c2ccc(-c3c4nc(c(-c5ccccc5)c5ccc([nH]5)c(-c5ccccc5)c5nc(c(-c6ccccc6)c6ccc3[nH]6)C=C5)C=C4)cc2)C1
REMARK SMILES IDX 16 1 15 2 13 3 14 4 12 5 8 6 9 7 10 8 11 9 69 10 7 11 2 12
REMARK SMILES IDX 3 13 4 14 6 15 5 16 1 17 17 21 18 22 19 23 20 24 21 25 22 26
REMARK SMILES IDX 68 27 23 28 67 29 24 30 25 31 26 32 61 33 27 34 66 35 60 36
REMARK SMILES IDX 62 37 28 38 65 39 59 40 58 41 29 43 51 44 36 45 50 46 37 47
REMARK SMILES IDX 40 48 49 49 63 50 38 51 39 52 48 54 64 55 41 56 30 57 31 58
REMARK SMILES IDX 35 59 32 60 34 61 33 62 52 63 53 64 57 65 54 66 56 67 55 68
REMARK SMILES IDX 42 69 43 70 47 71 44 72 46 73 45 74
REMARK H PARENT 1 18 1 19 1 20 62 42 40 53
REMARK Flexibility Score: inf
ROOT
ATOM      1  C   UNL A   1      44.632  18.404  25.738  1.00  0.00     0.274 C 
ENDROOT
BRANCH   1   2
ATOM      2  O   UNL A   1      44.960  19.094  24.515  1.00  0.00    -0.462 OA
BRANCH   2   3
ATOM      3  C   UNL A   1      45.880  20.099  24.613  1.00  0.00     0.312 C 
ATOM      4  O   UNL A   1      47.049  19.981  24.246  1.00  0.00    -0.252 OA
BRANCH   3   5
ATOM      5  C   UNL A   1      45.292  21.409  25.140  1.00  0.00     0.138 C 
ATOM      6  C   UNL A   1      45.328  24.786  25.096  1.00  0.00     0.231 C 
ATOM      7  O   UNL A   1      44.384  25.345  24.529  1.00  0.00    -0.274 OA
ATOM      8  N   UNL A   1      45.385  23.431  25.184  1.00  0.00    -0.340 N 
ATOM      9  C   UNL A   1      45.026  22.513  24.115  1.00  0.00     0.136 C 
ATOM     10  C   UNL A   1      46.140  22.429  25.908  1.00  0.00     0.136 C 
BRANCH   6  11
ATOM     11  C   UNL A   1      46.492  25.607  25.620  1.00  0.00     0.136 C 
ATOM     12  C   UNL A   1      46.154  27.113  25.655  1.00  0.00     0.193 C 
ATOM     13  C   UNL A   1      47.294  27.905  26.302  1.00  0.00     0.066 C 
ATOM     14  C   UNL A   1      48.621  27.633  25.594  1.00  0.00     0.006 C 
ATOM     15  C   UNL A   1      47.811  25.341  24.894  1.00  0.00     0.020 C 
ATOM     16  C   UNL A   1      48.944  26.142  25.539  1.00  0.00     0.001 C 
BRANCH  12  17
ATOM     17  N   UNL A   1      44.892  27.386  26.343  1.00  0.00    -0.354 N 
ATOM     18  H   UNL A   1      44.336  28.038  25.789  1.00  0.00     0.344 HD
ATOM     19  H   UNL A   1      45.085  27.797  27.257  1.00  0.00     0.344 HD
ATOM     20  H   UNL A   1      44.375  26.515  26.464  1.00  0.00     0.344 HD
ENDBRANCH  12  17
ENDBRANCH   6  11
ENDBRANCH   3   5
ENDBRANCH   2   3
ENDBRANCH   1   2
BRANCH   1  21
ATOM     21  C   UNL A   1      43.113  18.326  25.938  1.00  0.00     0.275 C 
BRANCH  21  22
ATOM     22  O   UNL A   1      42.419  19.408  25.284  1.00  0.00    -0.458 OA
BRANCH  22  23
ATOM     23  C   UNL A   1      41.230  19.733  25.840  1.00  0.00     0.338 C 
ATOM     24  O   UNL A   1      40.237  19.032  25.926  1.00  0.00    -0.246 OA
BRANCH  23  25
ATOM     25  C   UNL A   1      41.302  21.057  26.478  1.00  0.00     0.060 A 
ATOM     26  C   UNL A   1      41.699  22.131  25.684  1.00  0.00     0.016 A 
ATOM     27  C   UNL A   1      41.150  21.221  27.853  1.00  0.00     0.016 A 
ATOM     28  C   UNL A   1      42.033  23.349  26.255  1.00  0.00     0.010 A 
ATOM     29  C   UNL A   1      41.430  22.470  28.427  1.00  0.00     0.010 A 
ATOM     30  C   UNL A   1      41.905  23.531  27.635  1.00  0.00    -0.014 A 
BRANCH  30  31
ATOM     31  C   UNL A   1      42.331  24.824  28.221  1.00  0.00     0.031 A 
ATOM     32  C   UNL A   1      41.324  25.917  28.442  1.00  0.00     0.074 A 
ATOM     33  C   UNL A   1      43.600  24.980  28.645  1.00  0.00     0.049 A 
ATOM     34  N   UNL A   1      41.511  27.133  28.888  1.00  0.00    -0.248 NA
ATOM     35  C   UNL A   1      39.922  25.600  28.124  1.00  0.00     0.031 C 
ATOM     36  C   UNL A   1      44.651  23.962  28.572  1.00  0.00     0.029 A 
ATOM     37  N   UNL A   1      44.214  26.049  29.246  1.00  0.00    -0.354 N 
ATOM     38  C   UNL A   1      40.261  27.737  28.875  1.00  0.00     0.074 A 
ATOM     39  C   UNL A   1      39.322  26.757  28.370  1.00  0.00     0.031 C 
ATOM     40  C   UNL A   1      45.768  24.443  29.140  1.00  0.00     0.029 A 
ATOM     41  C   UNL A   1      45.532  25.822  29.556  1.00  0.00     0.049 A 
ATOM     42  H   UNL A   1      43.753  26.898  29.439  1.00  0.00     0.167 HD
ATOM     43  C   UNL A   1      39.925  28.994  29.249  1.00  0.00     0.031 A 
ATOM     44  C   UNL A   1      46.456  26.641  30.090  1.00  0.00     0.031 A 
ATOM     45  C   UNL A   1      40.854  29.961  29.767  1.00  0.00     0.049 A 
ATOM     46  C   UNL A   1      46.073  28.051  30.430  1.00  0.00     0.074 A 
ATOM     47  C   UNL A   1      40.618  31.273  30.140  1.00  0.00     0.029 A 
ATOM     48  N   UNL A   1      42.196  29.712  30.003  1.00  0.00    -0.354 N 
ATOM     49  N   UNL A   1      44.902  28.633  30.342  1.00  0.00    -0.248 NA
ATOM     50  C   UNL A   1      47.145  28.923  30.932  1.00  0.00     0.031 C 
ATOM     51  C   UNL A   1      41.828  31.828  30.574  1.00  0.00     0.029 A 
ATOM     52  C   UNL A   1      42.805  30.848  30.509  1.00  0.00     0.049 A 
ATOM     53  H   UNL A   1      42.651  28.855  29.835  1.00  0.00     0.167 HD
ATOM     54  C   UNL A   1      45.091  29.932  30.791  1.00  0.00     0.074 A 
ATOM     55  C   UNL A   1      46.485  30.048  31.168  1.00  0.00     0.031 C 
ATOM     56  C   UNL A   1      44.192  30.941  30.880  1.00  0.00     0.031 A 
BRANCH  43  57
ATOM     57  C   UNL A   1      38.492  29.405  29.070  1.00  0.00    -0.014 A 
ATOM     58  C   UNL A   1      38.008  29.842  27.828  1.00  0.00     0.009 A 
ATOM     59  C   UNL A   1      37.608  29.326  30.157  1.00  0.00     0.009 A 
ATOM     60  C   UNL A   1      36.671  30.218  27.685  1.00  0.00     0.001 A 
ATOM     61  C   UNL A   1      36.267  29.682  30.006  1.00  0.00     0.001 A 
ATOM     62  C   UNL A   1      35.801  30.134  28.773  1.00  0.00     0.000 A 
ENDBRANCH  43  57
BRANCH  44  63
ATOM     63  C   UNL A   1      47.847  26.162  30.297  1.00  0.00    -0.014 A 
ATOM     64  C   UNL A   1      48.760  26.138  29.231  1.00  0.00     0.009 A 
ATOM     65  C   UNL A   1      48.265  25.715  31.561  1.00  0.00     0.009 A 
ATOM     66  C   UNL A   1      50.055  25.653  29.423  1.00  0.00     0.001 A 
ATOM     67  C   UNL A   1      49.569  25.257  31.755  1.00  0.00     0.001 A 
ATOM     68  C   UNL A   1      50.460  25.218  30.685  1.00  0.00     0.000 A 
ENDBRANCH  44  63
BRANCH  56  69
ATOM     69  C   UNL A   1      44.686  32.242  31.438  1.00  0.00    -0.014 A 
ATOM     70  C   UNL A   1      45.190  33.245  30.596  1.00  0.00     0.009 A 
ATOM     71  C   UNL A   1      44.624  32.475  32.820  1.00  0.00     0.009 A 
ATOM     72  C   UNL A   1      45.653  34.448  31.134  1.00  0.00     0.001 A 
ATOM     73  C   UNL A   1      45.067  33.686  33.353  1.00  0.00     0.001 A 
ATOM     74  C   UNL A   1      45.588  34.667  32.511  1.00  0.00     0.000 A 
ENDBRANCH  56  69
ENDBRANCH  30  31
ENDBRANCH  23  25
ENDBRANCH  22  23
ENDBRANCH  21  22
ENDBRANCH   1  21
TORSDOF 13
ENDMDL
MODEL 2
REMARK VINA RESULT:      -8.9      4.360      9.499
REMARK SMILES [NH3+][C@H]1CCCC[C@@H]1C(=O)N1CC(C(=O)OCCOC(=O)c2ccc(-c3c4nc(c(-c5ccccc5)c5ccc([nH]5)c(-c5ccccc5)c5nc(c(-c6ccccc6)c6ccc3[nH]6)C=C5)C=C4)cc2)C1
REMARK SMILES IDX 16 1 15 2 13 3 14 4 12 5 8 6 9 7 10 8 11 9 69 10 7 11 2 12
REMARK SMILES IDX 3 13 4 14 6 15 5 16 1 17 17 21 18 22 19 23 20 24 21 25 22 26
REMARK SMILES IDX 68 27 23 28 67 29 24 30 25 31 26 32 61 33 27 34 66 35 60 36
REMARK SMILES IDX 62 37 28 38 65 39 59 40 58 41 29 43 51 44 36 45 50 46 37 47
REMARK SMILES IDX 40 48 49 49 63 50 38 51 39 52 48 54 64 55 41 56 30 57 31 58
REMARK SMILES IDX 35 59 32 60 34 61 33 62 52 63 53 64 57 65 54 66 56 67 55 68
REMARK SMILES IDX 42 69 43 70 47 71 44 72 46 73 45 74
REMARK H PARENT 1 18 1 19 1 20 62 42 40 53
REMARK Flexibility Score: inf
ROOT
ATOM      1  C   UNL A   1      32.239  27.513  26.196  1.00  0.00     0.274 C 
ENDROOT
BRANCH   1   2
ATOM      2  O   UNL A   1      31.491  26.446  26.812  1.00  0.00    -0.462 OA
BRANCH   2   3
ATOM      3  C   UNL A   1      30.746  25.664  25.974  1.00  0.00     0.312 C 
ATOM      4  O   UNL A   1      29.728  26.062  25.410  1.00  0.00    -0.252 OA
BRANCH   3   5
ATOM      5  C   UNL A   1      31.352  24.280  25.739  1.00  0.00     0.138 C 
ATOM      6  C   UNL A   1      33.926  22.154  26.257  1.00  0.00     0.231 C 
ATOM      7  O   UNL A   1      33.727  21.221  27.040  1.00  0.00    -0.274 OA
ATOM      8  N   UNL A   1      32.940  23.045  25.969  1.00  0.00    -0.340 N 
ATOM      9  C   UNL A   1      32.007  23.595  26.939  1.00  0.00     0.136 C 
ATOM     10  C   UNL A   1      32.681  24.090  24.999  1.00  0.00     0.136 C 
BRANCH   6  11
ATOM     11  C   UNL A   1      35.311  22.377  25.677  1.00  0.00     0.136 C 
ATOM     12  C   UNL A   1      36.141  21.076  25.677  1.00  0.00     0.193 C 
ATOM     13  C   UNL A   1      37.485  21.296  24.975  1.00  0.00     0.066 C 
ATOM     14  C   UNL A   1      38.247  22.461  25.605  1.00  0.00     0.006 C 
ATOM     15  C   UNL A   1      36.072  23.534  26.326  1.00  0.00     0.020 C 
ATOM     16  C   UNL A   1      37.418  23.743  25.627  1.00  0.00     0.001 C 
BRANCH  12  17
ATOM     17  N   UNL A   1      35.426  19.957  25.063  1.00  0.00    -0.354 N 
ATOM     18  H   UNL A   1      35.613  19.104  25.589  1.00  0.00     0.344 HD
ATOM     19  H   UNL A   1      35.743  19.838  24.100  1.00  0.00     0.344 HD
ATOM     20  H   UNL A   1      34.424  20.149  25.070  1.00  0.00     0.344 HD
ENDBRANCH  12  17
ENDBRANCH   6  11
ENDBRANCH   3   5
ENDBRANCH   2   3
ENDBRANCH   1   2
BRANCH   1  21
ATOM     21  C   UNL A   1      32.764  28.498  27.249  1.00  0.00     0.275 C 
BRANCH  21  22
ATOM     22  O   UNL A   1      34.034  29.070  26.878  1.00  0.00    -0.458 OA
BRANCH  22  23
ATOM     23  C   UNL A   1      34.414  30.132  27.626  1.00  0.00     0.338 C 
ATOM     24  O   UNL A   1      33.730  31.083  27.962  1.00  0.00    -0.246 OA
BRANCH  23  25
ATOM     25  C   UNL A   1      35.787  29.950  28.124  1.00  0.00     0.060 A 
ATOM     26  C   UNL A   1      36.829  30.147  27.219  1.00  0.00     0.016 A 
ATOM     27  C   UNL A   1      36.048  29.438  29.392  1.00  0.00     0.016 A 
ATOM     28  C   UNL A   1      38.121  29.756  27.531  1.00  0.00     0.010 A 
ATOM     29  C   UNL A   1      37.366  29.097  29.733  1.00  0.00     0.010 A 
ATOM     30  C   UNL A   1      38.403  29.223  28.792  1.00  0.00    -0.014 A 
BRANCH  30  31
ATOM     31  C   UNL A   1      39.782  28.757  29.071  1.00  0.00     0.031 A 
ATOM     32  C   UNL A   1      40.717  29.614  29.877  1.00  0.00     0.074 A 
ATOM     33  C   UNL A   1      40.162  27.523  28.686  1.00  0.00     0.049 A 
ATOM     34  N   UNL A   1      41.974  29.407  30.177  1.00  0.00    -0.248 NA
ATOM     35  C   UNL A   1      40.166  30.867  30.420  1.00  0.00     0.031 C 
ATOM     36  C   UNL A   1      39.317  26.558  27.978  1.00  0.00     0.029 A 
ATOM     37  N   UNL A   1      41.350  26.861  28.860  1.00  0.00    -0.354 N 
ATOM     38  C   UNL A   1      42.373  30.514  30.915  1.00  0.00     0.074 A 
ATOM     39  C   UNL A   1      41.229  31.395  31.011  1.00  0.00     0.031 C 
ATOM     40  C   UNL A   1      40.003  25.416  27.811  1.00  0.00     0.029 A 
ATOM     41  C   UNL A   1      41.352  25.591  28.338  1.00  0.00     0.049 A 
ATOM     42  H   UNL A   1      42.127  27.257  29.316  1.00  0.00     0.167 HD
ATOM     43  C   UNL A   1      43.584  30.773  31.462  1.00  0.00     0.031 A 
ATOM     44  C   UNL A   1      42.337  24.678  28.268  1.00  0.00     0.031 A 
ATOM     45  C   UNL A   1      44.716  29.890  31.381  1.00  0.00     0.049 A 
ATOM     46  C   UNL A   1      43.690  25.020  28.820  1.00  0.00     0.074 A 
ATOM     47  C   UNL A   1      45.997  30.079  31.871  1.00  0.00     0.029 A 
ATOM     48  N   UNL A   1      44.695  28.639  30.785  1.00  0.00    -0.354 N 
ATOM     49  N   UNL A   1      44.075  26.103  29.450  1.00  0.00    -0.248 NA
ATOM     50  C   UNL A   1      44.749  24.017  28.640  1.00  0.00     0.031 C 
ATOM     51  C   UNL A   1      46.761  28.953  31.543  1.00  0.00     0.029 A 
ATOM     52  C   UNL A   1      45.943  28.048  30.887  1.00  0.00     0.049 A 
ATOM     53  H   UNL A   1      43.911  28.232  30.352  1.00  0.00     0.167 HD
ATOM     54  C   UNL A   1      45.415  25.906  29.755  1.00  0.00     0.074 A 
ATOM     55  C   UNL A   1      45.771  24.593  29.258  1.00  0.00     0.031 C 
ATOM     56  C   UNL A   1      46.275  26.740  30.388  1.00  0.00     0.031 A 
BRANCH  43  57
ATOM     57  C   UNL A   1      43.755  32.090  32.163  1.00  0.00    -0.014 A 
ATOM     58  C   UNL A   1      43.475  32.231  33.530  1.00  0.00     0.009 A 
ATOM     59  C   UNL A   1      44.231  33.199  31.446  1.00  0.00     0.009 A 
ATOM     60  C   UNL A   1      43.643  33.466  34.160  1.00  0.00     0.001 A 
ATOM     61  C   UNL A   1      44.418  34.426  32.083  1.00  0.00     0.001 A 
ATOM     62  C   UNL A   1      44.117  34.561  33.437  1.00  0.00     0.000 A 
ENDBRANCH  43  57
BRANCH  44  63
ATOM     63  C   UNL A   1      42.096  23.368  27.611  1.00  0.00    -0.014 A 
ATOM     64  C   UNL A   1      42.408  23.180  26.256  1.00  0.00     0.009 A 
ATOM     65  C   UNL A   1      41.539  22.302  28.335  1.00  0.00     0.009 A 
ATOM     66  C   UNL A   1      42.146  21.957  25.635  1.00  0.00     0.001 A 
ATOM     67  C   UNL A   1      41.304  21.072  27.718  1.00  0.00     0.001 A 
ATOM     68  C   UNL A   1      41.599  20.904  26.367  1.00  0.00     0.000 A 
ENDBRANCH  44  63
BRANCH  56  69
ATOM     69  C   UNL A   1      47.671  26.236  30.605  1.00  0.00    -0.014 A 
ATOM     70  C   UNL A   1      48.067  25.712  31.844  1.00  0.00     0.009 A 
ATOM     71  C   UNL A   1      48.592  26.266  29.547  1.00  0.00     0.009 A 
ATOM     72  C   UNL A   1      49.373  25.254  32.029  1.00  0.00     0.001 A 
ATOM     73  C   UNL A   1      49.890  25.787  29.729  1.00  0.00     0.001 A 
ATOM     74  C   UNL A   1      50.281  25.290  30.971  1.00  0.00     0.000 A 
ENDBRANCH  56  69
ENDBRANCH  30  31
ENDBRANCH  23  25
ENDBRANCH  22  23
ENDBRANCH  21  22
ENDBRANCH   1  21
TORSDOF 13
ENDMDL
MODEL 3
REMARK VINA RESULT:      -8.9      4.235      7.636
REMARK SMILES [NH3+][C@H]1CCCC[C@@H]1C(=O)N1CC(C(=O)OCCOC(=O)c2ccc(-c3c4nc(c(-c5ccccc5)c5ccc([nH]5)c(-c5ccccc5)c5nc(c(-c6ccccc6)c6ccc3[nH]6)C=C5)C=C4)cc2)C1
REMARK SMILES IDX 16 1 15 2 13 3 14 4 12 5 8 6 9 7 10 8 11 9 69 10 7 11 2 12
REMARK SMILES IDX 3 13 4 14 6 15 5 16 1 17 17 21 18 22 19 23 20 24 21 25 22 26
REMARK SMILES IDX 68 27 23 28 67 29 24 30 25 31 26 32 61 33 27 34 66 35 60 36
REMARK SMILES IDX 62 37 28 38 65 39 59 40 58 41 29 43 51 44 36 45 50 46 37 47
REMARK SMILES IDX 40 48 49 49 63 50 38 51 39 52 48 54 64 55 41 56 30 57 31 58
REMARK SMILES IDX 35 59 32 60 34 61 33 62 52 63 53 64 57 65 54 66 56 67 55 68
REMARK SMILES IDX 42 69 43 70 47 71 44 72 46 73 45 74
REMARK H PARENT 1 18 1 19 1 20 62 42 40 53
REMARK Flexibility Score: inf
ROOT
ATOM      1  C   UNL A   1      34.821  20.726  24.674  1.00  0.00     0.274 C 
ENDROOT
BRANCH   1   2
ATOM      2  O   UNL A   1      33.999  20.916  25.844  1.00  0.00    -0.462 OA
BRANCH   2   3
ATOM      3  C   UNL A   1      32.673  21.157  25.621  1.00  0.00     0.312 C 
ATOM      4  O   UNL A   1      31.966  20.436  24.917  1.00  0.00    -0.252 OA
BRANCH   3   5
ATOM      5  C   UNL A   1      32.135  22.357  26.403  1.00  0.00     0.138 C 
ATOM      6  C   UNL A   1      31.215  25.606  26.386  1.00  0.00     0.231 C 
ATOM      7  O   UNL A   1      30.005  25.842  26.457  1.00  0.00    -0.274 OA
ATOM      8  N   UNL A   1      31.679  24.329  26.410  1.00  0.00    -0.340 N 
ATOM      9  C   UNL A   1      31.063  23.207  25.720  1.00  0.00     0.136 C 
ATOM     10  C   UNL A   1      32.947  23.646  26.570  1.00  0.00     0.136 C 
BRANCH   6  11
ATOM     11  C   UNL A   1      32.198  26.742  26.170  1.00  0.00     0.136 C 
ATOM     12  C   UNL A   1      31.683  28.062  26.784  1.00  0.00     0.193 C 
ATOM     13  C   UNL A   1      32.744  29.160  26.664  1.00  0.00     0.066 C 
ATOM     14  C   UNL A   1      33.186  29.339  25.213  1.00  0.00     0.006 C 
ATOM     15  C   UNL A   1      32.621  26.924  24.712  1.00  0.00     0.020 C 
ATOM     16  C   UNL A   1      33.674  28.029  24.598  1.00  0.00     0.001 C 
BRANCH  12  17
ATOM     17  N   UNL A   1      31.270  27.905  28.179  1.00  0.00    -0.354 N 
ATOM     18  H   UNL A   1      31.474  26.954  28.489  1.00  0.00     0.344 HD
ATOM     19  H   UNL A   1      30.268  28.080  28.259  1.00  0.00     0.344 HD
ATOM     20  H   UNL A   1      31.779  28.569  28.761  1.00  0.00     0.344 HD
ENDBRANCH  12  17
ENDBRANCH   6  11
ENDBRANCH   3   5
ENDBRANCH   2   3
ENDBRANCH   1   2
BRANCH   1  21
ATOM     21  C   UNL A   1      36.220  20.227  25.058  1.00  0.00     0.275 C 
BRANCH  21  22
ATOM     22  O   UNL A   1      37.186  21.296  25.110  1.00  0.00    -0.458 OA
BRANCH  22  23
ATOM     23  C   UNL A   1      38.397  20.939  25.597  1.00  0.00     0.338 C 
ATOM     24  O   UNL A   1      38.954  19.861  25.477  1.00  0.00    -0.246 OA
BRANCH  23  25
ATOM     25  C   UNL A   1      39.067  22.092  26.218  1.00  0.00     0.060 A 
ATOM     26  C   UNL A   1      38.438  23.332  26.112  1.00  0.00     0.016 A 
ATOM     27  C   UNL A   1      40.354  22.002  26.743  1.00  0.00     0.016 A 
ATOM     28  C   UNL A   1      39.111  24.497  26.442  1.00  0.00     0.010 A 
ATOM     29  C   UNL A   1      41.015  23.175  27.134  1.00  0.00     0.010 A 
ATOM     30  C   UNL A   1      40.410  24.432  26.954  1.00  0.00    -0.014 A 
BRANCH  30  31
ATOM     31  C   UNL A   1      41.125  25.699  27.238  1.00  0.00     0.031 A 
ATOM     32  C   UNL A   1      40.552  26.682  28.220  1.00  0.00     0.074 A 
ATOM     33  C   UNL A   1      42.334  25.922  26.688  1.00  0.00     0.049 A 
ATOM     34  N   UNL A   1      40.997  27.866  28.556  1.00  0.00    -0.248 NA
ATOM     35  C   UNL A   1      39.319  26.280  28.917  1.00  0.00     0.031 C 
ATOM     36  C   UNL A   1      43.041  25.004  25.792  1.00  0.00     0.029 A 
ATOM     37  N   UNL A   1      43.194  26.981  26.826  1.00  0.00    -0.354 N 
ATOM     38  C   UNL A   1      40.085  28.364  29.478  1.00  0.00     0.074 A 
ATOM     39  C   UNL A   1      39.057  27.358  29.644  1.00  0.00     0.031 C 
ATOM     40  C   UNL A   1      44.241  25.524  25.489  1.00  0.00     0.029 A 
ATOM     41  C   UNL A   1      44.360  26.836  26.115  1.00  0.00     0.049 A 
ATOM     42  H   UNL A   1      42.997  27.769  27.383  1.00  0.00     0.167 HD
ATOM     43  C   UNL A   1      40.104  29.551  30.128  1.00  0.00     0.031 A 
ATOM     44  C   UNL A   1      45.398  27.678  25.962  1.00  0.00     0.031 A 
ATOM     45  C   UNL A   1      41.134  30.543  29.978  1.00  0.00     0.049 A 
ATOM     46  C   UNL A   1      45.358  29.018  26.638  1.00  0.00     0.074 A 
ATOM     47  C   UNL A   1      41.223  31.793  30.564  1.00  0.00     0.029 A 
ATOM     48  N   UNL A   1      42.266  30.385  29.195  1.00  0.00    -0.354 N 
ATOM     49  N   UNL A   1      44.452  29.506  27.449  1.00  0.00    -0.248 NA
ATOM     50  C   UNL A   1      46.480  29.927  26.366  1.00  0.00     0.031 C 
ATOM     51  C   UNL A   1      42.397  32.406  30.111  1.00  0.00     0.029 A 
ATOM     52  C   UNL A   1      43.057  31.518  29.275  1.00  0.00     0.049 A 
ATOM     53  H   UNL A   1      42.477  29.586  28.659  1.00  0.00     0.167 HD
ATOM     54  C   UNL A   1      44.902  30.773  27.797  1.00  0.00     0.074 A 
ATOM     55  C   UNL A   1      46.169  30.969  27.123  1.00  0.00     0.031 C 
ATOM     56  C   UNL A   1      44.315  31.693  28.600  1.00  0.00     0.031 A 
BRANCH  43  57
ATOM     57  C   UNL A   1      38.945  29.858  31.034  1.00  0.00    -0.014 A 
ATOM     58  C   UNL A   1      38.990  29.558  32.403  1.00  0.00     0.009 A 
ATOM     59  C   UNL A   1      37.804  30.482  30.509  1.00  0.00     0.009 A 
ATOM     60  C   UNL A   1      37.901  29.854  33.225  1.00  0.00     0.001 A 
ATOM     61  C   UNL A   1      36.725  30.796  31.337  1.00  0.00     0.001 A 
ATOM     62  C   UNL A   1      36.771  30.476  32.692  1.00  0.00     0.000 A 
ENDBRANCH  43  57
BRANCH  44  63
ATOM     63  C   UNL A   1      46.544  27.300  25.097  1.00  0.00    -0.014 A 
ATOM     64  C   UNL A   1      46.728  27.910  23.846  1.00  0.00     0.009 A 
ATOM     65  C   UNL A   1      47.455  26.315  25.513  1.00  0.00     0.009 A 
ATOM     66  C   UNL A   1      47.787  27.524  23.022  1.00  0.00     0.001 A 
ATOM     67  C   UNL A   1      48.528  25.952  24.698  1.00  0.00     0.001 A 
ATOM     68  C   UNL A   1      48.688  26.549  23.450  1.00  0.00     0.000 A 
ENDBRANCH  44  63
BRANCH  56  69
ATOM     69  C   UNL A   1      45.060  32.976  28.816  1.00  0.00    -0.014 A 
ATOM     70  C   UNL A   1      44.839  34.089  27.991  1.00  0.00     0.009 A 
ATOM     71  C   UNL A   1      45.975  33.079  29.874  1.00  0.00     0.009 A 
ATOM     72  C   UNL A   1      45.546  35.274  28.203  1.00  0.00     0.001 A 
ATOM     73  C   UNL A   1      46.665  34.271  30.097  1.00  0.00     0.001 A 
ATOM     74  C   UNL A   1      46.456  35.363  29.257  1.00  0.00     0.000 A 
ENDBRANCH  56  69
ENDBRANCH  30  31
ENDBRANCH  23  25
ENDBRANCH  22  23
ENDBRANCH  21  22
ENDBRANCH   1  21
TORSDOF 13
ENDMDL
