MODEL 1
REMARK VINA RESULT:     -11.6      0.000      0.000
REMARK SMILES O=C(OCCOC(=O)c1ccc2[nH]c3c(c2c1)CN(C(=O)C1CC1)CC3)c1ccc(-c2c3nc(c(-c4ccccc4)c4ccc([nH]4)c(-c4ccccc4)c4nc(c(-c5ccccc5)c5ccc2[nH]5)C=C4)C=C3)cc1
REMARK SMILES IDX 4 1 3 2 2 3 1 4 27 5 28 6 74 7 29 8 73 9 30 10 31 11 32 12
REMARK SMILES IDX 67 13 33 14 72 15 66 16 68 17 34 18 71 19 65 20 64 21 35 23
REMARK SMILES IDX 57 24 42 25 56 26 43 27 46 28 55 29 69 30 44 31 45 32 54 34
REMARK SMILES IDX 70 35 47 36 36 37 37 38 41 39 38 40 40 41 39 42 58 43 59 44
REMARK SMILES IDX 63 45 60 46 62 47 61 48 48 49 49 50 53 51 50 52 52 53 51 54
REMARK SMILES IDX 5 55 6 56 7 57 8 58 9 59 10 60 17 61 11 62 16 63 12 64 15 65
REMARK SMILES IDX 13 66 14 67 18 68 26 70 19 71 25 72 20 73 21 74 22 75 23 76
REMARK SMILES IDX 24 77
REMARK H PARENT 68 22 46 33 13 69
REMARK Flexibility Score: inf
ROOT
ATOM      1  C   UNL A   1      45.951  26.228  26.807  1.00  0.00     0.275 C 
ENDROOT
BRANCH   1   2
ATOM      2  O   UNL A   1      46.032  26.453  28.240  1.00  0.00    -0.458 OA
BRANCH   2   3
ATOM      3  C   UNL A   1      45.409  25.756  29.232  1.00  0.00     0.338 C 
ATOM      4  O   UNL A   1      45.673  24.588  29.478  1.00  0.00    -0.246 OA
BRANCH   3   5
ATOM      5  C   UNL A   1      44.241  26.405  29.850  1.00  0.00     0.060 A 
ATOM      6  C   UNL A   1      43.073  26.360  29.106  1.00  0.00     0.016 A 
ATOM      7  C   UNL A   1      44.383  27.298  30.915  1.00  0.00     0.016 A 
ATOM      8  C   UNL A   1      42.237  27.456  29.174  1.00  0.00     0.010 A 
ATOM      9  C   UNL A   1      43.526  28.391  30.997  1.00  0.00     0.010 A 
ATOM     10  C   UNL A   1      42.529  28.537  30.036  1.00  0.00    -0.014 A 
BRANCH  10  11
ATOM     11  C   UNL A   1      41.574  29.655  30.037  1.00  0.00     0.031 A 
ATOM     12  C   UNL A   1      42.314  30.927  29.860  1.00  0.00     0.074 A 
ATOM     13  C   UNL A   1      40.226  29.620  30.132  1.00  0.00     0.049 A 
ATOM     14  N   UNL A   1      42.409  31.896  30.706  1.00  0.00    -0.248 NA
ATOM     15  C   UNL A   1      43.279  30.986  28.741  1.00  0.00     0.031 C 
ATOM     16  C   UNL A   1      39.350  28.448  30.170  1.00  0.00     0.029 A 
ATOM     17  N   UNL A   1      39.322  30.658  30.118  1.00  0.00    -0.354 N 
ATOM     18  C   UNL A   1      43.307  32.780  30.126  1.00  0.00     0.074 A 
ATOM     19  C   UNL A   1      43.978  32.070  29.070  1.00  0.00     0.031 C 
ATOM     20  C   UNL A   1      38.077  28.821  29.907  1.00  0.00     0.029 A 
ATOM     21  C   UNL A   1      38.022  30.266  29.796  1.00  0.00     0.049 A 
ATOM     22  H   UNL A   1      39.570  31.589  30.318  1.00  0.00     0.167 HD
ATOM     23  C   UNL A   1      43.167  34.117  30.295  1.00  0.00     0.031 A 
ATOM     24  C   UNL A   1      36.992  31.058  29.398  1.00  0.00     0.031 A 
ATOM     25  C   UNL A   1      42.419  34.432  31.480  1.00  0.00     0.049 A 
ATOM     26  C   UNL A   1      37.284  32.433  29.838  1.00  0.00     0.074 A 
ATOM     27  C   UNL A   1      42.615  34.272  32.836  1.00  0.00     0.029 A 
ATOM     28  N   UNL A   1      41.078  34.638  31.284  1.00  0.00    -0.354 N 
ATOM     29  N   UNL A   1      37.233  32.820  31.077  1.00  0.00    -0.248 NA
ATOM     30  C   UNL A   1      37.958  33.337  28.920  1.00  0.00     0.031 C 
ATOM     31  C   UNL A   1      41.318  34.117  33.399  1.00  0.00     0.029 A 
ATOM     32  C   UNL A   1      40.367  34.243  32.385  1.00  0.00     0.049 A 
ATOM     33  H   UNL A   1      40.682  35.017  30.466  1.00  0.00     0.167 HD
ATOM     34  C   UNL A   1      38.252  33.749  31.178  1.00  0.00     0.074 A 
ATOM     35  C   UNL A   1      38.537  34.150  29.805  1.00  0.00     0.031 C 
ATOM     36  C   UNL A   1      38.970  33.858  32.330  1.00  0.00     0.031 A 
BRANCH  23  37
ATOM     37  C   UNL A   1      43.241  35.037  29.101  1.00  0.00    -0.014 A 
ATOM     38  C   UNL A   1      42.197  35.152  28.154  1.00  0.00     0.009 A 
ATOM     39  C   UNL A   1      44.246  36.009  29.043  1.00  0.00     0.009 A 
ATOM     40  C   UNL A   1      42.172  36.139  27.173  1.00  0.00     0.001 A 
ATOM     41  C   UNL A   1      44.202  37.035  28.088  1.00  0.00     0.001 A 
ATOM     42  C   UNL A   1      43.173  37.093  27.149  1.00  0.00     0.000 A 
ENDBRANCH  23  37
BRANCH  24  43
ATOM     43  C   UNL A   1      35.911  30.800  28.411  1.00  0.00    -0.014 A 
ATOM     44  C   UNL A   1      34.892  31.745  28.209  1.00  0.00     0.009 A 
ATOM     45  C   UNL A   1      35.693  29.495  27.923  1.00  0.00     0.009 A 
ATOM     46  C   UNL A   1      33.674  31.384  27.617  1.00  0.00     0.001 A 
ATOM     47  C   UNL A   1      34.471  29.133  27.340  1.00  0.00     0.001 A 
ATOM     48  C   UNL A   1      33.453  30.072  27.208  1.00  0.00     0.000 A 
ENDBRANCH  24  43
BRANCH  36  49
ATOM     49  C   UNL A   1      38.349  33.352  33.610  1.00  0.00    -0.014 A 
ATOM     50  C   UNL A   1      37.662  34.286  34.402  1.00  0.00     0.009 A 
ATOM     51  C   UNL A   1      38.512  32.050  34.112  1.00  0.00     0.009 A 
ATOM     52  C   UNL A   1      37.174  33.945  35.664  1.00  0.00     0.001 A 
ATOM     53  C   UNL A   1      37.995  31.698  35.364  1.00  0.00     0.001 A 
ATOM     54  C   UNL A   1      37.338  32.649  36.143  1.00  0.00     0.000 A 
ENDBRANCH  36  49
ENDBRANCH  10  11
ENDBRANCH   3   5
ENDBRANCH   2   3
ENDBRANCH   1   2
BRANCH   1  55
ATOM     55  C   UNL A   1      45.010  27.129  25.986  1.00  0.00     0.275 C 
BRANCH  55  56
ATOM     56  O   UNL A   1      44.117  26.447  25.107  1.00  0.00    -0.458 OA
BRANCH  56  57
ATOM     57  C   UNL A   1      42.838  26.877  25.106  1.00  0.00     0.338 C 
ATOM     58  O   UNL A   1      42.416  27.883  24.557  1.00  0.00    -0.246 OA
BRANCH  57  59
ATOM     59  C   UNL A   1      41.989  25.821  25.698  1.00  0.00     0.060 A 
ATOM     60  C   UNL A   1      40.786  26.098  26.357  1.00  0.00     0.018 A 
ATOM     61  C   UNL A   1      42.490  24.514  25.638  1.00  0.00     0.026 A 
ATOM     62  C   UNL A   1      40.059  25.072  26.983  1.00  0.00     0.027 A 
ATOM     63  C   UNL A   1      41.764  23.468  26.238  1.00  0.00     0.006 A 
ATOM     64  C   UNL A   1      40.564  23.767  26.893  1.00  0.00     0.046 A 
ATOM     65  C   UNL A   1      41.956  22.062  26.317  1.00  0.00     0.000 A 
ATOM     66  N   UNL A   1      40.045  22.573  27.360  1.00  0.00    -0.358 N 
ATOM     67  C   UNL A   1      40.830  21.544  26.926  1.00  0.00     0.023 A 
ATOM     68  C   UNL A   1      43.056  21.213  25.748  1.00  0.00     0.157 C 
ATOM     69  H   UNL A   1      39.239  22.480  27.917  1.00  0.00     0.166 HD
ATOM     70  C   UNL A   1      40.520  20.089  26.966  1.00  0.00     0.075 C 
ATOM     71  N   UNL A   1      42.704  19.773  25.818  1.00  0.00    -0.338 N 
ATOM     72  C   UNL A   1      41.266  19.462  25.765  1.00  0.00     0.126 C 
BRANCH  71  73
ATOM     73  C   UNL A   1      43.778  18.888  25.796  1.00  0.00     0.225 C 
ATOM     74  O   UNL A   1      43.780  17.897  26.528  1.00  0.00    -0.275 OA
BRANCH  73  75
ATOM     75  C   UNL A   1      44.976  19.018  24.913  1.00  0.00     0.079 C 
ATOM     76  C   UNL A   1      45.858  20.180  24.563  1.00  0.00     0.014 C 
ATOM     77  C   UNL A   1      46.355  19.130  25.519  1.00  0.00     0.014 C 
ENDBRANCH  73  75
ENDBRANCH  71  73
ENDBRANCH  57  59
ENDBRANCH  56  57
ENDBRANCH  55  56
ENDBRANCH   1  55
TORSDOF 13
ENDMDL
MODEL 2
REMARK VINA RESULT:     -11.5      4.279      9.812
REMARK SMILES O=C(OCCOC(=O)c1ccc2[nH]c3c(c2c1)CN(C(=O)C1CC1)CC3)c1ccc(-c2c3nc(c(-c4ccccc4)c4ccc([nH]4)c(-c4ccccc4)c4nc(c(-c5ccccc5)c5ccc2[nH]5)C=C4)C=C3)cc1
REMARK SMILES IDX 4 1 3 2 2 3 1 4 27 5 28 6 74 7 29 8 73 9 30 10 31 11 32 12
REMARK SMILES IDX 67 13 33 14 72 15 66 16 68 17 34 18 71 19 65 20 64 21 35 23
REMARK SMILES IDX 57 24 42 25 56 26 43 27 46 28 55 29 69 30 44 31 45 32 54 34
REMARK SMILES IDX 70 35 47 36 36 37 37 38 41 39 38 40 40 41 39 42 58 43 59 44
REMARK SMILES IDX 63 45 60 46 62 47 61 48 48 49 49 50 53 51 50 52 52 53 51 54
REMARK SMILES IDX 5 55 6 56 7 57 8 58 9 59 10 60 17 61 11 62 16 63 12 64 15 65
REMARK SMILES IDX 13 66 14 67 18 68 26 70 19 71 25 72 20 73 21 74 22 75 23 76
REMARK SMILES IDX 24 77
REMARK H PARENT 68 22 46 33 13 69
REMARK Flexibility Score: inf
ROOT
ATOM      1  C   UNL A   1      33.978  31.564  27.709  1.00  0.00     0.275 C 
ENDROOT
BRANCH   1   2
ATOM      2  O   UNL A   1      35.424  31.462  27.619  1.00  0.00    -0.458 OA
BRANCH   2   3
ATOM      3  C   UNL A   1      36.353  32.019  28.446  1.00  0.00     0.338 C 
ATOM      4  O   UNL A   1      36.638  33.208  28.406  1.00  0.00    -0.246 OA
BRANCH   3   5
ATOM      5  C   UNL A   1      37.165  31.083  29.241  1.00  0.00     0.060 A 
ATOM      6  C   UNL A   1      38.481  31.464  29.447  1.00  0.00     0.016 A 
ATOM      7  C   UNL A   1      36.754  29.765  29.455  1.00  0.00     0.016 A 
ATOM      8  C   UNL A   1      39.432  30.465  29.474  1.00  0.00     0.010 A 
ATOM      9  C   UNL A   1      37.715  28.759  29.505  1.00  0.00     0.010 A 
ATOM     10  C   UNL A   1      39.058  29.106  29.379  1.00  0.00    -0.014 A 
BRANCH  10  11
ATOM     11  C   UNL A   1      40.147  28.119  29.420  1.00  0.00     0.031 A 
ATOM     12  C   UNL A   1      40.682  28.042  30.800  1.00  0.00     0.074 A 
ATOM     13  C   UNL A   1      40.620  27.334  28.426  1.00  0.00     0.049 A 
ATOM     14  N   UNL A   1      41.869  28.362  31.194  1.00  0.00    -0.248 NA
ATOM     15  C   UNL A   1      39.696  27.866  31.888  1.00  0.00     0.031 C 
ATOM     16  C   UNL A   1      40.109  27.195  27.061  1.00  0.00     0.029 A 
ATOM     17  N   UNL A   1      41.627  26.398  28.456  1.00  0.00    -0.354 N 
ATOM     18  C   UNL A   1      41.824  28.238  32.575  1.00  0.00     0.074 A 
ATOM     19  C   UNL A   1      40.437  28.175  32.950  1.00  0.00     0.031 C 
ATOM     20  C   UNL A   1      40.613  26.073  26.498  1.00  0.00     0.029 A 
ATOM     21  C   UNL A   1      41.569  25.475  27.411  1.00  0.00     0.049 A 
ATOM     22  H   UNL A   1      42.324  26.381  29.150  1.00  0.00     0.167 HD
ATOM     23  C   UNL A   1      42.911  27.815  33.265  1.00  0.00     0.031 A 
ATOM     24  C   UNL A   1      42.199  24.275  27.327  1.00  0.00     0.031 A 
ATOM     25  C   UNL A   1      44.130  28.049  32.543  1.00  0.00     0.049 A 
ATOM     26  C   UNL A   1      43.346  24.303  28.251  1.00  0.00     0.074 A 
ATOM     27  C   UNL A   1      44.821  29.166  32.121  1.00  0.00     0.029 A 
ATOM     28  N   UNL A   1      44.582  26.987  31.805  1.00  0.00    -0.354 N 
ATOM     29  N   UNL A   1      44.424  24.997  28.043  1.00  0.00    -0.248 NA
ATOM     30  C   UNL A   1      43.172  23.795  29.604  1.00  0.00     0.031 C 
ATOM     31  C   UNL A   1      45.492  28.778  30.928  1.00  0.00     0.029 A 
ATOM     32  C   UNL A   1      45.240  27.427  30.687  1.00  0.00     0.049 A 
ATOM     33  H   UNL A   1      44.452  26.041  32.044  1.00  0.00     0.167 HD
ATOM     34  C   UNL A   1      44.807  25.406  29.307  1.00  0.00     0.074 A 
ATOM     35  C   UNL A   1      44.118  24.504  30.223  1.00  0.00     0.031 C 
ATOM     36  C   UNL A   1      45.388  26.625  29.488  1.00  0.00     0.031 A 
BRANCH  23  37
ATOM     37  C   UNL A   1      42.766  26.727  34.301  1.00  0.00    -0.014 A 
ATOM     38  C   UNL A   1      41.706  26.694  35.236  1.00  0.00     0.009 A 
ATOM     39  C   UNL A   1      43.537  25.565  34.191  1.00  0.00     0.009 A 
ATOM     40  C   UNL A   1      41.453  25.594  36.053  1.00  0.00     0.001 A 
ATOM     41  C   UNL A   1      43.259  24.437  34.977  1.00  0.00     0.001 A 
ATOM     42  C   UNL A   1      42.225  24.456  35.912  1.00  0.00     0.000 A 
ENDBRANCH  23  37
BRANCH  24  43
ATOM     43  C   UNL A   1      41.739  22.989  26.743  1.00  0.00    -0.014 A 
ATOM     44  C   UNL A   1      40.367  22.705  26.639  1.00  0.00     0.009 A 
ATOM     45  C   UNL A   1      42.637  21.911  26.605  1.00  0.00     0.009 A 
ATOM     46  C   UNL A   1      39.907  21.390  26.485  1.00  0.00     0.001 A 
ATOM     47  C   UNL A   1      42.176  20.595  26.460  1.00  0.00     0.001 A 
ATOM     48  C   UNL A   1      40.810  20.333  26.423  1.00  0.00     0.000 A 
ENDBRANCH  24  43
BRANCH  36  49
ATOM     49  C   UNL A   1      46.054  27.282  28.303  1.00  0.00    -0.014 A 
ATOM     50  C   UNL A   1      45.229  27.993  27.416  1.00  0.00     0.009 A 
ATOM     51  C   UNL A   1      47.411  27.134  27.971  1.00  0.00     0.009 A 
ATOM     52  C   UNL A   1      45.730  28.517  26.224  1.00  0.00     0.001 A 
ATOM     53  C   UNL A   1      47.922  27.688  26.791  1.00  0.00     0.001 A 
ATOM     54  C   UNL A   1      47.078  28.366  25.914  1.00  0.00     0.000 A 
ENDBRANCH  36  49
ENDBRANCH  10  11
ENDBRANCH   3   5
ENDBRANCH   2   3
ENDBRANCH   1   2
BRANCH   1  55
ATOM     55  C   UNL A   1      33.144  30.304  27.414  1.00  0.00     0.275 C 
BRANCH  55  56
ATOM     56  O   UNL A   1      33.065  29.926  26.040  1.00  0.00    -0.458 OA
BRANCH  56  57
ATOM     57  C   UNL A   1      31.826  29.868  25.509  1.00  0.00     0.338 C 
ATOM     58  O   UNL A   1      30.985  30.753  25.542  1.00  0.00    -0.246 OA
BRANCH  57  59
ATOM     59  C   UNL A   1      31.725  28.639  24.692  1.00  0.00     0.060 A 
ATOM     60  C   UNL A   1      30.710  28.440  23.749  1.00  0.00     0.018 A 
ATOM     61  C   UNL A   1      32.659  27.632  24.966  1.00  0.00     0.026 A 
ATOM     62  C   UNL A   1      30.601  27.219  23.062  1.00  0.00     0.027 A 
ATOM     63  C   UNL A   1      32.581  26.411  24.271  1.00  0.00     0.006 A 
ATOM     64  C   UNL A   1      31.558  26.231  23.332  1.00  0.00     0.046 A 
ATOM     65  C   UNL A   1      33.375  25.232  24.269  1.00  0.00     0.000 A 
ATOM     66  N   UNL A   1      31.728  24.974  22.780  1.00  0.00    -0.358 N 
ATOM     67  C   UNL A   1      32.875  24.420  23.270  1.00  0.00     0.023 A 
ATOM     68  C   UNL A   1      34.615  24.913  25.053  1.00  0.00     0.157 C 
ATOM     69  H   UNL A   1      31.117  24.547  22.135  1.00  0.00     0.166 HD
ATOM     70  C   UNL A   1      33.580  23.209  22.772  1.00  0.00     0.075 C 
ATOM     71  N   UNL A   1      35.278  23.694  24.525  1.00  0.00    -0.338 N 
ATOM     72  C   UNL A   1      35.078  23.428  23.090  1.00  0.00     0.126 C 
BRANCH  71  73
ATOM     73  C   UNL A   1      36.109  23.024  25.417  1.00  0.00     0.225 C 
ATOM     74  O   UNL A   1      36.976  23.640  26.039  1.00  0.00    -0.275 OA
BRANCH  73  75
ATOM     75  C   UNL A   1      36.034  21.564  25.724  1.00  0.00     0.079 C 
ATOM     76  C   UNL A   1      35.343  20.418  25.047  1.00  0.00     0.014 C 
ATOM     77  C   UNL A   1      36.833  20.576  24.907  1.00  0.00     0.014 C 
ENDBRANCH  73  75
ENDBRANCH  71  73
ENDBRANCH  57  59
ENDBRANCH  56  57
ENDBRANCH  55  56
ENDBRANCH   1  55
TORSDOF 13
ENDMDL
MODEL 3
REMARK VINA RESULT:     -11.4      4.441      9.106
REMARK SMILES O=C(OCCOC(=O)c1ccc2[nH]c3c(c2c1)CN(C(=O)C1CC1)CC3)c1ccc(-c2c3nc(c(-c4ccccc4)c4ccc([nH]4)c(-c4ccccc4)c4nc(c(-c5ccccc5)c5ccc2[nH]5)C=C4)C=C3)cc1
REMARK SMILES IDX 4 1 3 2 2 3 1 4 27 5 28 6 74 7 29 8 73 9 30 10 31 11 32 12
REMARK SMILES IDX 67 13 33 14 72 15 66 16 68 17 34 18 71 19 65 20 64 21 35 23
REMARK SMILES IDX 57 24 42 25 56 26 43 27 46 28 55 29 69 30 44 31 45 32 54 34
REMARK SMILES IDX 70 35 47 36 36 37 37 38 41 39 38 40 40 41 39 42 58 43 59 44
REMARK SMILES IDX 63 45 60 46 62 47 61 48 48 49 49 50 53 51 50 52 52 53 51 54
REMARK SMILES IDX 5 55 6 56 7 57 8 58 9 59 10 60 17 61 11 62 16 63 12 64 15 65
REMARK SMILES IDX 13 66 14 67 18 68 26 70 19 71 25 72 20 73 21 74 22 75 23 76
REMARK SMILES IDX 24 77
REMARK H PARENT 68 22 46 33 13 69
REMARK Flexibility Score: inf
ROOT
ATOM      1  C   UNL A   1      33.647  30.986  27.294  1.00  0.00     0.275 C 
ENDROOT
BRANCH   1   2
ATOM      2  O   UNL A   1      32.671  32.036  27.525  1.00  0.00    -0.458 OA
BRANCH   2   3
ATOM      3  C   UNL A   1      32.893  33.292  28.006  1.00  0.00     0.338 C 
ATOM      4  O   UNL A   1      32.181  34.242  27.714  1.00  0.00    -0.246 OA
BRANCH   3   5
ATOM      5  C   UNL A   1      34.165  33.502  28.719  1.00  0.00     0.060 A 
ATOM      6  C   UNL A   1      35.208  33.981  27.943  1.00  0.00     0.016 A 
ATOM      7  C   UNL A   1      34.401  32.927  29.970  1.00  0.00     0.016 A 
ATOM      8  C   UNL A   1      36.477  33.527  28.241  1.00  0.00     0.010 A 
ATOM      9  C   UNL A   1      35.685  32.490  30.279  1.00  0.00     0.010 A 
ATOM     10  C   UNL A   1      36.701  32.675  29.345  1.00  0.00    -0.014 A 
BRANCH  10  11
ATOM     11  C   UNL A   1      38.090  32.250  29.577  1.00  0.00     0.031 A 
ATOM     12  C   UNL A   1      38.198  30.791  29.335  1.00  0.00     0.074 A 
ATOM     13  C   UNL A   1      39.163  32.999  29.913  1.00  0.00     0.049 A 
ATOM     14  N   UNL A   1      38.490  29.878  30.199  1.00  0.00    -0.248 NA
ATOM     15  C   UNL A   1      37.639  30.283  28.064  1.00  0.00     0.031 C 
ATOM     16  C   UNL A   1      39.245  34.454  30.049  1.00  0.00     0.029 A 
ATOM     17  N   UNL A   1      40.468  32.615  30.118  1.00  0.00    -0.354 N 
ATOM     18  C   UNL A   1      38.332  28.683  29.512  1.00  0.00     0.074 A 
ATOM     19  C   UNL A   1      37.589  28.977  28.316  1.00  0.00     0.031 C 
ATOM     20  C   UNL A   1      40.540  34.842  30.041  1.00  0.00     0.029 A 
ATOM     21  C   UNL A   1      41.385  33.662  30.017  1.00  0.00     0.049 A 
ATOM     22  H   UNL A   1      40.729  31.688  30.318  1.00  0.00     0.167 HD
ATOM     23  C   UNL A   1      39.138  27.625  29.773  1.00  0.00     0.031 A 
ATOM     24  C   UNL A   1      42.731  33.574  29.855  1.00  0.00     0.031 A 
ATOM     25  C   UNL A   1      39.709  27.698  31.090  1.00  0.00     0.049 A 
ATOM     26  C   UNL A   1      43.152  32.236  30.306  1.00  0.00     0.074 A 
ATOM     27  C   UNL A   1      39.216  27.652  32.376  1.00  0.00     0.029 A 
ATOM     28  N   UNL A   1      40.958  28.258  31.151  1.00  0.00    -0.354 N 
ATOM     29  N   UNL A   1      43.178  31.870  31.551  1.00  0.00    -0.248 NA
ATOM     30  C   UNL A   1      43.251  31.163  29.328  1.00  0.00     0.031 C 
ATOM     31  C   UNL A   1      40.098  28.450  33.157  1.00  0.00     0.029 A 
ATOM     32  C   UNL A   1      41.131  28.913  32.341  1.00  0.00     0.049 A 
ATOM     33  H   UNL A   1      41.636  28.198  30.440  1.00  0.00     0.167 HD
ATOM     34  C   UNL A   1      42.823  30.535  31.514  1.00  0.00     0.074 A 
ATOM     35  C   UNL A   1      43.053  30.119  30.135  1.00  0.00     0.031 C 
ATOM     36  C   UNL A   1      42.083  29.992  32.521  1.00  0.00     0.031 A 
BRANCH  23  37
ATOM     37  C   UNL A   1      39.789  26.878  28.635  1.00  0.00    -0.014 A 
ATOM     38  C   UNL A   1      39.443  25.552  28.290  1.00  0.00     0.009 A 
ATOM     39  C   UNL A   1      40.573  27.579  27.712  1.00  0.00     0.009 A 
ATOM     40  C   UNL A   1      39.888  24.934  27.124  1.00  0.00     0.001 A 
ATOM     41  C   UNL A   1      40.985  26.979  26.513  1.00  0.00     0.001 A 
ATOM     42  C   UNL A   1      40.651  25.656  26.226  1.00  0.00     0.000 A 
ENDBRANCH  23  37
BRANCH  24  43
ATOM     43  C   UNL A   1      43.659  34.427  29.069  1.00  0.00    -0.014 A 
ATOM     44  C   UNL A   1      44.576  35.269  29.721  1.00  0.00     0.009 A 
ATOM     45  C   UNL A   1      43.415  34.667  27.702  1.00  0.00     0.009 A 
ATOM     46  C   UNL A   1      45.163  36.354  29.057  1.00  0.00     0.001 A 
ATOM     47  C   UNL A   1      43.996  35.759  27.042  1.00  0.00     0.001 A 
ATOM     48  C   UNL A   1      44.852  36.616  27.726  1.00  0.00     0.000 A 
ENDBRANCH  24  43
BRANCH  36  49
ATOM     49  C   UNL A   1      42.089  30.681  33.864  1.00  0.00    -0.014 A 
ATOM     50  C   UNL A   1      42.985  30.194  34.830  1.00  0.00     0.009 A 
ATOM     51  C   UNL A   1      41.188  31.689  34.245  1.00  0.00     0.009 A 
ATOM     52  C   UNL A   1      42.968  30.675  36.140  1.00  0.00     0.001 A 
ATOM     53  C   UNL A   1      41.192  32.195  35.550  1.00  0.00     0.001 A 
ATOM     54  C   UNL A   1      42.073  31.678  36.498  1.00  0.00     0.000 A 
ENDBRANCH  36  49
ENDBRANCH  10  11
ENDBRANCH   3   5
ENDBRANCH   2   3
ENDBRANCH   1   2
BRANCH   1  55
ATOM     55  C   UNL A   1      33.132  29.546  27.114  1.00  0.00     0.275 C 
BRANCH  55  56
ATOM     56  O   UNL A   1      32.962  29.117  25.764  1.00  0.00    -0.458 OA
BRANCH  56  57
ATOM     57  C   UNL A   1      31.716  29.225  25.258  1.00  0.00     0.338 C 
ATOM     58  O   UNL A   1      31.101  30.264  25.068  1.00  0.00    -0.246 OA
BRANCH  57  59
ATOM     59  C   UNL A   1      31.293  27.895  24.769  1.00  0.00     0.060 A 
ATOM     60  C   UNL A   1      30.092  27.689  24.080  1.00  0.00     0.018 A 
ATOM     61  C   UNL A   1      32.124  26.817  25.101  1.00  0.00     0.026 A 
ATOM     62  C   UNL A   1      29.688  26.394  23.714  1.00  0.00     0.027 A 
ATOM     63  C   UNL A   1      31.749  25.515  24.722  1.00  0.00     0.006 A 
ATOM     64  C   UNL A   1      30.544  25.330  24.035  1.00  0.00     0.046 A 
ATOM     65  C   UNL A   1      32.366  24.240  24.853  1.00  0.00     0.000 A 
ATOM     66  N   UNL A   1      30.433  23.979  23.760  1.00  0.00    -0.358 N 
ATOM     67  C   UNL A   1      31.574  23.345  24.162  1.00  0.00     0.023 A 
ATOM     68  C   UNL A   1      33.687  23.876  25.468  1.00  0.00     0.157 C 
ATOM     69  H   UNL A   1      29.656  23.543  23.341  1.00  0.00     0.166 HD
ATOM     70  C   UNL A   1      32.000  21.957  23.838  1.00  0.00     0.075 C 
ATOM     71  N   UNL A   1      34.065  22.483  25.124  1.00  0.00    -0.338 N 
ATOM     72  C   UNL A   1      33.547  21.977  23.841  1.00  0.00     0.126 C 
BRANCH  71  73
ATOM     73  C   UNL A   1      34.964  21.870  25.990  1.00  0.00     0.225 C 
ATOM     74  O   UNL A   1      34.586  21.456  27.087  1.00  0.00    -0.275 OA
BRANCH  73  75
ATOM     75  C   UNL A   1      36.411  21.635  25.696  1.00  0.00     0.079 C 
ATOM     76  C   UNL A   1      37.220  21.734  24.437  1.00  0.00     0.014 C 
ATOM     77  C   UNL A   1      37.341  22.806  25.486  1.00  0.00     0.014 C 
ENDBRANCH  73  75
ENDBRANCH  71  73
ENDBRANCH  57  59
ENDBRANCH  56  57
ENDBRANCH  55  56
ENDBRANCH   1  55
TORSDOF 13
ENDMDL
