MODEL 1
REMARK VINA RESULT:     -11.3      0.000      0.000
REMARK SMILES C[C@@H](C(=O)OCCOC(=O)c1ccc(-c2c3nc(c(-c4ccccc4)c4ccc([nH]4)c(-c4ccccc4)c4nc(c(-c5ccccc5)c5ccc2[nH]5)C=C4)C=C3)cc1)c1ccc(C[C@H]2CCCC2=O)c(-c2ccccc2)c1
REMARK SMILES IDX 6 1 5 2 3 3 4 4 2 5 1 6 59 7 60 8 77 9 61 10 70 11 62 12
REMARK SMILES IDX 71 13 72 14 76 15 73 16 75 17 74 18 63 19 64 20 65 21 68 22
REMARK SMILES IDX 66 23 67 24 69 25 7 26 8 27 9 28 10 29 11 30 12 31 58 32
REMARK SMILES IDX 13 33 57 34 14 35 15 36 16 37 51 38 17 39 56 40 50 41 52 42
REMARK SMILES IDX 18 43 55 44 49 45 48 46 19 48 41 49 26 50 40 51 27 52 30 53
REMARK SMILES IDX 39 54 53 55 28 56 29 57 38 59 54 60 31 61 20 62 21 63 25 64
REMARK SMILES IDX 22 65 24 66 23 67 42 68 43 69 47 70 44 71 46 72 45 73 32 74
REMARK SMILES IDX 33 75 37 76 34 77 36 78 35 79
REMARK H PARENT 52 47 30 58
REMARK Flexibility Score: inf
ROOT
ATOM      1  C   UNL A   1      38.516  21.070  25.396  1.00  0.00     0.274 C 
ENDROOT
BRANCH   1   2
ATOM      2  O   UNL A   1      37.092  20.867  25.238  1.00  0.00    -0.462 OA
BRANCH   2   3
ATOM      3  C   UNL A   1      36.264  21.830  25.739  1.00  0.00     0.313 C 
ATOM      4  O   UNL A   1      35.298  21.595  26.455  1.00  0.00    -0.252 OA
BRANCH   3   5
ATOM      5  C   UNL A   1      36.634  23.231  25.207  1.00  0.00     0.126 C 
ATOM      6  C   UNL A   1      37.371  24.076  26.253  1.00  0.00     0.025 C 
BRANCH   5   7
ATOM      7  C   UNL A   1      35.409  23.951  24.640  1.00  0.00    -0.033 A 
ATOM      8  C   UNL A   1      34.845  23.565  23.421  1.00  0.00     0.005 A 
ATOM      9  C   UNL A   1      34.866  25.078  25.292  1.00  0.00     0.013 A 
ATOM     10  C   UNL A   1      33.888  24.367  22.797  1.00  0.00     0.004 A 
ATOM     11  C   UNL A   1      33.851  25.870  24.706  1.00  0.00    -0.015 A 
ATOM     12  C   UNL A   1      33.440  25.566  23.384  1.00  0.00    -0.039 A 
BRANCH  11  13
ATOM     13  C   UNL A   1      33.255  27.008  25.436  1.00  0.00    -0.018 A 
ATOM     14  C   UNL A   1      33.797  28.298  25.285  1.00  0.00     0.009 A 
ATOM     15  C   UNL A   1      32.271  26.819  26.417  1.00  0.00     0.009 A 
ATOM     16  C   UNL A   1      33.515  29.310  26.201  1.00  0.00     0.001 A 
ATOM     17  C   UNL A   1      31.977  27.837  27.330  1.00  0.00     0.001 A 
ATOM     18  C   UNL A   1      32.627  29.068  27.243  1.00  0.00     0.000 A 
ENDBRANCH  11  13
BRANCH  12  19
ATOM     19  C   UNL A   1      32.602  26.517  22.520  1.00  0.00     0.047 C 
BRANCH  19  20
ATOM     20  C   UNL A   1      31.077  26.265  22.458  1.00  0.00     0.060 C 
ATOM     21  C   UNL A   1      30.411  25.375  23.507  1.00  0.00     0.012 C 
ATOM     22  C   UNL A   1      30.401  27.570  22.686  1.00  0.00     0.136 C 
ATOM     23  C   UNL A   1      29.367  26.202  24.252  1.00  0.00     0.009 C 
ATOM     24  C   UNL A   1      29.759  27.647  24.045  1.00  0.00     0.076 C 
ATOM     25  O   UNL A   1      30.517  28.482  21.880  1.00  0.00    -0.299 OA
ENDBRANCH  19  20
ENDBRANCH  12  19
ENDBRANCH   5   7
ENDBRANCH   3   5
ENDBRANCH   2   3
ENDBRANCH   1   2
BRANCH   1  26
ATOM     26  C   UNL A   1      39.262  19.736  25.438  1.00  0.00     0.275 C 
BRANCH  26  27
ATOM     27  O   UNL A   1      40.272  19.789  26.461  1.00  0.00    -0.458 OA
BRANCH  27  28
ATOM     28  C   UNL A   1      41.551  19.913  26.037  1.00  0.00     0.338 C 
ATOM     29  O   UNL A   1      42.200  19.121  25.380  1.00  0.00    -0.246 OA
BRANCH  28  30
ATOM     30  C   UNL A   1      42.033  21.253  26.411  1.00  0.00     0.060 A 
ATOM     31  C   UNL A   1      42.118  21.537  27.764  1.00  0.00     0.016 A 
ATOM     32  C   UNL A   1      42.296  22.256  25.471  1.00  0.00     0.016 A 
ATOM     33  C   UNL A   1      42.440  22.827  28.170  1.00  0.00     0.010 A 
ATOM     34  C   UNL A   1      42.692  23.544  25.897  1.00  0.00     0.010 A 
ATOM     35  C   UNL A   1      42.775  23.845  27.263  1.00  0.00    -0.014 A 
BRANCH  35  36
ATOM     36  C   UNL A   1      43.116  25.200  27.811  1.00  0.00     0.031 A 
ATOM     37  C   UNL A   1      42.004  26.109  28.268  1.00  0.00     0.074 A 
ATOM     38  C   UNL A   1      44.382  25.527  28.159  1.00  0.00     0.049 A 
ATOM     39  N   UNL A   1      42.071  27.262  28.890  1.00  0.00    -0.248 NA
ATOM     40  C   UNL A   1      40.633  25.661  27.978  1.00  0.00     0.031 C 
ATOM     41  C   UNL A   1      45.556  24.684  27.959  1.00  0.00     0.029 A 
ATOM     42  N   UNL A   1      44.859  26.579  28.923  1.00  0.00    -0.354 N 
ATOM     43  C   UNL A   1      40.760  27.702  29.014  1.00  0.00     0.074 A 
ATOM     44  C   UNL A   1      39.915  26.668  28.456  1.00  0.00     0.031 C 
ATOM     45  C   UNL A   1      46.550  25.129  28.751  1.00  0.00     0.029 A 
ATOM     46  C   UNL A   1      46.119  26.348  29.437  1.00  0.00     0.049 A 
ATOM     47  H   UNL A   1      44.351  27.407  29.082  1.00  0.00     0.167 HD
ATOM     48  C   UNL A   1      40.303  28.886  29.488  1.00  0.00     0.031 A 
ATOM     49  C   UNL A   1      46.824  27.012  30.380  1.00  0.00     0.031 A 
ATOM     50  C   UNL A   1      41.124  29.923  30.050  1.00  0.00     0.049 A 
ATOM     51  C   UNL A   1      46.314  28.337  30.895  1.00  0.00     0.074 A 
ATOM     52  C   UNL A   1      40.779  31.225  30.376  1.00  0.00     0.029 A 
ATOM     53  N   UNL A   1      42.451  29.763  30.406  1.00  0.00    -0.354 N 
ATOM     54  N   UNL A   1      45.118  28.860  30.816  1.00  0.00    -0.248 NA
ATOM     55  C   UNL A   1      47.298  29.198  31.580  1.00  0.00     0.031 C 
ATOM     56  C   UNL A   1      41.910  31.863  30.900  1.00  0.00     0.029 A 
ATOM     57  C   UNL A   1      42.942  30.943  30.939  1.00  0.00     0.049 A 
ATOM     58  H   UNL A   1      42.968  28.932  30.296  1.00  0.00     0.167 HD
ATOM     59  C   UNL A   1      45.220  30.125  31.384  1.00  0.00     0.074 A 
ATOM     60  C   UNL A   1      46.567  30.260  31.890  1.00  0.00     0.031 C 
ATOM     61  C   UNL A   1      44.286  31.105  31.426  1.00  0.00     0.031 A 
BRANCH  48  62
ATOM     62  C   UNL A   1      38.853  29.182  29.260  1.00  0.00    -0.014 A 
ATOM     63  C   UNL A   1      37.897  29.068  30.276  1.00  0.00     0.009 A 
ATOM     64  C   UNL A   1      38.449  29.583  27.975  1.00  0.00     0.009 A 
ATOM     65  C   UNL A   1      36.553  29.330  30.000  1.00  0.00     0.001 A 
ATOM     66  C   UNL A   1      37.112  29.862  27.707  1.00  0.00     0.001 A 
ATOM     67  C   UNL A   1      36.162  29.727  28.719  1.00  0.00     0.000 A 
ENDBRANCH  48  62
BRANCH  49  68
ATOM     68  C   UNL A   1      48.123  26.504  30.909  1.00  0.00    -0.014 A 
ATOM     69  C   UNL A   1      49.298  26.668  30.151  1.00  0.00     0.009 A 
ATOM     70  C   UNL A   1      48.192  25.761  32.096  1.00  0.00     0.009 A 
ATOM     71  C   UNL A   1      50.500  26.078  30.555  1.00  0.00     0.001 A 
ATOM     72  C   UNL A   1      49.402  25.202  32.517  1.00  0.00     0.001 A 
ATOM     73  C   UNL A   1      50.552  25.349  31.740  1.00  0.00     0.000 A 
ENDBRANCH  49  68
BRANCH  61  74
ATOM     74  C   UNL A   1      44.700  32.445  31.968  1.00  0.00    -0.014 A 
ATOM     75  C   UNL A   1      44.521  32.743  33.330  1.00  0.00     0.009 A 
ATOM     76  C   UNL A   1      45.324  33.392  31.144  1.00  0.00     0.009 A 
ATOM     77  C   UNL A   1      44.932  33.971  33.850  1.00  0.00     0.001 A 
ATOM     78  C   UNL A   1      45.754  34.613  31.672  1.00  0.00     0.001 A 
ATOM     79  C   UNL A   1      45.553  34.904  33.021  1.00  0.00     0.000 A 
ENDBRANCH  61  74
ENDBRANCH  35  36
ENDBRANCH  28  30
ENDBRANCH  27  28
ENDBRANCH  26  27
ENDBRANCH   1  26
TORSDOF 15
ENDMDL
MODEL 2
REMARK VINA RESULT:     -11.0      3.320      4.459
REMARK SMILES C[C@@H](C(=O)OCCOC(=O)c1ccc(-c2c3nc(c(-c4ccccc4)c4ccc([nH]4)c(-c4ccccc4)c4nc(c(-c5ccccc5)c5ccc2[nH]5)C=C4)C=C3)cc1)c1ccc(C[C@H]2CCCC2=O)c(-c2ccccc2)c1
REMARK SMILES IDX 6 1 5 2 3 3 4 4 2 5 1 6 59 7 60 8 77 9 61 10 70 11 62 12
REMARK SMILES IDX 71 13 72 14 76 15 73 16 75 17 74 18 63 19 64 20 65 21 68 22
REMARK SMILES IDX 66 23 67 24 69 25 7 26 8 27 9 28 10 29 11 30 12 31 58 32
REMARK SMILES IDX 13 33 57 34 14 35 15 36 16 37 51 38 17 39 56 40 50 41 52 42
REMARK SMILES IDX 18 43 55 44 49 45 48 46 19 48 41 49 26 50 40 51 27 52 30 53
REMARK SMILES IDX 39 54 53 55 28 56 29 57 38 59 54 60 31 61 20 62 21 63 25 64
REMARK SMILES IDX 22 65 24 66 23 67 42 68 43 69 47 70 44 71 46 72 45 73 32 74
REMARK SMILES IDX 33 75 37 76 34 77 36 78 35 79
REMARK H PARENT 52 47 30 58
REMARK Flexibility Score: inf
ROOT
ATOM      1  C   UNL A   1      41.147  20.373  27.175  1.00  0.00     0.274 C 
ENDROOT
BRANCH   1   2
ATOM      2  O   UNL A   1      40.114  21.385  27.145  1.00  0.00    -0.462 OA
BRANCH   2   3
ATOM      3  C   UNL A   1      39.222  21.338  26.112  1.00  0.00     0.313 C 
ATOM      4  O   UNL A   1      38.960  20.321  25.481  1.00  0.00    -0.252 OA
BRANCH   3   5
ATOM      5  C   UNL A   1      38.669  22.739  25.774  1.00  0.00     0.126 C 
ATOM      6  C   UNL A   1      39.027  23.781  26.841  1.00  0.00     0.025 C 
BRANCH   5   7
ATOM      7  C   UNL A   1      37.166  22.691  25.493  1.00  0.00    -0.033 A 
ATOM      8  C   UNL A   1      36.493  21.472  25.370  1.00  0.00     0.005 A 
ATOM      9  C   UNL A   1      36.433  23.876  25.270  1.00  0.00     0.013 A 
ATOM     10  C   UNL A   1      35.187  21.430  24.882  1.00  0.00     0.004 A 
ATOM     11  C   UNL A   1      35.087  23.857  24.836  1.00  0.00    -0.015 A 
ATOM     12  C   UNL A   1      34.496  22.606  24.531  1.00  0.00    -0.039 A 
BRANCH  11  13
ATOM     13  C   UNL A   1      34.323  25.111  24.669  1.00  0.00    -0.018 A 
ATOM     14  C   UNL A   1      34.020  25.580  23.377  1.00  0.00     0.009 A 
ATOM     15  C   UNL A   1      34.035  25.948  25.757  1.00  0.00     0.009 A 
ATOM     16  C   UNL A   1      33.633  26.902  23.164  1.00  0.00     0.001 A 
ATOM     17  C   UNL A   1      33.635  27.271  25.545  1.00  0.00     0.001 A 
ATOM     18  C   UNL A   1      33.471  27.756  24.249  1.00  0.00     0.000 A 
ENDBRANCH  11  13
BRANCH  12  19
ATOM     19  C   UNL A   1      33.181  22.459  23.754  1.00  0.00     0.047 C 
BRANCH  19  20
ATOM     20  C   UNL A   1      31.883  22.299  24.579  1.00  0.00     0.060 C 
ATOM     21  C   UNL A   1      31.938  22.368  26.105  1.00  0.00     0.012 C 
ATOM     22  C   UNL A   1      31.001  23.451  24.250  1.00  0.00     0.136 C 
ATOM     23  C   UNL A   1      31.061  23.527  26.570  1.00  0.00     0.009 C 
ATOM     24  C   UNL A   1      30.921  24.445  25.377  1.00  0.00     0.076 C 
ATOM     25  O   UNL A   1      30.545  23.586  23.124  1.00  0.00    -0.299 OA
ENDBRANCH  19  20
ENDBRANCH  12  19
ENDBRANCH   5   7
ENDBRANCH   3   5
ENDBRANCH   2   3
ENDBRANCH   1   2
BRANCH   1  26
ATOM     26  C   UNL A   1      42.186  20.613  26.079  1.00  0.00     0.275 C 
BRANCH  26  27
ATOM     27  O   UNL A   1      43.058  21.685  26.478  1.00  0.00    -0.458 OA
BRANCH  27  28
ATOM     28  C   UNL A   1      43.007  22.811  25.729  1.00  0.00     0.338 C 
ATOM     29  O   UNL A   1      43.022  22.903  24.517  1.00  0.00    -0.246 OA
BRANCH  28  30
ATOM     30  C   UNL A   1      42.814  23.958  26.633  1.00  0.00     0.060 A 
ATOM     31  C   UNL A   1      42.537  23.674  27.960  1.00  0.00     0.016 A 
ATOM     32  C   UNL A   1      42.794  25.284  26.185  1.00  0.00     0.016 A 
ATOM     33  C   UNL A   1      42.217  24.713  28.826  1.00  0.00     0.010 A 
ATOM     34  C   UNL A   1      42.538  26.337  27.093  1.00  0.00     0.010 A 
ATOM     35  C   UNL A   1      42.249  26.061  28.435  1.00  0.00    -0.014 A 
BRANCH  35  36
ATOM     36  C   UNL A   1      41.895  27.104  29.455  1.00  0.00     0.031 A 
ATOM     37  C   UNL A   1      40.546  27.773  29.384  1.00  0.00     0.074 A 
ATOM     38  C   UNL A   1      42.624  27.271  30.583  1.00  0.00     0.049 A 
ATOM     39  N   UNL A   1      39.979  28.601  30.228  1.00  0.00    -0.248 NA
ATOM     40  C   UNL A   1      39.729  27.472  28.198  1.00  0.00     0.031 C 
ATOM     41  C   UNL A   1      43.862  26.567  30.899  1.00  0.00     0.029 A 
ATOM     42  N   UNL A   1      42.325  27.952  31.751  1.00  0.00    -0.354 N 
ATOM     43  C   UNL A   1      38.770  28.963  29.651  1.00  0.00     0.074 A 
ATOM     44  C   UNL A   1      38.657  28.221  28.413  1.00  0.00     0.031 C 
ATOM     45  C   UNL A   1      44.096  26.674  32.221  1.00  0.00     0.029 A 
ATOM     46  C   UNL A   1      43.084  27.540  32.828  1.00  0.00     0.049 A 
ATOM     47  H   UNL A   1      41.641  28.658  31.808  1.00  0.00     0.167 HD
ATOM     48  C   UNL A   1      37.866  29.878  30.076  1.00  0.00     0.031 A 
ATOM     49  C   UNL A   1      42.954  27.794  34.149  1.00  0.00     0.031 A 
ATOM     50  C   UNL A   1      37.957  30.621  31.303  1.00  0.00     0.049 A 
ATOM     51  C   UNL A   1      41.952  28.822  34.615  1.00  0.00     0.074 A 
ATOM     52  C   UNL A   1      37.198  31.701  31.724  1.00  0.00     0.029 A 
ATOM     53  N   UNL A   1      38.842  30.334  32.326  1.00  0.00    -0.354 N 
ATOM     54  N   UNL A   1      40.929  29.338  33.984  1.00  0.00    -0.248 NA
ATOM     55  C   UNL A   1      42.143  29.355  35.978  1.00  0.00     0.031 C 
ATOM     56  C   UNL A   1      37.648  32.089  32.993  1.00  0.00     0.029 A 
ATOM     57  C   UNL A   1      38.656  31.221  33.374  1.00  0.00     0.049 A 
ATOM     58  H   UNL A   1      39.507  29.608  32.311  1.00  0.00     0.167 HD
ATOM     59  C   UNL A   1      40.396  30.291  34.844  1.00  0.00     0.074 A 
ATOM     60  C   UNL A   1      41.143  30.220  36.079  1.00  0.00     0.031 C 
ATOM     61  C   UNL A   1      39.405  31.182  34.600  1.00  0.00     0.031 A 
BRANCH  48  62
ATOM     62  C   UNL A   1      36.779  30.241  29.112  1.00  0.00    -0.014 A 
ATOM     63  C   UNL A   1      35.771  29.342  28.747  1.00  0.00     0.009 A 
ATOM     64  C   UNL A   1      36.785  31.532  28.558  1.00  0.00     0.009 A 
ATOM     65  C   UNL A   1      34.797  29.725  27.821  1.00  0.00     0.001 A 
ATOM     66  C   UNL A   1      35.803  31.918  27.650  1.00  0.00     0.001 A 
ATOM     67  C   UNL A   1      34.813  31.010  27.276  1.00  0.00     0.000 A 
ENDBRANCH  48  62
BRANCH  49  68
ATOM     68  C   UNL A   1      43.800  27.120  35.177  1.00  0.00    -0.014 A 
ATOM     69  C   UNL A   1      45.086  27.620  35.461  1.00  0.00     0.009 A 
ATOM     70  C   UNL A   1      43.397  25.926  35.792  1.00  0.00     0.009 A 
ATOM     71  C   UNL A   1      45.952  26.928  36.312  1.00  0.00     0.001 A 
ATOM     72  C   UNL A   1      44.252  25.254  36.671  1.00  0.00     0.001 A 
ATOM     73  C   UNL A   1      45.532  25.747  36.920  1.00  0.00     0.000 A 
ENDBRANCH  49  68
BRANCH  61  74
ATOM     74  C   UNL A   1      39.116  32.214  35.656  1.00  0.00    -0.014 A 
ATOM     75  C   UNL A   1      39.769  33.458  35.627  1.00  0.00     0.009 A 
ATOM     76  C   UNL A   1      38.152  31.978  36.646  1.00  0.00     0.009 A 
ATOM     77  C   UNL A   1      39.483  34.434  36.583  1.00  0.00     0.001 A 
ATOM     78  C   UNL A   1      37.852  32.965  37.590  1.00  0.00     0.001 A 
ATOM     79  C   UNL A   1      38.522  34.189  37.562  1.00  0.00     0.000 A 
ENDBRANCH  61  74
ENDBRANCH  35  36
ENDBRANCH  28  30
ENDBRANCH  27  28
ENDBRANCH  26  27
ENDBRANCH   1  26
TORSDOF 15
ENDMDL
MODEL 3
REMARK VINA RESULT:     -11.0      2.562      7.569
REMARK SMILES C[C@@H](C(=O)OCCOC(=O)c1ccc(-c2c3nc(c(-c4ccccc4)c4ccc([nH]4)c(-c4ccccc4)c4nc(c(-c5ccccc5)c5ccc2[nH]5)C=C4)C=C3)cc1)c1ccc(C[C@H]2CCCC2=O)c(-c2ccccc2)c1
REMARK SMILES IDX 6 1 5 2 3 3 4 4 2 5 1 6 59 7 60 8 77 9 61 10 70 11 62 12
REMARK SMILES IDX 71 13 72 14 76 15 73 16 75 17 74 18 63 19 64 20 65 21 68 22
REMARK SMILES IDX 66 23 67 24 69 25 7 26 8 27 9 28 10 29 11 30 12 31 58 32
REMARK SMILES IDX 13 33 57 34 14 35 15 36 16 37 51 38 17 39 56 40 50 41 52 42
REMARK SMILES IDX 18 43 55 44 49 45 48 46 19 48 41 49 26 50 40 51 27 52 30 53
REMARK SMILES IDX 39 54 53 55 28 56 29 57 38 59 54 60 31 61 20 62 21 63 25 64
REMARK SMILES IDX 22 65 24 66 23 67 42 68 43 69 47 70 44 71 46 72 45 73 32 74
REMARK SMILES IDX 33 75 37 76 34 77 36 78 35 79
REMARK H PARENT 52 47 30 58
REMARK Flexibility Score: inf
ROOT
ATOM      1  C   UNL A   1      32.119  29.089  26.503  1.00  0.00     0.274 C 
ENDROOT
BRANCH   1   2
ATOM      2  O   UNL A   1      31.488  28.861  25.221  1.00  0.00    -0.462 OA
BRANCH   2   3
ATOM      3  C   UNL A   1      31.188  27.571  24.892  1.00  0.00     0.313 C 
ATOM      4  O   UNL A   1      30.653  26.777  25.657  1.00  0.00    -0.252 OA
BRANCH   3   5
ATOM      5  C   UNL A   1      31.701  27.210  23.482  1.00  0.00     0.126 C 
ATOM      6  C   UNL A   1      30.680  27.540  22.387  1.00  0.00     0.025 C 
BRANCH   5   7
ATOM      7  C   UNL A   1      32.170  25.755  23.416  1.00  0.00    -0.033 A 
ATOM      8  C   UNL A   1      31.299  24.732  23.030  1.00  0.00     0.005 A 
ATOM      9  C   UNL A   1      33.472  25.394  23.824  1.00  0.00     0.013 A 
ATOM     10  C   UNL A   1      31.656  23.394  23.200  1.00  0.00     0.004 A 
ATOM     11  C   UNL A   1      33.876  24.045  23.943  1.00  0.00    -0.015 A 
ATOM     12  C   UNL A   1      32.908  23.031  23.733  1.00  0.00    -0.039 A 
BRANCH  11  13
ATOM     13  C   UNL A   1      35.264  23.695  24.311  1.00  0.00    -0.018 A 
ATOM     14  C   UNL A   1      35.925  22.650  23.639  1.00  0.00     0.009 A 
ATOM     15  C   UNL A   1      35.891  24.254  25.434  1.00  0.00     0.009 A 
ATOM     16  C   UNL A   1      37.066  22.056  24.175  1.00  0.00     0.001 A 
ATOM     17  C   UNL A   1      37.043  23.667  25.968  1.00  0.00     0.001 A 
ATOM     18  C   UNL A   1      37.606  22.547  25.359  1.00  0.00     0.000 A 
ENDBRANCH  11  13
BRANCH  12  19
ATOM     19  C   UNL A   1      33.116  21.567  24.140  1.00  0.00     0.047 C 
BRANCH  19  20
ATOM     20  C   UNL A   1      32.900  21.205  25.628  1.00  0.00     0.060 C 
ATOM     21  C   UNL A   1      34.012  21.467  26.643  1.00  0.00     0.012 C 
ATOM     22  C   UNL A   1      31.803  22.070  26.141  1.00  0.00     0.136 C 
ATOM     23  C   UNL A   1      33.485  22.435  27.700  1.00  0.00     0.009 C 
ATOM     24  C   UNL A   1      32.312  23.144  27.064  1.00  0.00     0.076 C 
ATOM     25  O   UNL A   1      30.666  21.958  25.708  1.00  0.00    -0.299 OA
ENDBRANCH  19  20
ENDBRANCH  12  19
ENDBRANCH   5   7
ENDBRANCH   3   5
ENDBRANCH   2   3
ENDBRANCH   1   2
BRANCH   1  26
ATOM     26  C   UNL A   1      33.634  29.231  26.355  1.00  0.00     0.275 C 
BRANCH  26  27
ATOM     27  O   UNL A   1      34.248  29.144  27.654  1.00  0.00    -0.458 OA
BRANCH  27  28
ATOM     28  C   UNL A   1      34.871  30.259  28.099  1.00  0.00     0.338 C 
ATOM     29  O   UNL A   1      34.386  31.355  28.302  1.00  0.00    -0.246 OA
BRANCH  28  30
ATOM     30  C   UNL A   1      36.266  29.910  28.420  1.00  0.00     0.060 A 
ATOM     31  C   UNL A   1      37.205  30.080  27.417  1.00  0.00     0.016 A 
ATOM     32  C   UNL A   1      36.643  29.327  29.636  1.00  0.00     0.016 A 
ATOM     33  C   UNL A   1      38.508  29.643  27.622  1.00  0.00     0.010 A 
ATOM     34  C   UNL A   1      37.988  28.954  29.858  1.00  0.00     0.010 A 
ATOM     35  C   UNL A   1      38.945  29.114  28.847  1.00  0.00    -0.014 A 
BRANCH  35  36
ATOM     36  C   UNL A   1      40.378  28.683  28.964  1.00  0.00     0.031 A 
ATOM     37  C   UNL A   1      40.788  27.340  28.414  1.00  0.00     0.074 A 
ATOM     38  C   UNL A   1      41.357  29.555  29.296  1.00  0.00     0.049 A 
ATOM     39  N   UNL A   1      41.985  26.820  28.289  1.00  0.00    -0.248 NA
ATOM     40  C   UNL A   1      39.700  26.464  27.950  1.00  0.00     0.031 C 
ATOM     41  C   UNL A   1      41.153  30.949  29.674  1.00  0.00     0.029 A 
ATOM     42  N   UNL A   1      42.733  29.443  29.185  1.00  0.00    -0.354 N 
ATOM     43  C   UNL A   1      41.792  25.540  27.788  1.00  0.00     0.074 A 
ATOM     44  C   UNL A   1      40.368  25.382  27.577  1.00  0.00     0.031 C 
ATOM     45  C   UNL A   1      42.321  31.607  29.554  1.00  0.00     0.029 A 
ATOM     46  C   UNL A   1      43.379  30.663  29.191  1.00  0.00     0.049 A 
ATOM     47  H   UNL A   1      43.203  28.580  29.111  1.00  0.00     0.167 HD
ATOM     48  C   UNL A   1      42.706  24.562  27.583  1.00  0.00     0.031 A 
ATOM     49  C   UNL A   1      44.657  30.987  28.896  1.00  0.00     0.031 A 
ATOM     50  C   UNL A   1      44.122  24.699  27.781  1.00  0.00     0.049 A 
ATOM     51  C   UNL A   1      45.673  29.891  28.680  1.00  0.00     0.074 A 
ATOM     52  C   UNL A   1      45.099  23.717  27.787  1.00  0.00     0.029 A 
ATOM     53  N   UNL A   1      44.770  25.906  27.972  1.00  0.00    -0.354 N 
ATOM     54  N   UNL A   1      45.490  28.621  28.425  1.00  0.00    -0.248 NA
ATOM     55  C   UNL A   1      47.092  30.281  28.783  1.00  0.00     0.031 C 
ATOM     56  C   UNL A   1      46.339  24.328  28.015  1.00  0.00     0.029 A 
ATOM     57  C   UNL A   1      46.133  25.694  28.106  1.00  0.00     0.049 A 
ATOM     58  H   UNL A   1      44.328  26.785  28.007  1.00  0.00     0.167 HD
ATOM     59  C   UNL A   1      46.760  28.055  28.397  1.00  0.00     0.074 A 
ATOM     60  C   UNL A   1      47.712  29.129  28.565  1.00  0.00     0.031 C 
ATOM     61  C   UNL A   1      47.094  26.746  28.297  1.00  0.00     0.031 A 
BRANCH  48  62
ATOM     62  C   UNL A   1      42.167  23.198  27.277  1.00  0.00    -0.014 A 
ATOM     63  C   UNL A   1      42.160  22.670  25.981  1.00  0.00     0.009 A 
ATOM     64  C   UNL A   1      41.650  22.433  28.337  1.00  0.00     0.009 A 
ATOM     65  C   UNL A   1      41.619  21.402  25.749  1.00  0.00     0.001 A 
ATOM     66  C   UNL A   1      41.128  21.163  28.105  1.00  0.00     0.001 A 
ATOM     67  C   UNL A   1      41.106  20.652  26.808  1.00  0.00     0.000 A 
ENDBRANCH  48  62
BRANCH  49  68
ATOM     68  C   UNL A   1      45.122  32.403  28.813  1.00  0.00    -0.014 A 
ATOM     69  C   UNL A   1      45.490  33.086  29.989  1.00  0.00     0.009 A 
ATOM     70  C   UNL A   1      45.094  33.116  27.607  1.00  0.00     0.009 A 
ATOM     71  C   UNL A   1      45.792  34.451  29.959  1.00  0.00     0.001 A 
ATOM     72  C   UNL A   1      45.430  34.473  27.574  1.00  0.00     0.001 A 
ATOM     73  C   UNL A   1      45.765  35.142  28.751  1.00  0.00     0.000 A 
ENDBRANCH  49  68
BRANCH  61  74
ATOM     74  C   UNL A   1      48.545  26.381  28.444  1.00  0.00    -0.014 A 
ATOM     75  C   UNL A   1      49.379  26.326  27.313  1.00  0.00     0.009 A 
ATOM     76  C   UNL A   1      49.104  26.149  29.708  1.00  0.00     0.009 A 
ATOM     77  C   UNL A   1      50.734  26.020  27.442  1.00  0.00     0.001 A 
ATOM     78  C   UNL A   1      50.466  25.863  29.837  1.00  0.00     0.001 A 
ATOM     79  C   UNL A   1      51.278  25.793  28.705  1.00  0.00     0.000 A 
ENDBRANCH  61  74
ENDBRANCH  35  36
ENDBRANCH  28  30
ENDBRANCH  27  28
ENDBRANCH  26  27
ENDBRANCH   1  26
TORSDOF 15
ENDMDL
