MODEL 1
REMARK VINA RESULT:     -10.1      0.000      0.000
REMARK SMILES Cc1nc(C(=O)OCCOC(=O)c2ccc(-c3c4nc(c(-c5ccccc5)c5ccc([nH]5)c(-c5ccccc5)c5nc(c(-c6ccccc6)c6ccc3[nH]6)C=C5)C=C4)cc2)nn1-c1cccc(C(F)(F)F)c1
REMARK SMILES IDX 8 1 7 2 5 3 6 4 4 5 1 6 2 7 3 8 62 9 61 10 63 11 64 12 72 13
REMARK SMILES IDX 65 14 67 15 66 16 68 17 69 18 70 19 71 20 9 21 10 22 11 23
REMARK SMILES IDX 12 24 13 25 14 26 60 27 15 28 59 29 16 30 17 31 18 32 53 33
REMARK SMILES IDX 19 34 58 35 52 36 54 37 20 38 57 39 51 40 50 41 21 43 43 44
REMARK SMILES IDX 28 45 42 46 29 47 32 48 41 49 55 50 30 51 31 52 40 54 56 55
REMARK SMILES IDX 33 56 22 57 23 58 27 59 24 60 26 61 25 62 44 63 45 64 49 65
REMARK SMILES IDX 46 66 48 67 47 68 34 69 35 70 39 71 36 72 38 73 37 74
REMARK H PARENT 54 42 32 53
REMARK Flexibility Score: inf
ROOT
ATOM      1  C   UNL A   1      33.417  34.993  28.821  1.00  0.00     0.275 C 
ENDROOT
BRANCH   1   2
ATOM      2  O   UNL A   1      32.628  34.953  30.017  1.00  0.00    -0.456 OA
BRANCH   2   3
ATOM      3  C   UNL A   1      33.221  35.434  31.166  1.00  0.00     0.378 C 
ATOM      4  O   UNL A   1      32.821  36.401  31.784  1.00  0.00    -0.242 OA
BRANCH   3   5
ATOM      5  C   UNL A   1      34.350  34.579  31.591  1.00  0.00     0.260 A 
ATOM      6  C   UNL A   1      35.882  31.462  32.424  1.00  0.00     0.090 C 
ATOM      7  C   UNL A   1      35.503  32.833  32.001  1.00  0.00     0.130 A 
ATOM      8  N   UNL A   1      34.275  33.202  31.687  1.00  0.00    -0.206 NA
ATOM      9  N   UNL A   1      36.307  33.958  32.070  1.00  0.00    -0.217 N 
ATOM     10  N   UNL A   1      35.551  35.068  31.926  1.00  0.00    -0.138 NA
BRANCH   9  11
ATOM     11  C   UNL A   1      37.698  34.104  32.286  1.00  0.00     0.067 A 
ATOM     12  C   UNL A   1      38.128  34.467  33.573  1.00  0.00     0.028 A 
ATOM     13  C   UNL A   1      38.629  33.979  31.249  1.00  0.00     0.041 A 
ATOM     14  C   UNL A   1      39.482  34.643  33.840  1.00  0.00     0.003 A 
ATOM     15  C   UNL A   1      39.997  34.203  31.504  1.00  0.00     0.058 A 
ATOM     16  C   UNL A   1      40.411  34.512  32.811  1.00  0.00     0.013 A 
BRANCH  15  17
ATOM     17  C   UNL A   1      41.024  34.164  30.397  1.00  0.00     0.416 C 
ATOM     18  F   UNL A   1      41.258  32.897  29.953  1.00  0.00    -0.166 F 
ATOM     19  F   UNL A   1      40.637  34.877  29.304  1.00  0.00    -0.166 F 
ATOM     20  F   UNL A   1      42.237  34.663  30.762  1.00  0.00    -0.166 F 
ENDBRANCH  15  17
ENDBRANCH   9  11
ENDBRANCH   3   5
ENDBRANCH   2   3
ENDBRANCH   1   2
BRANCH   1  21
ATOM     21  C   UNL A   1      33.302  33.697  28.029  1.00  0.00     0.275 C 
BRANCH  21  22
ATOM     22  O   UNL A   1      34.578  33.084  27.859  1.00  0.00    -0.458 OA
BRANCH  22  23
ATOM     23  C   UNL A   1      34.577  31.734  27.808  1.00  0.00     0.338 C 
ATOM     24  O   UNL A   1      33.695  31.015  27.368  1.00  0.00    -0.246 OA
BRANCH  23  25
ATOM     25  C   UNL A   1      35.721  31.232  28.577  1.00  0.00     0.060 A 
ATOM     26  C   UNL A   1      36.773  32.119  28.828  1.00  0.00     0.016 A 
ATOM     27  C   UNL A   1      35.855  29.851  28.790  1.00  0.00     0.016 A 
ATOM     28  C   UNL A   1      38.015  31.603  29.130  1.00  0.00     0.010 A 
ATOM     29  C   UNL A   1      37.096  29.336  29.070  1.00  0.00     0.010 A 
ATOM     30  C   UNL A   1      38.174  30.214  29.168  1.00  0.00    -0.014 A 
BRANCH  30  31
ATOM     31  C   UNL A   1      39.503  29.681  29.368  1.00  0.00     0.031 A 
ATOM     32  C   UNL A   1      39.869  29.472  30.786  1.00  0.00     0.074 A 
ATOM     33  C   UNL A   1      40.263  29.255  28.344  1.00  0.00     0.049 A 
ATOM     34  N   UNL A   1      40.833  30.020  31.446  1.00  0.00    -0.248 NA
ATOM     35  C   UNL A   1      38.978  28.627  31.597  1.00  0.00     0.031 C 
ATOM     36  C   UNL A   1      39.876  29.087  26.940  1.00  0.00     0.029 A 
ATOM     37  N   UNL A   1      41.517  28.737  28.386  1.00  0.00    -0.354 N 
ATOM     38  C   UNL A   1      40.776  29.465  32.719  1.00  0.00     0.074 A 
ATOM     39  C   UNL A   1      39.532  28.744  32.801  1.00  0.00     0.031 C 
ATOM     40  C   UNL A   1      40.777  28.282  26.333  1.00  0.00     0.029 A 
ATOM     41  C   UNL A   1      41.852  27.988  27.269  1.00  0.00     0.049 A 
ATOM     42  H   UNL A   1      42.133  28.880  29.141  1.00  0.00     0.167 HD
ATOM     43  C   UNL A   1      41.863  29.433  33.536  1.00  0.00     0.031 A 
ATOM     44  C   UNL A   1      42.880  27.111  27.176  1.00  0.00     0.031 A 
ATOM     45  C   UNL A   1      42.882  30.360  33.122  1.00  0.00     0.049 A 
ATOM     46  C   UNL A   1      43.829  27.406  28.278  1.00  0.00     0.074 A 
ATOM     47  C   UNL A   1      42.926  31.726  32.925  1.00  0.00     0.029 A 
ATOM     48  N   UNL A   1      43.979  29.852  32.466  1.00  0.00    -0.354 N 
ATOM     49  N   UNL A   1      44.545  28.493  28.344  1.00  0.00    -0.248 NA
ATOM     50  C   UNL A   1      43.653  26.702  29.541  1.00  0.00     0.031 C 
ATOM     51  C   UNL A   1      43.738  31.902  31.766  1.00  0.00     0.029 A 
ATOM     52  C   UNL A   1      44.184  30.642  31.364  1.00  0.00     0.049 A 
ATOM     53  H   UNL A   1      44.513  29.071  32.735  1.00  0.00     0.167 HD
ATOM     54  C   UNL A   1      44.541  28.841  29.688  1.00  0.00     0.074 A 
ATOM     55  C   UNL A   1      44.063  27.651  30.387  1.00  0.00     0.031 C 
ATOM     56  C   UNL A   1      44.645  30.145  30.086  1.00  0.00     0.031 A 
BRANCH  43  57
ATOM     57  C   UNL A   1      42.150  28.277  34.459  1.00  0.00    -0.014 A 
ATOM     58  C   UNL A   1      42.452  27.025  33.902  1.00  0.00     0.009 A 
ATOM     59  C   UNL A   1      41.860  28.307  35.838  1.00  0.00     0.009 A 
ATOM     60  C   UNL A   1      42.399  25.857  34.673  1.00  0.00     0.001 A 
ATOM     61  C   UNL A   1      41.851  27.151  36.619  1.00  0.00     0.001 A 
ATOM     62  C   UNL A   1      42.093  25.921  36.029  1.00  0.00     0.000 A 
ENDBRANCH  43  57
BRANCH  44  63
ATOM     63  C   UNL A   1      42.914  25.846  26.408  1.00  0.00    -0.014 A 
ATOM     64  C   UNL A   1      43.931  25.593  25.476  1.00  0.00     0.009 A 
ATOM     65  C   UNL A   1      42.078  24.771  26.768  1.00  0.00     0.009 A 
ATOM     66  C   UNL A   1      44.118  24.309  24.946  1.00  0.00     0.001 A 
ATOM     67  C   UNL A   1      42.257  23.492  26.234  1.00  0.00     0.001 A 
ATOM     68  C   UNL A   1      43.288  23.257  25.332  1.00  0.00     0.000 A 
ENDBRANCH  44  63
BRANCH  56  69
ATOM     69  C   UNL A   1      44.984  31.187  29.049  1.00  0.00    -0.014 A 
ATOM     70  C   UNL A   1      44.006  31.945  28.380  1.00  0.00     0.009 A 
ATOM     71  C   UNL A   1      46.331  31.538  28.869  1.00  0.00     0.009 A 
ATOM     72  C   UNL A   1      44.367  33.000  27.535  1.00  0.00     0.001 A 
ATOM     73  C   UNL A   1      46.691  32.605  28.042  1.00  0.00     0.001 A 
ATOM     74  C   UNL A   1      45.710  33.332  27.372  1.00  0.00     0.000 A 
ENDBRANCH  56  69
ENDBRANCH  30  31
ENDBRANCH  23  25
ENDBRANCH  22  23
ENDBRANCH  21  22
ENDBRANCH   1  21
TORSDOF 13
ENDMDL
MODEL 2
REMARK VINA RESULT:      -9.7      4.273     10.598
REMARK SMILES Cc1nc(C(=O)OCCOC(=O)c2ccc(-c3c4nc(c(-c5ccccc5)c5ccc([nH]5)c(-c5ccccc5)c5nc(c(-c6ccccc6)c6ccc3[nH]6)C=C5)C=C4)cc2)nn1-c1cccc(C(F)(F)F)c1
REMARK SMILES IDX 8 1 7 2 5 3 6 4 4 5 1 6 2 7 3 8 62 9 61 10 63 11 64 12 72 13
REMARK SMILES IDX 65 14 67 15 66 16 68 17 69 18 70 19 71 20 9 21 10 22 11 23
REMARK SMILES IDX 12 24 13 25 14 26 60 27 15 28 59 29 16 30 17 31 18 32 53 33
REMARK SMILES IDX 19 34 58 35 52 36 54 37 20 38 57 39 51 40 50 41 21 43 43 44
REMARK SMILES IDX 28 45 42 46 29 47 32 48 41 49 55 50 30 51 31 52 40 54 56 55
REMARK SMILES IDX 33 56 22 57 23 58 27 59 24 60 26 61 25 62 44 63 45 64 49 65
REMARK SMILES IDX 46 66 48 67 47 68 34 69 35 70 39 71 36 72 38 73 37 74
REMARK H PARENT 54 42 32 53
REMARK Flexibility Score: inf
ROOT
ATOM      1  C   UNL A   1      41.250  19.526  26.120  1.00  0.00     0.275 C 
ENDROOT
BRANCH   1   2
ATOM      2  O   UNL A   1      42.571  19.135  26.519  1.00  0.00    -0.456 OA
BRANCH   2   3
ATOM      3  C   UNL A   1      43.524  19.069  25.523  1.00  0.00     0.378 C 
ATOM      4  O   UNL A   1      43.718  18.090  24.831  1.00  0.00    -0.242 OA
BRANCH   3   5
ATOM      5  C   UNL A   1      44.218  20.364  25.353  1.00  0.00     0.260 A 
ATOM      6  C   UNL A   1      46.755  22.497  24.023  1.00  0.00     0.090 C 
ATOM      7  C   UNL A   1      45.547  21.844  24.585  1.00  0.00     0.130 A 
ATOM      8  N   UNL A   1      45.299  20.550  24.511  1.00  0.00    -0.206 NA
ATOM      9  N   UNL A   1      44.624  22.432  25.434  1.00  0.00    -0.217 N 
ATOM     10  N   UNL A   1      43.860  21.477  26.007  1.00  0.00    -0.138 NA
BRANCH   9  11
ATOM     11  C   UNL A   1      44.402  23.784  25.785  1.00  0.00     0.067 A 
ATOM     12  C   UNL A   1      43.589  24.556  24.941  1.00  0.00     0.028 A 
ATOM     13  C   UNL A   1      45.027  24.379  26.888  1.00  0.00     0.041 A 
ATOM     14  C   UNL A   1      43.350  25.897  25.226  1.00  0.00     0.003 A 
ATOM     15  C   UNL A   1      44.826  25.747  27.153  1.00  0.00     0.058 A 
ATOM     16  C   UNL A   1      43.965  26.489  26.326  1.00  0.00     0.013 A 
BRANCH  15  17
ATOM     17  C   UNL A   1      45.548  26.448  28.280  1.00  0.00     0.416 C 
ATOM     18  F   UNL A   1      44.756  26.622  29.375  1.00  0.00    -0.166 F 
ATOM     19  F   UNL A   1      46.635  25.752  28.712  1.00  0.00    -0.166 F 
ATOM     20  F   UNL A   1      46.004  27.687  27.947  1.00  0.00    -0.166 F 
ENDBRANCH  15  17
ENDBRANCH   9  11
ENDBRANCH   3   5
ENDBRANCH   2   3
ENDBRANCH   1   2
BRANCH   1  21
ATOM     21  C   UNL A   1      40.586  20.407  27.169  1.00  0.00     0.275 C 
BRANCH  21  22
ATOM     22  O   UNL A   1      41.004  21.764  27.040  1.00  0.00    -0.458 OA
BRANCH  22  23
ATOM     23  C   UNL A   1      40.019  22.661  26.819  1.00  0.00     0.338 C 
ATOM     24  O   UNL A   1      38.935  22.452  26.297  1.00  0.00    -0.246 OA
BRANCH  23  25
ATOM     25  C   UNL A   1      40.532  24.006  27.103  1.00  0.00     0.060 A 
ATOM     26  C   UNL A   1      41.460  24.139  28.141  1.00  0.00     0.016 A 
ATOM     27  C   UNL A   1      39.894  25.121  26.537  1.00  0.00     0.016 A 
ATOM     28  C   UNL A   1      41.622  25.376  28.728  1.00  0.00     0.010 A 
ATOM     29  C   UNL A   1      40.040  26.348  27.136  1.00  0.00     0.010 A 
ATOM     30  C   UNL A   1      40.848  26.445  28.266  1.00  0.00    -0.014 A 
BRANCH  30  31
ATOM     31  C   UNL A   1      40.937  27.708  28.964  1.00  0.00     0.031 A 
ATOM     32  C   UNL A   1      41.941  28.642  28.409  1.00  0.00     0.074 A 
ATOM     33  C   UNL A   1      40.061  28.058  29.922  1.00  0.00     0.049 A 
ATOM     34  N   UNL A   1      42.980  29.132  28.997  1.00  0.00    -0.248 NA
ATOM     35  C   UNL A   1      41.828  28.987  26.983  1.00  0.00     0.031 C 
ATOM     36  C   UNL A   1      38.825  27.371  30.311  1.00  0.00     0.029 A 
ATOM     37  N   UNL A   1      40.026  29.201  30.653  1.00  0.00    -0.354 N 
ATOM     38  C   UNL A   1      43.570  29.980  28.067  1.00  0.00     0.074 A 
ATOM     39  C   UNL A   1      42.917  29.731  26.807  1.00  0.00     0.031 C 
ATOM     40  C   UNL A   1      38.051  28.231  31.010  1.00  0.00     0.029 A 
ATOM     41  C   UNL A   1      38.788  29.468  31.216  1.00  0.00     0.049 A 
ATOM     42  H   UNL A   1      40.808  29.787  30.773  1.00  0.00     0.167 HD
ATOM     43  C   UNL A   1      44.386  31.001  28.444  1.00  0.00     0.031 A 
ATOM     44  C   UNL A   1      38.377  30.661  31.711  1.00  0.00     0.031 A 
ATOM     45  C   UNL A   1      44.872  30.840  29.788  1.00  0.00     0.049 A 
ATOM     46  C   UNL A   1      39.584  31.489  31.957  1.00  0.00     0.074 A 
ATOM     47  C   UNL A   1      45.597  29.864  30.445  1.00  0.00     0.029 A 
ATOM     48  N   UNL A   1      44.289  31.600  30.774  1.00  0.00    -0.354 N 
ATOM     49  N   UNL A   1      40.469  31.223  32.876  1.00  0.00    -0.248 NA
ATOM     50  C   UNL A   1      40.047  32.361  30.885  1.00  0.00     0.031 C 
ATOM     51  C   UNL A   1      45.011  29.785  31.742  1.00  0.00     0.029 A 
ATOM     52  C   UNL A   1      44.007  30.753  31.814  1.00  0.00     0.049 A 
ATOM     53  H   UNL A   1      44.108  32.567  30.739  1.00  0.00     0.167 HD
ATOM     54  C   UNL A   1      41.692  31.522  32.291  1.00  0.00     0.074 A 
ATOM     55  C   UNL A   1      41.364  32.311  31.106  1.00  0.00     0.031 C 
ATOM     56  C   UNL A   1      42.834  30.864  32.654  1.00  0.00     0.031 A 
BRANCH  43  57
ATOM     57  C   UNL A   1      44.405  32.329  27.733  1.00  0.00    -0.014 A 
ATOM     58  C   UNL A   1      45.392  32.565  26.764  1.00  0.00     0.009 A 
ATOM     59  C   UNL A   1      43.670  33.447  28.177  1.00  0.00     0.009 A 
ATOM     60  C   UNL A   1      45.673  33.861  26.316  1.00  0.00     0.001 A 
ATOM     61  C   UNL A   1      43.916  34.734  27.699  1.00  0.00     0.001 A 
ATOM     62  C   UNL A   1      44.939  34.945  26.789  1.00  0.00     0.000 A 
ENDBRANCH  43  57
BRANCH  44  63
ATOM     63  C   UNL A   1      37.013  31.231  31.664  1.00  0.00    -0.014 A 
ATOM     64  C   UNL A   1      36.384  31.697  32.828  1.00  0.00     0.009 A 
ATOM     65  C   UNL A   1      36.413  31.546  30.429  1.00  0.00     0.009 A 
ATOM     66  C   UNL A   1      35.215  32.468  32.754  1.00  0.00     0.001 A 
ATOM     67  C   UNL A   1      35.244  32.308  30.355  1.00  0.00     0.001 A 
ATOM     68  C   UNL A   1      34.651  32.782  31.519  1.00  0.00     0.000 A 
ENDBRANCH  44  63
BRANCH  56  69
ATOM     69  C   UNL A   1      42.787  29.954  33.857  1.00  0.00    -0.014 A 
ATOM     70  C   UNL A   1      43.095  30.391  35.158  1.00  0.00     0.009 A 
ATOM     71  C   UNL A   1      42.248  28.667  33.702  1.00  0.00     0.009 A 
ATOM     72  C   UNL A   1      42.898  29.557  36.263  1.00  0.00     0.001 A 
ATOM     73  C   UNL A   1      42.030  27.841  34.807  1.00  0.00     0.001 A 
ATOM     74  C   UNL A   1      42.361  28.284  36.086  1.00  0.00     0.000 A 
ENDBRANCH  56  69
ENDBRANCH  30  31
ENDBRANCH  23  25
ENDBRANCH  22  23
ENDBRANCH  21  22
ENDBRANCH   1  21
TORSDOF 13
ENDMDL
MODEL 3
REMARK VINA RESULT:      -9.4      1.828      2.365
REMARK SMILES Cc1nc(C(=O)OCCOC(=O)c2ccc(-c3c4nc(c(-c5ccccc5)c5ccc([nH]5)c(-c5ccccc5)c5nc(c(-c6ccccc6)c6ccc3[nH]6)C=C5)C=C4)cc2)nn1-c1cccc(C(F)(F)F)c1
REMARK SMILES IDX 8 1 7 2 5 3 6 4 4 5 1 6 2 7 3 8 62 9 61 10 63 11 64 12 72 13
REMARK SMILES IDX 65 14 67 15 66 16 68 17 69 18 70 19 71 20 9 21 10 22 11 23
REMARK SMILES IDX 12 24 13 25 14 26 60 27 15 28 59 29 16 30 17 31 18 32 53 33
REMARK SMILES IDX 19 34 58 35 52 36 54 37 20 38 57 39 51 40 50 41 21 43 43 44
REMARK SMILES IDX 28 45 42 46 29 47 32 48 41 49 55 50 30 51 31 52 40 54 56 55
REMARK SMILES IDX 33 56 22 57 23 58 27 59 24 60 26 61 25 62 44 63 45 64 49 65
REMARK SMILES IDX 46 66 48 67 47 68 34 69 35 70 39 71 36 72 38 73 37 74
REMARK H PARENT 54 42 32 53
REMARK Flexibility Score: inf
ROOT
ATOM      1  C   UNL A   1      33.786  34.042  28.204  1.00  0.00     0.275 C 
ENDROOT
BRANCH   1   2
ATOM      2  O   UNL A   1      32.752  34.463  29.104  1.00  0.00    -0.456 OA
BRANCH   2   3
ATOM      3  C   UNL A   1      33.078  35.462  29.998  1.00  0.00     0.378 C 
ATOM      4  O   UNL A   1      32.610  36.583  29.964  1.00  0.00    -0.242 OA
BRANCH   3   5
ATOM      5  C   UNL A   1      34.001  34.972  31.043  1.00  0.00     0.260 A 
ATOM      6  C   UNL A   1      35.136  34.601  34.409  1.00  0.00     0.090 C 
ATOM      7  C   UNL A   1      34.790  34.509  32.969  1.00  0.00     0.130 A 
ATOM      8  N   UNL A   1      33.806  35.177  32.396  1.00  0.00    -0.206 NA
ATOM      9  N   UNL A   1      35.550  33.895  31.987  1.00  0.00    -0.217 N 
ATOM     10  N   UNL A   1      35.118  34.285  30.768  1.00  0.00    -0.138 NA
BRANCH   9  11
ATOM     11  C   UNL A   1      36.650  33.010  32.070  1.00  0.00     0.067 A 
ATOM     12  C   UNL A   1      36.512  31.864  32.868  1.00  0.00     0.028 A 
ATOM     13  C   UNL A   1      37.876  33.287  31.452  1.00  0.00     0.041 A 
ATOM     14  C   UNL A   1      37.567  30.967  33.001  1.00  0.00     0.003 A 
ATOM     15  C   UNL A   1      38.961  32.406  31.624  1.00  0.00     0.058 A 
ATOM     16  C   UNL A   1      38.784  31.236  32.383  1.00  0.00     0.013 A 
BRANCH  15  17
ATOM     17  C   UNL A   1      40.324  32.710  31.047  1.00  0.00     0.416 C 
ATOM     18  F   UNL A   1      41.060  31.583  30.834  1.00  0.00    -0.166 F 
ATOM     19  F   UNL A   1      40.250  33.341  29.843  1.00  0.00    -0.166 F 
ATOM     20  F   UNL A   1      41.086  33.509  31.844  1.00  0.00    -0.166 F 
ENDBRANCH  15  17
ENDBRANCH   9  11
ENDBRANCH   3   5
ENDBRANCH   2   3
ENDBRANCH   1   2
BRANCH   1  21
ATOM     21  C   UNL A   1      33.847  32.525  28.090  1.00  0.00     0.275 C 
BRANCH  21  22
ATOM     22  O   UNL A   1      35.097  32.024  28.558  1.00  0.00    -0.458 OA
BRANCH  22  23
ATOM     23  C   UNL A   1      35.423  30.782  28.142  1.00  0.00     0.338 C 
ATOM     24  O   UNL A   1      34.749  30.036  27.450  1.00  0.00    -0.246 OA
BRANCH  23  25
ATOM     25  C   UNL A   1      36.643  30.355  28.837  1.00  0.00     0.060 A 
ATOM     26  C   UNL A   1      37.865  30.828  28.348  1.00  0.00     0.016 A 
ATOM     27  C   UNL A   1      36.576  29.302  29.762  1.00  0.00     0.016 A 
ATOM     28  C   UNL A   1      39.014  30.131  28.658  1.00  0.00     0.010 A 
ATOM     29  C   UNL A   1      37.717  28.596  30.053  1.00  0.00     0.010 A 
ATOM     30  C   UNL A   1      38.909  28.978  29.442  1.00  0.00    -0.014 A 
BRANCH  30  31
ATOM     31  C   UNL A   1      40.100  28.188  29.663  1.00  0.00     0.031 A 
ATOM     32  C   UNL A   1      40.606  28.223  31.052  1.00  0.00     0.074 A 
ATOM     33  C   UNL A   1      40.594  27.363  28.723  1.00  0.00     0.049 A 
ATOM     34  N   UNL A   1      41.751  28.647  31.470  1.00  0.00    -0.248 NA
ATOM     35  C   UNL A   1      39.672  27.836  32.122  1.00  0.00     0.031 C 
ATOM     36  C   UNL A   1      39.986  26.983  27.445  1.00  0.00     0.029 A 
ATOM     37  N   UNL A   1      41.694  26.571  28.794  1.00  0.00    -0.354 N 
ATOM     38  C   UNL A   1      41.751  28.429  32.843  1.00  0.00     0.074 A 
ATOM     39  C   UNL A   1      40.402  28.082  33.207  1.00  0.00     0.031 C 
ATOM     40  C   UNL A   1      40.591  25.861  26.992  1.00  0.00     0.029 A 
ATOM     41  C   UNL A   1      41.693  25.528  27.881  1.00  0.00     0.049 A 
ATOM     42  H   UNL A   1      42.426  26.722  29.435  1.00  0.00     0.167 HD
ATOM     43  C   UNL A   1      42.907  28.312  33.550  1.00  0.00     0.031 A 
ATOM     44  C   UNL A   1      42.475  24.422  27.932  1.00  0.00     0.031 A 
ATOM     45  C   UNL A   1      44.039  28.833  32.832  1.00  0.00     0.049 A 
ATOM     46  C   UNL A   1      43.612  24.712  28.841  1.00  0.00     0.074 A 
ATOM     47  C   UNL A   1      44.359  30.063  32.290  1.00  0.00     0.029 A 
ATOM     48  N   UNL A   1      44.891  27.930  32.241  1.00  0.00    -0.354 N 
ATOM     49  N   UNL A   1      44.554  25.571  28.570  1.00  0.00    -0.248 NA
ATOM     50  C   UNL A   1      43.462  24.382  30.252  1.00  0.00     0.031 C 
ATOM     51  C   UNL A   1      45.019  29.760  31.063  1.00  0.00     0.029 A 
ATOM     52  C   UNL A   1      45.110  28.371  30.961  1.00  0.00     0.049 A 
ATOM     53  H   UNL A   1      45.269  27.122  32.656  1.00  0.00     0.167 HD
ATOM     54  C   UNL A   1      44.817  26.206  29.776  1.00  0.00     0.074 A 
ATOM     55  C   UNL A   1      44.188  25.365  30.792  1.00  0.00     0.031 C 
ATOM     56  C   UNL A   1      45.265  27.497  29.819  1.00  0.00     0.031 A 
BRANCH  43  57
ATOM     57  C   UNL A   1      43.055  27.362  34.710  1.00  0.00    -0.014 A 
ATOM     58  C   UNL A   1      43.327  26.010  34.449  1.00  0.00     0.009 A 
ATOM     59  C   UNL A   1      42.661  27.690  36.024  1.00  0.00     0.009 A 
ATOM     60  C   UNL A   1      43.148  25.032  35.434  1.00  0.00     0.001 A 
ATOM     61  C   UNL A   1      42.525  26.722  37.020  1.00  0.00     0.001 A 
ATOM     62  C   UNL A   1      42.741  25.388  36.717  1.00  0.00     0.000 A 
ENDBRANCH  43  57
BRANCH  44  63
ATOM     63  C   UNL A   1      42.117  23.049  27.512  1.00  0.00    -0.014 A 
ATOM     64  C   UNL A   1      40.804  22.573  27.643  1.00  0.00     0.009 A 
ATOM     65  C   UNL A   1      43.017  22.279  26.749  1.00  0.00     0.009 A 
ATOM     66  C   UNL A   1      40.404  21.385  27.014  1.00  0.00     0.001 A 
ATOM     67  C   UNL A   1      42.621  21.091  26.128  1.00  0.00     0.001 A 
ATOM     68  C   UNL A   1      41.308  20.651  26.249  1.00  0.00     0.000 A 
ENDBRANCH  44  63
BRANCH  56  69
ATOM     69  C   UNL A   1      45.679  28.156  28.526  1.00  0.00    -0.014 A 
ATOM     70  C   UNL A   1      44.759  28.744  27.640  1.00  0.00     0.009 A 
ATOM     71  C   UNL A   1      47.048  28.344  28.280  1.00  0.00     0.009 A 
ATOM     72  C   UNL A   1      45.195  29.471  26.528  1.00  0.00     0.001 A 
ATOM     73  C   UNL A   1      47.485  29.089  27.182  1.00  0.00     0.001 A 
ATOM     74  C   UNL A   1      46.559  29.647  26.303  1.00  0.00     0.000 A 
ENDBRANCH  56  69
ENDBRANCH  30  31
ENDBRANCH  23  25
ENDBRANCH  22  23
ENDBRANCH  21  22
ENDBRANCH   1  21
TORSDOF 13
ENDMDL
