MODEL 1
REMARK VINA RESULT:     -10.7      0.000      0.000
REMARK SMILES N#C/C(=C\c1ccc(-c2cc(C(F)(F)F)ccc2Cl)o1)C(=O)OCCOC(=O)c1ccc(-c2c3nc(c(-c4ccccc4)c4ccc([nH]4)c(-c4ccccc4)c4nc(c(-c5ccccc5)c5ccc2[nH]5)C=C4)C=C3)cc1
REMARK SMILES IDX 24 1 23 2 21 3 22 4 3 5 4 6 2 7 1 8 5 9 6 10 20 11 7 12 8 13
REMARK SMILES IDX 9 14 10 15 18 16 11 17 17 18 19 19 16 20 12 21 13 22 14 23
REMARK SMILES IDX 15 24 25 25 26 26 27 27 28 28 29 29 30 30 76 31 31 32 75 33
REMARK SMILES IDX 32 34 33 35 34 36 69 37 35 38 74 39 68 40 70 41 36 42 73 43
REMARK SMILES IDX 67 44 66 45 37 47 59 48 44 49 58 50 45 51 48 52 57 53 71 54
REMARK SMILES IDX 46 55 47 56 56 58 72 59 49 60 38 61 39 62 43 63 40 64 42 65
REMARK SMILES IDX 41 66 60 67 61 68 65 69 62 70 64 71 63 72 50 73 51 74 55 75
REMARK SMILES IDX 52 76 54 77 53 78
REMARK H PARENT 70 46 48 57
REMARK Flexibility Score: inf
ROOT
ATOM      1  C   UNL A   1      35.893  20.064  25.031  1.00  0.00     0.275 C 
ENDROOT
BRANCH   1   2
ATOM      2  O   UNL A   1      34.855  20.890  25.593  1.00  0.00    -0.458 OA
BRANCH   2   3
ATOM      3  C   UNL A   1      33.811  21.170  24.774  1.00  0.00     0.349 C 
ATOM      4  O   UNL A   1      33.214  20.368  24.071  1.00  0.00    -0.245 OA
BRANCH   3   5
ATOM      5  C   UNL A   1      33.449  22.591  24.867  1.00  0.00     0.141 C 
ATOM      6  C   UNL A   1      34.339  23.500  24.395  1.00  0.00     0.074 C 
BRANCH   5   7
ATOM      7  C   UNL A   1      32.006  23.038  25.032  1.00  0.00     0.107 C 
ATOM      8  N   UNL A   1      30.808  23.409  25.168  1.00  0.00    -0.192 NA
ENDBRANCH   5   7
BRANCH   6   9
ATOM      9  C   UNL A   1      33.995  24.877  24.170  1.00  0.00     0.129 A 
ATOM     10  C   UNL A   1      33.775  25.555  22.974  1.00  0.00     0.051 A 
ATOM     11  O   UNL A   1      33.852  25.804  25.195  1.00  0.00    -0.457 OA
ATOM     12  C   UNL A   1      33.563  26.917  23.269  1.00  0.00     0.051 A 
ATOM     13  C   UNL A   1      33.586  27.026  24.640  1.00  0.00     0.136 A 
BRANCH  13  14
ATOM     14  C   UNL A   1      33.375  28.163  25.534  1.00  0.00     0.036 A 
ATOM     15  C   UNL A   1      34.412  28.598  26.381  1.00  0.00     0.026 A 
ATOM     16  C   UNL A   1      32.185  28.915  25.500  1.00  0.00     0.052 A 
ATOM     17  C   UNL A   1      34.286  29.774  27.153  1.00  0.00     0.056 A 
ATOM     18  C   UNL A   1      32.049  30.076  26.270  1.00  0.00     0.022 A 
ATOM     19  Cl  UNL A   1      30.823  28.465  24.529  1.00  0.00    -0.084 Cl
ATOM     20  C   UNL A   1      33.093  30.507  27.085  1.00  0.00     0.014 A 
BRANCH  17  21
ATOM     21  C   UNL A   1      35.426  30.251  28.026  1.00  0.00     0.416 C 
ATOM     22  F   UNL A   1      35.161  31.442  28.628  1.00  0.00    -0.166 F 
ATOM     23  F   UNL A   1      35.716  29.377  29.028  1.00  0.00    -0.166 F 
ATOM     24  F   UNL A   1      36.591  30.431  27.342  1.00  0.00    -0.166 F 
ENDBRANCH  17  21
ENDBRANCH  13  14
ENDBRANCH   6   9
ENDBRANCH   3   5
ENDBRANCH   2   3
ENDBRANCH   1   2
BRANCH   1  25
ATOM     25  C   UNL A   1      37.030  20.939  24.497  1.00  0.00     0.275 C 
BRANCH  25  26
ATOM     26  O   UNL A   1      37.499  21.858  25.506  1.00  0.00    -0.458 OA
BRANCH  26  27
ATOM     27  C   UNL A   1      38.727  21.585  26.002  1.00  0.00     0.338 C 
ATOM     28  O   UNL A   1      39.393  20.580  25.818  1.00  0.00    -0.246 OA
BRANCH  27  29
ATOM     29  C   UNL A   1      39.280  22.758  26.696  1.00  0.00     0.060 A 
ATOM     30  C   UNL A   1      38.826  24.007  26.301  1.00  0.00     0.016 A 
ATOM     31  C   UNL A   1      40.390  22.660  27.528  1.00  0.00     0.016 A 
ATOM     32  C   UNL A   1      39.565  25.145  26.583  1.00  0.00     0.010 A 
ATOM     33  C   UNL A   1      41.039  23.832  27.949  1.00  0.00     0.010 A 
ATOM     34  C   UNL A   1      40.663  25.090  27.440  1.00  0.00    -0.014 A 
BRANCH  34  35
ATOM     35  C   UNL A   1      41.409  26.343  27.751  1.00  0.00     0.031 A 
ATOM     36  C   UNL A   1      40.837  27.350  28.715  1.00  0.00     0.074 A 
ATOM     37  C   UNL A   1      42.629  26.565  27.214  1.00  0.00     0.049 A 
ATOM     38  N   UNL A   1      41.230  28.575  28.961  1.00  0.00    -0.248 NA
ATOM     39  C   UNL A   1      39.658  26.935  29.491  1.00  0.00     0.031 C 
ATOM     40  C   UNL A   1      43.363  25.642  26.342  1.00  0.00     0.029 A 
ATOM     41  N   UNL A   1      43.484  27.633  27.342  1.00  0.00    -0.354 N 
ATOM     42  C   UNL A   1      40.303  29.100  29.854  1.00  0.00     0.074 A 
ATOM     43  C   UNL A   1      39.331  28.060  30.111  1.00  0.00     0.031 C 
ATOM     44  C   UNL A   1      44.575  26.148  26.077  1.00  0.00     0.029 A 
ATOM     45  C   UNL A   1      44.656  27.487  26.639  1.00  0.00     0.049 A 
ATOM     46  H   UNL A   1      43.276  28.428  27.886  1.00  0.00     0.167 HD
ATOM     47  C   UNL A   1      40.263  30.340  30.398  1.00  0.00     0.031 A 
ATOM     48  C   UNL A   1      45.663  28.350  26.413  1.00  0.00     0.031 A 
ATOM     49  C   UNL A   1      41.269  31.349  30.181  1.00  0.00     0.049 A 
ATOM     50  C   UNL A   1      45.559  29.741  26.964  1.00  0.00     0.074 A 
ATOM     51  C   UNL A   1      41.328  32.632  30.696  1.00  0.00     0.029 A 
ATOM     52  N   UNL A   1      42.399  31.181  29.396  1.00  0.00    -0.354 N 
ATOM     53  N   UNL A   1      44.636  30.254  27.739  1.00  0.00    -0.248 NA
ATOM     54  C   UNL A   1      46.623  30.678  26.585  1.00  0.00     0.031 C 
ATOM     55  C   UNL A   1      42.463  33.261  30.174  1.00  0.00     0.029 A 
ATOM     56  C   UNL A   1      43.147  32.347  29.388  1.00  0.00     0.049 A 
ATOM     57  H   UNL A   1      42.636  30.355  28.915  1.00  0.00     0.167 HD
ATOM     58  C   UNL A   1      45.017  31.570  27.958  1.00  0.00     0.074 A 
ATOM     59  C   UNL A   1      46.266  31.767  27.249  1.00  0.00     0.031 C 
ATOM     60  C   UNL A   1      44.387  32.529  28.678  1.00  0.00     0.031 A 
BRANCH  47  61
ATOM     61  C   UNL A   1      39.058  30.702  31.223  1.00  0.00    -0.014 A 
ATOM     62  C   UNL A   1      37.923  31.311  30.666  1.00  0.00     0.009 A 
ATOM     63  C   UNL A   1      39.054  30.395  32.594  1.00  0.00     0.009 A 
ATOM     64  C   UNL A   1      36.829  31.641  31.472  1.00  0.00     0.001 A 
ATOM     65  C   UNL A   1      37.948  30.696  33.391  1.00  0.00     0.001 A 
ATOM     66  C   UNL A   1      36.841  31.329  32.831  1.00  0.00     0.000 A 
ENDBRANCH  47  61
BRANCH  48  67
ATOM     67  C   UNL A   1      46.817  27.946  25.565  1.00  0.00    -0.014 A 
ATOM     68  C   UNL A   1      48.001  27.470  26.147  1.00  0.00     0.009 A 
ATOM     69  C   UNL A   1      46.742  28.032  24.164  1.00  0.00     0.009 A 
ATOM     70  C   UNL A   1      49.087  27.104  25.348  1.00  0.00     0.001 A 
ATOM     71  C   UNL A   1      47.813  27.630  23.366  1.00  0.00     0.001 A 
ATOM     72  C   UNL A   1      48.989  27.176  23.958  1.00  0.00     0.000 A 
ENDBRANCH  48  67
BRANCH  60  73
ATOM     73  C   UNL A   1      45.066  33.865  28.772  1.00  0.00    -0.014 A 
ATOM     74  C   UNL A   1      44.784  34.895  27.862  1.00  0.00     0.009 A 
ATOM     75  C   UNL A   1      45.988  34.099  29.805  1.00  0.00     0.009 A 
ATOM     76  C   UNL A   1      45.440  36.122  27.964  1.00  0.00     0.001 A 
ATOM     77  C   UNL A   1      46.618  35.338  29.924  1.00  0.00     0.001 A 
ATOM     78  C   UNL A   1      46.351  36.345  28.997  1.00  0.00     0.000 A 
ENDBRANCH  60  73
ENDBRANCH  34  35
ENDBRANCH  27  29
ENDBRANCH  26  27
ENDBRANCH  25  26
ENDBRANCH   1  25
TORSDOF 15
ENDMDL
MODEL 2
REMARK VINA RESULT:     -10.7      0.533      5.931
REMARK SMILES N#C/C(=C\c1ccc(-c2cc(C(F)(F)F)ccc2Cl)o1)C(=O)OCCOC(=O)c1ccc(-c2c3nc(c(-c4ccccc4)c4ccc([nH]4)c(-c4ccccc4)c4nc(c(-c5ccccc5)c5ccc2[nH]5)C=C4)C=C3)cc1
REMARK SMILES IDX 24 1 23 2 21 3 22 4 3 5 4 6 2 7 1 8 5 9 6 10 20 11 7 12 8 13
REMARK SMILES IDX 9 14 10 15 18 16 11 17 17 18 19 19 16 20 12 21 13 22 14 23
REMARK SMILES IDX 15 24 25 25 26 26 27 27 28 28 29 29 30 30 76 31 31 32 75 33
REMARK SMILES IDX 32 34 33 35 34 36 69 37 35 38 74 39 68 40 70 41 36 42 73 43
REMARK SMILES IDX 67 44 66 45 37 47 59 48 44 49 58 50 45 51 48 52 57 53 71 54
REMARK SMILES IDX 46 55 47 56 56 58 72 59 49 60 38 61 39 62 43 63 40 64 42 65
REMARK SMILES IDX 41 66 60 67 61 68 65 69 62 70 64 71 63 72 50 73 51 74 55 75
REMARK SMILES IDX 52 76 54 77 53 78
REMARK H PARENT 70 46 48 57
REMARK Flexibility Score: inf
ROOT
ATOM      1  C   UNL A   1      36.215  19.686  25.001  1.00  0.00     0.275 C 
ENDROOT
BRANCH   1   2
ATOM      2  O   UNL A   1      35.530  20.913  25.317  1.00  0.00    -0.458 OA
BRANCH   2   3
ATOM      3  C   UNL A   1      34.213  20.956  24.996  1.00  0.00     0.349 C 
ATOM      4  O   UNL A   1      33.502  19.994  24.752  1.00  0.00    -0.245 OA
BRANCH   3   5
ATOM      5  C   UNL A   1      33.722  22.340  25.019  1.00  0.00     0.141 C 
ATOM      6  C   UNL A   1      34.594  23.324  24.683  1.00  0.00     0.074 C 
BRANCH   5   7
ATOM      7  C   UNL A   1      32.238  22.662  24.951  1.00  0.00     0.107 C 
ATOM      8  N   UNL A   1      31.007  22.929  24.896  1.00  0.00    -0.192 NA
ENDBRANCH   5   7
BRANCH   6   9
ATOM      9  C   UNL A   1      34.174  24.667  24.396  1.00  0.00     0.129 A 
ATOM     10  C   UNL A   1      33.907  25.273  23.170  1.00  0.00     0.051 A 
ATOM     11  O   UNL A   1      33.990  25.636  25.375  1.00  0.00    -0.457 OA
ATOM     12  C   UNL A   1      33.625  26.635  23.400  1.00  0.00     0.051 A 
ATOM     13  C   UNL A   1      33.654  26.812  24.763  1.00  0.00     0.136 A 
BRANCH  13  14
ATOM     14  C   UNL A   1      33.388  27.979  25.603  1.00  0.00     0.036 A 
ATOM     15  C   UNL A   1      34.402  28.500  26.431  1.00  0.00     0.026 A 
ATOM     16  C   UNL A   1      32.167  28.675  25.533  1.00  0.00     0.052 A 
ATOM     17  C   UNL A   1      34.221  29.703  27.147  1.00  0.00     0.056 A 
ATOM     18  C   UNL A   1      31.975  29.863  26.247  1.00  0.00     0.022 A 
ATOM     19  Cl  UNL A   1      30.829  28.119  24.582  1.00  0.00    -0.084 Cl
ATOM     20  C   UNL A   1      32.996  30.378  27.043  1.00  0.00     0.014 A 
BRANCH  17  21
ATOM     21  C   UNL A   1      35.335  30.271  27.997  1.00  0.00     0.416 C 
ATOM     22  F   UNL A   1      36.480  30.475  27.292  1.00  0.00    -0.166 F 
ATOM     23  F   UNL A   1      35.010  31.474  28.546  1.00  0.00    -0.166 F 
ATOM     24  F   UNL A   1      35.680  29.468  29.043  1.00  0.00    -0.166 F 
ENDBRANCH  17  21
ENDBRANCH  13  14
ENDBRANCH   6   9
ENDBRANCH   3   5
ENDBRANCH   2   3
ENDBRANCH   1   2
BRANCH   1  25
ATOM     25  C   UNL A   1      37.700  19.962  24.749  1.00  0.00     0.275 C 
BRANCH  25  26
ATOM     26  O   UNL A   1      38.135  21.149  25.445  1.00  0.00    -0.458 OA
BRANCH  26  27
ATOM     27  C   UNL A   1      39.296  21.020  26.126  1.00  0.00     0.338 C 
ATOM     28  O   UNL A   1      40.028  20.046  26.161  1.00  0.00    -0.246 OA
BRANCH  27  29
ATOM     29  C   UNL A   1      39.691  22.302  26.728  1.00  0.00     0.060 A 
ATOM     30  C   UNL A   1      39.040  23.444  26.285  1.00  0.00     0.016 A 
ATOM     31  C   UNL A   1      40.834  22.422  27.511  1.00  0.00     0.016 A 
ATOM     32  C   UNL A   1      39.609  24.694  26.468  1.00  0.00     0.010 A 
ATOM     33  C   UNL A   1      41.314  23.701  27.835  1.00  0.00     0.010 A 
ATOM     34  C   UNL A   1      40.735  24.855  27.275  1.00  0.00    -0.014 A 
BRANCH  34  35
ATOM     35  C   UNL A   1      41.295  26.222  27.481  1.00  0.00     0.031 A 
ATOM     36  C   UNL A   1      42.581  26.627  26.809  1.00  0.00     0.074 A 
ATOM     37  C   UNL A   1      40.630  27.129  28.229  1.00  0.00     0.049 A 
ATOM     38  N   UNL A   1      43.325  27.684  27.017  1.00  0.00    -0.248 NA
ATOM     39  C   UNL A   1      43.112  25.716  25.782  1.00  0.00     0.031 C 
ATOM     40  C   UNL A   1      39.323  26.925  28.865  1.00  0.00     0.029 A 
ATOM     41  N   UNL A   1      40.950  28.423  28.565  1.00  0.00    -0.354 N 
ATOM     42  C   UNL A   1      44.446  27.525  26.209  1.00  0.00     0.074 A 
ATOM     43  C   UNL A   1      44.282  26.273  25.504  1.00  0.00     0.031 C 
ATOM     44  C   UNL A   1      38.927  28.065  29.445  1.00  0.00     0.029 A 
ATOM     45  C   UNL A   1      40.002  29.039  29.347  1.00  0.00     0.049 A 
ATOM     46  H   UNL A   1      41.780  28.866  28.273  1.00  0.00     0.167 HD
ATOM     47  C   UNL A   1      45.517  28.345  26.080  1.00  0.00     0.031 A 
ATOM     48  C   UNL A   1      40.013  30.230  29.973  1.00  0.00     0.031 A 
ATOM     49  C   UNL A   1      45.643  29.618  26.743  1.00  0.00     0.049 A 
ATOM     50  C   UNL A   1      41.241  31.085  29.876  1.00  0.00     0.074 A 
ATOM     51  C   UNL A   1      46.681  30.530  26.669  1.00  0.00     0.029 A 
ATOM     52  N   UNL A   1      44.690  30.165  27.590  1.00  0.00    -0.354 N 
ATOM     53  N   UNL A   1      42.331  30.887  29.176  1.00  0.00    -0.248 NA
ATOM     54  C   UNL A   1      41.249  32.315  30.677  1.00  0.00     0.031 C 
ATOM     55  C   UNL A   1      46.384  31.600  27.518  1.00  0.00     0.029 A 
ATOM     56  C   UNL A   1      45.131  31.388  28.068  1.00  0.00     0.049 A 
ATOM     57  H   UNL A   1      43.828  29.746  27.817  1.00  0.00     0.167 HD
ATOM     58  C   UNL A   1      43.149  31.977  29.437  1.00  0.00     0.074 A 
ATOM     59  C   UNL A   1      42.418  32.842  30.342  1.00  0.00     0.031 C 
ATOM     60  C   UNL A   1      44.393  32.236  28.969  1.00  0.00     0.031 A 
BRANCH  47  61
ATOM     61  C   UNL A   1      46.671  27.859  25.246  1.00  0.00    -0.014 A 
ATOM     62  C   UNL A   1      46.778  28.139  23.876  1.00  0.00     0.009 A 
ATOM     63  C   UNL A   1      47.694  27.121  25.866  1.00  0.00     0.009 A 
ATOM     64  C   UNL A   1      47.863  27.655  23.137  1.00  0.00     0.001 A 
ATOM     65  C   UNL A   1      48.792  26.667  25.134  1.00  0.00     0.001 A 
ATOM     66  C   UNL A   1      48.870  26.925  23.767  1.00  0.00     0.000 A 
ENDBRANCH  47  61
BRANCH  48  67
ATOM     67  C   UNL A   1      38.854  30.645  30.809  1.00  0.00    -0.014 A 
ATOM     68  C   UNL A   1      37.903  31.549  30.313  1.00  0.00     0.009 A 
ATOM     69  C   UNL A   1      38.690  30.138  32.109  1.00  0.00     0.009 A 
ATOM     70  C   UNL A   1      36.823  31.947  31.106  1.00  0.00     0.001 A 
ATOM     71  C   UNL A   1      37.590  30.507  32.885  1.00  0.00     0.001 A 
ATOM     72  C   UNL A   1      36.663  31.418  32.387  1.00  0.00     0.000 A 
ENDBRANCH  48  67
BRANCH  60  73
ATOM     73  C   UNL A   1      45.023  33.531  29.395  1.00  0.00    -0.014 A 
ATOM     74  C   UNL A   1      45.835  33.609  30.537  1.00  0.00     0.009 A 
ATOM     75  C   UNL A   1      44.814  34.686  28.625  1.00  0.00     0.009 A 
ATOM     76  C   UNL A   1      46.397  34.828  30.919  1.00  0.00     0.001 A 
ATOM     77  C   UNL A   1      45.403  35.897  28.992  1.00  0.00     0.001 A 
ATOM     78  C   UNL A   1      46.185  35.969  30.143  1.00  0.00     0.000 A 
ENDBRANCH  60  73
ENDBRANCH  34  35
ENDBRANCH  27  29
ENDBRANCH  26  27
ENDBRANCH  25  26
ENDBRANCH   1  25
TORSDOF 15
ENDMDL
MODEL 3
REMARK VINA RESULT:     -10.6      2.460      3.058
REMARK SMILES N#C/C(=C\c1ccc(-c2cc(C(F)(F)F)ccc2Cl)o1)C(=O)OCCOC(=O)c1ccc(-c2c3nc(c(-c4ccccc4)c4ccc([nH]4)c(-c4ccccc4)c4nc(c(-c5ccccc5)c5ccc2[nH]5)C=C4)C=C3)cc1
REMARK SMILES IDX 24 1 23 2 21 3 22 4 3 5 4 6 2 7 1 8 5 9 6 10 20 11 7 12 8 13
REMARK SMILES IDX 9 14 10 15 18 16 11 17 17 18 19 19 16 20 12 21 13 22 14 23
REMARK SMILES IDX 15 24 25 25 26 26 27 27 28 28 29 29 30 30 76 31 31 32 75 33
REMARK SMILES IDX 32 34 33 35 34 36 69 37 35 38 74 39 68 40 70 41 36 42 73 43
REMARK SMILES IDX 67 44 66 45 37 47 59 48 44 49 58 50 45 51 48 52 57 53 71 54
REMARK SMILES IDX 46 55 47 56 56 58 72 59 49 60 38 61 39 62 43 63 40 64 42 65
REMARK SMILES IDX 41 66 60 67 61 68 65 69 62 70 64 71 63 72 50 73 51 74 55 75
REMARK SMILES IDX 52 76 54 77 53 78
REMARK H PARENT 70 46 48 57
REMARK Flexibility Score: inf
ROOT
ATOM      1  C   UNL A   1      36.052  20.019  24.961  1.00  0.00     0.275 C 
ENDROOT
BRANCH   1   2
ATOM      2  O   UNL A   1      34.936  20.712  25.554  1.00  0.00    -0.458 OA
BRANCH   2   3
ATOM      3  C   UNL A   1      33.820  20.800  24.790  1.00  0.00     0.349 C 
ATOM      4  O   UNL A   1      33.258  19.871  24.229  1.00  0.00    -0.245 OA
BRANCH   3   5
ATOM      5  C   UNL A   1      33.329  22.183  24.751  1.00  0.00     0.141 C 
ATOM      6  C   UNL A   1      31.986  22.376  24.765  1.00  0.00     0.074 C 
BRANCH   5   7
ATOM      7  C   UNL A   1      34.212  23.356  25.147  1.00  0.00     0.107 C 
ATOM      8  N   UNL A   1      34.944  24.328  25.476  1.00  0.00    -0.192 NA
ENDBRANCH   5   7
BRANCH   6   9
ATOM      9  C   UNL A   1      31.389  23.659  25.012  1.00  0.00     0.129 A 
ATOM     10  C   UNL A   1      30.695  24.117  26.130  1.00  0.00     0.051 A 
ATOM     11  O   UNL A   1      31.395  24.695  24.086  1.00  0.00    -0.457 OA
ATOM     12  C   UNL A   1      30.219  25.415  25.855  1.00  0.00     0.051 A 
ATOM     13  C   UNL A   1      30.693  25.747  24.608  1.00  0.00     0.136 A 
BRANCH  13  14
ATOM     14  C   UNL A   1      30.582  26.969  23.813  1.00  0.00     0.036 A 
ATOM     15  C   UNL A   1      29.317  27.531  23.554  1.00  0.00     0.026 A 
ATOM     16  C   UNL A   1      31.722  27.672  23.379  1.00  0.00     0.052 A 
ATOM     17  C   UNL A   1      29.186  28.781  22.909  1.00  0.00     0.056 A 
ATOM     18  C   UNL A   1      31.600  28.906  22.730  1.00  0.00     0.022 A 
ATOM     19  Cl  UNL A   1      33.331  27.070  23.603  1.00  0.00    -0.084 Cl
ATOM     20  C   UNL A   1      30.343  29.460  22.503  1.00  0.00     0.014 A 
BRANCH  17  21
ATOM     21  C   UNL A   1      27.821  29.391  22.677  1.00  0.00     0.416 C 
ATOM     22  F   UNL A   1      27.648  29.812  21.396  1.00  0.00    -0.166 F 
ATOM     23  F   UNL A   1      26.810  28.515  22.928  1.00  0.00    -0.166 F 
ATOM     24  F   UNL A   1      27.574  30.477  23.463  1.00  0.00    -0.166 F 
ENDBRANCH  17  21
ENDBRANCH  13  14
ENDBRANCH   6   9
ENDBRANCH   3   5
ENDBRANCH   2   3
ENDBRANCH   1   2
BRANCH   1  25
ATOM     25  C   UNL A   1      37.136  21.019  24.553  1.00  0.00     0.275 C 
BRANCH  25  26
ATOM     26  O   UNL A   1      37.560  21.817  25.678  1.00  0.00    -0.458 OA
BRANCH  26  27
ATOM     27  C   UNL A   1      38.823  21.584  26.102  1.00  0.00     0.338 C 
ATOM     28  O   UNL A   1      39.513  20.606  25.867  1.00  0.00    -0.246 OA
BRANCH  27  29
ATOM     29  C   UNL A   1      39.371  22.767  26.781  1.00  0.00     0.060 A 
ATOM     30  C   UNL A   1      38.903  24.009  26.377  1.00  0.00     0.016 A 
ATOM     31  C   UNL A   1      40.488  22.687  27.605  1.00  0.00     0.016 A 
ATOM     32  C   UNL A   1      39.634  25.157  26.643  1.00  0.00     0.010 A 
ATOM     33  C   UNL A   1      41.130  23.869  28.009  1.00  0.00     0.010 A 
ATOM     34  C   UNL A   1      40.739  25.118  27.492  1.00  0.00    -0.014 A 
BRANCH  34  35
ATOM     35  C   UNL A   1      41.477  26.381  27.785  1.00  0.00     0.031 A 
ATOM     36  C   UNL A   1      40.904  27.392  28.745  1.00  0.00     0.074 A 
ATOM     37  C   UNL A   1      42.690  26.609  27.236  1.00  0.00     0.049 A 
ATOM     38  N   UNL A   1      41.289  28.622  28.977  1.00  0.00    -0.248 NA
ATOM     39  C   UNL A   1      39.735  26.973  29.535  1.00  0.00     0.031 C 
ATOM     40  C   UNL A   1      43.425  25.685  26.365  1.00  0.00     0.029 A 
ATOM     41  N   UNL A   1      43.537  27.686  27.347  1.00  0.00    -0.354 N 
ATOM     42  C   UNL A   1      40.364  29.147  29.873  1.00  0.00     0.074 A 
ATOM     43  C   UNL A   1      39.404  28.100  30.148  1.00  0.00     0.031 C 
ATOM     44  C   UNL A   1      44.630  26.200  26.085  1.00  0.00     0.029 A 
ATOM     45  C   UNL A   1      44.704  27.544  26.635  1.00  0.00     0.049 A 
ATOM     46  H   UNL A   1      43.327  28.484  27.885  1.00  0.00     0.167 HD
ATOM     47  C   UNL A   1      40.318  30.391  30.407  1.00  0.00     0.031 A 
ATOM     48  C   UNL A   1      45.701  28.414  26.392  1.00  0.00     0.031 A 
ATOM     49  C   UNL A   1      41.313  31.407  30.172  1.00  0.00     0.049 A 
ATOM     50  C   UNL A   1      45.589  29.808  26.932  1.00  0.00     0.074 A 
ATOM     51  C   UNL A   1      41.365  32.696  30.675  1.00  0.00     0.029 A 
ATOM     52  N   UNL A   1      42.438  31.242  29.378  1.00  0.00    -0.354 N 
ATOM     53  N   UNL A   1      44.668  30.321  27.710  1.00  0.00    -0.248 NA
ATOM     54  C   UNL A   1      46.642  30.752  26.535  1.00  0.00     0.031 C 
ATOM     55  C   UNL A   1      42.490  33.329  30.138  1.00  0.00     0.029 A 
ATOM     56  C   UNL A   1      43.175  32.415  29.354  1.00  0.00     0.049 A 
ATOM     57  H   UNL A   1      42.678  30.414  28.903  1.00  0.00     0.167 HD
ATOM     58  C   UNL A   1      45.039  31.642  27.914  1.00  0.00     0.074 A 
ATOM     59  C   UNL A   1      46.281  31.844  27.193  1.00  0.00     0.031 C 
ATOM     60  C   UNL A   1      44.407  32.601  28.631  1.00  0.00     0.031 A 
BRANCH  47  61
ATOM     61  C   UNL A   1      39.117  30.750  31.239  1.00  0.00    -0.014 A 
ATOM     62  C   UNL A   1      37.960  31.314  30.681  1.00  0.00     0.009 A 
ATOM     63  C   UNL A   1      39.141  30.485  32.618  1.00  0.00     0.009 A 
ATOM     64  C   UNL A   1      36.870  31.643  31.494  1.00  0.00     0.001 A 
ATOM     65  C   UNL A   1      38.040  30.784  33.423  1.00  0.00     0.001 A 
ATOM     66  C   UNL A   1      36.910  31.374  32.862  1.00  0.00     0.000 A 
ENDBRANCH  47  61
BRANCH  48  67
ATOM     67  C   UNL A   1      46.851  28.012  25.538  1.00  0.00    -0.014 A 
ATOM     68  C   UNL A   1      46.742  28.024  24.139  1.00  0.00     0.009 A 
ATOM     69  C   UNL A   1      48.069  27.615  26.116  1.00  0.00     0.009 A 
ATOM     70  C   UNL A   1      47.820  27.633  23.341  1.00  0.00     0.001 A 
ATOM     71  C   UNL A   1      49.157  27.262  25.316  1.00  0.00     0.001 A 
ATOM     72  C   UNL A   1      49.029  27.261  23.930  1.00  0.00     0.000 A 
ENDBRANCH  48  67
BRANCH  60  73
ATOM     73  C   UNL A   1      45.075  33.944  28.708  1.00  0.00    -0.014 A 
ATOM     74  C   UNL A   1      46.025  34.232  29.699  1.00  0.00     0.009 A 
ATOM     75  C   UNL A   1      44.761  34.926  27.756  1.00  0.00     0.009 A 
ATOM     76  C   UNL A   1      46.621  35.493  29.757  1.00  0.00     0.001 A 
ATOM     77  C   UNL A   1      45.382  36.175  27.797  1.00  0.00     0.001 A 
ATOM     78  C   UNL A   1      46.304  36.460  28.803  1.00  0.00     0.000 A 
ENDBRANCH  60  73
ENDBRANCH  34  35
ENDBRANCH  27  29
ENDBRANCH  26  27
ENDBRANCH  25  26
ENDBRANCH   1  25
TORSDOF 15
ENDMDL
