MODEL 1
REMARK VINA RESULT:     -10.1      0.000      0.000
REMARK SMILES O=C(N[C@@H](Cc1c[nH]c2ccccc12)C(=O)N[C@@H](CS)C(=O)N[C@@H](CO)C(=O)OCCOC(=O)c1ccc(-c2c3nc(c(-c4ccccc4)c4ccc([nH]4)c(-c4ccccc4)c4nc(c(-c5ccccc5)c5ccc2[nH]5)C=C4)C=C3)cc1)c1ccc(F)cc1
REMARK SMILES IDX 27 1 28 2 24 3 23 4 21 5 22 6 18 8 17 9 15 10 16 11 4 13
REMARK SMILES IDX 3 14 1 15 2 16 83 18 84 19 89 20 85 21 88 22 86 23 87 24
REMARK SMILES IDX 5 25 6 26 7 27 14 28 8 29 9 30 13 31 10 33 12 34 11 35 19 36
REMARK SMILES IDX 20 37 25 39 26 40 29 42 30 43 31 44 32 45 33 46 34 47 35 48
REMARK SMILES IDX 36 49 82 50 37 51 81 52 38 53 39 54 40 55 75 56 41 57 80 58
REMARK SMILES IDX 74 59 76 60 42 61 79 62 73 63 72 64 43 66 65 67 50 68 64 69
REMARK SMILES IDX 51 70 54 71 63 72 77 73 52 74 53 75 62 77 78 78 55 79 44 80
REMARK SMILES IDX 45 81 49 82 46 83 48 84 47 85 66 86 67 87 71 88 68 89 70 90
REMARK SMILES IDX 69 91 56 92 57 93 61 94 58 95 60 96 59 97
REMARK H PARENT 23 7 17 12 3 17 8 32 20 38 26 41 76 65 54 76
REMARK Flexibility Score: inf
ROOT
ATOM      1  C   UNL A   1      35.373  33.033  30.626  1.00  0.00     0.331 C 
ATOM      2  O   UNL A   1      34.379  33.478  31.186  1.00  0.00    -0.250 OA
ENDROOT
BRANCH   1   3
ATOM      3  C   UNL A   1      35.331  32.455  29.209  1.00  0.00     0.218 C 
BRANCH   3   4
ATOM      4  N   UNL A   1      34.215  31.535  28.949  1.00  0.00    -0.339 N 
ATOM      5  C   UNL A   1      33.976  30.929  27.752  1.00  0.00     0.244 C 
ATOM      6  O   UNL A   1      32.906  31.192  27.196  1.00  0.00    -0.273 OA
ATOM      7  H   UNL A   1      33.598  31.342  29.692  1.00  0.00     0.164 HD
BRANCH   5   8
ATOM      8  C   UNL A   1      34.966  29.898  27.142  1.00  0.00     0.181 C 
BRANCH   8   9
ATOM      9  N   UNL A   1      34.613  29.606  25.757  1.00  0.00    -0.342 N 
ATOM     10  C   UNL A   1      34.210  28.476  25.131  1.00  0.00     0.243 C 
ATOM     11  O   UNL A   1      34.091  28.570  23.901  1.00  0.00    -0.273 OA
ATOM     12  H   UNL A   1      34.681  30.386  25.159  1.00  0.00     0.164 HD
BRANCH  10  13
ATOM     13  C   UNL A   1      33.991  27.102  25.811  1.00  0.00     0.176 C 
BRANCH  13  14
ATOM     14  N   UNL A   1      33.008  27.135  26.894  1.00  0.00    -0.340 N 
ATOM     15  O   UNL A   1      31.163  27.913  27.923  1.00  0.00    -0.269 OA
ATOM     16  C   UNL A   1      31.742  27.667  26.871  1.00  0.00     0.251 C 
ATOM     17  H   UNL A   1      33.288  26.725  27.744  1.00  0.00     0.164 HD
BRANCH  16  18
ATOM     18  C   UNL A   1      31.087  27.965  25.579  1.00  0.00     0.040 A 
ATOM     19  C   UNL A   1      30.484  26.937  24.844  1.00  0.00     0.017 A 
ATOM     20  C   UNL A   1      31.057  29.283  25.110  1.00  0.00     0.017 A 
ATOM     21  C   UNL A   1      29.887  27.223  23.615  1.00  0.00     0.040 A 
ATOM     22  C   UNL A   1      30.458  29.564  23.879  1.00  0.00     0.040 A 
ATOM     23  C   UNL A   1      29.884  28.532  23.142  1.00  0.00     0.123 A 
ATOM     24  F   UNL A   1      29.319  28.802  21.958  1.00  0.00    -0.207 F 
ENDBRANCH  16  18
ENDBRANCH  13  14
BRANCH  13  25
ATOM     25  C   UNL A   1      33.938  25.840  24.931  1.00  0.00     0.072 C 
BRANCH  25  26
ATOM     26  C   UNL A   1      34.041  24.479  25.560  1.00  0.00    -0.020 A 
ATOM     27  C   UNL A   1      33.329  23.951  26.626  1.00  0.00     0.087 A 
ATOM     28  C   UNL A   1      35.000  23.474  25.189  1.00  0.00     0.003 A 
ATOM     29  N   UNL A   1      33.703  22.641  26.794  1.00  0.00    -0.361 N 
ATOM     30  C   UNL A   1      34.734  22.331  25.940  1.00  0.00     0.046 A 
ATOM     31  C   UNL A   1      36.071  23.436  24.271  1.00  0.00     0.010 A 
ATOM     32  H   UNL A   1      33.294  22.015  27.433  1.00  0.00     0.166 HD
ATOM     33  C   UNL A   1      35.451  21.138  25.787  1.00  0.00     0.026 A 
ATOM     34  C   UNL A   1      36.823  22.264  24.132  1.00  0.00     0.001 A 
ATOM     35  C   UNL A   1      36.506  21.128  24.870  1.00  0.00     0.002 A 
ENDBRANCH  25  26
ENDBRANCH  13  25
ENDBRANCH  10  13
ENDBRANCH   8   9
BRANCH   8  36
ATOM     36  C   UNL A   1      36.468  30.086  27.378  1.00  0.00     0.101 C 
BRANCH  36  37
ATOM     37  S   UNL A   1      37.281  28.754  28.331  1.00  0.00    -0.177 SA
ATOM     38  H   UNL A   1      38.118  28.058  27.516  1.00  0.00     0.102 HD
ENDBRANCH  36  37
ENDBRANCH   8  36
ENDBRANCH   5   8
ENDBRANCH   3   4
BRANCH   3  39
ATOM     39  C   UNL A   1      35.290  33.627  28.216  1.00  0.00     0.193 C 
BRANCH  39  40
ATOM     40  O   UNL A   1      35.748  34.831  28.836  1.00  0.00    -0.394 OA
ATOM     41  H   UNL A   1      36.712  34.892  28.750  1.00  0.00     0.210 HD
ENDBRANCH  39  40
ENDBRANCH   3  39
ENDBRANCH   1   3
BRANCH   1  42
ATOM     42  O   UNL A   1      36.611  32.943  31.184  1.00  0.00    -0.460 OA
BRANCH  42  43
ATOM     43  C   UNL A   1      36.704  33.274  32.584  1.00  0.00     0.274 C 
BRANCH  43  44
ATOM     44  C   UNL A   1      36.938  32.004  33.392  1.00  0.00     0.275 C 
BRANCH  44  45
ATOM     45  O   UNL A   1      36.867  30.869  32.509  1.00  0.00    -0.458 OA
BRANCH  45  46
ATOM     46  C   UNL A   1      37.615  29.800  32.865  1.00  0.00     0.338 C 
ATOM     47  O   UNL A   1      37.311  28.897  33.626  1.00  0.00    -0.246 OA
BRANCH  46  48
ATOM     48  C   UNL A   1      38.917  29.841  32.175  1.00  0.00     0.060 A 
ATOM     49  C   UNL A   1      39.040  30.444  30.925  1.00  0.00     0.016 A 
ATOM     50  C   UNL A   1      39.992  29.132  32.717  1.00  0.00     0.016 A 
ATOM     51  C   UNL A   1      40.199  30.233  30.170  1.00  0.00     0.010 A 
ATOM     52  C   UNL A   1      41.183  29.012  31.995  1.00  0.00     0.010 A 
ATOM     53  C   UNL A   1      41.289  29.512  30.684  1.00  0.00    -0.014 A 
BRANCH  53  54
ATOM     54  C   UNL A   1      42.499  29.201  29.857  1.00  0.00     0.031 A 
ATOM     55  C   UNL A   1      42.593  27.882  29.121  1.00  0.00     0.074 A 
ATOM     56  C   UNL A   1      43.523  30.070  29.719  1.00  0.00     0.049 A 
ATOM     57  N   UNL A   1      43.649  27.269  28.647  1.00  0.00    -0.248 NA
ATOM     58  C   UNL A   1      41.333  27.148  28.920  1.00  0.00     0.031 C 
ATOM     59  C   UNL A   1      43.588  31.421  30.276  1.00  0.00     0.029 A 
ATOM     60  N   UNL A   1      44.718  29.934  29.049  1.00  0.00    -0.354 N 
ATOM     61  C   UNL A   1      43.191  26.049  28.161  1.00  0.00     0.074 A 
ATOM     62  C   UNL A   1      41.763  26.010  28.392  1.00  0.00     0.031 C 
ATOM     63  C   UNL A   1      44.727  32.007  29.877  1.00  0.00     0.029 A 
ATOM     64  C   UNL A   1      45.531  31.037  29.143  1.00  0.00     0.049 A 
ATOM     65  H   UNL A   1      44.966  29.124  28.548  1.00  0.00     0.167 HD
ATOM     66  C   UNL A   1      43.897  25.045  27.584  1.00  0.00     0.031 A 
ATOM     67  C   UNL A   1      46.804  31.238  28.748  1.00  0.00     0.031 A 
ATOM     68  C   UNL A   1      45.299  25.113  27.264  1.00  0.00     0.049 A 
ATOM     69  C   UNL A   1      47.580  30.113  28.125  1.00  0.00     0.074 A 
ATOM     70  C   UNL A   1      46.112  24.132  26.722  1.00  0.00     0.029 A 
ATOM     71  N   UNL A   1      46.080  26.248  27.401  1.00  0.00    -0.354 N 
ATOM     72  N   UNL A   1      47.187  28.894  27.848  1.00  0.00    -0.248 NA
ATOM     73  C   UNL A   1      48.987  30.382  27.794  1.00  0.00     0.031 C 
ATOM     74  C   UNL A   1      47.392  24.671  26.544  1.00  0.00     0.029 A 
ATOM     75  C   UNL A   1      47.361  25.996  26.942  1.00  0.00     0.049 A 
ATOM     76  H   UNL A   1      45.770  27.107  27.770  1.00  0.00     0.167 HD
ATOM     77  C   UNL A   1      48.296  28.253  27.313  1.00  0.00     0.074 A 
ATOM     78  C   UNL A   1      49.370  29.222  27.278  1.00  0.00     0.031 C 
ATOM     79  C   UNL A   1      48.417  26.968  26.903  1.00  0.00     0.031 A 
BRANCH  66  80
ATOM     80  C   UNL A   1      43.179  23.759  27.293  1.00  0.00    -0.014 A 
ATOM     81  C   UNL A   1      42.879  22.836  28.305  1.00  0.00     0.009 A 
ATOM     82  C   UNL A   1      42.732  23.505  25.985  1.00  0.00     0.009 A 
ATOM     83  C   UNL A   1      42.158  21.676  28.008  1.00  0.00     0.001 A 
ATOM     84  C   UNL A   1      41.990  22.359  25.696  1.00  0.00     0.001 A 
ATOM     85  C   UNL A   1      41.708  21.443  26.708  1.00  0.00     0.000 A 
ENDBRANCH  66  80
BRANCH  67  86
ATOM     86  C   UNL A   1      47.465  32.542  29.019  1.00  0.00    -0.014 A 
ATOM     87  C   UNL A   1      47.406  33.584  28.083  1.00  0.00     0.009 A 
ATOM     88  C   UNL A   1      48.163  32.745  30.220  1.00  0.00     0.009 A 
ATOM     89  C   UNL A   1      48.045  34.800  28.340  1.00  0.00     0.001 A 
ATOM     90  C   UNL A   1      48.770  33.972  30.490  1.00  0.00     0.001 A 
ATOM     91  C   UNL A   1      48.717  34.996  29.546  1.00  0.00     0.000 A 
ENDBRANCH  67  86
BRANCH  79  92
ATOM     92  C   UNL A   1      49.746  26.549  26.347  1.00  0.00    -0.014 A 
ATOM     93  C   UNL A   1      50.098  26.839  25.020  1.00  0.00     0.009 A 
ATOM     94  C   UNL A   1      50.666  25.881  27.169  1.00  0.00     0.009 A 
ATOM     95  C   UNL A   1      51.338  26.440  24.518  1.00  0.00     0.001 A 
ATOM     96  C   UNL A   1      51.912  25.500  26.669  1.00  0.00     0.001 A 
ATOM     97  C   UNL A   1      52.244  25.773  25.343  1.00  0.00     0.000 A 
ENDBRANCH  79  92
ENDBRANCH  53  54
ENDBRANCH  46  48
ENDBRANCH  45  46
ENDBRANCH  44  45
ENDBRANCH  43  44
ENDBRANCH  42  43
ENDBRANCH   1  42
TORSDOF 23
ENDMDL
MODEL 2
REMARK VINA RESULT:     -10.0      2.476      6.544
REMARK SMILES O=C(N[C@@H](Cc1c[nH]c2ccccc12)C(=O)N[C@@H](CS)C(=O)N[C@@H](CO)C(=O)OCCOC(=O)c1ccc(-c2c3nc(c(-c4ccccc4)c4ccc([nH]4)c(-c4ccccc4)c4nc(c(-c5ccccc5)c5ccc2[nH]5)C=C4)C=C3)cc1)c1ccc(F)cc1
REMARK SMILES IDX 27 1 28 2 24 3 23 4 21 5 22 6 18 8 17 9 15 10 16 11 4 13
REMARK SMILES IDX 3 14 1 15 2 16 83 18 84 19 89 20 85 21 88 22 86 23 87 24
REMARK SMILES IDX 5 25 6 26 7 27 14 28 8 29 9 30 13 31 10 33 12 34 11 35 19 36
REMARK SMILES IDX 20 37 25 39 26 40 29 42 30 43 31 44 32 45 33 46 34 47 35 48
REMARK SMILES IDX 36 49 82 50 37 51 81 52 38 53 39 54 40 55 75 56 41 57 80 58
REMARK SMILES IDX 74 59 76 60 42 61 79 62 73 63 72 64 43 66 65 67 50 68 64 69
REMARK SMILES IDX 51 70 54 71 63 72 77 73 52 74 53 75 62 77 78 78 55 79 44 80
REMARK SMILES IDX 45 81 49 82 46 83 48 84 47 85 66 86 67 87 71 88 68 89 70 90
REMARK SMILES IDX 69 91 56 92 57 93 61 94 58 95 60 96 59 97
REMARK H PARENT 23 7 17 12 3 17 8 32 20 38 26 41 76 65 54 76
REMARK Flexibility Score: inf
ROOT
ATOM      1  C   UNL A   1      34.041  31.655  27.957  1.00  0.00     0.331 C 
ATOM      2  O   UNL A   1      33.786  32.613  27.238  1.00  0.00    -0.250 OA
ENDROOT
BRANCH   1   3
ATOM      3  C   UNL A   1      33.436  30.268  27.727  1.00  0.00     0.218 C 
BRANCH   3   4
ATOM      4  N   UNL A   1      32.064  30.271  27.201  1.00  0.00    -0.339 N 
ATOM      5  C   UNL A   1      31.729  29.971  25.915  1.00  0.00     0.244 C 
ATOM      6  O   UNL A   1      31.185  30.862  25.256  1.00  0.00    -0.273 OA
ATOM      7  H   UNL A   1      31.336  30.507  27.821  1.00  0.00     0.164 HD
BRANCH   5   8
ATOM      8  C   UNL A   1      31.951  28.553  25.319  1.00  0.00     0.181 C 
BRANCH   8   9
ATOM      9  N   UNL A   1      31.052  27.588  25.941  1.00  0.00    -0.342 N 
ATOM     10  C   UNL A   1      31.047  26.235  25.989  1.00  0.00     0.243 C 
ATOM     11  O   UNL A   1      30.055  25.733  26.534  1.00  0.00    -0.273 OA
ATOM     12  H   UNL A   1      30.299  28.003  26.423  1.00  0.00     0.164 HD
BRANCH  10  13
ATOM     13  C   UNL A   1      32.110  25.311  25.347  1.00  0.00     0.176 C 
BRANCH  13  14
ATOM     14  N   UNL A   1      32.035  25.260  23.886  1.00  0.00    -0.340 N 
ATOM     15  O   UNL A   1      32.484  24.359  21.872  1.00  0.00    -0.269 OA
ATOM     16  C   UNL A   1      32.265  24.182  23.065  1.00  0.00     0.251 C 
ATOM     17  H   UNL A   1      31.791  26.101  23.436  1.00  0.00     0.164 HD
BRANCH  16  18
ATOM     18  C   UNL A   1      32.270  22.813  23.624  1.00  0.00     0.040 A 
ATOM     19  C   UNL A   1      32.982  21.794  22.981  1.00  0.00     0.017 A 
ATOM     20  C   UNL A   1      31.576  22.553  24.811  1.00  0.00     0.017 A 
ATOM     21  C   UNL A   1      32.964  20.500  23.504  1.00  0.00     0.040 A 
ATOM     22  C   UNL A   1      31.561  21.256  25.330  1.00  0.00     0.040 A 
ATOM     23  C   UNL A   1      32.249  20.242  24.670  1.00  0.00     0.123 A 
ATOM     24  F   UNL A   1      32.225  18.997  25.165  1.00  0.00    -0.207 F 
ENDBRANCH  16  18
ENDBRANCH  13  14
BRANCH  13  25
ATOM     25  C   UNL A   1      33.540  25.315  25.918  1.00  0.00     0.072 C 
BRANCH  25  26
ATOM     26  C   UNL A   1      34.235  24.018  26.217  1.00  0.00    -0.020 A 
ATOM     27  C   UNL A   1      34.162  23.227  27.353  1.00  0.00     0.087 A 
ATOM     28  C   UNL A   1      35.202  23.388  25.357  1.00  0.00     0.003 A 
ATOM     29  N   UNL A   1      34.903  22.091  27.141  1.00  0.00    -0.361 N 
ATOM     30  C   UNL A   1      35.561  22.173  25.938  1.00  0.00     0.046 A 
ATOM     31  C   UNL A   1      35.799  23.745  24.130  1.00  0.00     0.010 A 
ATOM     32  H   UNL A   1      34.957  21.328  27.761  1.00  0.00     0.166 HD
ATOM     33  C   UNL A   1      36.450  21.276  25.332  1.00  0.00     0.026 A 
ATOM     34  C   UNL A   1      36.717  22.878  23.528  1.00  0.00     0.001 A 
ATOM     35  C   UNL A   1      37.026  21.655  24.116  1.00  0.00     0.002 A 
ENDBRANCH  25  26
ENDBRANCH  13  25
ENDBRANCH  10  13
ENDBRANCH   8   9
BRANCH   8  36
ATOM     36  C   UNL A   1      32.077  28.402  23.799  1.00  0.00     0.101 C 
BRANCH  36  37
ATOM     37  S   UNL A   1      30.494  28.396  22.883  1.00  0.00    -0.177 SA
ATOM     38  H   UNL A   1      29.645  29.301  23.437  1.00  0.00     0.102 HD
ENDBRANCH  36  37
ENDBRANCH   8  36
ENDBRANCH   5   8
ENDBRANCH   3   4
BRANCH   3  39
ATOM     39  C   UNL A   1      34.363  29.494  26.776  1.00  0.00     0.193 C 
BRANCH  39  40
ATOM     40  O   UNL A   1      35.698  30.001  26.847  1.00  0.00    -0.394 OA
ATOM     41  H   UNL A   1      36.327  29.277  26.705  1.00  0.00     0.210 HD
ENDBRANCH  39  40
ENDBRANCH   3  39
ENDBRANCH   1   3
BRANCH   1  42
ATOM     42  O   UNL A   1      34.836  31.695  29.060  1.00  0.00    -0.460 OA
BRANCH  42  43
ATOM     43  C   UNL A   1      35.102  33.003  29.607  1.00  0.00     0.274 C 
BRANCH  43  44
ATOM     44  C   UNL A   1      34.675  33.040  31.069  1.00  0.00     0.275 C 
BRANCH  44  45
ATOM     45  O   UNL A   1      35.781  33.500  31.867  1.00  0.00    -0.458 OA
BRANCH  45  46
ATOM     46  C   UNL A   1      36.166  32.676  32.868  1.00  0.00     0.338 C 
ATOM     47  O   UNL A   1      35.673  32.569  33.978  1.00  0.00    -0.246 OA
BRANCH  46  48
ATOM     48  C   UNL A   1      37.312  31.856  32.436  1.00  0.00     0.060 A 
ATOM     49  C   UNL A   1      38.605  32.162  32.857  1.00  0.00     0.016 A 
ATOM     50  C   UNL A   1      37.109  30.864  31.474  1.00  0.00     0.016 A 
ATOM     51  C   UNL A   1      39.696  31.556  32.227  1.00  0.00     0.010 A 
ATOM     52  C   UNL A   1      38.204  30.193  30.922  1.00  0.00     0.010 A 
ATOM     53  C   UNL A   1      39.522  30.566  31.246  1.00  0.00    -0.014 A 
BRANCH  53  54
ATOM     54  C   UNL A   1      40.677  29.973  30.499  1.00  0.00     0.031 A 
ATOM     55  C   UNL A   1      41.984  30.731  30.404  1.00  0.00     0.074 A 
ATOM     56  C   UNL A   1      40.611  28.760  29.909  1.00  0.00     0.049 A 
ATOM     57  N   UNL A   1      42.968  30.584  29.552  1.00  0.00    -0.248 NA
ATOM     58  C   UNL A   1      42.192  31.811  31.382  1.00  0.00     0.031 C 
ATOM     59  C   UNL A   1      39.475  27.840  29.956  1.00  0.00     0.029 A 
ATOM     60  N   UNL A   1      41.544  28.091  29.150  1.00  0.00    -0.354 N 
ATOM     61  C   UNL A   1      43.874  31.600  29.844  1.00  0.00     0.074 A 
ATOM     62  C   UNL A   1      43.326  32.350  30.953  1.00  0.00     0.031 C 
ATOM     63  C   UNL A   1      39.799  26.709  29.312  1.00  0.00     0.029 A 
ATOM     64  C   UNL A   1      41.113  26.868  28.699  1.00  0.00     0.049 A 
ATOM     65  H   UNL A   1      42.438  28.454  28.951  1.00  0.00     0.167 HD
ATOM     66  C   UNL A   1      45.051  31.888  29.236  1.00  0.00     0.031 A 
ATOM     67  C   UNL A   1      41.668  25.992  27.838  1.00  0.00     0.031 A 
ATOM     68  C   UNL A   1      45.649  31.092  28.196  1.00  0.00     0.049 A 
ATOM     69  C   UNL A   1      42.964  26.333  27.159  1.00  0.00     0.074 A 
ATOM     70  C   UNL A   1      46.815  31.329  27.487  1.00  0.00     0.029 A 
ATOM     71  N   UNL A   1      45.157  29.873  27.762  1.00  0.00    -0.354 N 
ATOM     72  N   UNL A   1      43.717  27.395  27.303  1.00  0.00    -0.248 NA
ATOM     73  C   UNL A   1      43.469  25.366  26.172  1.00  0.00     0.031 C 
ATOM     74  C   UNL A   1      47.021  30.256  26.611  1.00  0.00     0.029 A 
ATOM     75  C   UNL A   1      46.002  29.340  26.805  1.00  0.00     0.049 A 
ATOM     76  H   UNL A   1      44.329  29.450  28.086  1.00  0.00     0.167 HD
ATOM     77  C   UNL A   1      44.779  27.226  26.425  1.00  0.00     0.074 A 
ATOM     78  C   UNL A   1      44.591  25.947  25.773  1.00  0.00     0.031 C 
ATOM     79  C   UNL A   1      45.811  28.065  26.170  1.00  0.00     0.031 A 
BRANCH  66  80
ATOM     80  C   UNL A   1      45.763  33.145  29.646  1.00  0.00    -0.014 A 
ATOM     81  C   UNL A   1      46.746  33.145  30.646  1.00  0.00     0.009 A 
ATOM     82  C   UNL A   1      45.489  34.342  28.960  1.00  0.00     0.009 A 
ATOM     83  C   UNL A   1      47.429  34.322  30.960  1.00  0.00     0.001 A 
ATOM     84  C   UNL A   1      46.191  35.510  29.259  1.00  0.00     0.001 A 
ATOM     85  C   UNL A   1      47.158  35.500  30.263  1.00  0.00     0.000 A 
ENDBRANCH  66  80
BRANCH  67  86
ATOM     86  C   UNL A   1      40.948  24.739  27.490  1.00  0.00    -0.014 A 
ATOM     87  C   UNL A   1      41.355  23.507  28.022  1.00  0.00     0.009 A 
ATOM     88  C   UNL A   1      39.848  24.774  26.618  1.00  0.00     0.009 A 
ATOM     89  C   UNL A   1      40.681  22.333  27.675  1.00  0.00     0.001 A 
ATOM     90  C   UNL A   1      39.156  23.605  26.301  1.00  0.00     0.001 A 
ATOM     91  C   UNL A   1      39.578  22.384  26.824  1.00  0.00     0.000 A 
ENDBRANCH  67  86
BRANCH  79  92
ATOM     92  C   UNL A   1      46.834  27.610  25.172  1.00  0.00    -0.014 A 
ATOM     93  C   UNL A   1      46.805  28.071  23.847  1.00  0.00     0.009 A 
ATOM     94  C   UNL A   1      47.853  26.732  25.569  1.00  0.00     0.009 A 
ATOM     95  C   UNL A   1      47.764  27.637  22.930  1.00  0.00     0.001 A 
ATOM     96  C   UNL A   1      48.821  26.315  24.655  1.00  0.00     0.001 A 
ATOM     97  C   UNL A   1      48.771  26.761  23.335  1.00  0.00     0.000 A 
ENDBRANCH  79  92
ENDBRANCH  53  54
ENDBRANCH  46  48
ENDBRANCH  45  46
ENDBRANCH  44  45
ENDBRANCH  43  44
ENDBRANCH  42  43
ENDBRANCH   1  42
TORSDOF 23
ENDMDL
MODEL 3
REMARK VINA RESULT:     -10.0      2.497      7.377
REMARK SMILES O=C(N[C@@H](Cc1c[nH]c2ccccc12)C(=O)N[C@@H](CS)C(=O)N[C@@H](CO)C(=O)OCCOC(=O)c1ccc(-c2c3nc(c(-c4ccccc4)c4ccc([nH]4)c(-c4ccccc4)c4nc(c(-c5ccccc5)c5ccc2[nH]5)C=C4)C=C3)cc1)c1ccc(F)cc1
REMARK SMILES IDX 27 1 28 2 24 3 23 4 21 5 22 6 18 8 17 9 15 10 16 11 4 13
REMARK SMILES IDX 3 14 1 15 2 16 83 18 84 19 89 20 85 21 88 22 86 23 87 24
REMARK SMILES IDX 5 25 6 26 7 27 14 28 8 29 9 30 13 31 10 33 12 34 11 35 19 36
REMARK SMILES IDX 20 37 25 39 26 40 29 42 30 43 31 44 32 45 33 46 34 47 35 48
REMARK SMILES IDX 36 49 82 50 37 51 81 52 38 53 39 54 40 55 75 56 41 57 80 58
REMARK SMILES IDX 74 59 76 60 42 61 79 62 73 63 72 64 43 66 65 67 50 68 64 69
REMARK SMILES IDX 51 70 54 71 63 72 77 73 52 74 53 75 62 77 78 78 55 79 44 80
REMARK SMILES IDX 45 81 49 82 46 83 48 84 47 85 66 86 67 87 71 88 68 89 70 90
REMARK SMILES IDX 69 91 56 92 57 93 61 94 58 95 60 96 59 97
REMARK H PARENT 23 7 17 12 3 17 8 32 20 38 26 41 76 65 54 76
REMARK Flexibility Score: inf
ROOT
ATOM      1  C   UNL A   1      34.070  29.417  27.164  1.00  0.00     0.331 C 
ATOM      2  O   UNL A   1      35.284  29.258  27.213  1.00  0.00    -0.250 OA
ENDROOT
BRANCH   1   3
ATOM      3  C   UNL A   1      33.158  28.540  26.305  1.00  0.00     0.218 C 
BRANCH   3   4
ATOM      4  N   UNL A   1      32.165  27.758  27.056  1.00  0.00    -0.339 N 
ATOM      5  C   UNL A   1      31.622  26.584  26.626  1.00  0.00     0.244 C 
ATOM      6  O   UNL A   1      30.400  26.564  26.452  1.00  0.00    -0.273 OA
ATOM      7  H   UNL A   1      31.873  28.105  27.929  1.00  0.00     0.164 HD
BRANCH   5   8
ATOM      8  C   UNL A   1      32.481  25.304  26.432  1.00  0.00     0.181 C 
BRANCH   8   9
ATOM      9  N   UNL A   1      31.646  24.109  26.506  1.00  0.00    -0.342 N 
ATOM     10  C   UNL A   1      30.973  23.400  25.570  1.00  0.00     0.243 C 
ATOM     11  O   UNL A   1      30.272  22.480  26.013  1.00  0.00    -0.273 OA
ATOM     12  H   UNL A   1      31.555  23.747  27.417  1.00  0.00     0.164 HD
BRANCH  10  13
ATOM     13  C   UNL A   1      30.946  23.714  24.055  1.00  0.00     0.176 C 
BRANCH  13  14
ATOM     14  N   UNL A   1      30.947  22.519  23.209  1.00  0.00    -0.340 N 
ATOM     15  O   UNL A   1      31.877  21.082  21.746  1.00  0.00    -0.269 OA
ATOM     16  C   UNL A   1      32.030  21.856  22.685  1.00  0.00     0.251 C 
ATOM     17  H   UNL A   1      30.064  22.145  22.989  1.00  0.00     0.164 HD
BRANCH  16  18
ATOM     18  C   UNL A   1      33.381  22.092  23.237  1.00  0.00     0.040 A 
ATOM     19  C   UNL A   1      33.810  21.390  24.371  1.00  0.00     0.017 A 
ATOM     20  C   UNL A   1      34.234  23.004  22.605  1.00  0.00     0.017 A 
ATOM     21  C   UNL A   1      35.079  21.635  24.898  1.00  0.00     0.040 A 
ATOM     22  C   UNL A   1      35.503  23.245  23.137  1.00  0.00     0.040 A 
ATOM     23  C   UNL A   1      35.911  22.563  24.280  1.00  0.00     0.123 A 
ATOM     24  F   UNL A   1      37.125  22.804  24.794  1.00  0.00    -0.207 F 
ENDBRANCH  16  18
ENDBRANCH  13  14
BRANCH  13  25
ATOM     25  C   UNL A   1      30.047  24.857  23.550  1.00  0.00     0.072 C 
BRANCH  25  26
ATOM     26  C   UNL A   1      30.662  26.124  23.027  1.00  0.00    -0.020 A 
ATOM     27  C   UNL A   1      31.966  26.361  22.619  1.00  0.00     0.087 A 
ATOM     28  C   UNL A   1      29.982  27.388  22.931  1.00  0.00     0.003 A 
ATOM     29  N   UNL A   1      32.045  27.644  22.138  1.00  0.00    -0.361 N 
ATOM     30  C   UNL A   1      30.853  28.297  22.333  1.00  0.00     0.046 A 
ATOM     31  C   UNL A   1      28.695  27.836  23.297  1.00  0.00     0.010 A 
ATOM     32  H   UNL A   1      32.841  28.040  21.715  1.00  0.00     0.166 HD
ATOM     33  C   UNL A   1      30.487  29.616  22.039  1.00  0.00     0.026 A 
ATOM     34  C   UNL A   1      28.326  29.162  23.044  1.00  0.00     0.001 A 
ATOM     35  C   UNL A   1      29.206  30.033  22.411  1.00  0.00     0.002 A 
ENDBRANCH  25  26
ENDBRANCH  13  25
ENDBRANCH  10  13
ENDBRANCH   8   9
BRANCH   8  36
ATOM     36  C   UNL A   1      33.518  25.274  25.305  1.00  0.00     0.101 C 
BRANCH  36  37
ATOM     37  S   UNL A   1      35.240  25.617  25.818  1.00  0.00    -0.177 SA
ATOM     38  H   UNL A   1      35.977  24.479  25.723  1.00  0.00     0.102 HD
ENDBRANCH  36  37
ENDBRANCH   8  36
ENDBRANCH   5   8
ENDBRANCH   3   4
BRANCH   3  39
ATOM     39  C   UNL A   1      32.452  29.442  25.281  1.00  0.00     0.193 C 
BRANCH  39  40
ATOM     40  O   UNL A   1      33.287  29.663  24.141  1.00  0.00    -0.394 OA
ATOM     41  H   UNL A   1      33.827  28.873  23.978  1.00  0.00     0.210 HD
ENDBRANCH  39  40
ENDBRANCH   3  39
ENDBRANCH   1   3
BRANCH   1  42
ATOM     42  O   UNL A   1      33.385  30.400  27.809  1.00  0.00    -0.460 OA
BRANCH  42  43
ATOM     43  C   UNL A   1      34.064  31.663  27.952  1.00  0.00     0.274 C 
BRANCH  43  44
ATOM     44  C   UNL A   1      35.000  31.604  29.153  1.00  0.00     0.275 C 
BRANCH  44  45
ATOM     45  O   UNL A   1      34.453  32.409  30.213  1.00  0.00    -0.458 OA
BRANCH  45  46
ATOM     46  C   UNL A   1      35.150  32.409  31.371  1.00  0.00     0.338 C 
ATOM     47  O   UNL A   1      34.736  32.656  32.491  1.00  0.00    -0.246 OA
BRANCH  46  48
ATOM     48  C   UNL A   1      36.554  32.039  31.116  1.00  0.00     0.060 A 
ATOM     49  C   UNL A   1      37.310  32.727  30.169  1.00  0.00     0.016 A 
ATOM     50  C   UNL A   1      37.071  30.892  31.722  1.00  0.00     0.016 A 
ATOM     51  C   UNL A   1      38.532  32.195  29.745  1.00  0.00     0.010 A 
ATOM     52  C   UNL A   1      38.338  30.424  31.363  1.00  0.00     0.010 A 
ATOM     53  C   UNL A   1      39.069  31.034  30.326  1.00  0.00    -0.014 A 
BRANCH  53  54
ATOM     54  C   UNL A   1      40.331  30.402  29.822  1.00  0.00     0.031 A 
ATOM     55  C   UNL A   1      41.612  31.206  29.776  1.00  0.00     0.074 A 
ATOM     56  C   UNL A   1      40.383  29.115  29.416  1.00  0.00     0.049 A 
ATOM     57  N   UNL A   1      42.702  30.992  29.082  1.00  0.00    -0.248 NA
ATOM     58  C   UNL A   1      41.656  32.425  30.600  1.00  0.00     0.031 C 
ATOM     59  C   UNL A   1      39.283  28.152  29.460  1.00  0.00     0.029 A 
ATOM     60  N   UNL A   1      41.428  28.394  28.885  1.00  0.00    -0.354 N 
ATOM     61  C   UNL A   1      43.528  32.085  29.328  1.00  0.00     0.074 A 
ATOM     62  C   UNL A   1      42.815  32.956  30.238  1.00  0.00     0.031 C 
ATOM     63  C   UNL A   1      39.725  26.959  29.036  1.00  0.00     0.029 A 
ATOM     64  C   UNL A   1      41.101  27.099  28.571  1.00  0.00     0.049 A 
ATOM     65  H   UNL A   1      42.327  28.772  28.744  1.00  0.00     0.167 HD
ATOM     66  C   UNL A   1      44.762  32.345  28.833  1.00  0.00     0.031 A 
ATOM     67  C   UNL A   1      41.792  26.139  27.924  1.00  0.00     0.031 A 
ATOM     68  C   UNL A   1      45.516  31.441  28.004  1.00  0.00     0.049 A 
ATOM     69  C   UNL A   1      43.153  26.447  27.366  1.00  0.00     0.074 A 
ATOM     70  C   UNL A   1      46.754  31.635  27.415  1.00  0.00     0.029 A 
ATOM     71  N   UNL A   1      45.126  30.148  27.699  1.00  0.00    -0.354 N 
ATOM     72  N   UNL A   1      43.843  27.557  27.441  1.00  0.00    -0.248 NA
ATOM     73  C   UNL A   1      43.813  25.377  26.603  1.00  0.00     0.031 C 
ATOM     74  C   UNL A   1      47.108  30.461  26.740  1.00  0.00     0.029 A 
ATOM     75  C   UNL A   1      46.105  29.529  26.942  1.00  0.00     0.049 A 
ATOM     76  H   UNL A   1      44.279  29.732  27.978  1.00  0.00     0.167 HD
ATOM     77  C   UNL A   1      45.015  27.320  26.735  1.00  0.00     0.074 A 
ATOM     78  C   UNL A   1      44.957  25.954  26.262  1.00  0.00     0.031 C 
ATOM     79  C   UNL A   1      46.041  28.168  26.485  1.00  0.00     0.031 A 
BRANCH  66  80
ATOM     80  C   UNL A   1      45.372  33.684  29.135  1.00  0.00    -0.014 A 
ATOM     81  C   UNL A   1      45.087  34.817  28.361  1.00  0.00     0.009 A 
ATOM     82  C   UNL A   1      46.194  33.822  30.267  1.00  0.00     0.009 A 
ATOM     83  C   UNL A   1      45.625  36.059  28.706  1.00  0.00     0.001 A 
ATOM     84  C   UNL A   1      46.710  35.068  30.625  1.00  0.00     0.001 A 
ATOM     85  C   UNL A   1      46.429  36.185  29.840  1.00  0.00     0.000 A 
ENDBRANCH  66  80
BRANCH  67  86
ATOM     86  C   UNL A   1      41.166  24.813  27.681  1.00  0.00    -0.014 A 
ATOM     87  C   UNL A   1      41.633  23.668  28.342  1.00  0.00     0.009 A 
ATOM     88  C   UNL A   1      40.097  24.690  26.780  1.00  0.00     0.009 A 
ATOM     89  C   UNL A   1      41.049  22.423  28.093  1.00  0.00     0.001 A 
ATOM     90  C   UNL A   1      39.492  23.452  26.560  1.00  0.00     0.001 A 
ATOM     91  C   UNL A   1      39.974  22.318  27.211  1.00  0.00     0.000 A 
ENDBRANCH  67  86
BRANCH  79  92
ATOM     92  C   UNL A   1      47.199  27.630  25.698  1.00  0.00    -0.014 A 
ATOM     93  C   UNL A   1      47.232  27.733  24.299  1.00  0.00     0.009 A 
ATOM     94  C   UNL A   1      48.281  27.037  26.367  1.00  0.00     0.009 A 
ATOM     95  C   UNL A   1      48.317  27.225  23.582  1.00  0.00     0.001 A 
ATOM     96  C   UNL A   1      49.372  26.548  25.648  1.00  0.00     0.001 A 
ATOM     97  C   UNL A   1      49.386  26.635  24.257  1.00  0.00     0.000 A 
ENDBRANCH  79  92
ENDBRANCH  53  54
ENDBRANCH  46  48
ENDBRANCH  45  46
ENDBRANCH  44  45
ENDBRANCH  43  44
ENDBRANCH  42  43
ENDBRANCH   1  42
TORSDOF 23
ENDMDL
