MODEL 1
REMARK VINA RESULT:     -10.0      0.000      0.000
REMARK SMILES COc1cc([N+](=O)[O-])cc([C@H]2[NH2+][C@H](C(=O)OCCOC(=O)c3ccc(-c4c5nc(c(-c6ccccc6)c6ccc([nH]6)c(-c6ccccc6)c6nc(c(-c7ccccc7)c7ccc4[nH]7)C=C6)C=C5)cc3)CS2)c1O
REMARK SMILES IDX 17 1 16 2 14 3 15 4 13 5 11 6 12 7 71 8 70 11 10 12 3 13
REMARK SMILES IDX 4 14 72 15 5 16 9 17 2 18 1 19 73 20 6 22 7 23 8 24 18 25
REMARK SMILES IDX 19 26 20 27 21 28 22 29 23 30 69 31 24 32 68 33 25 34 26 35
REMARK SMILES IDX 27 36 62 37 28 38 67 39 61 40 63 41 29 42 66 43 60 44 59 45
REMARK SMILES IDX 30 47 52 48 37 49 51 50 38 51 41 52 50 53 64 54 39 55 40 56
REMARK SMILES IDX 49 58 65 59 42 60 31 61 32 62 36 63 33 64 35 65 34 66 53 67
REMARK SMILES IDX 54 68 58 69 55 70 57 71 56 72 43 73 44 74 48 75 45 76 47 77
REMARK SMILES IDX 46 78
REMARK H PARENT 12 9 12 10 73 21 63 46 41 57
REMARK Flexibility Score: inf
ROOT
ATOM      1  C   UNL A   1      38.450  21.144  25.636  1.00  0.00     0.274 C 
ENDROOT
BRANCH   1   2
ATOM      2  O   UNL A   1      37.337  21.283  24.731  1.00  0.00    -0.458 OA
BRANCH   2   3
ATOM      3  C   UNL A   1      36.101  20.997  25.222  1.00  0.00     0.365 C 
ATOM      4  O   UNL A   1      35.388  20.081  24.822  1.00  0.00    -0.245 OA
BRANCH   3   5
ATOM      5  C   UNL A   1      35.641  21.958  26.328  1.00  0.00     0.304 C 
ATOM      6  C   UNL A   1      34.019  23.494  25.502  1.00  0.00     0.278 C 
ATOM      7  N   UNL A   1      35.433  23.349  25.855  1.00  0.00    -0.319 N 
ATOM      8  S   UNL A   1      33.114  22.688  26.821  1.00  0.00    -0.087 SA
ATOM      9  H   UNL A   1      35.675  24.007  26.596  1.00  0.00     0.348 HD
ATOM     10  H   UNL A   1      36.024  23.543  25.047  1.00  0.00     0.348 HD
ATOM     11  C   UNL A   1      34.399  21.425  27.043  1.00  0.00     0.153 C 
BRANCH   6  12
ATOM     12  C   UNL A   1      33.738  24.931  25.108  1.00  0.00     0.073 A 
ATOM     13  C   UNL A   1      33.406  26.831  23.587  1.00  0.00     0.167 A 
ATOM     14  C   UNL A   1      32.939  27.613  24.649  1.00  0.00     0.136 A 
ATOM     15  C   UNL A   1      33.810  25.500  23.822  1.00  0.00     0.168 A 
ATOM     16  C   UNL A   1      32.868  27.066  25.929  1.00  0.00     0.273 A 
ATOM     17  C   UNL A   1      33.258  25.748  26.159  1.00  0.00     0.100 A 
BRANCH  13  18
ATOM     18  O   UNL A   1      33.450  27.515  22.400  1.00  0.00    -0.493 OA
ATOM     19  C   UNL A   1      33.514  28.935  22.436  1.00  0.00     0.278 C 
ENDBRANCH  13  18
BRANCH  15  20
ATOM     20  O   UNL A   1      34.300  24.746  22.798  1.00  0.00    -0.504 OA
ATOM     21  H   UNL A   1      34.703  23.918  22.976  1.00  0.00     0.293 HD
ENDBRANCH  15  20
BRANCH  16  22
ATOM     22  N   UNL A   1      32.379  27.875  27.044  1.00  0.00     0.062 N 
ATOM     23  O   UNL A   1      31.232  27.650  27.456  1.00  0.00    -0.258 OA
ATOM     24  O   UNL A   1      33.134  28.753  27.489  1.00  0.00    -0.258 OA
ENDBRANCH  16  22
ENDBRANCH   6  12
ENDBRANCH   3   5
ENDBRANCH   2   3
ENDBRANCH   1   2
BRANCH   1  25
ATOM     25  C   UNL A   1      39.224  19.863  25.327  1.00  0.00     0.275 C 
BRANCH  25  26
ATOM     26  O   UNL A   1      40.199  19.604  26.355  1.00  0.00    -0.458 OA
BRANCH  26  27
ATOM     27  C   UNL A   1      41.488  19.790  25.983  1.00  0.00     0.338 C 
ATOM     28  O   UNL A   1      42.169  19.078  25.267  1.00  0.00    -0.246 OA
BRANCH  27  29
ATOM     29  C   UNL A   1      41.955  21.083  26.510  1.00  0.00     0.060 A 
ATOM     30  C   UNL A   1      41.868  21.302  27.886  1.00  0.00     0.016 A 
ATOM     31  C   UNL A   1      42.391  22.096  25.655  1.00  0.00     0.016 A 
ATOM     32  C   UNL A   1      42.204  22.545  28.417  1.00  0.00     0.010 A 
ATOM     33  C   UNL A   1      42.727  23.346  26.189  1.00  0.00     0.010 A 
ATOM     34  C   UNL A   1      42.617  23.583  27.571  1.00  0.00    -0.014 A 
BRANCH  34  35
ATOM     35  C   UNL A   1      42.861  24.933  28.135  1.00  0.00     0.031 A 
ATOM     36  C   UNL A   1      44.254  25.343  28.521  1.00  0.00     0.074 A 
ATOM     37  C   UNL A   1      41.845  25.805  28.263  1.00  0.00     0.049 A 
ATOM     38  N   UNL A   1      44.671  26.475  29.031  1.00  0.00    -0.248 NA
ATOM     39  C   UNL A   1      45.318  24.350  28.305  1.00  0.00     0.031 C 
ATOM     40  C   UNL A   1      40.454  25.543  27.892  1.00  0.00     0.029 A 
ATOM     41  N   UNL A   1      41.831  27.093  28.737  1.00  0.00    -0.354 N 
ATOM     42  C   UNL A   1      46.040  26.326  29.209  1.00  0.00     0.074 A 
ATOM     43  C   UNL A   1      46.381  24.988  28.772  1.00  0.00     0.031 C 
ATOM     44  C   UNL A   1      39.722  26.643  28.144  1.00  0.00     0.029 A 
ATOM     45  C   UNL A   1      40.584  27.669  28.725  1.00  0.00     0.049 A 
ATOM     46  H   UNL A   1      42.637  27.560  29.054  1.00  0.00     0.167 HD
ATOM     47  C   UNL A   1      46.936  27.222  29.690  1.00  0.00     0.031 A 
ATOM     48  C   UNL A   1      40.179  28.881  29.148  1.00  0.00     0.031 A 
ATOM     49  C   UNL A   1      46.603  28.552  30.128  1.00  0.00     0.049 A 
ATOM     50  C   UNL A   1      41.183  29.839  29.727  1.00  0.00     0.074 A 
ATOM     51  C   UNL A   1      47.447  29.536  30.616  1.00  0.00     0.029 A 
ATOM     52  N   UNL A   1      45.324  29.083  30.135  1.00  0.00    -0.354 N 
ATOM     53  N   UNL A   1      42.477  29.690  29.873  1.00  0.00    -0.248 NA
ATOM     54  C   UNL A   1      40.668  31.134  30.195  1.00  0.00     0.031 C 
ATOM     55  C   UNL A   1      46.670  30.647  30.960  1.00  0.00     0.029 A 
ATOM     56  C   UNL A   1      45.350  30.371  30.641  1.00  0.00     0.049 A 
ATOM     57  H   UNL A   1      44.515  28.612  29.827  1.00  0.00     0.167 HD
ATOM     58  C   UNL A   1      42.934  30.876  30.432  1.00  0.00     0.074 A 
ATOM     59  C   UNL A   1      41.781  31.741  30.583  1.00  0.00     0.031 C 
ATOM     60  C   UNL A   1      44.196  31.218  30.790  1.00  0.00     0.031 A 
BRANCH  47  61
ATOM     61  C   UNL A   1      48.366  26.775  29.799  1.00  0.00    -0.014 A 
ATOM     62  C   UNL A   1      48.841  26.123  30.948  1.00  0.00     0.009 A 
ATOM     63  C   UNL A   1      49.243  26.986  28.724  1.00  0.00     0.009 A 
ATOM     64  C   UNL A   1      50.175  25.720  31.030  1.00  0.00     0.001 A 
ATOM     65  C   UNL A   1      50.570  26.561  28.800  1.00  0.00     0.001 A 
ATOM     66  C   UNL A   1      51.038  25.936  29.955  1.00  0.00     0.000 A 
ENDBRANCH  47  61
BRANCH  48  67
ATOM     67  C   UNL A   1      38.743  29.254  29.059  1.00  0.00    -0.014 A 
ATOM     68  C   UNL A   1      38.217  29.798  27.878  1.00  0.00     0.009 A 
ATOM     69  C   UNL A   1      37.895  29.075  30.163  1.00  0.00     0.009 A 
ATOM     70  C   UNL A   1      36.873  30.172  27.811  1.00  0.00     0.001 A 
ATOM     71  C   UNL A   1      36.546  29.426  30.084  1.00  0.00     0.001 A 
ATOM     72  C   UNL A   1      36.039  29.981  28.911  1.00  0.00     0.000 A 
ENDBRANCH  48  67
BRANCH  60  73
ATOM     73  C   UNL A   1      44.398  32.595  31.355  1.00  0.00    -0.014 A 
ATOM     74  C   UNL A   1      44.335  32.830  32.738  1.00  0.00     0.009 A 
ATOM     75  C   UNL A   1      44.684  33.666  30.495  1.00  0.00     0.009 A 
ATOM     76  C   UNL A   1      44.526  34.117  33.244  1.00  0.00     0.001 A 
ATOM     77  C   UNL A   1      44.899  34.947  31.006  1.00  0.00     0.001 A 
ATOM     78  C   UNL A   1      44.810  35.172  32.379  1.00  0.00     0.000 A 
ENDBRANCH  60  73
ENDBRANCH  34  35
ENDBRANCH  27  29
ENDBRANCH  26  27
ENDBRANCH  25  26
ENDBRANCH   1  25
TORSDOF 15
ENDMDL
MODEL 2
REMARK VINA RESULT:      -9.9      2.251      6.868
REMARK SMILES COc1cc([N+](=O)[O-])cc([C@H]2[NH2+][C@H](C(=O)OCCOC(=O)c3ccc(-c4c5nc(c(-c6ccccc6)c6ccc([nH]6)c(-c6ccccc6)c6nc(c(-c7ccccc7)c7ccc4[nH]7)C=C6)C=C5)cc3)CS2)c1O
REMARK SMILES IDX 17 1 16 2 14 3 15 4 13 5 11 6 12 7 71 8 70 11 10 12 3 13
REMARK SMILES IDX 4 14 72 15 5 16 9 17 2 18 1 19 73 20 6 22 7 23 8 24 18 25
REMARK SMILES IDX 19 26 20 27 21 28 22 29 23 30 69 31 24 32 68 33 25 34 26 35
REMARK SMILES IDX 27 36 62 37 28 38 67 39 61 40 63 41 29 42 66 43 60 44 59 45
REMARK SMILES IDX 30 47 52 48 37 49 51 50 38 51 41 52 50 53 64 54 39 55 40 56
REMARK SMILES IDX 49 58 65 59 42 60 31 61 32 62 36 63 33 64 35 65 34 66 53 67
REMARK SMILES IDX 54 68 58 69 55 70 57 71 56 72 43 73 44 74 48 75 45 76 47 77
REMARK SMILES IDX 46 78
REMARK H PARENT 12 9 12 10 73 21 63 46 41 57
REMARK Flexibility Score: inf
ROOT
ATOM      1  C   UNL A   1      36.709  22.568  23.990  1.00  0.00     0.274 C 
ENDROOT
BRANCH   1   2
ATOM      2  O   UNL A   1      35.340  22.248  24.304  1.00  0.00    -0.458 OA
BRANCH   2   3
ATOM      3  C   UNL A   1      34.376  22.878  23.579  1.00  0.00     0.365 C 
ATOM      4  O   UNL A   1      34.484  23.185  22.395  1.00  0.00    -0.245 OA
BRANCH   3   5
ATOM      5  C   UNL A   1      33.117  23.214  24.391  1.00  0.00     0.304 C 
ATOM      6  C   UNL A   1      32.030  25.146  23.520  1.00  0.00     0.278 C 
ATOM      7  N   UNL A   1      32.911  24.670  24.589  1.00  0.00    -0.319 N 
ATOM      8  S   UNL A   1      30.739  23.912  23.383  1.00  0.00    -0.087 SA
ATOM      9  H   UNL A   1      32.476  24.838  25.497  1.00  0.00     0.348 HD
ATOM     10  H   UNL A   1      33.803  25.163  24.564  1.00  0.00     0.348 HD
ATOM     11  C   UNL A   1      31.876  22.556  23.787  1.00  0.00     0.153 C 
BRANCH   6  12
ATOM     12  C   UNL A   1      31.709  26.611  23.741  1.00  0.00     0.073 A 
ATOM     13  C   UNL A   1      30.869  28.848  23.171  1.00  0.00     0.167 A 
ATOM     14  C   UNL A   1      30.989  29.244  24.507  1.00  0.00     0.136 A 
ATOM     15  C   UNL A   1      31.237  27.540  22.793  1.00  0.00     0.168 A 
ATOM     16  C   UNL A   1      31.460  28.338  25.456  1.00  0.00     0.273 A 
ATOM     17  C   UNL A   1      31.814  27.043  25.084  1.00  0.00     0.100 A 
BRANCH  13  18
ATOM     18  O   UNL A   1      30.425  29.855  22.354  1.00  0.00    -0.493 OA
ATOM     19  C   UNL A   1      29.025  30.081  22.253  1.00  0.00     0.278 C 
ENDBRANCH  13  18
BRANCH  15  20
ATOM     20  O   UNL A   1      31.157  27.160  21.486  1.00  0.00    -0.504 OA
ATOM     21  H   UNL A   1      31.907  26.794  21.058  1.00  0.00     0.293 HD
ENDBRANCH  15  20
BRANCH  16  22
ATOM     22  N   UNL A   1      31.585  28.743  26.855  1.00  0.00     0.062 N 
ATOM     23  O   UNL A   1      31.506  27.858  27.718  1.00  0.00    -0.258 OA
ATOM     24  O   UNL A   1      31.736  29.952  27.090  1.00  0.00    -0.258 OA
ENDBRANCH  16  22
ENDBRANCH   6  12
ENDBRANCH   3   5
ENDBRANCH   2   3
ENDBRANCH   1   2
BRANCH   1  25
ATOM     25  C   UNL A   1      37.655  21.795  24.909  1.00  0.00     0.275 C 
BRANCH  25  26
ATOM     26  O   UNL A   1      37.981  22.580  26.071  1.00  0.00    -0.458 OA
BRANCH  26  27
ATOM     27  C   UNL A   1      39.306  22.738  26.304  1.00  0.00     0.338 C 
ATOM     28  O   UNL A   1      40.209  21.965  26.041  1.00  0.00    -0.246 OA
BRANCH  27  29
ATOM     29  C   UNL A   1      39.534  24.081  26.863  1.00  0.00     0.060 A 
ATOM     30  C   UNL A   1      40.152  25.035  26.052  1.00  0.00     0.016 A 
ATOM     31  C   UNL A   1      39.223  24.372  28.192  1.00  0.00     0.016 A 
ATOM     32  C   UNL A   1      40.478  26.286  26.571  1.00  0.00     0.010 A 
ATOM     33  C   UNL A   1      39.552  25.629  28.713  1.00  0.00     0.010 A 
ATOM     34  C   UNL A   1      40.199  26.586  27.911  1.00  0.00    -0.014 A 
BRANCH  34  35
ATOM     35  C   UNL A   1      40.654  27.878  28.480  1.00  0.00     0.031 A 
ATOM     36  C   UNL A   1      39.665  28.986  28.707  1.00  0.00     0.074 A 
ATOM     37  C   UNL A   1      41.941  28.044  28.833  1.00  0.00     0.049 A 
ATOM     38  N   UNL A   1      39.865  30.187  29.192  1.00  0.00    -0.248 NA
ATOM     39  C   UNL A   1      38.267  28.709  28.341  1.00  0.00     0.031 C 
ATOM     40  C   UNL A   1      42.992  27.035  28.699  1.00  0.00     0.029 A 
ATOM     41  N   UNL A   1      42.581  29.127  29.384  1.00  0.00    -0.354 N 
ATOM     42  C   UNL A   1      38.625  30.811  29.177  1.00  0.00     0.074 A 
ATOM     43  C   UNL A   1      37.682  29.865  28.617  1.00  0.00     0.031 C 
ATOM     44  C   UNL A   1      44.146  27.544  29.165  1.00  0.00     0.029 A 
ATOM     45  C   UNL A   1      43.922  28.922  29.596  1.00  0.00     0.049 A 
ATOM     46  H   UNL A   1      42.122  29.968  29.607  1.00  0.00     0.167 HD
ATOM     47  C   UNL A   1      38.297  32.057  29.593  1.00  0.00     0.031 A 
ATOM     48  C   UNL A   1      44.868  29.755  30.069  1.00  0.00     0.031 A 
ATOM     49  C   UNL A   1      39.230  33.003  30.149  1.00  0.00     0.049 A 
ATOM     50  C   UNL A   1      44.490  31.152  30.477  1.00  0.00     0.074 A 
ATOM     51  C   UNL A   1      38.986  34.284  30.614  1.00  0.00     0.029 A 
ATOM     52  N   UNL A   1      40.586  32.770  30.311  1.00  0.00    -0.354 N 
ATOM     53  N   UNL A   1      43.309  31.722  30.472  1.00  0.00    -0.248 NA
ATOM     54  C   UNL A   1      45.576  32.018  30.958  1.00  0.00     0.031 C 
ATOM     55  C   UNL A   1      40.204  34.843  31.016  1.00  0.00     0.029 A 
ATOM     56  C   UNL A   1      41.196  33.891  30.846  1.00  0.00     0.049 A 
ATOM     57  H   UNL A   1      41.047  31.931  30.078  1.00  0.00     0.167 HD
ATOM     58  C   UNL A   1      43.507  33.005  30.965  1.00  0.00     0.074 A 
ATOM     59  C   UNL A   1      44.917  33.123  31.276  1.00  0.00     0.031 C 
ATOM     60  C   UNL A   1      42.601  33.996  31.145  1.00  0.00     0.031 A 
BRANCH  47  61
ATOM     61  C   UNL A   1      36.866  32.484  29.431  1.00  0.00    -0.014 A 
ATOM     62  C   UNL A   1      35.931  32.310  30.463  1.00  0.00     0.009 A 
ATOM     63  C   UNL A   1      36.456  33.095  28.235  1.00  0.00     0.009 A 
ATOM     64  C   UNL A   1      34.605  32.710  30.288  1.00  0.00     0.001 A 
ATOM     65  C   UNL A   1      35.135  33.515  28.073  1.00  0.00     0.001 A 
ATOM     66  C   UNL A   1      34.208  33.315  29.095  1.00  0.00     0.000 A 
ENDBRANCH  47  61
BRANCH  48  67
ATOM     67  C   UNL A   1      46.278  29.296  30.166  1.00  0.00    -0.014 A 
ATOM     68  C   UNL A   1      47.157  29.451  29.084  1.00  0.00     0.009 A 
ATOM     69  C   UNL A   1      46.746  28.692  31.343  1.00  0.00     0.009 A 
ATOM     70  C   UNL A   1      48.473  28.991  29.173  1.00  0.00     0.001 A 
ATOM     71  C   UNL A   1      48.070  28.257  31.438  1.00  0.00     0.001 A 
ATOM     72  C   UNL A   1      48.929  28.400  30.351  1.00  0.00     0.000 A 
ENDBRANCH  48  67
BRANCH  60  73
ATOM     73  C   UNL A   1      43.104  35.287  31.726  1.00  0.00    -0.014 A 
ATOM     74  C   UNL A   1      43.066  35.526  33.108  1.00  0.00     0.009 A 
ATOM     75  C   UNL A   1      43.652  36.265  30.881  1.00  0.00     0.009 A 
ATOM     76  C   UNL A   1      43.539  36.732  33.629  1.00  0.00     0.001 A 
ATOM     77  C   UNL A   1      44.147  37.459  31.407  1.00  0.00     0.001 A 
ATOM     78  C   UNL A   1      44.081  37.695  32.779  1.00  0.00     0.000 A 
ENDBRANCH  60  73
ENDBRANCH  34  35
ENDBRANCH  27  29
ENDBRANCH  26  27
ENDBRANCH  25  26
ENDBRANCH   1  25
TORSDOF 15
ENDMDL
MODEL 3
REMARK VINA RESULT:      -9.8      4.843     10.185
REMARK SMILES COc1cc([N+](=O)[O-])cc([C@H]2[NH2+][C@H](C(=O)OCCOC(=O)c3ccc(-c4c5nc(c(-c6ccccc6)c6ccc([nH]6)c(-c6ccccc6)c6nc(c(-c7ccccc7)c7ccc4[nH]7)C=C6)C=C5)cc3)CS2)c1O
REMARK SMILES IDX 17 1 16 2 14 3 15 4 13 5 11 6 12 7 71 8 70 11 10 12 3 13
REMARK SMILES IDX 4 14 72 15 5 16 9 17 2 18 1 19 73 20 6 22 7 23 8 24 18 25
REMARK SMILES IDX 19 26 20 27 21 28 22 29 23 30 69 31 24 32 68 33 25 34 26 35
REMARK SMILES IDX 27 36 62 37 28 38 67 39 61 40 63 41 29 42 66 43 60 44 59 45
REMARK SMILES IDX 30 47 52 48 37 49 51 50 38 51 41 52 50 53 64 54 39 55 40 56
REMARK SMILES IDX 49 58 65 59 42 60 31 61 32 62 36 63 33 64 35 65 34 66 53 67
REMARK SMILES IDX 54 68 58 69 55 70 57 71 56 72 43 73 44 74 48 75 45 76 47 77
REMARK SMILES IDX 46 78
REMARK H PARENT 12 9 12 10 73 21 63 46 41 57
REMARK Flexibility Score: inf
ROOT
ATOM      1  C   UNL A   1      33.568  35.235  28.396  1.00  0.00     0.274 C 
ENDROOT
BRANCH   1   2
ATOM      2  O   UNL A   1      33.355  33.816  28.528  1.00  0.00    -0.458 OA
BRANCH   2   3
ATOM      3  C   UNL A   1      34.383  33.000  28.168  1.00  0.00     0.365 C 
ATOM      4  O   UNL A   1      35.406  33.378  27.602  1.00  0.00    -0.245 OA
BRANCH   3   5
ATOM      5  C   UNL A   1      34.144  31.522  28.506  1.00  0.00     0.304 C 
ATOM      6  C   UNL A   1      33.800  30.240  26.528  1.00  0.00     0.278 C 
ATOM      7  N   UNL A   1      33.114  30.879  27.653  1.00  0.00    -0.319 N 
ATOM      8  S   UNL A   1      35.228  29.428  27.243  1.00  0.00    -0.087 SA
ATOM      9  H   UNL A   1      32.605  30.179  28.193  1.00  0.00     0.348 HD
ATOM     10  H   UNL A   1      32.446  31.572  27.316  1.00  0.00     0.348 HD
ATOM     11  C   UNL A   1      35.452  30.731  28.487  1.00  0.00     0.153 C 
BRANCH   6  12
ATOM     12  C   UNL A   1      32.795  29.482  25.683  1.00  0.00     0.073 A 
ATOM     13  C   UNL A   1      30.811  29.177  24.267  1.00  0.00     0.167 A 
ATOM     14  C   UNL A   1      31.222  27.877  23.955  1.00  0.00     0.136 A 
ATOM     15  C   UNL A   1      31.593  29.969  25.134  1.00  0.00     0.168 A 
ATOM     16  C   UNL A   1      32.406  27.379  24.495  1.00  0.00     0.273 A 
ATOM     17  C   UNL A   1      33.183  28.165  25.344  1.00  0.00     0.100 A 
BRANCH  13  18
ATOM     18  O   UNL A   1      29.615  29.512  23.688  1.00  0.00    -0.493 OA
ATOM     19  C   UNL A   1      29.148  28.734  22.594  1.00  0.00     0.278 C 
ENDBRANCH  13  18
BRANCH  15  20
ATOM     20  O   UNL A   1      31.179  31.224  25.470  1.00  0.00    -0.504 OA
ATOM     21  H   UNL A   1      30.345  31.348  25.878  1.00  0.00     0.293 HD
ENDBRANCH  15  20
BRANCH  16  22
ATOM     22  N   UNL A   1      32.843  26.022  24.172  1.00  0.00     0.062 N 
ATOM     23  O   UNL A   1      32.648  25.139  25.019  1.00  0.00    -0.258 OA
ATOM     24  O   UNL A   1      33.406  25.846  23.082  1.00  0.00    -0.258 OA
ENDBRANCH  16  22
ENDBRANCH   6  12
ENDBRANCH   3   5
ENDBRANCH   2   3
ENDBRANCH   1   2
BRANCH   1  25
ATOM     25  C   UNL A   1      32.941  35.973  29.578  1.00  0.00     0.275 C 
BRANCH  25  26
ATOM     26  O   UNL A   1      32.672  35.059  30.657  1.00  0.00    -0.458 OA
BRANCH  26  27
ATOM     27  C   UNL A   1      32.963  35.528  31.894  1.00  0.00     0.338 C 
ATOM     28  O   UNL A   1      32.332  36.333  32.555  1.00  0.00    -0.246 OA
BRANCH  27  29
ATOM     29  C   UNL A   1      34.155  34.829  32.401  1.00  0.00     0.060 A 
ATOM     30  C   UNL A   1      35.404  35.416  32.183  1.00  0.00     0.016 A 
ATOM     31  C   UNL A   1      34.055  33.575  33.005  1.00  0.00     0.016 A 
ATOM     32  C   UNL A   1      36.565  34.743  32.556  1.00  0.00     0.010 A 
ATOM     33  C   UNL A   1      35.223  32.898  33.378  1.00  0.00     0.010 A 
ATOM     34  C   UNL A   1      36.485  33.470  33.138  1.00  0.00    -0.014 A 
BRANCH  34  35
ATOM     35  C   UNL A   1      37.731  32.718  33.424  1.00  0.00     0.031 A 
ATOM     36  C   UNL A   1      38.470  32.954  34.711  1.00  0.00     0.074 A 
ATOM     37  C   UNL A   1      38.177  31.795  32.554  1.00  0.00     0.049 A 
ATOM     38  N   UNL A   1      39.574  32.400  35.145  1.00  0.00    -0.248 NA
ATOM     39  C   UNL A   1      37.890  33.945  35.632  1.00  0.00     0.031 C 
ATOM     40  C   UNL A   1      37.533  31.445  31.287  1.00  0.00     0.029 A 
ATOM     41  N   UNL A   1      39.279  30.977  32.610  1.00  0.00    -0.354 N 
ATOM     42  C   UNL A   1      39.829  32.981  36.379  1.00  0.00     0.074 A 
ATOM     43  C   UNL A   1      38.776  33.946  36.618  1.00  0.00     0.031 C 
ATOM     44  C   UNL A   1      38.248  30.476  30.689  1.00  0.00     0.029 A 
ATOM     45  C   UNL A   1      39.413  30.163  31.512  1.00  0.00     0.049 A 
ATOM     46  H   UNL A   1      39.910  30.974  33.364  1.00  0.00     0.167 HD
ATOM     47  C   UNL A   1      40.845  32.734  37.240  1.00  0.00     0.031 A 
ATOM     48  C   UNL A   1      40.377  29.277  31.196  1.00  0.00     0.031 A 
ATOM     49  C   UNL A   1      41.896  31.778  37.008  1.00  0.00     0.049 A 
ATOM     50  C   UNL A   1      41.523  29.058  32.144  1.00  0.00     0.074 A 
ATOM     51  C   UNL A   1      42.960  31.448  37.830  1.00  0.00     0.029 A 
ATOM     52  N   UNL A   1      42.017  31.001  35.867  1.00  0.00    -0.354 N 
ATOM     53  N   UNL A   1      41.741  29.603  33.316  1.00  0.00    -0.248 NA
ATOM     54  C   UNL A   1      42.553  28.096  31.725  1.00  0.00     0.031 C 
ATOM     55  C   UNL A   1      43.750  30.503  37.167  1.00  0.00     0.029 A 
ATOM     56  C   UNL A   1      43.150  30.211  35.952  1.00  0.00     0.049 A 
ATOM     57  H   UNL A   1      41.390  31.012  35.107  1.00  0.00     0.167 HD
ATOM     58  C   UNL A   1      42.921  29.039  33.782  1.00  0.00     0.074 A 
ATOM     59  C   UNL A   1      43.363  28.097  32.774  1.00  0.00     0.031 C 
ATOM     60  C   UNL A   1      43.580  29.282  34.940  1.00  0.00     0.031 A 
BRANCH  47  61
ATOM     61  C   UNL A   1      40.887  33.541  38.506  1.00  0.00    -0.014 A 
ATOM     62  C   UNL A   1      40.301  33.070  39.692  1.00  0.00     0.009 A 
ATOM     63  C   UNL A   1      41.547  34.780  38.518  1.00  0.00     0.009 A 
ATOM     64  C   UNL A   1      40.349  33.839  40.856  1.00  0.00     0.001 A 
ATOM     65  C   UNL A   1      41.613  35.535  39.690  1.00  0.00     0.001 A 
ATOM     66  C   UNL A   1      41.007  35.069  40.856  1.00  0.00     0.000 A 
ENDBRANCH  47  61
BRANCH  48  67
ATOM     67  C   UNL A   1      40.310  28.539  29.908  1.00  0.00    -0.014 A 
ATOM     68  C   UNL A   1      39.623  27.319  29.817  1.00  0.00     0.009 A 
ATOM     69  C   UNL A   1      40.942  29.051  28.765  1.00  0.00     0.009 A 
ATOM     70  C   UNL A   1      39.588  26.617  28.610  1.00  0.00     0.001 A 
ATOM     71  C   UNL A   1      40.883  28.359  27.553  1.00  0.00     0.001 A 
ATOM     72  C   UNL A   1      40.213  27.140  27.479  1.00  0.00     0.000 A 
ENDBRANCH  48  67
BRANCH  60  73
ATOM     73  C   UNL A   1      44.836  28.496  35.191  1.00  0.00    -0.014 A 
ATOM     74  C   UNL A   1      44.797  27.246  35.827  1.00  0.00     0.009 A 
ATOM     75  C   UNL A   1      46.072  29.001  34.756  1.00  0.00     0.009 A 
ATOM     76  C   UNL A   1      45.976  26.531  36.051  1.00  0.00     0.001 A 
ATOM     77  C   UNL A   1      47.245  28.273  34.959  1.00  0.00     0.001 A 
ATOM     78  C   UNL A   1      47.196  27.043  35.614  1.00  0.00     0.000 A 
ENDBRANCH  60  73
ENDBRANCH  34  35
ENDBRANCH  27  29
ENDBRANCH  26  27
ENDBRANCH  25  26
ENDBRANCH   1  25
TORSDOF 15
ENDMDL
