MODEL 1
REMARK VINA RESULT:     -10.9      0.000      0.000
REMARK SMILES Cc1nsc(N[C@@H](C)C2CCCC2)c1C(=O)OCCOC(=O)c1ccc(-c2c3nc(c(-c4ccccc4)c4ccc([nH]4)c(-c4ccccc4)c4nc(c(-c5ccccc5)c5ccc2[nH]5)C=C4)C=C3)cc1
REMARK SMILES IDX 18 1 17 2 15 3 16 4 14 5 1 6 2 7 3 8 4 9 5 10 6 11 7 13 8 14
REMARK SMILES IDX 9 15 10 16 13 17 11 18 12 19 19 20 20 21 21 22 22 23 23 24
REMARK SMILES IDX 24 25 70 26 25 27 69 28 26 29 27 30 28 31 63 32 29 33 68 34
REMARK SMILES IDX 62 35 64 36 30 37 67 38 61 39 60 40 31 42 53 43 38 44 52 45
REMARK SMILES IDX 39 46 42 47 51 48 65 49 40 50 41 51 50 53 66 54 43 55 32 56
REMARK SMILES IDX 33 57 37 58 34 59 36 60 35 61 54 62 55 63 59 64 56 65 58 66
REMARK SMILES IDX 57 67 44 68 45 69 49 70 46 71 48 72 47 73
REMARK H PARENT 6 12 64 41 42 52
REMARK Flexibility Score: inf
ROOT
ATOM      1  C   UNL A   1      31.851  30.528  26.619  1.00  0.00     0.275 C 
ENDROOT
BRANCH   1   2
ATOM      2  O   UNL A   1      32.505  29.349  26.123  1.00  0.00    -0.458 OA
BRANCH   2   3
ATOM      3  C   UNL A   1      31.862  28.163  26.332  1.00  0.00     0.343 C 
ATOM      4  O   UNL A   1      31.313  27.874  27.395  1.00  0.00    -0.246 OA
BRANCH   3   5
ATOM      5  C   UNL A   1      31.837  27.297  25.158  1.00  0.00     0.117 A 
ATOM      6  C   UNL A   1      33.590  25.439  25.842  1.00  0.00     0.069 C 
ATOM      7  C   UNL A   1      32.589  26.077  24.938  1.00  0.00     0.068 A 
ATOM      8  N   UNL A   1      32.363  25.453  23.782  1.00  0.00    -0.195 NA
ATOM      9  S   UNL A   1      31.292  26.328  22.895  1.00  0.00    -0.018 S 
ATOM     10  C   UNL A   1      31.065  27.597  24.032  1.00  0.00     0.124 A 
BRANCH  10  11
ATOM     11  N   UNL A   1      30.290  28.708  23.850  1.00  0.00    -0.372 N 
ATOM     12  H   UNL A   1      30.372  29.429  24.515  1.00  0.00     0.161 HD
BRANCH  11  13
ATOM     13  C   UNL A   1      29.352  28.916  22.751  1.00  0.00     0.080 C 
ATOM     14  C   UNL A   1      28.016  28.294  23.164  1.00  0.00     0.031 C 
BRANCH  13  15
ATOM     15  C   UNL A   1      29.292  30.420  22.411  1.00  0.00     0.011 C 
ATOM     16  C   UNL A   1      28.319  30.755  21.277  1.00  0.00     0.006 C 
ATOM     17  C   UNL A   1      28.812  31.363  23.517  1.00  0.00     0.006 C 
ATOM     18  C   UNL A   1      28.201  32.275  21.332  1.00  0.00     0.000 C 
ATOM     19  C   UNL A   1      28.485  32.663  22.783  1.00  0.00     0.000 C 
ENDBRANCH  13  15
ENDBRANCH  11  13
ENDBRANCH  10  11
ENDBRANCH   3   5
ENDBRANCH   2   3
ENDBRANCH   1   2
BRANCH   1  20
ATOM     20  C   UNL A   1      32.859  31.521  27.180  1.00  0.00     0.275 C 
BRANCH  20  21
ATOM     21  O   UNL A   1      34.101  30.896  27.512  1.00  0.00    -0.458 OA
BRANCH  21  22
ATOM     22  C   UNL A   1      35.106  31.745  27.832  1.00  0.00     0.338 C 
ATOM     23  O   UNL A   1      35.181  32.928  27.551  1.00  0.00    -0.246 OA
BRANCH  22  24
ATOM     24  C   UNL A   1      36.215  30.983  28.422  1.00  0.00     0.060 A 
ATOM     25  C   UNL A   1      37.271  31.700  28.990  1.00  0.00     0.016 A 
ATOM     26  C   UNL A   1      36.302  29.597  28.218  1.00  0.00     0.016 A 
ATOM     27  C   UNL A   1      38.460  31.043  29.249  1.00  0.00     0.010 A 
ATOM     28  C   UNL A   1      37.491  28.944  28.468  1.00  0.00     0.010 A 
ATOM     29  C   UNL A   1      38.577  29.682  28.931  1.00  0.00    -0.014 A 
BRANCH  29  30
ATOM     30  C   UNL A   1      39.842  29.025  29.201  1.00  0.00     0.031 A 
ATOM     31  C   UNL A   1      40.138  28.839  30.642  1.00  0.00     0.074 A 
ATOM     32  C   UNL A   1      40.644  28.519  28.247  1.00  0.00     0.049 A 
ATOM     33  N   UNL A   1      41.075  29.399  31.329  1.00  0.00    -0.248 NA
ATOM     34  C   UNL A   1      39.208  28.022  31.435  1.00  0.00     0.031 C 
ATOM     35  C   UNL A   1      40.380  28.342  26.818  1.00  0.00     0.029 A 
ATOM     36  N   UNL A   1      41.868  27.946  28.407  1.00  0.00    -0.354 N 
ATOM     37  C   UNL A   1      40.957  28.896  32.621  1.00  0.00     0.074 A 
ATOM     38  C   UNL A   1      39.721  28.155  32.658  1.00  0.00     0.031 C 
ATOM     39  C   UNL A   1      41.308  27.502  26.297  1.00  0.00     0.029 A 
ATOM     40  C   UNL A   1      42.299  27.206  27.319  1.00  0.00     0.049 A 
ATOM     41  H   UNL A   1      42.402  28.050  29.228  1.00  0.00     0.167 HD
ATOM     42  C   UNL A   1      41.984  28.963  33.512  1.00  0.00     0.031 A 
ATOM     43  C   UNL A   1      43.360  26.361  27.297  1.00  0.00     0.031 A 
ATOM     44  C   UNL A   1      43.004  29.886  33.091  1.00  0.00     0.049 A 
ATOM     45  C   UNL A   1      44.248  26.720  28.428  1.00  0.00     0.074 A 
ATOM     46  C   UNL A   1      43.053  31.243  32.845  1.00  0.00     0.029 A 
ATOM     47  N   UNL A   1      44.125  29.357  32.495  1.00  0.00    -0.354 N 
ATOM     48  N   UNL A   1      44.925  27.830  28.479  1.00  0.00    -0.248 NA
ATOM     49  C   UNL A   1      44.037  26.061  29.709  1.00  0.00     0.031 C 
ATOM     50  C   UNL A   1      43.910  31.379  31.713  1.00  0.00     0.029 A 
ATOM     51  C   UNL A   1      44.373  30.107  31.375  1.00  0.00     0.049 A 
ATOM     52  H   UNL A   1      44.650  28.587  32.813  1.00  0.00     0.167 HD
ATOM     53  C   UNL A   1      44.841  28.237  29.802  1.00  0.00     0.074 A 
ATOM     54  C   UNL A   1      44.369  27.061  30.531  1.00  0.00     0.031 C 
ATOM     55  C   UNL A   1      44.887  29.560  30.140  1.00  0.00     0.031 A 
BRANCH  42  56
ATOM     56  C   UNL A   1      42.248  27.916  34.560  1.00  0.00    -0.014 A 
ATOM     57  C   UNL A   1      42.765  26.672  34.156  1.00  0.00     0.009 A 
ATOM     58  C   UNL A   1      41.743  27.999  35.871  1.00  0.00     0.009 A 
ATOM     59  C   UNL A   1      42.704  25.552  34.993  1.00  0.00     0.001 A 
ATOM     60  C   UNL A   1      41.720  26.893  36.724  1.00  0.00     0.001 A 
ATOM     61  C   UNL A   1      42.173  25.661  36.274  1.00  0.00     0.000 A 
ENDBRANCH  42  56
BRANCH  43  62
ATOM     62  C   UNL A   1      43.498  25.086  26.564  1.00  0.00    -0.014 A 
ATOM     63  C   UNL A   1      42.576  24.044  26.745  1.00  0.00     0.009 A 
ATOM     64  C   UNL A   1      44.382  24.997  25.472  1.00  0.00     0.009 A 
ATOM     65  C   UNL A   1      42.518  22.970  25.844  1.00  0.00     0.001 A 
ATOM     66  C   UNL A   1      44.325  23.926  24.575  1.00  0.00     0.001 A 
ATOM     67  C   UNL A   1      43.382  22.919  24.753  1.00  0.00     0.000 A 
ENDBRANCH  43  62
BRANCH  55  68
ATOM     68  C   UNL A   1      45.238  30.552  29.060  1.00  0.00    -0.014 A 
ATOM     69  C   UNL A   1      46.553  30.987  28.819  1.00  0.00     0.009 A 
ATOM     70  C   UNL A   1      44.235  30.941  28.160  1.00  0.00     0.009 A 
ATOM     71  C   UNL A   1      46.847  31.816  27.731  1.00  0.00     0.001 A 
ATOM     72  C   UNL A   1      44.531  31.750  27.063  1.00  0.00     0.001 A 
ATOM     73  C   UNL A   1      45.835  32.193  26.851  1.00  0.00     0.000 A 
ENDBRANCH  55  68
ENDBRANCH  29  30
ENDBRANCH  22  24
ENDBRANCH  21  22
ENDBRANCH  20  21
ENDBRANCH   1  20
TORSDOF 14
ENDMDL
MODEL 2
REMARK VINA RESULT:     -10.7      4.216      8.845
REMARK SMILES Cc1nsc(N[C@@H](C)C2CCCC2)c1C(=O)OCCOC(=O)c1ccc(-c2c3nc(c(-c4ccccc4)c4ccc([nH]4)c(-c4ccccc4)c4nc(c(-c5ccccc5)c5ccc2[nH]5)C=C4)C=C3)cc1
REMARK SMILES IDX 18 1 17 2 15 3 16 4 14 5 1 6 2 7 3 8 4 9 5 10 6 11 7 13 8 14
REMARK SMILES IDX 9 15 10 16 13 17 11 18 12 19 19 20 20 21 21 22 22 23 23 24
REMARK SMILES IDX 24 25 70 26 25 27 69 28 26 29 27 30 28 31 63 32 29 33 68 34
REMARK SMILES IDX 62 35 64 36 30 37 67 38 61 39 60 40 31 42 53 43 38 44 52 45
REMARK SMILES IDX 39 46 42 47 51 48 65 49 40 50 41 51 50 53 66 54 43 55 32 56
REMARK SMILES IDX 33 57 37 58 34 59 36 60 35 61 54 62 55 63 59 64 56 65 58 66
REMARK SMILES IDX 57 67 44 68 45 69 49 70 46 71 48 72 47 73
REMARK H PARENT 6 12 64 41 42 52
REMARK Flexibility Score: inf
ROOT
ATOM      1  C   UNL A   1      37.470  22.366  25.431  1.00  0.00     0.275 C 
ENDROOT
BRANCH   1   2
ATOM      2  O   UNL A   1      36.431  21.680  24.715  1.00  0.00    -0.458 OA
BRANCH   2   3
ATOM      3  C   UNL A   1      35.558  22.462  24.015  1.00  0.00     0.343 C 
ATOM      4  O   UNL A   1      35.801  22.904  22.893  1.00  0.00    -0.246 OA
BRANCH   3   5
ATOM      5  C   UNL A   1      34.286  22.674  24.700  1.00  0.00     0.117 A 
ATOM      6  C   UNL A   1      34.448  25.240  25.319  1.00  0.00     0.069 C 
ATOM      7  C   UNL A   1      33.779  23.908  25.268  1.00  0.00     0.068 A 
ATOM      8  N   UNL A   1      32.566  23.841  25.818  1.00  0.00    -0.195 NA
ATOM      9  S   UNL A   1      32.017  22.295  25.729  1.00  0.00    -0.018 S 
ATOM     10  C   UNL A   1      33.385  21.631  24.929  1.00  0.00     0.124 A 
BRANCH  10  11
ATOM     11  N   UNL A   1      33.564  20.315  24.605  1.00  0.00    -0.372 N 
ATOM     12  H   UNL A   1      34.460  19.933  24.749  1.00  0.00     0.161 HD
BRANCH  11  13
ATOM     13  C   UNL A   1      32.539  19.429  24.063  1.00  0.00     0.080 C 
ATOM     14  C   UNL A   1      32.155  19.960  22.680  1.00  0.00     0.031 C 
BRANCH  13  15
ATOM     15  C   UNL A   1      33.062  17.977  24.080  1.00  0.00     0.011 C 
ATOM     16  C   UNL A   1      34.558  17.866  24.383  1.00  0.00     0.006 C 
ATOM     17  C   UNL A   1      32.464  17.036  25.129  1.00  0.00     0.006 C 
ATOM     18  C   UNL A   1      34.769  16.378  24.648  1.00  0.00     0.000 C 
ATOM     19  C   UNL A   1      33.429  15.852  25.162  1.00  0.00     0.000 C 
ENDBRANCH  13  15
ENDBRANCH  11  13
ENDBRANCH  10  11
ENDBRANCH   3   5
ENDBRANCH   2   3
ENDBRANCH   1   2
BRANCH   1  20
ATOM     20  C   UNL A   1      38.651  21.444  25.702  1.00  0.00     0.275 C 
BRANCH  20  21
ATOM     21  O   UNL A   1      39.879  22.166  25.827  1.00  0.00    -0.458 OA
BRANCH  21  22
ATOM     22  C   UNL A   1      40.306  22.360  27.097  1.00  0.00     0.338 C 
ATOM     23  O   UNL A   1      40.433  21.513  27.963  1.00  0.00    -0.246 OA
BRANCH  22  24
ATOM     24  C   UNL A   1      40.423  23.803  27.354  1.00  0.00     0.060 A 
ATOM     25  C   UNL A   1      41.633  24.279  27.866  1.00  0.00     0.016 A 
ATOM     26  C   UNL A   1      39.285  24.621  27.293  1.00  0.00     0.016 A 
ATOM     27  C   UNL A   1      41.669  25.545  28.422  1.00  0.00     0.010 A 
ATOM     28  C   UNL A   1      39.319  25.880  27.856  1.00  0.00     0.010 A 
ATOM     29  C   UNL A   1      40.495  26.312  28.463  1.00  0.00    -0.014 A 
BRANCH  29  30
ATOM     30  C   UNL A   1      40.563  27.629  29.067  1.00  0.00     0.031 A 
ATOM     31  C   UNL A   1      41.535  28.545  28.424  1.00  0.00     0.074 A 
ATOM     32  C   UNL A   1      39.747  28.047  30.052  1.00  0.00     0.049 A 
ATOM     33  N   UNL A   1      42.623  29.017  28.933  1.00  0.00    -0.248 NA
ATOM     34  C   UNL A   1      41.332  28.882  27.008  1.00  0.00     0.031 C 
ATOM     35  C   UNL A   1      38.551  27.401  30.596  1.00  0.00     0.029 A 
ATOM     36  N   UNL A   1      39.783  29.236  30.712  1.00  0.00    -0.354 N 
ATOM     37  C   UNL A   1      43.179  29.838  27.958  1.00  0.00     0.074 A 
ATOM     38  C   UNL A   1      42.414  29.618  26.755  1.00  0.00     0.031 C 
ATOM     39  C   UNL A   1      37.854  28.305  31.327  1.00  0.00     0.029 A 
ATOM     40  C   UNL A   1      38.626  29.534  31.415  1.00  0.00     0.049 A 
ATOM     41  H   UNL A   1      40.565  29.834  30.693  1.00  0.00     0.167 HD
ATOM     42  C   UNL A   1      44.107  30.785  28.263  1.00  0.00     0.031 A 
ATOM     43  C   UNL A   1      38.313  30.732  31.965  1.00  0.00     0.031 A 
ATOM     44  C   UNL A   1      44.667  30.590  29.573  1.00  0.00     0.049 A 
ATOM     45  C   UNL A   1      39.571  31.500  32.124  1.00  0.00     0.074 A 
ATOM     46  C   UNL A   1      45.401  29.592  30.184  1.00  0.00     0.029 A 
ATOM     47  N   UNL A   1      44.169  31.366  30.593  1.00  0.00    -0.354 N 
ATOM     48  N   UNL A   1      40.505  31.173  32.968  1.00  0.00    -0.248 NA
ATOM     49  C   UNL A   1      39.993  32.367  31.033  1.00  0.00     0.031 C 
ATOM     50  C   UNL A   1      44.897  29.531  31.516  1.00  0.00     0.029 A 
ATOM     51  C   UNL A   1      43.930  30.529  31.652  1.00  0.00     0.049 A 
ATOM     52  H   UNL A   1      44.015  32.338  30.569  1.00  0.00     0.167 HD
ATOM     53  C   UNL A   1      41.693  31.409  32.292  1.00  0.00     0.074 A 
ATOM     54  C   UNL A   1      41.319  32.236  31.146  1.00  0.00     0.031 C 
ATOM     55  C   UNL A   1      42.818  30.682  32.562  1.00  0.00     0.031 A 
BRANCH  42  56
ATOM     56  C   UNL A   1      44.225  32.101  27.541  1.00  0.00    -0.014 A 
ATOM     57  C   UNL A   1      43.743  33.262  28.171  1.00  0.00     0.009 A 
ATOM     58  C   UNL A   1      44.520  32.198  26.168  1.00  0.00     0.009 A 
ATOM     59  C   UNL A   1      43.493  34.433  27.446  1.00  0.00     0.001 A 
ATOM     60  C   UNL A   1      44.312  33.378  25.450  1.00  0.00     0.001 A 
ATOM     61  C   UNL A   1      43.770  34.488  26.084  1.00  0.00     0.000 A 
ENDBRANCH  42  56
BRANCH  43  62
ATOM     62  C   UNL A   1      36.985  31.369  32.074  1.00  0.00    -0.014 A 
ATOM     63  C   UNL A   1      36.601  32.049  33.241  1.00  0.00     0.009 A 
ATOM     64  C   UNL A   1      36.198  31.551  30.921  1.00  0.00     0.009 A 
ATOM     65  C   UNL A   1      35.491  32.906  33.242  1.00  0.00     0.001 A 
ATOM     66  C   UNL A   1      35.089  32.404  30.923  1.00  0.00     0.001 A 
ATOM     67  C   UNL A   1      34.745  33.094  32.081  1.00  0.00     0.000 A 
ENDBRANCH  43  62
BRANCH  55  68
ATOM     68  C   UNL A   1      42.791  29.759  33.754  1.00  0.00    -0.014 A 
ATOM     69  C   UNL A   1      43.225  30.149  35.033  1.00  0.00     0.009 A 
ATOM     70  C   UNL A   1      42.168  28.510  33.616  1.00  0.00     0.009 A 
ATOM     71  C   UNL A   1      43.071  29.298  36.133  1.00  0.00     0.001 A 
ATOM     72  C   UNL A   1      41.995  27.670  34.717  1.00  0.00     0.001 A 
ATOM     73  C   UNL A   1      42.452  28.061  35.974  1.00  0.00     0.000 A 
ENDBRANCH  55  68
ENDBRANCH  29  30
ENDBRANCH  22  24
ENDBRANCH  21  22
ENDBRANCH  20  21
ENDBRANCH   1  20
TORSDOF 14
ENDMDL
MODEL 3
REMARK VINA RESULT:     -10.5      3.582      7.869
REMARK SMILES Cc1nsc(N[C@@H](C)C2CCCC2)c1C(=O)OCCOC(=O)c1ccc(-c2c3nc(c(-c4ccccc4)c4ccc([nH]4)c(-c4ccccc4)c4nc(c(-c5ccccc5)c5ccc2[nH]5)C=C4)C=C3)cc1
REMARK SMILES IDX 18 1 17 2 15 3 16 4 14 5 1 6 2 7 3 8 4 9 5 10 6 11 7 13 8 14
REMARK SMILES IDX 9 15 10 16 13 17 11 18 12 19 19 20 20 21 21 22 22 23 23 24
REMARK SMILES IDX 24 25 70 26 25 27 69 28 26 29 27 30 28 31 63 32 29 33 68 34
REMARK SMILES IDX 62 35 64 36 30 37 67 38 61 39 60 40 31 42 53 43 38 44 52 45
REMARK SMILES IDX 39 46 42 47 51 48 65 49 40 50 41 51 50 53 66 54 43 55 32 56
REMARK SMILES IDX 33 57 37 58 34 59 36 60 35 61 54 62 55 63 59 64 56 65 58 66
REMARK SMILES IDX 57 67 44 68 45 69 49 70 46 71 48 72 47 73
REMARK H PARENT 6 12 64 41 42 52
REMARK Flexibility Score: inf
ROOT
ATOM      1  C   UNL A   1      37.194  22.331  25.456  1.00  0.00     0.275 C 
ENDROOT
BRANCH   1   2
ATOM      2  O   UNL A   1      36.469  21.863  24.308  1.00  0.00    -0.458 OA
BRANCH   2   3
ATOM      3  C   UNL A   1      35.444  22.652  23.873  1.00  0.00     0.343 C 
ATOM      4  O   UNL A   1      35.496  23.312  22.835  1.00  0.00    -0.246 OA
BRANCH   3   5
ATOM      5  C   UNL A   1      34.260  22.595  24.725  1.00  0.00     0.117 A 
ATOM      6  C   UNL A   1      33.270  20.228  24.085  1.00  0.00     0.069 C 
ATOM      7  C   UNL A   1      33.298  21.516  24.836  1.00  0.00     0.068 A 
ATOM      8  N   UNL A   1      32.313  21.702  25.716  1.00  0.00    -0.195 NA
ATOM      9  S   UNL A   1      32.468  23.190  26.394  1.00  0.00    -0.018 S 
ATOM     10  C   UNL A   1      33.885  23.663  25.544  1.00  0.00     0.124 A 
BRANCH  10  11
ATOM     11  N   UNL A   1      34.509  24.876  25.637  1.00  0.00    -0.372 N 
ATOM     12  H   UNL A   1      35.341  24.915  26.162  1.00  0.00     0.161 HD
BRANCH  11  13
ATOM     13  C   UNL A   1      34.045  26.116  25.025  1.00  0.00     0.080 C 
ATOM     14  C   UNL A   1      32.998  25.747  23.972  1.00  0.00     0.031 C 
BRANCH  13  15
ATOM     15  C   UNL A   1      33.548  27.074  26.129  1.00  0.00     0.011 C 
ATOM     16  C   UNL A   1      33.647  28.554  25.748  1.00  0.00     0.006 C 
ATOM     17  C   UNL A   1      32.078  26.959  26.537  1.00  0.00     0.006 C 
ATOM     18  C   UNL A   1      32.837  29.264  26.828  1.00  0.00     0.000 C 
ATOM     19  C   UNL A   1      31.803  28.247  27.312  1.00  0.00     0.000 C 
ENDBRANCH  13  15
ENDBRANCH  11  13
ENDBRANCH  10  11
ENDBRANCH   3   5
ENDBRANCH   2   3
ENDBRANCH   1   2
BRANCH   1  20
ATOM     20  C   UNL A   1      38.397  21.443  25.746  1.00  0.00     0.275 C 
BRANCH  20  21
ATOM     21  O   UNL A   1      39.620  22.183  25.752  1.00  0.00    -0.458 OA
BRANCH  21  22
ATOM     22  C   UNL A   1      40.202  22.322  26.966  1.00  0.00     0.338 C 
ATOM     23  O   UNL A   1      40.406  21.443  27.785  1.00  0.00    -0.246 OA
BRANCH  22  24
ATOM     24  C   UNL A   1      40.394  23.752  27.250  1.00  0.00     0.060 A 
ATOM     25  C   UNL A   1      41.538  24.129  27.958  1.00  0.00     0.016 A 
ATOM     26  C   UNL A   1      39.353  24.661  27.010  1.00  0.00     0.016 A 
ATOM     27  C   UNL A   1      41.586  25.391  28.522  1.00  0.00     0.010 A 
ATOM     28  C   UNL A   1      39.397  25.916  27.581  1.00  0.00     0.010 A 
ATOM     29  C   UNL A   1      40.489  26.252  28.376  1.00  0.00    -0.014 A 
BRANCH  29  30
ATOM     30  C   UNL A   1      40.564  27.563  28.993  1.00  0.00     0.031 A 
ATOM     31  C   UNL A   1      41.537  28.482  28.355  1.00  0.00     0.074 A 
ATOM     32  C   UNL A   1      39.755  27.973  29.987  1.00  0.00     0.049 A 
ATOM     33  N   UNL A   1      42.628  28.946  28.863  1.00  0.00    -0.248 NA
ATOM     34  C   UNL A   1      41.327  28.834  26.944  1.00  0.00     0.031 C 
ATOM     35  C   UNL A   1      38.560  27.326  30.531  1.00  0.00     0.029 A 
ATOM     36  N   UNL A   1      39.799  29.155  30.660  1.00  0.00    -0.354 N 
ATOM     37  C   UNL A   1      43.182  29.774  27.893  1.00  0.00     0.074 A 
ATOM     38  C   UNL A   1      42.410  29.570  26.692  1.00  0.00     0.031 C 
ATOM     39  C   UNL A   1      37.870  28.224  31.275  1.00  0.00     0.029 A 
ATOM     40  C   UNL A   1      38.648  29.450  31.372  1.00  0.00     0.049 A 
ATOM     41  H   UNL A   1      40.583  29.751  30.642  1.00  0.00     0.167 HD
ATOM     42  C   UNL A   1      44.115  30.715  28.203  1.00  0.00     0.031 A 
ATOM     43  C   UNL A   1      38.342  30.644  31.936  1.00  0.00     0.031 A 
ATOM     44  C   UNL A   1      44.682  30.505  29.508  1.00  0.00     0.049 A 
ATOM     45  C   UNL A   1      39.603  31.406  32.096  1.00  0.00     0.074 A 
ATOM     46  C   UNL A   1      45.416  29.498  30.104  1.00  0.00     0.029 A 
ATOM     47  N   UNL A   1      44.192  31.272  30.539  1.00  0.00    -0.354 N 
ATOM     48  N   UNL A   1      40.541  31.067  32.932  1.00  0.00    -0.248 NA
ATOM     49  C   UNL A   1      40.022  32.282  31.012  1.00  0.00     0.031 C 
ATOM     50  C   UNL A   1      44.918  29.424  31.439  1.00  0.00     0.029 A 
ATOM     51  C   UNL A   1      43.955  30.424  31.590  1.00  0.00     0.049 A 
ATOM     52  H   UNL A   1      44.041  32.244  30.525  1.00  0.00     0.167 HD
ATOM     53  C   UNL A   1      41.726  31.306  32.251  1.00  0.00     0.074 A 
ATOM     54  C   UNL A   1      41.348  32.146  31.116  1.00  0.00     0.031 C 
ATOM     55  C   UNL A   1      42.849  30.572  32.507  1.00  0.00     0.031 A 
BRANCH  42  56
ATOM     56  C   UNL A   1      44.234  32.038  27.494  1.00  0.00    -0.014 A 
ATOM     57  C   UNL A   1      43.734  33.190  28.127  1.00  0.00     0.009 A 
ATOM     58  C   UNL A   1      44.548  32.150  26.127  1.00  0.00     0.009 A 
ATOM     59  C   UNL A   1      43.486  34.366  27.408  1.00  0.00     0.001 A 
ATOM     60  C   UNL A   1      44.342  33.334  25.416  1.00  0.00     0.001 A 
ATOM     61  C   UNL A   1      43.782  34.434  26.051  1.00  0.00     0.000 A 
ENDBRANCH  42  56
BRANCH  43  62
ATOM     62  C   UNL A   1      37.016  31.284  32.059  1.00  0.00    -0.014 A 
ATOM     63  C   UNL A   1      36.637  31.943  33.239  1.00  0.00     0.009 A 
ATOM     64  C   UNL A   1      36.228  31.490  30.911  1.00  0.00     0.009 A 
ATOM     65  C   UNL A   1      35.531  32.805  33.258  1.00  0.00     0.001 A 
ATOM     66  C   UNL A   1      35.123  32.348  30.931  1.00  0.00     0.001 A 
ATOM     67  C   UNL A   1      34.784  33.017  32.102  1.00  0.00     0.000 A 
ENDBRANCH  43  62
BRANCH  55  68
ATOM     68  C   UNL A   1      42.826  29.636  33.690  1.00  0.00    -0.014 A 
ATOM     69  C   UNL A   1      43.260  30.014  34.973  1.00  0.00     0.009 A 
ATOM     70  C   UNL A   1      42.205  28.387  33.539  1.00  0.00     0.009 A 
ATOM     71  C   UNL A   1      43.110  29.152  36.064  1.00  0.00     0.001 A 
ATOM     72  C   UNL A   1      42.036  27.536  34.632  1.00  0.00     0.001 A 
ATOM     73  C   UNL A   1      42.493  27.914  35.893  1.00  0.00     0.000 A 
ENDBRANCH  55  68
ENDBRANCH  29  30
ENDBRANCH  22  24
ENDBRANCH  21  22
ENDBRANCH  20  21
ENDBRANCH   1  20
TORSDOF 14
ENDMDL
