MODEL 1
REMARK VINA RESULT:     -12.3      0.000      0.000
REMARK SMILES O=C(OCCOC(=O)[C@H]1CC2(CC[NH+](C(=O)c3cccc(O)c3)CC2)CN1C(=O)C1CC1)c1ccc(-c2c3nc(c(-c4ccccc4)c4ccc([nH]4)c(-c4ccccc4)c4nc(c(-c5ccccc5)c5ccc2[nH]5)C=C4)C=C3)cc1
REMARK SMILES IDX 5 1 4 2 3 3 2 4 1 5 33 6 34 7 80 8 35 9 79 10 36 11 37 12
REMARK SMILES IDX 38 13 73 14 39 15 78 16 72 17 74 18 40 19 77 20 71 21 70 22
REMARK SMILES IDX 41 24 63 25 48 26 62 27 49 28 52 29 61 30 75 31 50 32 51 33
REMARK SMILES IDX 60 35 76 36 53 37 42 38 43 39 47 40 44 41 46 42 45 43 64 44
REMARK SMILES IDX 65 45 69 46 66 47 68 48 67 49 54 50 55 51 59 52 56 53 58 54
REMARK SMILES IDX 57 55 6 56 7 57 8 58 9 59 10 60 27 61 11 62 26 63 12 64
REMARK SMILES IDX 25 65 13 66 24 67 14 68 28 70 29 71 30 72 31 73 32 74 15 75
REMARK SMILES IDX 16 76 17 77 18 78 23 79 19 80 21 81 20 82 22 83
REMARK H PARENT 74 23 52 34 14 69 22 84
REMARK Flexibility Score: inf
ROOT
ATOM      1  C   UNL A   1      31.856  28.820  25.987  1.00  0.00     0.274 C 
ENDROOT
BRANCH   1   2
ATOM      2  C   UNL A   1      32.165  30.313  25.922  1.00  0.00     0.275 C 
BRANCH   2   3
ATOM      3  O   UNL A   1      32.478  30.894  27.190  1.00  0.00    -0.458 OA
BRANCH   3   4
ATOM      4  C   UNL A   1      33.502  31.709  27.518  1.00  0.00     0.338 C 
ATOM      5  O   UNL A   1      33.276  32.920  27.500  1.00  0.00    -0.246 OA
BRANCH   4   6
ATOM      6  C   UNL A   1      34.907  31.272  27.882  1.00  0.00     0.060 A 
ATOM      7  C   UNL A   1      36.045  32.035  28.176  1.00  0.00     0.016 A 
ATOM      8  C   UNL A   1      35.074  29.891  27.967  1.00  0.00     0.016 A 
ATOM      9  C   UNL A   1      37.241  31.452  28.709  1.00  0.00     0.010 A 
ATOM     10  C   UNL A   1      36.242  29.332  28.501  1.00  0.00     0.010 A 
ATOM     11  C   UNL A   1      37.313  30.096  29.015  1.00  0.00    -0.014 A 
BRANCH  11  12
ATOM     12  C   UNL A   1      38.493  29.358  29.654  1.00  0.00     0.031 A 
ATOM     13  C   UNL A   1      38.732  29.750  31.090  1.00  0.00     0.074 A 
ATOM     14  C   UNL A   1      39.439  28.549  29.083  1.00  0.00     0.049 A 
ATOM     15  N   UNL A   1      39.795  29.601  31.833  1.00  0.00    -0.248 NA
ATOM     16  C   UNL A   1      37.643  30.507  31.741  1.00  0.00     0.031 C 
ATOM     17  C   UNL A   1      39.467  27.998  27.738  1.00  0.00     0.029 A 
ATOM     18  N   UNL A   1      40.650  28.065  29.582  1.00  0.00    -0.354 N 
ATOM     19  C   UNL A   1      39.512  30.298  32.995  1.00  0.00     0.074 A 
ATOM     20  C   UNL A   1      38.268  31.000  32.792  1.00  0.00     0.031 C 
ATOM     21  C   UNL A   1      40.628  27.393  27.460  1.00  0.00     0.029 A 
ATOM     22  C   UNL A   1      41.441  27.403  28.650  1.00  0.00     0.049 A 
ATOM     23  H   UNL A   1      40.923  28.184  30.520  1.00  0.00     0.167 HD
ATOM     24  C   UNL A   1      40.163  30.278  34.175  1.00  0.00     0.031 A 
ATOM     25  C   UNL A   1      42.657  26.817  28.698  1.00  0.00     0.031 A 
ATOM     26  C   UNL A   1      41.306  29.459  34.441  1.00  0.00     0.049 A 
ATOM     27  C   UNL A   1      43.350  26.752  30.018  1.00  0.00     0.074 A 
ATOM     28  C   UNL A   1      41.912  29.213  35.658  1.00  0.00     0.029 A 
ATOM     29  N   UNL A   1      41.993  28.728  33.486  1.00  0.00    -0.354 N 
ATOM     30  N   UNL A   1      42.988  27.312  31.143  1.00  0.00    -0.248 NA
ATOM     31  C   UNL A   1      44.574  25.943  30.102  1.00  0.00     0.031 C 
ATOM     32  C   UNL A   1      42.997  28.362  35.434  1.00  0.00     0.029 A 
ATOM     33  C   UNL A   1      43.039  28.050  34.085  1.00  0.00     0.049 A 
ATOM     34  H   UNL A   1      41.770  28.697  32.528  1.00  0.00     0.167 HD
ATOM     35  C   UNL A   1      43.916  26.895  32.079  1.00  0.00     0.074 A 
ATOM     36  C   UNL A   1      44.854  26.028  31.395  1.00  0.00     0.031 C 
ATOM     37  C   UNL A   1      43.971  27.203  33.394  1.00  0.00     0.031 A 
BRANCH  24  38
ATOM     38  C   UNL A   1      39.584  31.112  35.278  1.00  0.00    -0.014 A 
ATOM     39  C   UNL A   1      38.474  30.668  36.020  1.00  0.00     0.009 A 
ATOM     40  C   UNL A   1      40.139  32.364  35.564  1.00  0.00     0.009 A 
ATOM     41  C   UNL A   1      37.895  31.490  36.985  1.00  0.00     0.001 A 
ATOM     42  C   UNL A   1      39.586  33.166  36.560  1.00  0.00     0.001 A 
ATOM     43  C   UNL A   1      38.456  32.735  37.258  1.00  0.00     0.000 A 
ENDBRANCH  24  38
BRANCH  25  44
ATOM     44  C   UNL A   1      43.270  26.182  27.487  1.00  0.00    -0.014 A 
ATOM     45  C   UNL A   1      42.928  24.876  27.092  1.00  0.00     0.009 A 
ATOM     46  C   UNL A   1      44.211  26.882  26.712  1.00  0.00     0.009 A 
ATOM     47  C   UNL A   1      43.526  24.282  25.972  1.00  0.00     0.001 A 
ATOM     48  C   UNL A   1      44.790  26.296  25.580  1.00  0.00     0.001 A 
ATOM     49  C   UNL A   1      44.453  24.994  25.214  1.00  0.00     0.000 A 
ENDBRANCH  25  44
BRANCH  37  50
ATOM     50  C   UNL A   1      45.079  26.585  34.180  1.00  0.00    -0.014 A 
ATOM     51  C   UNL A   1      44.920  25.327  34.775  1.00  0.00     0.009 A 
ATOM     52  C   UNL A   1      46.304  27.258  34.295  1.00  0.00     0.009 A 
ATOM     53  C   UNL A   1      45.967  24.760  35.498  1.00  0.00     0.001 A 
ATOM     54  C   UNL A   1      47.359  26.674  34.994  1.00  0.00     0.001 A 
ATOM     55  C   UNL A   1      47.187  25.430  35.599  1.00  0.00     0.000 A 
ENDBRANCH  37  50
ENDBRANCH  11  12
ENDBRANCH   4   6
ENDBRANCH   3   4
ENDBRANCH   2   3
ENDBRANCH   1   2
BRANCH   1  56
ATOM     56  O   UNL A   1      32.848  28.003  25.344  1.00  0.00    -0.461 OA
BRANCH  56  57
ATOM     57  C   UNL A   1      33.050  28.170  24.008  1.00  0.00     0.328 C 
ATOM     58  O   UNL A   1      33.388  29.231  23.495  1.00  0.00    -0.250 OA
BRANCH  57  59
ATOM     59  C   UNL A   1      32.838  26.874  23.180  1.00  0.00     0.195 C 
ATOM     60  C   UNL A   1      33.053  25.606  24.052  1.00  0.00     0.046 C 
ATOM     61  N   UNL A   1      31.583  26.625  22.489  1.00  0.00    -0.328 N 
ATOM     62  C   UNL A   1      32.320  24.421  23.358  1.00  0.00     0.001 C 
ATOM     63  C   UNL A   1      31.381  25.167  22.365  1.00  0.00     0.128 C 
ATOM     64  C   UNL A   1      31.446  23.502  24.242  1.00  0.00     0.071 C 
ATOM     65  C   UNL A   1      33.310  23.396  22.744  1.00  0.00     0.071 C 
ATOM     66  C   UNL A   1      32.187  22.844  25.395  1.00  0.00     0.271 C 
ATOM     67  C   UNL A   1      34.034  22.504  23.807  1.00  0.00     0.271 C 
ATOM     68  N   UNL A   1      33.156  21.917  24.840  1.00  0.00    -0.267 N 
ATOM     69  H   UNL A   1      33.165  21.265  24.103  1.00  0.00     0.357 HD
BRANCH  61  70
ATOM     70  C   UNL A   1      30.531  27.503  22.606  1.00  0.00     0.226 C 
ATOM     71  O   UNL A   1      30.333  28.385  21.762  1.00  0.00    -0.275 OA
BRANCH  70  72
ATOM     72  C   UNL A   1      29.502  27.501  23.670  1.00  0.00     0.079 C 
ATOM     73  C   UNL A   1      28.304  26.626  23.825  1.00  0.00     0.014 C 
ATOM     74  C   UNL A   1      29.509  26.403  24.698  1.00  0.00     0.014 C 
ENDBRANCH  70  72
ENDBRANCH  61  70
BRANCH  68  75
ATOM     75  C   UNL A   1      33.483  20.665  25.396  1.00  0.00     0.344 C 
ATOM     76  O   UNL A   1      33.629  20.511  26.609  1.00  0.00    -0.226 OA
BRANCH  75  77
ATOM     77  C   UNL A   1      33.650  19.437  24.550  1.00  0.00     0.083 A 
ATOM     78  C   UNL A   1      34.713  18.538  24.721  1.00  0.00     0.018 A 
ATOM     79  C   UNL A   1      32.624  19.102  23.651  1.00  0.00     0.064 A 
ATOM     80  C   UNL A   1      34.777  17.360  23.959  1.00  0.00     0.005 A 
ATOM     81  C   UNL A   1      32.690  17.921  22.909  1.00  0.00     0.116 A 
ATOM     82  C   UNL A   1      33.766  17.050  23.048  1.00  0.00     0.046 A 
BRANCH  81  83
ATOM     83  O   UNL A   1      31.663  17.640  22.055  1.00  0.00    -0.508 OA
ATOM     84  H   UNL A   1      31.691  17.949  21.171  1.00  0.00     0.293 HD
ENDBRANCH  81  83
ENDBRANCH  75  77
ENDBRANCH  68  75
ENDBRANCH  57  59
ENDBRANCH  56  57
ENDBRANCH   1  56
TORSDOF 16
ENDMDL
MODEL 2
REMARK VINA RESULT:     -12.0      2.961      3.786
REMARK SMILES O=C(OCCOC(=O)[C@H]1CC2(CC[NH+](C(=O)c3cccc(O)c3)CC2)CN1C(=O)C1CC1)c1ccc(-c2c3nc(c(-c4ccccc4)c4ccc([nH]4)c(-c4ccccc4)c4nc(c(-c5ccccc5)c5ccc2[nH]5)C=C4)C=C3)cc1
REMARK SMILES IDX 5 1 4 2 3 3 2 4 1 5 33 6 34 7 80 8 35 9 79 10 36 11 37 12
REMARK SMILES IDX 38 13 73 14 39 15 78 16 72 17 74 18 40 19 77 20 71 21 70 22
REMARK SMILES IDX 41 24 63 25 48 26 62 27 49 28 52 29 61 30 75 31 50 32 51 33
REMARK SMILES IDX 60 35 76 36 53 37 42 38 43 39 47 40 44 41 46 42 45 43 64 44
REMARK SMILES IDX 65 45 69 46 66 47 68 48 67 49 54 50 55 51 59 52 56 53 58 54
REMARK SMILES IDX 57 55 6 56 7 57 8 58 9 59 10 60 27 61 11 62 26 63 12 64
REMARK SMILES IDX 25 65 13 66 24 67 14 68 28 70 29 71 30 72 31 73 32 74 15 75
REMARK SMILES IDX 16 76 17 77 18 78 23 79 19 80 21 81 20 82 22 83
REMARK H PARENT 74 23 52 34 14 69 22 84
REMARK Flexibility Score: inf
ROOT
ATOM      1  C   UNL A   1      32.385  29.694  25.437  1.00  0.00     0.274 C 
ENDROOT
BRANCH   1   2
ATOM      2  C   UNL A   1      32.292  29.735  26.959  1.00  0.00     0.275 C 
BRANCH   2   3
ATOM      3  O   UNL A   1      33.538  29.503  27.620  1.00  0.00    -0.458 OA
BRANCH   3   4
ATOM      4  C   UNL A   1      34.504  30.389  27.941  1.00  0.00     0.338 C 
ATOM      5  O   UNL A   1      34.251  31.580  27.751  1.00  0.00    -0.246 OA
BRANCH   4   6
ATOM      6  C   UNL A   1      35.875  30.052  28.491  1.00  0.00     0.060 A 
ATOM      7  C   UNL A   1      36.268  29.695  29.788  1.00  0.00     0.016 A 
ATOM      8  C   UNL A   1      36.894  30.070  27.541  1.00  0.00     0.016 A 
ATOM      9  C   UNL A   1      37.581  29.201  30.082  1.00  0.00     0.010 A 
ATOM     10  C   UNL A   1      38.171  29.574  27.835  1.00  0.00     0.010 A 
ATOM     11  C   UNL A   1      38.522  28.998  29.076  1.00  0.00    -0.014 A 
BRANCH  11  12
ATOM     12  C   UNL A   1      39.927  28.411  29.235  1.00  0.00     0.031 A 
ATOM     13  C   UNL A   1      40.956  29.436  29.642  1.00  0.00     0.074 A 
ATOM     14  C   UNL A   1      40.406  27.171  28.909  1.00  0.00     0.049 A 
ATOM     15  N   UNL A   1      42.257  29.397  29.553  1.00  0.00    -0.248 NA
ATOM     16  C   UNL A   1      40.423  30.727  30.124  1.00  0.00     0.031 C 
ATOM     17  C   UNL A   1      39.661  25.990  28.504  1.00  0.00     0.029 A 
ATOM     18  N   UNL A   1      41.714  26.691  28.815  1.00  0.00    -0.354 N 
ATOM     19  C   UNL A   1      42.673  30.669  29.906  1.00  0.00     0.074 A 
ATOM     20  C   UNL A   1      41.496  31.491  30.043  1.00  0.00     0.031 C 
ATOM     21  C   UNL A   1      40.461  25.000  28.089  1.00  0.00     0.029 A 
ATOM     22  C   UNL A   1      41.829  25.412  28.282  1.00  0.00     0.049 A 
ATOM     23  H   UNL A   1      42.495  27.218  29.101  1.00  0.00     0.167 HD
ATOM     24  C   UNL A   1      43.914  31.104  30.203  1.00  0.00     0.031 A 
ATOM     25  C   UNL A   1      42.873  24.601  28.004  1.00  0.00     0.031 A 
ATOM     26  C   UNL A   1      45.069  30.259  30.230  1.00  0.00     0.049 A 
ATOM     27  C   UNL A   1      44.239  25.066  28.382  1.00  0.00     0.074 A 
ATOM     28  C   UNL A   1      46.329  30.555  30.714  1.00  0.00     0.029 A 
ATOM     29  N   UNL A   1      45.099  28.948  29.787  1.00  0.00    -0.354 N 
ATOM     30  N   UNL A   1      44.589  26.238  28.845  1.00  0.00    -0.248 NA
ATOM     31  C   UNL A   1      45.342  24.101  28.259  1.00  0.00     0.031 C 
ATOM     32  C   UNL A   1      47.137  29.432  30.526  1.00  0.00     0.029 A 
ATOM     33  C   UNL A   1      46.368  28.428  29.961  1.00  0.00     0.049 A 
ATOM     34  H   UNL A   1      44.333  28.460  29.407  1.00  0.00     0.167 HD
ATOM     35  C   UNL A   1      45.943  26.144  29.105  1.00  0.00     0.074 A 
ATOM     36  C   UNL A   1      46.353  24.799  28.757  1.00  0.00     0.031 C 
ATOM     37  C   UNL A   1      46.767  27.096  29.600  1.00  0.00     0.031 A 
BRANCH  24  38
ATOM     38  C   UNL A   1      44.046  32.542  30.602  1.00  0.00    -0.014 A 
ATOM     39  C   UNL A   1      43.808  32.955  31.927  1.00  0.00     0.009 A 
ATOM     40  C   UNL A   1      44.390  33.499  29.640  1.00  0.00     0.009 A 
ATOM     41  C   UNL A   1      43.853  34.306  32.264  1.00  0.00     0.001 A 
ATOM     42  C   UNL A   1      44.477  34.845  29.990  1.00  0.00     0.001 A 
ATOM     43  C   UNL A   1      44.194  35.249  31.296  1.00  0.00     0.000 A 
ENDBRANCH  24  38
BRANCH  25  44
ATOM     44  C   UNL A   1      42.672  23.243  27.402  1.00  0.00    -0.014 A 
ATOM     45  C   UNL A   1      42.898  23.010  26.034  1.00  0.00     0.009 A 
ATOM     46  C   UNL A   1      42.248  22.165  28.197  1.00  0.00     0.009 A 
ATOM     47  C   UNL A   1      42.682  21.742  25.475  1.00  0.00     0.001 A 
ATOM     48  C   UNL A   1      42.056  20.894  27.642  1.00  0.00     0.001 A 
ATOM     49  C   UNL A   1      42.266  20.684  26.280  1.00  0.00     0.000 A 
ENDBRANCH  25  44
BRANCH  37  50
ATOM     50  C   UNL A   1      48.193  26.706  29.804  1.00  0.00    -0.014 A 
ATOM     51  C   UNL A   1      48.605  26.097  30.996  1.00  0.00     0.009 A 
ATOM     52  C   UNL A   1      49.123  26.924  28.777  1.00  0.00     0.009 A 
ATOM     53  C   UNL A   1      49.939  25.731  31.167  1.00  0.00     0.001 A 
ATOM     54  C   UNL A   1      50.449  26.529  28.940  1.00  0.00     0.001 A 
ATOM     55  C   UNL A   1      50.856  25.940  30.137  1.00  0.00     0.000 A 
ENDBRANCH  37  50
ENDBRANCH  11  12
ENDBRANCH   4   6
ENDBRANCH   3   4
ENDBRANCH   2   3
ENDBRANCH   1   2
BRANCH   1  56
ATOM     56  O   UNL A   1      32.403  28.360  24.901  1.00  0.00    -0.461 OA
BRANCH  56  57
ATOM     57  C   UNL A   1      32.895  28.180  23.645  1.00  0.00     0.328 C 
ATOM     58  O   UNL A   1      33.644  28.972  23.084  1.00  0.00    -0.250 OA
BRANCH  57  59
ATOM     59  C   UNL A   1      32.441  26.851  22.983  1.00  0.00     0.195 C 
ATOM     60  C   UNL A   1      32.810  25.626  23.867  1.00  0.00     0.046 C 
ATOM     61  N   UNL A   1      31.048  26.629  22.628  1.00  0.00    -0.328 N 
ATOM     62  C   UNL A   1      31.887  24.444  23.451  1.00  0.00     0.001 C 
ATOM     63  C   UNL A   1      30.766  25.179  22.658  1.00  0.00     0.128 C 
ATOM     64  C   UNL A   1      31.215  23.628  24.579  1.00  0.00     0.071 C 
ATOM     65  C   UNL A   1      32.661  23.333  22.694  1.00  0.00     0.071 C 
ATOM     66  C   UNL A   1      32.184  23.000  25.568  1.00  0.00     0.271 C 
ATOM     67  C   UNL A   1      33.583  22.467  23.617  1.00  0.00     0.271 C 
ATOM     68  N   UNL A   1      32.956  21.991  24.867  1.00  0.00    -0.267 N 
ATOM     69  H   UNL A   1      32.763  21.296  24.196  1.00  0.00     0.357 HD
BRANCH  61  70
ATOM     70  C   UNL A   1      30.090  27.568  22.928  1.00  0.00     0.226 C 
ATOM     71  O   UNL A   1      29.221  27.351  23.781  1.00  0.00    -0.275 OA
BRANCH  70  72
ATOM     72  C   UNL A   1      29.981  28.926  22.348  1.00  0.00     0.079 C 
ATOM     73  C   UNL A   1      28.761  29.706  21.990  1.00  0.00     0.014 C 
ATOM     74  C   UNL A   1      29.542  30.067  23.225  1.00  0.00     0.014 C 
ENDBRANCH  70  72
ENDBRANCH  61  70
BRANCH  68  75
ATOM     75  C   UNL A   1      33.358  20.758  25.416  1.00  0.00     0.344 C 
ATOM     76  O   UNL A   1      33.545  20.616  26.625  1.00  0.00    -0.226 OA
BRANCH  75  77
ATOM     77  C   UNL A   1      33.561  19.536  24.569  1.00  0.00     0.083 A 
ATOM     78  C   UNL A   1      34.621  18.641  24.772  1.00  0.00     0.018 A 
ATOM     79  C   UNL A   1      32.570  19.204  23.631  1.00  0.00     0.064 A 
ATOM     80  C   UNL A   1      34.717  17.467  24.006  1.00  0.00     0.005 A 
ATOM     81  C   UNL A   1      32.668  18.028  22.884  1.00  0.00     0.116 A 
ATOM     82  C   UNL A   1      33.742  17.160  23.056  1.00  0.00     0.046 A 
BRANCH  81  83
ATOM     83  O   UNL A   1      31.674  17.748  21.992  1.00  0.00    -0.508 OA
ATOM     84  H   UNL A   1      31.140  16.987  22.107  1.00  0.00     0.293 HD
ENDBRANCH  81  83
ENDBRANCH  75  77
ENDBRANCH  68  75
ENDBRANCH  57  59
ENDBRANCH  56  57
ENDBRANCH   1  56
TORSDOF 16
ENDMDL
MODEL 3
REMARK VINA RESULT:     -11.9      3.716      9.314
REMARK SMILES O=C(OCCOC(=O)[C@H]1CC2(CC[NH+](C(=O)c3cccc(O)c3)CC2)CN1C(=O)C1CC1)c1ccc(-c2c3nc(c(-c4ccccc4)c4ccc([nH]4)c(-c4ccccc4)c4nc(c(-c5ccccc5)c5ccc2[nH]5)C=C4)C=C3)cc1
REMARK SMILES IDX 5 1 4 2 3 3 2 4 1 5 33 6 34 7 80 8 35 9 79 10 36 11 37 12
REMARK SMILES IDX 38 13 73 14 39 15 78 16 72 17 74 18 40 19 77 20 71 21 70 22
REMARK SMILES IDX 41 24 63 25 48 26 62 27 49 28 52 29 61 30 75 31 50 32 51 33
REMARK SMILES IDX 60 35 76 36 53 37 42 38 43 39 47 40 44 41 46 42 45 43 64 44
REMARK SMILES IDX 65 45 69 46 66 47 68 48 67 49 54 50 55 51 59 52 56 53 58 54
REMARK SMILES IDX 57 55 6 56 7 57 8 58 9 59 10 60 27 61 11 62 26 63 12 64
REMARK SMILES IDX 25 65 13 66 24 67 14 68 28 70 29 71 30 72 31 73 32 74 15 75
REMARK SMILES IDX 16 76 17 77 18 78 23 79 19 80 21 81 20 82 22 83
REMARK H PARENT 74 23 52 34 14 69 22 84
REMARK Flexibility Score: inf
ROOT
ATOM      1  C   UNL A   1      35.763  22.141  25.022  1.00  0.00     0.274 C 
ENDROOT
BRANCH   1   2
ATOM      2  C   UNL A   1      36.719  21.115  25.622  1.00  0.00     0.275 C 
BRANCH   2   3
ATOM      3  O   UNL A   1      38.089  21.326  25.273  1.00  0.00    -0.458 OA
BRANCH   3   4
ATOM      4  C   UNL A   1      39.161  21.444  26.084  1.00  0.00     0.338 C 
ATOM      5  O   UNL A   1      39.803  20.417  26.310  1.00  0.00    -0.246 OA
BRANCH   4   6
ATOM      6  C   UNL A   1      39.632  22.717  26.758  1.00  0.00     0.060 A 
ATOM      7  C   UNL A   1      40.715  22.938  27.619  1.00  0.00     0.016 A 
ATOM      8  C   UNL A   1      38.882  23.847  26.438  1.00  0.00     0.016 A 
ATOM      9  C   UNL A   1      41.139  24.255  27.995  1.00  0.00     0.010 A 
ATOM     10  C   UNL A   1      39.312  25.131  26.800  1.00  0.00     0.010 A 
ATOM     11  C   UNL A   1      40.525  25.391  27.475  1.00  0.00    -0.014 A 
BRANCH  11  12
ATOM     12  C   UNL A   1      40.918  26.848  27.730  1.00  0.00     0.031 A 
ATOM     13  C   UNL A   1      42.279  27.200  27.184  1.00  0.00     0.074 A 
ATOM     14  C   UNL A   1      40.312  27.802  28.504  1.00  0.00     0.049 A 
ATOM     15  N   UNL A   1      43.068  28.196  27.482  1.00  0.00    -0.248 NA
ATOM     16  C   UNL A   1      42.866  26.227  26.241  1.00  0.00     0.031 C 
ATOM     17  C   UNL A   1      39.006  27.755  29.141  1.00  0.00     0.029 A 
ATOM     18  N   UNL A   1      40.768  29.046  28.946  1.00  0.00    -0.354 N 
ATOM     19  C   UNL A   1      44.248  27.922  26.812  1.00  0.00     0.074 A 
ATOM     20  C   UNL A   1      44.130  26.603  26.240  1.00  0.00     0.031 C 
ATOM     21  C   UNL A   1      38.806  28.789  29.968  1.00  0.00     0.029 A 
ATOM     22  C   UNL A   1      39.939  29.675  29.868  1.00  0.00     0.049 A 
ATOM     23  H   UNL A   1      41.610  29.444  28.632  1.00  0.00     0.167 HD
ATOM     24  C   UNL A   1      45.304  28.730  26.588  1.00  0.00     0.031 A 
ATOM     25  C   UNL A   1      40.005  30.841  30.547  1.00  0.00     0.031 A 
ATOM     26  C   UNL A   1      45.364  30.096  27.009  1.00  0.00     0.049 A 
ATOM     27  C   UNL A   1      41.149  31.754  30.258  1.00  0.00     0.074 A 
ATOM     28  C   UNL A   1      46.295  31.055  26.658  1.00  0.00     0.029 A 
ATOM     29  N   UNL A   1      44.444  30.707  27.845  1.00  0.00    -0.354 N 
ATOM     30  N   UNL A   1      42.193  31.520  29.507  1.00  0.00    -0.248 NA
ATOM     31  C   UNL A   1      41.108  33.099  30.850  1.00  0.00     0.031 C 
ATOM     32  C   UNL A   1      45.961  32.241  27.316  1.00  0.00     0.029 A 
ATOM     33  C   UNL A   1      44.802  32.028  28.043  1.00  0.00     0.049 A 
ATOM     34  H   UNL A   1      43.655  30.267  28.237  1.00  0.00     0.167 HD
ATOM     35  C   UNL A   1      42.918  32.697  29.503  1.00  0.00     0.074 A 
ATOM     36  C   UNL A   1      42.192  33.649  30.319  1.00  0.00     0.031 C 
ATOM     37  C   UNL A   1      44.081  32.959  28.866  1.00  0.00     0.031 A 
BRANCH  24  38
ATOM     38  C   UNL A   1      46.428  28.160  25.779  1.00  0.00    -0.014 A 
ATOM     39  C   UNL A   1      46.408  28.204  24.372  1.00  0.00     0.009 A 
ATOM     40  C   UNL A   1      47.510  27.553  26.427  1.00  0.00     0.009 A 
ATOM     41  C   UNL A   1      47.420  27.595  23.632  1.00  0.00     0.001 A 
ATOM     42  C   UNL A   1      48.544  26.984  25.685  1.00  0.00     0.001 A 
ATOM     43  C   UNL A   1      48.490  26.992  24.290  1.00  0.00     0.000 A 
ENDBRANCH  24  38
BRANCH  25  44
ATOM     44  C   UNL A   1      38.932  31.250  31.511  1.00  0.00    -0.014 A 
ATOM     45  C   UNL A   1      39.034  30.964  32.884  1.00  0.00     0.009 A 
ATOM     46  C   UNL A   1      37.788  31.930  31.059  1.00  0.00     0.009 A 
ATOM     47  C   UNL A   1      38.013  31.327  33.773  1.00  0.00     0.001 A 
ATOM     48  C   UNL A   1      36.780  32.314  31.952  1.00  0.00     0.001 A 
ATOM     49  C   UNL A   1      36.889  32.006  33.307  1.00  0.00     0.000 A 
ENDBRANCH  25  44
BRANCH  37  50
ATOM     50  C   UNL A   1      44.632  34.338  29.019  1.00  0.00    -0.014 A 
ATOM     51  C   UNL A   1      45.368  34.693  30.157  1.00  0.00     0.009 A 
ATOM     52  C   UNL A   1      44.437  35.278  27.997  1.00  0.00     0.009 A 
ATOM     53  C   UNL A   1      45.883  35.982  30.280  1.00  0.00     0.001 A 
ATOM     54  C   UNL A   1      44.979  36.556  28.110  1.00  0.00     0.001 A 
ATOM     55  C   UNL A   1      45.695  36.908  29.254  1.00  0.00     0.000 A 
ENDBRANCH  37  50
ENDBRANCH  11  12
ENDBRANCH   4   6
ENDBRANCH   3   4
ENDBRANCH   2   3
ENDBRANCH   1   2
BRANCH   1  56
ATOM     56  O   UNL A   1      35.087  22.937  26.009  1.00  0.00    -0.461 OA
BRANCH  56  57
ATOM     57  C   UNL A   1      34.134  22.337  26.774  1.00  0.00     0.328 C 
ATOM     58  O   UNL A   1      34.370  21.453  27.591  1.00  0.00    -0.250 OA
BRANCH  57  59
ATOM     59  C   UNL A   1      32.705  22.895  26.540  1.00  0.00     0.195 C 
ATOM     60  C   UNL A   1      32.749  24.361  26.024  1.00  0.00     0.046 C 
ATOM     61  N   UNL A   1      31.779  22.227  25.640  1.00  0.00    -0.328 N 
ATOM     62  C   UNL A   1      31.397  24.657  25.313  1.00  0.00     0.001 C 
ATOM     63  C   UNL A   1      30.833  23.222  25.093  1.00  0.00     0.128 C 
ATOM     64  C   UNL A   1      31.448  25.364  23.940  1.00  0.00     0.071 C 
ATOM     65  C   UNL A   1      30.508  25.636  26.125  1.00  0.00     0.071 C 
ATOM     66  C   UNL A   1      32.154  26.711  23.950  1.00  0.00     0.271 C 
ATOM     67  C   UNL A   1      31.008  27.119  26.087  1.00  0.00     0.271 C 
ATOM     68  N   UNL A   1      31.364  27.631  24.748  1.00  0.00    -0.267 N 
ATOM     69  H   UNL A   1      30.406  27.825  24.856  1.00  0.00     0.357 HD
BRANCH  61  70
ATOM     70  C   UNL A   1      32.171  21.119  24.926  1.00  0.00     0.226 C 
ATOM     71  O   UNL A   1      32.143  19.988  25.427  1.00  0.00    -0.275 OA
BRANCH  70  72
ATOM     72  C   UNL A   1      32.615  21.098  23.514  1.00  0.00     0.079 C 
ATOM     73  C   UNL A   1      31.906  21.577  22.293  1.00  0.00     0.014 C 
ATOM     74  C   UNL A   1      33.044  22.382  22.859  1.00  0.00     0.014 C 
ENDBRANCH  70  72
ENDBRANCH  61  70
BRANCH  68  75
ATOM     75  C   UNL A   1      31.181  28.996  24.458  1.00  0.00     0.344 C 
ATOM     76  O   UNL A   1      32.008  29.848  24.790  1.00  0.00    -0.226 OA
BRANCH  75  77
ATOM     77  C   UNL A   1      29.983  29.498  23.707  1.00  0.00     0.083 A 
ATOM     78  C   UNL A   1      29.074  28.641  23.071  1.00  0.00     0.018 A 
ATOM     79  C   UNL A   1      29.686  30.870  23.766  1.00  0.00     0.064 A 
ATOM     80  C   UNL A   1      27.922  29.158  22.453  1.00  0.00     0.005 A 
ATOM     81  C   UNL A   1      28.532  31.371  23.161  1.00  0.00     0.116 A 
ATOM     82  C   UNL A   1      27.651  30.526  22.493  1.00  0.00     0.046 A 
BRANCH  81  83
ATOM     83  O   UNL A   1      28.286  32.711  23.254  1.00  0.00    -0.508 OA
ATOM     84  H   UNL A   1      28.983  33.324  23.131  1.00  0.00     0.293 HD
ENDBRANCH  81  83
ENDBRANCH  75  77
ENDBRANCH  68  75
ENDBRANCH  57  59
ENDBRANCH  56  57
ENDBRANCH   1  56
TORSDOF 16
ENDMDL
