MODEL 1
REMARK VINA RESULT:     -11.5      0.000      0.000
REMARK SMILES CC(C)=CCC/C(C)=C/C[N@@H+]1CCc2nc[nH]c2[C@@H]1C(=O)OCCOC(=O)c1ccc(-c2c3nc(c(-c4ccccc4)c4ccc([nH]4)c(-c4ccccc4)c4nc(c(-c5ccccc5)c5ccc2[nH]5)C=C4)C=C3)cc1
REMARK SMILES IDX 22 1 20 2 21 3 19 4 11 5 12 6 13 8 18 9 14 10 17 11 15 12
REMARK SMILES IDX 16 13 10 15 9 16 7 17 8 18 6 19 5 20 4 21 1 22 2 23 3 24
REMARK SMILES IDX 23 25 24 26 25 27 26 28 27 29 28 30 29 31 75 32 30 33 74 34
REMARK SMILES IDX 31 35 32 36 33 37 68 38 34 39 73 40 67 41 69 42 35 43 72 44
REMARK SMILES IDX 66 45 65 46 36 48 58 49 43 50 57 51 44 52 47 53 56 54 70 55
REMARK SMILES IDX 45 56 46 57 55 59 71 60 48 61 37 62 38 63 42 64 39 65 41 66
REMARK SMILES IDX 40 67 59 68 60 69 64 70 61 71 63 72 62 73 49 74 50 75 54 76
REMARK SMILES IDX 51 77 53 78 52 79
REMARK H PARENT 11 7 17 14 69 47 47 58
REMARK Flexibility Score: inf
ROOT
ATOM      1  O   UNL A   1      33.608  29.462  26.028  1.00  0.00    -0.457 OA
ENDROOT
BRANCH   1   2
ATOM      2  C   UNL A   1      33.094  29.048  24.825  1.00  0.00     0.371 C 
ATOM      3  O   UNL A   1      33.613  29.327  23.747  1.00  0.00    -0.245 OA
BRANCH   2   4
ATOM      4  C   UNL A   1      31.719  28.328  25.006  1.00  0.00     0.345 C 
ATOM      5  N   UNL A   1      31.734  26.830  24.942  1.00  0.00    -0.315 N 
ATOM      6  C   UNL A   1      31.863  26.305  23.565  1.00  0.00     0.270 C 
ATOM      7  H   UNL A   1      30.807  26.578  25.286  1.00  0.00     0.349 HD
ATOM      8  C   UNL A   1      30.684  26.674  22.640  1.00  0.00     0.120 C 
ATOM      9  C   UNL A   1      30.797  28.821  23.925  1.00  0.00     0.108 A 
ATOM     10  C   UNL A   1      30.350  28.099  22.842  1.00  0.00     0.074 A 
ATOM     11  N   UNL A   1      30.328  30.088  23.721  1.00  0.00    -0.343 N 
ATOM     12  N   UNL A   1      29.629  28.878  21.984  1.00  0.00    -0.241 NA
ATOM     13  C   UNL A   1      29.645  30.073  22.532  1.00  0.00     0.197 A 
ATOM     14  H   UNL A   1      30.455  30.863  24.314  1.00  0.00     0.167 HD
BRANCH   5  15
ATOM     15  C   UNL A   1      32.673  26.177  25.847  1.00  0.00     0.292 C 
BRANCH  15  16
ATOM     16  C   UNL A   1      33.223  24.923  25.237  1.00  0.00     0.032 C 
ATOM     17  C   UNL A   1      32.952  23.656  25.618  1.00  0.00    -0.071 C 
ATOM     18  C   UNL A   1      32.230  23.305  26.890  1.00  0.00     0.039 C 
BRANCH  17  19
ATOM     19  C   UNL A   1      33.310  22.505  24.696  1.00  0.00     0.035 C 
BRANCH  19  20
ATOM     20  C   UNL A   1      34.481  21.645  25.225  1.00  0.00     0.032 C 
BRANCH  20  21
ATOM     21  C   UNL A   1      35.622  22.479  25.756  1.00  0.00    -0.028 C 
ATOM     22  C   UNL A   1      36.690  22.985  23.548  1.00  0.00     0.039 C 
ATOM     23  C   UNL A   1      36.624  23.033  25.047  1.00  0.00    -0.080 C 
ATOM     24  C   UNL A   1      37.781  23.685  25.754  1.00  0.00     0.039 C 
ENDBRANCH  20  21
ENDBRANCH  19  20
ENDBRANCH  17  19
ENDBRANCH  15  16
ENDBRANCH   5  15
ENDBRANCH   2   4
ENDBRANCH   1   2
BRANCH   1  25
ATOM     25  C   UNL A   1      32.806  30.390  26.790  1.00  0.00     0.274 C 
BRANCH  25  26
ATOM     26  C   UNL A   1      33.603  31.370  27.656  1.00  0.00     0.275 C 
BRANCH  26  27
ATOM     27  O   UNL A   1      35.014  31.342  27.413  1.00  0.00    -0.458 OA
BRANCH  27  28
ATOM     28  C   UNL A   1      35.732  31.452  28.551  1.00  0.00     0.338 C 
ATOM     29  O   UNL A   1      35.478  32.170  29.500  1.00  0.00    -0.246 OA
BRANCH  28  30
ATOM     30  C   UNL A   1      37.004  30.736  28.486  1.00  0.00     0.060 A 
ATOM     31  C   UNL A   1      36.953  29.387  28.136  1.00  0.00     0.016 A 
ATOM     32  C   UNL A   1      38.146  31.298  29.058  1.00  0.00     0.016 A 
ATOM     33  C   UNL A   1      38.003  28.560  28.461  1.00  0.00     0.010 A 
ATOM     34  C   UNL A   1      39.213  30.469  29.370  1.00  0.00     0.010 A 
ATOM     35  C   UNL A   1      39.112  29.096  29.120  1.00  0.00    -0.014 A 
BRANCH  35  36
ATOM     36  C   UNL A   1      40.196  28.167  29.412  1.00  0.00     0.031 A 
ATOM     37  C   UNL A   1      40.656  28.195  30.822  1.00  0.00     0.074 A 
ATOM     38  C   UNL A   1      40.688  27.280  28.528  1.00  0.00     0.049 A 
ATOM     39  N   UNL A   1      41.856  28.379  31.265  1.00  0.00    -0.248 NA
ATOM     40  C   UNL A   1      39.625  28.102  31.869  1.00  0.00     0.031 C 
ATOM     41  C   UNL A   1      40.157  26.986  27.195  1.00  0.00     0.029 A 
ATOM     42  N   UNL A   1      41.692  26.364  28.683  1.00  0.00    -0.354 N 
ATOM     43  C   UNL A   1      41.763  28.240  32.646  1.00  0.00     0.074 A 
ATOM     44  C   UNL A   1      40.360  28.214  32.973  1.00  0.00     0.031 C 
ATOM     45  C   UNL A   1      40.673  25.815  26.768  1.00  0.00     0.029 A 
ATOM     46  C   UNL A   1      41.660  25.355  27.732  1.00  0.00     0.049 A 
ATOM     47  H   UNL A   1      42.368  26.414  29.397  1.00  0.00     0.167 HD
ATOM     48  C   UNL A   1      42.832  27.853  33.388  1.00  0.00     0.031 A 
ATOM     49  C   UNL A   1      42.347  24.191  27.739  1.00  0.00     0.031 A 
ATOM     50  C   UNL A   1      44.083  28.060  32.714  1.00  0.00     0.049 A 
ATOM     51  C   UNL A   1      43.516  24.311  28.632  1.00  0.00     0.074 A 
ATOM     52  C   UNL A   1      44.949  29.102  32.471  1.00  0.00     0.029 A 
ATOM     53  N   UNL A   1      44.462  27.022  31.910  1.00  0.00    -0.354 N 
ATOM     54  N   UNL A   1      44.563  25.031  28.353  1.00  0.00    -0.248 NA
ATOM     55  C   UNL A   1      43.454  23.803  29.999  1.00  0.00     0.031 C 
ATOM     56  C   UNL A   1      45.779  28.693  31.384  1.00  0.00     0.029 A 
ATOM     57  C   UNL A   1      45.394  27.415  30.989  1.00  0.00     0.049 A 
ATOM     58  H   UNL A   1      44.108  26.106  31.986  1.00  0.00     0.167 HD
ATOM     59  C   UNL A   1      45.048  25.415  29.586  1.00  0.00     0.074 A 
ATOM     60  C   UNL A   1      44.470  24.482  30.539  1.00  0.00     0.031 C 
ATOM     61  C   UNL A   1      45.580  26.657  29.770  1.00  0.00     0.031 A 
BRANCH  48  62
ATOM     62  C   UNL A   1      42.708  26.790  34.459  1.00  0.00    -0.014 A 
ATOM     63  C   UNL A   1      43.292  25.532  34.223  1.00  0.00     0.009 A 
ATOM     64  C   UNL A   1      41.779  26.866  35.518  1.00  0.00     0.009 A 
ATOM     65  C   UNL A   1      42.916  24.405  34.964  1.00  0.00     0.001 A 
ATOM     66  C   UNL A   1      41.431  25.751  36.284  1.00  0.00     0.001 A 
ATOM     67  C   UNL A   1      41.981  24.513  35.988  1.00  0.00     0.000 A 
ENDBRANCH  48  62
BRANCH  49  68
ATOM     68  C   UNL A   1      42.001  22.917  27.083  1.00  0.00    -0.014 A 
ATOM     69  C   UNL A   1      42.975  22.183  26.391  1.00  0.00     0.009 A 
ATOM     70  C   UNL A   1      40.760  22.304  27.325  1.00  0.00     0.009 A 
ATOM     71  C   UNL A   1      42.725  20.869  25.982  1.00  0.00     0.001 A 
ATOM     72  C   UNL A   1      40.504  20.996  26.906  1.00  0.00     0.001 A 
ATOM     73  C   UNL A   1      41.493  20.274  26.246  1.00  0.00     0.000 A 
ENDBRANCH  49  68
BRANCH  61  74
ATOM     74  C   UNL A   1      46.151  27.348  28.568  1.00  0.00    -0.014 A 
ATOM     75  C   UNL A   1      45.456  28.333  27.850  1.00  0.00     0.009 A 
ATOM     76  C   UNL A   1      47.452  27.013  28.164  1.00  0.00     0.009 A 
ATOM     77  C   UNL A   1      46.030  28.933  26.725  1.00  0.00     0.001 A 
ATOM     78  C   UNL A   1      48.034  27.629  27.055  1.00  0.00     0.001 A 
ATOM     79  C   UNL A   1      47.319  28.580  26.330  1.00  0.00     0.000 A 
ENDBRANCH  61  74
ENDBRANCH  35  36
ENDBRANCH  28  30
ENDBRANCH  27  28
ENDBRANCH  26  27
ENDBRANCH  25  26
ENDBRANCH   1  25
TORSDOF 16
ENDMDL
MODEL 2
REMARK VINA RESULT:     -11.2      3.903      8.848
REMARK SMILES CC(C)=CCC/C(C)=C/C[N@@H+]1CCc2nc[nH]c2[C@@H]1C(=O)OCCOC(=O)c1ccc(-c2c3nc(c(-c4ccccc4)c4ccc([nH]4)c(-c4ccccc4)c4nc(c(-c5ccccc5)c5ccc2[nH]5)C=C4)C=C3)cc1
REMARK SMILES IDX 22 1 20 2 21 3 19 4 11 5 12 6 13 8 18 9 14 10 17 11 15 12
REMARK SMILES IDX 16 13 10 15 9 16 7 17 8 18 6 19 5 20 4 21 1 22 2 23 3 24
REMARK SMILES IDX 23 25 24 26 25 27 26 28 27 29 28 30 29 31 75 32 30 33 74 34
REMARK SMILES IDX 31 35 32 36 33 37 68 38 34 39 73 40 67 41 69 42 35 43 72 44
REMARK SMILES IDX 66 45 65 46 36 48 58 49 43 50 57 51 44 52 47 53 56 54 70 55
REMARK SMILES IDX 45 56 46 57 55 59 71 60 48 61 37 62 38 63 42 64 39 65 41 66
REMARK SMILES IDX 40 67 59 68 60 69 64 70 61 71 63 72 62 73 49 74 50 75 54 76
REMARK SMILES IDX 51 77 53 78 52 79
REMARK H PARENT 11 7 17 14 69 47 47 58
REMARK Flexibility Score: inf
ROOT
ATOM      1  O   UNL A   1      37.058  21.690  25.219  1.00  0.00    -0.457 OA
ENDROOT
BRANCH   1   2
ATOM      2  C   UNL A   1      35.747  21.767  25.615  1.00  0.00     0.371 C 
ATOM      3  O   UNL A   1      35.408  21.828  26.794  1.00  0.00    -0.245 OA
BRANCH   2   4
ATOM      4  C   UNL A   1      34.773  21.614  24.402  1.00  0.00     0.345 C 
ATOM      5  N   UNL A   1      33.825  22.750  24.158  1.00  0.00    -0.315 N 
ATOM      6  C   UNL A   1      32.690  22.779  25.106  1.00  0.00     0.270 C 
ATOM      7  H   UNL A   1      33.451  22.540  23.232  1.00  0.00     0.349 HD
ATOM      8  C   UNL A   1      31.769  21.542  25.021  1.00  0.00     0.120 C 
ATOM      9  C   UNL A   1      33.950  20.374  24.627  1.00  0.00     0.108 A 
ATOM     10  C   UNL A   1      32.610  20.330  24.936  1.00  0.00     0.074 A 
ATOM     11  N   UNL A   1      34.372  19.078  24.702  1.00  0.00    -0.343 N 
ATOM     12  N   UNL A   1      32.199  19.055  25.199  1.00  0.00    -0.241 NA
ATOM     13  C   UNL A   1      33.284  18.325  25.065  1.00  0.00     0.197 A 
ATOM     14  H   UNL A   1      35.283  18.746  24.528  1.00  0.00     0.167 HD
BRANCH   5  15
ATOM     15  C   UNL A   1      34.445  24.064  24.036  1.00  0.00     0.292 C 
BRANCH  15  16
ATOM     16  C   UNL A   1      33.414  25.151  24.079  1.00  0.00     0.032 C 
ATOM     17  C   UNL A   1      32.657  25.584  23.047  1.00  0.00    -0.071 C 
ATOM     18  C   UNL A   1      32.903  25.200  21.615  1.00  0.00     0.039 C 
BRANCH  17  19
ATOM     19  C   UNL A   1      31.434  26.440  23.325  1.00  0.00     0.035 C 
BRANCH  19  20
ATOM     20  C   UNL A   1      31.787  27.883  23.750  1.00  0.00     0.032 C 
BRANCH  20  21
ATOM     21  C   UNL A   1      31.440  28.167  25.191  1.00  0.00    -0.028 C 
ATOM     22  C   UNL A   1      33.786  28.378  26.041  1.00  0.00     0.039 C 
ATOM     23  C   UNL A   1      32.296  28.338  26.216  1.00  0.00    -0.080 C 
ATOM     24  C   UNL A   1      31.778  28.436  27.626  1.00  0.00     0.039 C 
ENDBRANCH  20  21
ENDBRANCH  19  20
ENDBRANCH  17  19
ENDBRANCH  15  16
ENDBRANCH   5  15
ENDBRANCH   2   4
ENDBRANCH   1   2
BRANCH   1  25
ATOM     25  C   UNL A   1      37.954  22.690  25.750  1.00  0.00     0.274 C 
BRANCH  25  26
ATOM     26  C   UNL A   1      39.282  22.146  26.285  1.00  0.00     0.275 C 
BRANCH  26  27
ATOM     27  O   UNL A   1      39.899  22.988  27.266  1.00  0.00    -0.458 OA
BRANCH  27  28
ATOM     28  C   UNL A   1      41.108  23.439  26.867  1.00  0.00     0.338 C 
ATOM     29  O   UNL A   1      42.039  22.761  26.475  1.00  0.00    -0.246 OA
BRANCH  28  30
ATOM     30  C   UNL A   1      41.288  24.866  27.118  1.00  0.00     0.060 A 
ATOM     31  C   UNL A   1      41.468  25.257  28.445  1.00  0.00     0.016 A 
ATOM     32  C   UNL A   1      40.971  25.792  26.123  1.00  0.00     0.016 A 
ATOM     33  C   UNL A   1      41.219  26.560  28.810  1.00  0.00     0.010 A 
ATOM     34  C   UNL A   1      40.737  27.109  26.487  1.00  0.00     0.010 A 
ATOM     35  C   UNL A   1      40.808  27.472  27.835  1.00  0.00    -0.014 A 
BRANCH  35  36
ATOM     36  C   UNL A   1      40.585  28.839  28.290  1.00  0.00     0.031 A 
ATOM     37  C   UNL A   1      41.798  29.692  28.262  1.00  0.00     0.074 A 
ATOM     38  C   UNL A   1      39.379  29.338  28.618  1.00  0.00     0.049 A 
ATOM     39  N   UNL A   1      42.315  30.375  29.230  1.00  0.00    -0.248 NA
ATOM     40  C   UNL A   1      42.585  29.704  27.017  1.00  0.00     0.031 C 
ATOM     41  C   UNL A   1      38.084  28.677  28.452  1.00  0.00     0.029 A 
ATOM     42  N   UNL A   1      39.047  30.592  29.052  1.00  0.00    -0.354 N 
ATOM     43  C   UNL A   1      43.391  31.052  28.668  1.00  0.00     0.074 A 
ATOM     44  C   UNL A   1      43.598  30.499  27.353  1.00  0.00     0.031 C 
ATOM     45  C   UNL A   1      37.106  29.603  28.542  1.00  0.00     0.029 A 
ATOM     46  C   UNL A   1      37.700  30.881  28.901  1.00  0.00     0.049 A 
ATOM     47  H   UNL A   1      39.698  31.226  29.432  1.00  0.00     0.167 HD
ATOM     48  C   UNL A   1      43.841  32.220  29.195  1.00  0.00     0.031 A 
ATOM     49  C   UNL A   1      37.096  32.086  29.006  1.00  0.00     0.031 A 
ATOM     50  C   UNL A   1      43.437  32.407  30.561  1.00  0.00     0.049 A 
ATOM     51  C   UNL A   1      37.953  33.004  29.782  1.00  0.00     0.074 A 
ATOM     52  C   UNL A   1      43.835  31.982  31.808  1.00  0.00     0.029 A 
ATOM     53  N   UNL A   1      42.212  32.995  30.704  1.00  0.00    -0.354 N 
ATOM     54  N   UNL A   1      38.151  32.890  31.063  1.00  0.00    -0.248 NA
ATOM     55  C   UNL A   1      38.818  33.960  29.099  1.00  0.00     0.031 C 
ATOM     56  C   UNL A   1      42.733  32.216  32.685  1.00  0.00     0.029 A 
ATOM     57  C   UNL A   1      41.690  32.771  31.949  1.00  0.00     0.049 A 
ATOM     58  H   UNL A   1      41.762  33.515  29.999  1.00  0.00     0.167 HD
ATOM     59  C   UNL A   1      39.411  33.417  31.258  1.00  0.00     0.074 A 
ATOM     60  C   UNL A   1      39.678  34.231  30.083  1.00  0.00     0.031 C 
ATOM     61  C   UNL A   1      40.264  32.868  32.170  1.00  0.00     0.031 A 
BRANCH  48  62
ATOM     62  C   UNL A   1      44.153  33.416  28.320  1.00  0.00    -0.014 A 
ATOM     63  C   UNL A   1      43.088  34.234  27.902  1.00  0.00     0.009 A 
ATOM     64  C   UNL A   1      45.376  33.572  27.634  1.00  0.00     0.009 A 
ATOM     65  C   UNL A   1      43.225  35.109  26.817  1.00  0.00     0.001 A 
ATOM     66  C   UNL A   1      45.526  34.473  26.577  1.00  0.00     0.001 A 
ATOM     67  C   UNL A   1      44.441  35.223  26.152  1.00  0.00     0.000 A 
ENDBRANCH  48  62
BRANCH  49  68
ATOM     68  C   UNL A   1      35.838  32.540  28.386  1.00  0.00    -0.014 A 
ATOM     69  C   UNL A   1      34.866  31.614  27.982  1.00  0.00     0.009 A 
ATOM     70  C   UNL A   1      35.491  33.902  28.393  1.00  0.00     0.009 A 
ATOM     71  C   UNL A   1      33.580  32.036  27.626  1.00  0.00     0.001 A 
ATOM     72  C   UNL A   1      34.211  34.325  28.025  1.00  0.00     0.001 A 
ATOM     73  C   UNL A   1      33.251  33.389  27.656  1.00  0.00     0.000 A 
ENDBRANCH  49  68
BRANCH  61  74
ATOM     74  C   UNL A   1      39.656  32.115  33.315  1.00  0.00    -0.014 A 
ATOM     75  C   UNL A   1      39.288  30.763  33.232  1.00  0.00     0.009 A 
ATOM     76  C   UNL A   1      39.476  32.787  34.533  1.00  0.00     0.009 A 
ATOM     77  C   UNL A   1      38.709  30.114  34.326  1.00  0.00     0.001 A 
ATOM     78  C   UNL A   1      38.920  32.131  35.633  1.00  0.00     0.001 A 
ATOM     79  C   UNL A   1      38.526  30.800  35.526  1.00  0.00     0.000 A 
ENDBRANCH  61  74
ENDBRANCH  35  36
ENDBRANCH  28  30
ENDBRANCH  27  28
ENDBRANCH  26  27
ENDBRANCH  25  26
ENDBRANCH   1  25
TORSDOF 16
ENDMDL
MODEL 3
REMARK VINA RESULT:     -11.1      0.965      1.528
REMARK SMILES CC(C)=CCC/C(C)=C/C[N@@H+]1CCc2nc[nH]c2[C@@H]1C(=O)OCCOC(=O)c1ccc(-c2c3nc(c(-c4ccccc4)c4ccc([nH]4)c(-c4ccccc4)c4nc(c(-c5ccccc5)c5ccc2[nH]5)C=C4)C=C3)cc1
REMARK SMILES IDX 22 1 20 2 21 3 19 4 11 5 12 6 13 8 18 9 14 10 17 11 15 12
REMARK SMILES IDX 16 13 10 15 9 16 7 17 8 18 6 19 5 20 4 21 1 22 2 23 3 24
REMARK SMILES IDX 23 25 24 26 25 27 26 28 27 29 28 30 29 31 75 32 30 33 74 34
REMARK SMILES IDX 31 35 32 36 33 37 68 38 34 39 73 40 67 41 69 42 35 43 72 44
REMARK SMILES IDX 66 45 65 46 36 48 58 49 43 50 57 51 44 52 47 53 56 54 70 55
REMARK SMILES IDX 45 56 46 57 55 59 71 60 48 61 37 62 38 63 42 64 39 65 41 66
REMARK SMILES IDX 40 67 59 68 60 69 64 70 61 71 63 72 62 73 49 74 50 75 54 76
REMARK SMILES IDX 51 77 53 78 52 79
REMARK H PARENT 11 7 17 14 69 47 47 58
REMARK Flexibility Score: inf
ROOT
ATOM      1  O   UNL A   1      33.617  29.188  26.147  1.00  0.00    -0.457 OA
ENDROOT
BRANCH   1   2
ATOM      2  C   UNL A   1      33.126  28.900  24.899  1.00  0.00     0.371 C 
ATOM      3  O   UNL A   1      33.640  29.321  23.866  1.00  0.00    -0.245 OA
BRANCH   2   4
ATOM      4  C   UNL A   1      31.777  28.115  24.981  1.00  0.00     0.345 C 
ATOM      5  N   UNL A   1      31.850  26.633  24.759  1.00  0.00    -0.315 N 
ATOM      6  C   UNL A   1      32.015  26.263  23.336  1.00  0.00     0.270 C 
ATOM      7  H   UNL A   1      30.930  26.312  25.059  1.00  0.00     0.349 HD
ATOM      8  C   UNL A   1      30.834  26.685  22.436  1.00  0.00     0.120 C 
ATOM      9  C   UNL A   1      30.849  28.686  23.944  1.00  0.00     0.108 A 
ATOM     10  C   UNL A   1      30.444  28.067  22.783  1.00  0.00     0.074 A 
ATOM     11  N   UNL A   1      30.335  29.949  23.868  1.00  0.00    -0.343 N 
ATOM     12  N   UNL A   1      29.703  28.906  22.001  1.00  0.00    -0.241 NA
ATOM     13  C   UNL A   1      29.667  30.036  22.673  1.00  0.00     0.197 A 
ATOM     14  H   UNL A   1      30.425  30.661  24.542  1.00  0.00     0.167 HD
BRANCH   5  15
ATOM     15  C   UNL A   1      32.802  25.922  25.604  1.00  0.00     0.292 C 
BRANCH  15  16
ATOM     16  C   UNL A   1      33.221  24.630  24.971  1.00  0.00     0.032 C 
ATOM     17  C   UNL A   1      32.741  23.400  25.259  1.00  0.00    -0.071 C 
ATOM     18  C   UNL A   1      31.868  23.103  26.446  1.00  0.00     0.039 C 
BRANCH  17  19
ATOM     19  C   UNL A   1      33.013  22.250  24.306  1.00  0.00     0.035 C 
BRANCH  19  20
ATOM     20  C   UNL A   1      32.630  20.872  24.893  1.00  0.00     0.032 C 
BRANCH  20  21
ATOM     21  C   UNL A   1      32.847  19.743  23.915  1.00  0.00    -0.028 C 
ATOM     22  C   UNL A   1      32.581  17.863  25.548  1.00  0.00     0.039 C 
ATOM     23  C   UNL A   1      32.878  18.424  24.188  1.00  0.00    -0.080 C 
ATOM     24  C   UNL A   1      33.284  17.441  23.125  1.00  0.00     0.039 C 
ENDBRANCH  20  21
ENDBRANCH  19  20
ENDBRANCH  17  19
ENDBRANCH  15  16
ENDBRANCH   5  15
ENDBRANCH   2   4
ENDBRANCH   1   2
BRANCH   1  25
ATOM     25  C   UNL A   1      32.795  30.024  26.990  1.00  0.00     0.274 C 
BRANCH  25  26
ATOM     26  C   UNL A   1      33.508  31.242  27.582  1.00  0.00     0.275 C 
BRANCH  26  27
ATOM     27  O   UNL A   1      34.920  31.259  27.344  1.00  0.00    -0.458 OA
BRANCH  27  28
ATOM     28  C   UNL A   1      35.632  31.356  28.487  1.00  0.00     0.338 C 
ATOM     29  O   UNL A   1      35.371  32.060  29.444  1.00  0.00    -0.246 OA
BRANCH  28  30
ATOM     30  C   UNL A   1      36.906  30.644  28.420  1.00  0.00     0.060 A 
ATOM     31  C   UNL A   1      36.858  29.294  28.076  1.00  0.00     0.016 A 
ATOM     32  C   UNL A   1      38.049  31.213  28.984  1.00  0.00     0.016 A 
ATOM     33  C   UNL A   1      37.913  28.472  28.400  1.00  0.00     0.010 A 
ATOM     34  C   UNL A   1      39.120  30.389  29.295  1.00  0.00     0.010 A 
ATOM     35  C   UNL A   1      39.023  29.015  29.052  1.00  0.00    -0.014 A 
BRANCH  35  36
ATOM     36  C   UNL A   1      40.111  28.091  29.343  1.00  0.00     0.031 A 
ATOM     37  C   UNL A   1      40.583  28.133  30.749  1.00  0.00     0.074 A 
ATOM     38  C   UNL A   1      40.599  27.197  28.463  1.00  0.00     0.049 A 
ATOM     39  N   UNL A   1      41.786  28.324  31.181  1.00  0.00    -0.248 NA
ATOM     40  C   UNL A   1      39.560  28.046  31.806  1.00  0.00     0.031 C 
ATOM     41  C   UNL A   1      40.058  26.891  27.137  1.00  0.00     0.029 A 
ATOM     42  N   UNL A   1      41.606  26.285  28.618  1.00  0.00    -0.354 N 
ATOM     43  C   UNL A   1      41.704  28.197  32.564  1.00  0.00     0.074 A 
ATOM     44  C   UNL A   1      40.303  28.170  32.902  1.00  0.00     0.031 C 
ATOM     45  C   UNL A   1      40.574  25.717  26.716  1.00  0.00     0.029 A 
ATOM     46  C   UNL A   1      41.570  25.268  27.677  1.00  0.00     0.049 A 
ATOM     47  H   UNL A   1      42.288  26.344  29.327  1.00  0.00     0.167 HD
ATOM     48  C   UNL A   1      42.780  27.819  33.301  1.00  0.00     0.031 A 
ATOM     49  C   UNL A   1      42.259  24.106  27.688  1.00  0.00     0.031 A 
ATOM     50  C   UNL A   1      44.025  28.023  32.615  1.00  0.00     0.049 A 
ATOM     51  C   UNL A   1      43.435  24.236  28.571  1.00  0.00     0.074 A 
ATOM     52  C   UNL A   1      44.886  29.066  32.356  1.00  0.00     0.029 A 
ATOM     53  N   UNL A   1      44.400  26.979  31.818  1.00  0.00    -0.354 N 
ATOM     54  N   UNL A   1      44.478  24.957  28.277  1.00  0.00    -0.248 NA
ATOM     55  C   UNL A   1      43.385  23.741  29.943  1.00  0.00     0.031 C 
ATOM     56  C   UNL A   1      45.709  28.649  31.266  1.00  0.00     0.029 A 
ATOM     57  C   UNL A   1      45.324  27.366  30.885  1.00  0.00     0.049 A 
ATOM     58  H   UNL A   1      44.049  26.063  31.904  1.00  0.00     0.167 HD
ATOM     59  C   UNL A   1      44.972  25.353  29.503  1.00  0.00     0.074 A 
ATOM     60  C   UNL A   1      44.404  24.426  30.468  1.00  0.00     0.031 C 
ATOM     61  C   UNL A   1      45.502  26.598  29.672  1.00  0.00     0.031 A 
BRANCH  48  62
ATOM     62  C   UNL A   1      42.667  26.765  34.383  1.00  0.00    -0.014 A 
ATOM     63  C   UNL A   1      43.446  25.600  34.263  1.00  0.00     0.009 A 
ATOM     64  C   UNL A   1      41.608  26.724  35.313  1.00  0.00     0.009 A 
ATOM     65  C   UNL A   1      43.137  24.441  34.987  1.00  0.00     0.001 A 
ATOM     66  C   UNL A   1      41.322  25.582  36.065  1.00  0.00     0.001 A 
ATOM     67  C   UNL A   1      42.072  24.431  35.882  1.00  0.00     0.000 A 
ENDBRANCH  48  62
BRANCH  49  68
ATOM     68  C   UNL A   1      41.912  22.826  27.046  1.00  0.00    -0.014 A 
ATOM     69  C   UNL A   1      42.885  22.082  26.364  1.00  0.00     0.009 A 
ATOM     70  C   UNL A   1      40.668  22.218  27.293  1.00  0.00     0.009 A 
ATOM     71  C   UNL A   1      42.632  20.763  25.970  1.00  0.00     0.001 A 
ATOM     72  C   UNL A   1      40.411  20.906  26.889  1.00  0.00     0.001 A 
ATOM     73  C   UNL A   1      41.398  20.174  26.239  1.00  0.00     0.000 A 
ENDBRANCH  49  68
BRANCH  61  74
ATOM     74  C   UNL A   1      46.062  27.279  28.459  1.00  0.00    -0.014 A 
ATOM     75  C   UNL A   1      45.313  28.159  27.662  1.00  0.00     0.009 A 
ATOM     76  C   UNL A   1      47.405  27.048  28.127  1.00  0.00     0.009 A 
ATOM     77  C   UNL A   1      45.881  28.754  26.532  1.00  0.00     0.001 A 
ATOM     78  C   UNL A   1      47.978  27.662  27.011  1.00  0.00     0.001 A 
ATOM     79  C   UNL A   1      47.213  28.504  26.208  1.00  0.00     0.000 A 
ENDBRANCH  61  74
ENDBRANCH  35  36
ENDBRANCH  28  30
ENDBRANCH  27  28
ENDBRANCH  26  27
ENDBRANCH  25  26
ENDBRANCH   1  25
TORSDOF 16
ENDMDL
