MODEL 1
REMARK VINA RESULT:      -9.4      0.000      0.000
REMARK SMILES CCC[C@@H]([NH2+]C[C@H]1CSc2ccccc21)C(=O)OCCOC(=O)c1ccc(-c2c3nc(c(-c4ccccc4)c4ccc([nH]4)c(-c4ccccc4)c4nc(c(-c5ccccc5)c5ccc2[nH]5)C=C4)C=C3)cc1
REMARK SMILES IDX 19 1 18 2 16 3 17 4 4 5 3 6 2 7 1 8 5 9 6 12 7 13 8 14 15 15
REMARK SMILES IDX 9 16 10 17 14 18 11 19 13 20 12 21 20 22 21 23 22 24 23 25
REMARK SMILES IDX 24 26 25 27 71 28 26 29 70 30 27 31 28 32 29 33 64 34 30 35
REMARK SMILES IDX 69 36 63 37 65 38 31 39 68 40 62 41 61 42 32 44 54 45 39 46
REMARK SMILES IDX 53 47 40 48 43 49 52 50 66 51 41 52 42 53 51 55 67 56 44 57
REMARK SMILES IDX 33 58 34 59 38 60 35 61 37 62 36 63 55 64 56 65 60 66 57 67
REMARK SMILES IDX 59 68 58 69 45 70 46 71 50 72 47 73 49 74 48 75
REMARK H PARENT 5 10 5 11 65 43 43 54
REMARK Flexibility Score: inf
ROOT
ATOM      1  C   UNL A   1      43.123  21.122  26.140  1.00  0.00     0.274 C 
ENDROOT
BRANCH   1   2
ATOM      2  O   UNL A   1      41.867  21.654  25.683  1.00  0.00    -0.458 OA
BRANCH   2   3
ATOM      3  C   UNL A   1      40.767  20.962  26.091  1.00  0.00     0.364 C 
ATOM      4  O   UNL A   1      40.766  19.742  26.219  1.00  0.00    -0.245 OA
BRANCH   3   5
ATOM      5  C   UNL A   1      39.587  21.876  26.527  1.00  0.00     0.293 C 
BRANCH   5   6
ATOM      6  C   UNL A   1      40.045  23.118  27.326  1.00  0.00     0.077 C 
BRANCH   6   7
ATOM      7  C   UNL A   1      39.492  24.478  26.873  1.00  0.00     0.003 C 
ATOM      8  C   UNL A   1      40.490  25.354  26.128  1.00  0.00     0.004 C 
ENDBRANCH   6   7
ENDBRANCH   5   6
BRANCH   5   9
ATOM      9  N   UNL A   1      38.724  22.271  25.379  1.00  0.00    -0.334 N 
ATOM     10  H   UNL A   1      39.293  22.241  24.532  1.00  0.00     0.347 HD
ATOM     11  H   UNL A   1      38.370  23.202  25.598  1.00  0.00     0.347 HD
BRANCH   9  12
ATOM     12  C   UNL A   1      37.535  21.418  25.163  1.00  0.00     0.270 C 
BRANCH  12  13
ATOM     13  C   UNL A   1      36.211  21.961  25.758  1.00  0.00     0.086 C 
ATOM     14  C   UNL A   1      36.156  23.506  25.744  1.00  0.00     0.089 C 
ATOM     15  C   UNL A   1      34.984  21.464  25.026  1.00  0.00    -0.025 A 
ATOM     16  S   UNL A   1      35.005  24.035  24.438  1.00  0.00    -0.125 SA
ATOM     17  C   UNL A   1      34.282  22.431  24.308  1.00  0.00     0.011 A 
ATOM     18  C   UNL A   1      34.538  20.142  25.017  1.00  0.00     0.005 A 
ATOM     19  C   UNL A   1      33.144  22.102  23.581  1.00  0.00     0.015 A 
ATOM     20  C   UNL A   1      33.403  19.798  24.280  1.00  0.00     0.000 A 
ATOM     21  C   UNL A   1      32.706  20.776  23.567  1.00  0.00     0.001 A 
ENDBRANCH  12  13
ENDBRANCH   9  12
ENDBRANCH   5   9
ENDBRANCH   3   5
ENDBRANCH   2   3
ENDBRANCH   1   2
BRANCH   1  22
ATOM     22  C   UNL A   1      44.302  21.725  25.366  1.00  0.00     0.275 C 
BRANCH  22  23
ATOM     23  O   UNL A   1      44.976  22.782  26.081  1.00  0.00    -0.458 OA
BRANCH  23  24
ATOM     24  C   UNL A   1      44.608  24.037  25.724  1.00  0.00     0.338 C 
ATOM     25  O   UNL A   1      44.517  24.478  24.590  1.00  0.00    -0.246 OA
BRANCH  24  26
ATOM     26  C   UNL A   1      44.210  24.829  26.906  1.00  0.00     0.060 A 
ATOM     27  C   UNL A   1      44.578  26.165  27.064  1.00  0.00     0.016 A 
ATOM     28  C   UNL A   1      43.357  24.224  27.837  1.00  0.00     0.016 A 
ATOM     29  C   UNL A   1      44.084  26.891  28.157  1.00  0.00     0.010 A 
ATOM     30  C   UNL A   1      42.885  24.937  28.938  1.00  0.00     0.010 A 
ATOM     31  C   UNL A   1      43.233  26.283  29.099  1.00  0.00    -0.014 A 
BRANCH  31  32
ATOM     32  C   UNL A   1      42.589  27.085  30.166  1.00  0.00     0.031 A 
ATOM     33  C   UNL A   1      43.162  27.167  31.546  1.00  0.00     0.074 A 
ATOM     34  C   UNL A   1      41.431  27.712  29.887  1.00  0.00     0.049 A 
ATOM     35  N   UNL A   1      42.817  27.960  32.530  1.00  0.00    -0.248 NA
ATOM     36  C   UNL A   1      44.248  26.238  31.874  1.00  0.00     0.031 C 
ATOM     37  C   UNL A   1      40.720  27.633  28.610  1.00  0.00     0.029 A 
ATOM     38  N   UNL A   1      40.653  28.537  30.657  1.00  0.00    -0.354 N 
ATOM     39  C   UNL A   1      43.675  27.654  33.579  1.00  0.00     0.074 A 
ATOM     40  C   UNL A   1      44.512  26.562  33.134  1.00  0.00     0.031 C 
ATOM     41  C   UNL A   1      39.624  28.404  28.676  1.00  0.00     0.029 A 
ATOM     42  C   UNL A   1      39.555  29.028  29.995  1.00  0.00     0.049 A 
ATOM     43  H   UNL A   1      40.861  28.756  31.595  1.00  0.00     0.167 HD
ATOM     44  C   UNL A   1      43.762  28.246  34.793  1.00  0.00     0.031 A 
ATOM     45  C   UNL A   1      38.615  29.906  30.390  1.00  0.00     0.031 A 
ATOM     46  C   UNL A   1      42.886  29.295  35.248  1.00  0.00     0.049 A 
ATOM     47  C   UNL A   1      38.722  30.544  31.747  1.00  0.00     0.074 A 
ATOM     48  C   UNL A   1      42.944  30.011  36.433  1.00  0.00     0.029 A 
ATOM     49  N   UNL A   1      41.775  29.754  34.558  1.00  0.00    -0.354 N 
ATOM     50  N   UNL A   1      39.636  30.367  32.670  1.00  0.00    -0.248 NA
ATOM     51  C   UNL A   1      37.685  31.521  32.104  1.00  0.00     0.031 C 
ATOM     52  C   UNL A   1      41.828  30.850  36.491  1.00  0.00     0.029 A 
ATOM     53  C   UNL A   1      41.113  30.711  35.311  1.00  0.00     0.049 A 
ATOM     54  H   UNL A   1      41.497  29.447  33.666  1.00  0.00     0.167 HD
ATOM     55  C   UNL A   1      39.292  31.220  33.712  1.00  0.00     0.074 A 
ATOM     56  C   UNL A   1      38.102  31.931  33.294  1.00  0.00     0.031 C 
ATOM     57  C   UNL A   1      39.912  31.393  34.904  1.00  0.00     0.031 A 
BRANCH  44  58
ATOM     58  C   UNL A   1      44.857  27.800  35.721  1.00  0.00    -0.014 A 
ATOM     59  C   UNL A   1      46.129  28.390  35.651  1.00  0.00     0.009 A 
ATOM     60  C   UNL A   1      44.664  26.707  36.582  1.00  0.00     0.009 A 
ATOM     61  C   UNL A   1      47.188  27.887  36.410  1.00  0.00     0.001 A 
ATOM     62  C   UNL A   1      45.719  26.220  37.357  1.00  0.00     0.001 A 
ATOM     63  C   UNL A   1      46.982  26.804  37.263  1.00  0.00     0.000 A 
ENDBRANCH  44  58
BRANCH  45  64
ATOM     64  C   UNL A   1      37.537  30.284  29.443  1.00  0.00    -0.014 A 
ATOM     65  C   UNL A   1      37.537  31.546  28.824  1.00  0.00     0.009 A 
ATOM     66  C   UNL A   1      36.467  29.410  29.203  1.00  0.00     0.009 A 
ATOM     67  C   UNL A   1      36.476  31.930  28.002  1.00  0.00     0.001 A 
ATOM     68  C   UNL A   1      35.421  29.787  28.358  1.00  0.00     0.001 A 
ATOM     69  C   UNL A   1      35.422  31.049  27.767  1.00  0.00     0.000 A 
ENDBRANCH  45  64
BRANCH  57  70
ATOM     70  C   UNL A   1      39.307  32.379  35.868  1.00  0.00    -0.014 A 
ATOM     71  C   UNL A   1      39.768  33.704  35.901  1.00  0.00     0.009 A 
ATOM     72  C   UNL A   1      38.334  31.976  36.796  1.00  0.00     0.009 A 
ATOM     73  C   UNL A   1      39.278  34.603  36.850  1.00  0.00     0.001 A 
ATOM     74  C   UNL A   1      37.821  32.887  37.724  1.00  0.00     0.001 A 
ATOM     75  C   UNL A   1      38.301  34.195  37.755  1.00  0.00     0.000 A 
ENDBRANCH  57  70
ENDBRANCH  31  32
ENDBRANCH  24  26
ENDBRANCH  23  24
ENDBRANCH  22  23
ENDBRANCH   1  22
TORSDOF 16
ENDMDL
MODEL 2
REMARK VINA RESULT:      -9.4      4.340      9.206
REMARK SMILES CCC[C@@H]([NH2+]C[C@H]1CSc2ccccc21)C(=O)OCCOC(=O)c1ccc(-c2c3nc(c(-c4ccccc4)c4ccc([nH]4)c(-c4ccccc4)c4nc(c(-c5ccccc5)c5ccc2[nH]5)C=C4)C=C3)cc1
REMARK SMILES IDX 19 1 18 2 16 3 17 4 4 5 3 6 2 7 1 8 5 9 6 12 7 13 8 14 15 15
REMARK SMILES IDX 9 16 10 17 14 18 11 19 13 20 12 21 20 22 21 23 22 24 23 25
REMARK SMILES IDX 24 26 25 27 71 28 26 29 70 30 27 31 28 32 29 33 64 34 30 35
REMARK SMILES IDX 69 36 63 37 65 38 31 39 68 40 62 41 61 42 32 44 54 45 39 46
REMARK SMILES IDX 53 47 40 48 43 49 52 50 66 51 41 52 42 53 51 55 67 56 44 57
REMARK SMILES IDX 33 58 34 59 38 60 35 61 37 62 36 63 55 64 56 65 60 66 57 67
REMARK SMILES IDX 59 68 58 69 45 70 46 71 50 72 47 73 49 74 48 75
REMARK H PARENT 5 10 5 11 65 43 43 54
REMARK Flexibility Score: inf
ROOT
ATOM      1  C   UNL A   1      32.393  29.073  27.061  1.00  0.00     0.274 C 
ENDROOT
BRANCH   1   2
ATOM      2  O   UNL A   1      33.482  28.320  26.498  1.00  0.00    -0.458 OA
BRANCH   2   3
ATOM      3  C   UNL A   1      33.265  27.849  25.238  1.00  0.00     0.364 C 
ATOM      4  O   UNL A   1      33.811  28.331  24.251  1.00  0.00    -0.245 OA
BRANCH   3   5
ATOM      5  C   UNL A   1      32.400  26.557  25.201  1.00  0.00     0.293 C 
BRANCH   5   6
ATOM      6  C   UNL A   1      32.211  25.996  23.772  1.00  0.00     0.077 C 
BRANCH   6   7
ATOM      7  C   UNL A   1      30.778  25.974  23.218  1.00  0.00     0.003 C 
ATOM      8  C   UNL A   1      29.708  26.412  24.209  1.00  0.00     0.004 C 
ENDBRANCH   6   7
ENDBRANCH   5   6
BRANCH   5   9
ATOM      9  N   UNL A   1      32.914  25.505  26.121  1.00  0.00    -0.334 N 
ATOM     10  H   UNL A   1      32.121  24.944  26.433  1.00  0.00     0.347 HD
ATOM     11  H   UNL A   1      33.386  25.998  26.878  1.00  0.00     0.347 HD
BRANCH   9  12
ATOM     12  C   UNL A   1      33.919  24.593  25.534  1.00  0.00     0.270 C 
BRANCH  12  13
ATOM     13  C   UNL A   1      34.361  23.417  26.443  1.00  0.00     0.086 C 
ATOM     14  C   UNL A   1      33.359  22.241  26.403  1.00  0.00     0.089 C 
ATOM     15  C   UNL A   1      35.718  22.860  26.073  1.00  0.00    -0.025 A 
ATOM     16  S   UNL A   1      34.089  20.887  25.433  1.00  0.00    -0.125 SA
ATOM     17  C   UNL A   1      35.712  21.572  25.541  1.00  0.00     0.011 A 
ATOM     18  C   UNL A   1      36.929  23.538  26.217  1.00  0.00     0.005 A 
ATOM     19  C   UNL A   1      36.891  20.950  25.148  1.00  0.00     0.015 A 
ATOM     20  C   UNL A   1      38.118  22.928  25.815  1.00  0.00     0.000 A 
ATOM     21  C   UNL A   1      38.100  21.636  25.285  1.00  0.00     0.001 A 
ENDBRANCH  12  13
ENDBRANCH   9  12
ENDBRANCH   5   9
ENDBRANCH   3   5
ENDBRANCH   2   3
ENDBRANCH   1   2
BRANCH   1  22
ATOM     22  C   UNL A   1      32.774  30.544  27.266  1.00  0.00     0.275 C 
BRANCH  22  23
ATOM     23  O   UNL A   1      34.188  30.793  27.129  1.00  0.00    -0.458 OA
BRANCH  23  24
ATOM     24  C   UNL A   1      34.818  31.155  28.274  1.00  0.00     0.338 C 
ATOM     25  O   UNL A   1      34.392  31.904  29.138  1.00  0.00    -0.246 OA
BRANCH  24  26
ATOM     26  C   UNL A   1      36.098  30.432  28.427  1.00  0.00     0.060 A 
ATOM     27  C   UNL A   1      37.023  30.332  27.387  1.00  0.00     0.016 A 
ATOM     28  C   UNL A   1      36.410  29.921  29.692  1.00  0.00     0.016 A 
ATOM     29  C   UNL A   1      38.263  29.722  27.625  1.00  0.00     0.010 A 
ATOM     30  C   UNL A   1      37.631  29.290  29.924  1.00  0.00     0.010 A 
ATOM     31  C   UNL A   1      38.575  29.199  28.895  1.00  0.00    -0.014 A 
BRANCH  31  32
ATOM     32  C   UNL A   1      39.936  28.692  29.190  1.00  0.00     0.031 A 
ATOM     33  C   UNL A   1      40.361  27.307  28.815  1.00  0.00     0.074 A 
ATOM     34  C   UNL A   1      40.788  29.492  29.858  1.00  0.00     0.049 A 
ATOM     35  N   UNL A   1      41.560  26.781  28.846  1.00  0.00    -0.248 NA
ATOM     36  C   UNL A   1      39.312  26.388  28.362  1.00  0.00     0.031 C 
ATOM     37  C   UNL A   1      40.465  30.827  30.363  1.00  0.00     0.029 A 
ATOM     38  N   UNL A   1      42.095  29.299  30.224  1.00  0.00    -0.354 N 
ATOM     39  C   UNL A   1      41.415  25.484  28.374  1.00  0.00     0.074 A 
ATOM     40  C   UNL A   1      40.005  25.281  28.124  1.00  0.00     0.031 C 
ATOM     41  C   UNL A   1      41.555  31.345  30.948  1.00  0.00     0.029 A 
ATOM     42  C   UNL A   1      42.649  30.381  30.861  1.00  0.00     0.049 A 
ATOM     43  H   UNL A   1      42.588  28.465  30.048  1.00  0.00     0.167 HD
ATOM     44  C   UNL A   1      42.378  24.557  28.154  1.00  0.00     0.031 A 
ATOM     45  C   UNL A   1      43.905  30.591  31.297  1.00  0.00     0.031 A 
ATOM     46  C   UNL A   1      43.772  24.749  28.459  1.00  0.00     0.049 A 
ATOM     47  C   UNL A   1      44.957  29.546  31.055  1.00  0.00     0.074 A 
ATOM     48  C   UNL A   1      44.834  23.897  28.201  1.00  0.00     0.029 A 
ATOM     49  N   UNL A   1      44.294  25.849  29.119  1.00  0.00    -0.354 N 
ATOM     50  N   UNL A   1      44.842  28.385  30.457  1.00  0.00    -0.248 NA
ATOM     51  C   UNL A   1      46.315  29.850  31.524  1.00  0.00     0.031 C 
ATOM     52  C   UNL A   1      45.985  24.450  28.770  1.00  0.00     0.029 A 
ATOM     53  C   UNL A   1      45.655  25.679  29.319  1.00  0.00     0.049 A 
ATOM     54  H   UNL A   1      43.776  26.636  29.404  1.00  0.00     0.167 HD
ATOM     55  C   UNL A   1      46.114  27.827  30.464  1.00  0.00     0.074 A 
ATOM     56  C   UNL A   1      46.989  28.788  31.102  1.00  0.00     0.031 C 
ATOM     57  C   UNL A   1      46.515  26.625  29.982  1.00  0.00     0.031 A 
BRANCH  44  58
ATOM     58  C   UNL A   1      41.973  23.251  27.528  1.00  0.00    -0.014 A 
ATOM     59  C   UNL A   1      41.477  22.208  28.327  1.00  0.00     0.009 A 
ATOM     60  C   UNL A   1      42.200  23.010  26.163  1.00  0.00     0.009 A 
ATOM     61  C   UNL A   1      41.232  20.948  27.775  1.00  0.00     0.001 A 
ATOM     62  C   UNL A   1      41.932  21.757  25.610  1.00  0.00     0.001 A 
ATOM     63  C   UNL A   1      41.458  20.724  26.419  1.00  0.00     0.000 A 
ENDBRANCH  44  58
BRANCH  45  64
ATOM     64  C   UNL A   1      44.239  31.888  31.938  1.00  0.00    -0.014 A 
ATOM     65  C   UNL A   1      44.024  32.083  33.313  1.00  0.00     0.009 A 
ATOM     66  C   UNL A   1      44.713  32.958  31.166  1.00  0.00     0.009 A 
ATOM     67  C   UNL A   1      44.257  33.330  33.895  1.00  0.00     0.001 A 
ATOM     68  C   UNL A   1      44.972  34.196  31.757  1.00  0.00     0.001 A 
ATOM     69  C   UNL A   1      44.734  34.384  33.118  1.00  0.00     0.000 A 
ENDBRANCH  45  64
BRANCH  57  70
ATOM     70  C   UNL A   1      47.966  26.258  30.143  1.00  0.00    -0.014 A 
ATOM     71  C   UNL A   1      48.858  26.433  29.074  1.00  0.00     0.009 A 
ATOM     72  C   UNL A   1      48.434  25.667  31.328  1.00  0.00     0.009 A 
ATOM     73  C   UNL A   1      50.185  26.013  29.181  1.00  0.00     0.001 A 
ATOM     74  C   UNL A   1      49.771  25.278  31.444  1.00  0.00     0.001 A 
ATOM     75  C   UNL A   1      50.641  25.443  30.368  1.00  0.00     0.000 A 
ENDBRANCH  57  70
ENDBRANCH  31  32
ENDBRANCH  24  26
ENDBRANCH  23  24
ENDBRANCH  22  23
ENDBRANCH   1  22
TORSDOF 16
ENDMDL
MODEL 3
REMARK VINA RESULT:      -9.3      3.217      7.731
REMARK SMILES CCC[C@@H]([NH2+]C[C@H]1CSc2ccccc21)C(=O)OCCOC(=O)c1ccc(-c2c3nc(c(-c4ccccc4)c4ccc([nH]4)c(-c4ccccc4)c4nc(c(-c5ccccc5)c5ccc2[nH]5)C=C4)C=C3)cc1
REMARK SMILES IDX 19 1 18 2 16 3 17 4 4 5 3 6 2 7 1 8 5 9 6 12 7 13 8 14 15 15
REMARK SMILES IDX 9 16 10 17 14 18 11 19 13 20 12 21 20 22 21 23 22 24 23 25
REMARK SMILES IDX 24 26 25 27 71 28 26 29 70 30 27 31 28 32 29 33 64 34 30 35
REMARK SMILES IDX 69 36 63 37 65 38 31 39 68 40 62 41 61 42 32 44 54 45 39 46
REMARK SMILES IDX 53 47 40 48 43 49 52 50 66 51 41 52 42 53 51 55 67 56 44 57
REMARK SMILES IDX 33 58 34 59 38 60 35 61 37 62 36 63 55 64 56 65 60 66 57 67
REMARK SMILES IDX 59 68 58 69 45 70 46 71 50 72 47 73 49 74 48 75
REMARK H PARENT 5 10 5 11 65 43 43 54
REMARK Flexibility Score: inf
ROOT
ATOM      1  C   UNL A   1      36.791  21.740  24.179  1.00  0.00     0.274 C 
ENDROOT
BRANCH   1   2
ATOM      2  O   UNL A   1      35.576  21.197  24.726  1.00  0.00    -0.458 OA
BRANCH   2   3
ATOM      3  C   UNL A   1      34.930  22.007  25.610  1.00  0.00     0.364 C 
ATOM      4  O   UNL A   1      34.960  21.816  26.822  1.00  0.00    -0.245 OA
BRANCH   3   5
ATOM      5  C   UNL A   1      34.301  23.267  24.950  1.00  0.00     0.293 C 
BRANCH   5   6
ATOM      6  C   UNL A   1      32.875  23.017  24.406  1.00  0.00     0.077 C 
BRANCH   6   7
ATOM      7  C   UNL A   1      32.762  22.532  22.952  1.00  0.00     0.003 C 
ATOM      8  C   UNL A   1      33.198  23.550  21.908  1.00  0.00     0.004 C 
ENDBRANCH   6   7
ENDBRANCH   5   6
BRANCH   5   9
ATOM      9  N   UNL A   1      34.326  24.450  25.855  1.00  0.00    -0.334 N 
ATOM     10  H   UNL A   1      35.206  24.943  25.705  1.00  0.00     0.347 HD
ATOM     11  H   UNL A   1      34.219  24.085  26.801  1.00  0.00     0.347 HD
BRANCH   9  12
ATOM     12  C   UNL A   1      33.221  25.414  25.659  1.00  0.00     0.270 C 
BRANCH  12  13
ATOM     13  C   UNL A   1      33.575  26.670  24.822  1.00  0.00     0.086 C 
ATOM     14  C   UNL A   1      32.643  26.838  23.601  1.00  0.00     0.089 C 
ATOM     15  C   UNL A   1      33.502  27.953  25.620  1.00  0.00    -0.025 A 
ATOM     16  S   UNL A   1      31.491  28.206  23.932  1.00  0.00    -0.125 SA
ATOM     17  C   UNL A   1      32.473  28.823  25.262  1.00  0.00     0.011 A 
ATOM     18  C   UNL A   1      34.363  28.299  26.661  1.00  0.00     0.005 A 
ATOM     19  C   UNL A   1      32.288  30.030  25.925  1.00  0.00     0.015 A 
ATOM     20  C   UNL A   1      34.179  29.503  27.342  1.00  0.00     0.000 A 
ATOM     21  C   UNL A   1      33.147  30.368  26.974  1.00  0.00     0.001 A 
ENDBRANCH  12  13
ENDBRANCH   9  12
ENDBRANCH   5   9
ENDBRANCH   3   5
ENDBRANCH   2   3
ENDBRANCH   1   2
BRANCH   1  22
ATOM     22  C   UNL A   1      37.979  21.519  25.123  1.00  0.00     0.275 C 
BRANCH  22  23
ATOM     23  O   UNL A   1      38.182  22.606  26.050  1.00  0.00    -0.458 OA
BRANCH  23  24
ATOM     24  C   UNL A   1      39.480  22.893  26.318  1.00  0.00     0.338 C 
ATOM     25  O   UNL A   1      40.452  22.209  26.043  1.00  0.00    -0.246 OA
BRANCH  24  26
ATOM     26  C   UNL A   1      39.613  24.237  26.917  1.00  0.00     0.060 A 
ATOM     27  C   UNL A   1      39.125  24.535  28.190  1.00  0.00     0.016 A 
ATOM     28  C   UNL A   1      40.337  25.200  26.203  1.00  0.00     0.016 A 
ATOM     29  C   UNL A   1      39.372  25.799  28.744  1.00  0.00     0.010 A 
ATOM     30  C   UNL A   1      40.560  26.466  26.741  1.00  0.00     0.010 A 
ATOM     31  C   UNL A   1      40.092  26.771  28.024  1.00  0.00    -0.014 A 
BRANCH  31  32
ATOM     32  C   UNL A   1      40.484  28.049  28.663  1.00  0.00     0.031 A 
ATOM     33  C   UNL A   1      39.532  29.198  28.781  1.00  0.00     0.074 A 
ATOM     34  C   UNL A   1      41.750  28.186  29.102  1.00  0.00     0.049 A 
ATOM     35  N   UNL A   1      39.667  30.308  29.464  1.00  0.00    -0.248 NA
ATOM     36  C   UNL A   1      38.276  29.103  28.029  1.00  0.00     0.031 C 
ATOM     37  C   UNL A   1      42.800  27.177  28.962  1.00  0.00     0.029 A 
ATOM     38  N   UNL A   1      42.363  29.224  29.755  1.00  0.00    -0.354 N 
ATOM     39  C   UNL A   1      38.494  31.021  29.259  1.00  0.00     0.074 A 
ATOM     40  C   UNL A   1      37.686  30.251  28.339  1.00  0.00     0.031 C 
ATOM     41  C   UNL A   1      43.922  27.635  29.538  1.00  0.00     0.029 A 
ATOM     42  C   UNL A   1      43.669  28.965  30.085  1.00  0.00     0.049 A 
ATOM     43  H   UNL A   1      41.910  30.073  29.965  1.00  0.00     0.167 HD
ATOM     44  C   UNL A   1      38.123  32.203  29.805  1.00  0.00     0.031 A 
ATOM     45  C   UNL A   1      44.558  29.700  30.780  1.00  0.00     0.031 A 
ATOM     46  C   UNL A   1      38.957  32.991  30.676  1.00  0.00     0.049 A 
ATOM     47  C   UNL A   1      44.132  31.015  31.368  1.00  0.00     0.074 A 
ATOM     48  C   UNL A   1      38.640  34.164  31.341  1.00  0.00     0.029 A 
ATOM     49  N   UNL A   1      40.280  32.707  30.974  1.00  0.00    -0.354 N 
ATOM     50  N   UNL A   1      42.962  31.605  31.306  1.00  0.00    -0.248 NA
ATOM     51  C   UNL A   1      45.138  31.752  32.145  1.00  0.00     0.031 C 
ATOM     52  C   UNL A   1      39.793  34.627  31.982  1.00  0.00     0.029 A 
ATOM     53  C   UNL A   1      40.809  33.707  31.776  1.00  0.00     0.049 A 
ATOM     54  H   UNL A   1      40.773  31.914  30.664  1.00  0.00     0.167 HD
ATOM     55  C   UNL A   1      43.087  32.774  32.046  1.00  0.00     0.074 A 
ATOM     56  C   UNL A   1      44.437  32.796  32.569  1.00  0.00     0.031 C 
ATOM     57  C   UNL A   1      42.162  33.739  32.268  1.00  0.00     0.031 A 
BRANCH  44  58
ATOM     58  C   UNL A   1      36.742  32.719  29.507  1.00  0.00    -0.014 A 
ATOM     59  C   UNL A   1      35.662  32.366  30.330  1.00  0.00     0.009 A 
ATOM     60  C   UNL A   1      36.491  33.455  28.337  1.00  0.00     0.009 A 
ATOM     61  C   UNL A   1      34.357  32.725  29.981  1.00  0.00     0.001 A 
ATOM     62  C   UNL A   1      35.189  33.832  28.002  1.00  0.00     0.001 A 
ATOM     63  C   UNL A   1      34.123  33.457  28.819  1.00  0.00     0.000 A 
ENDBRANCH  44  58
BRANCH  45  64
ATOM     64  C   UNL A   1      45.919  29.155  31.015  1.00  0.00    -0.014 A 
ATOM     65  C   UNL A   1      46.964  29.426  30.115  1.00  0.00     0.009 A 
ATOM     66  C   UNL A   1      46.163  28.306  32.104  1.00  0.00     0.009 A 
ATOM     67  C   UNL A   1      48.218  28.840  30.293  1.00  0.00     0.001 A 
ATOM     68  C   UNL A   1      47.427  27.745  32.293  1.00  0.00     0.001 A 
ATOM     69  C   UNL A   1      48.450  28.004  31.383  1.00  0.00     0.000 A 
ENDBRANCH  45  64
BRANCH  57  70
ATOM     70  C   UNL A   1      42.576  34.924  33.099  1.00  0.00    -0.014 A 
ATOM     71  C   UNL A   1      42.277  34.961  34.470  1.00  0.00     0.009 A 
ATOM     72  C   UNL A   1      43.193  36.039  32.509  1.00  0.00     0.009 A 
ATOM     73  C   UNL A   1      42.576  36.092  35.231  1.00  0.00     0.001 A 
ATOM     74  C   UNL A   1      43.521  37.156  33.281  1.00  0.00     0.001 A 
ATOM     75  C   UNL A   1      43.203  37.185  34.638  1.00  0.00     0.000 A 
ENDBRANCH  57  70
ENDBRANCH  31  32
ENDBRANCH  24  26
ENDBRANCH  23  24
ENDBRANCH  22  23
ENDBRANCH   1  22
TORSDOF 16
ENDMDL
