MODEL 1
REMARK VINA RESULT:     -10.7      0.000      0.000
REMARK SMILES O=C(Cc1ccccc1-c1ccn(C(F)F)c(=O)c1)OCCOC(=O)c1ccc(-c2c3nc(c(-c4ccccc4)c4ccc([nH]4)c(-c4ccccc4)c4nc(c(-c5ccccc5)c5ccc2[nH]5)C=C4)C=C3)cc1
REMARK SMILES IDX 21 1 20 2 2 3 1 4 3 5 4 6 5 7 9 8 6 9 8 10 7 11 10 12 11 13
REMARK SMILES IDX 19 14 12 15 17 16 13 17 18 18 14 19 15 20 16 21 22 22 23 23
REMARK SMILES IDX 24 24 25 25 26 26 27 27 73 28 28 29 72 30 29 31 30 32 31 33
REMARK SMILES IDX 66 34 32 35 71 36 65 37 67 38 33 39 70 40 64 41 63 42 34 44
REMARK SMILES IDX 56 45 41 46 55 47 42 48 45 49 54 50 68 51 43 52 44 53 53 55
REMARK SMILES IDX 69 56 46 57 35 58 36 59 40 60 37 61 39 62 38 63 57 64 58 65
REMARK SMILES IDX 62 66 59 67 61 68 60 69 47 70 48 71 52 72 49 73 51 74 50 75
REMARK H PARENT 67 43 45 54
REMARK Flexibility Score: inf
ROOT
ATOM      1  C   UNL A   1      37.945  21.048  25.349  1.00  0.00     0.274 C 
ENDROOT
BRANCH   1   2
ATOM      2  O   UNL A   1      37.123  21.431  24.224  1.00  0.00    -0.462 OA
BRANCH   2   3
ATOM      3  C   UNL A   1      36.597  22.662  24.022  1.00  0.00     0.310 C 
ATOM      4  O   UNL A   1      36.371  23.058  22.879  1.00  0.00    -0.252 OA
BRANCH   3   5
ATOM      5  C   UNL A   1      36.285  23.537  25.213  1.00  0.00     0.158 C 
BRANCH   5   6
ATOM      6  C   UNL A   1      35.025  23.210  25.985  1.00  0.00    -0.029 A 
ATOM      7  C   UNL A   1      34.987  22.086  26.829  1.00  0.00     0.005 A 
ATOM      8  C   UNL A   1      33.845  23.972  25.811  1.00  0.00    -0.014 A 
ATOM      9  C   UNL A   1      33.818  21.738  27.506  1.00  0.00     0.000 A 
ATOM     10  C   UNL A   1      32.673  23.597  26.486  1.00  0.00     0.009 A 
ATOM     11  C   UNL A   1      32.662  22.490  27.332  1.00  0.00     0.001 A 
BRANCH   8  12
ATOM     12  C   UNL A   1      33.786  25.165  24.937  1.00  0.00    -0.011 A 
ATOM     13  C   UNL A   1      33.848  26.520  25.445  1.00  0.00     0.027 A 
ATOM     14  C   UNL A   1      33.679  24.967  23.612  1.00  0.00     0.080 A 
ATOM     15  C   UNL A   1      33.777  27.562  24.608  1.00  0.00     0.095 A 
ATOM     16  C   UNL A   1      33.588  26.116  22.669  1.00  0.00     0.255 A 
ATOM     17  N   UNL A   1      33.627  27.376  23.245  1.00  0.00    -0.258 N 
ATOM     18  O   UNL A   1      33.471  25.880  21.472  1.00  0.00    -0.269 OA
BRANCH  17  19
ATOM     19  C   UNL A   1      33.485  28.502  22.359  1.00  0.00     0.451 C 
ATOM     20  F   UNL A   1      32.188  28.868  22.231  1.00  0.00    -0.185 F 
ATOM     21  F   UNL A   1      34.182  29.569  22.824  1.00  0.00    -0.185 F 
ENDBRANCH  17  19
ENDBRANCH   8  12
ENDBRANCH   5   6
ENDBRANCH   3   5
ENDBRANCH   2   3
ENDBRANCH   1   2
BRANCH   1  22
ATOM     22  C   UNL A   1      38.946  19.958  24.963  1.00  0.00     0.275 C 
BRANCH  22  23
ATOM     23  O   UNL A   1      39.651  19.494  26.128  1.00  0.00    -0.458 OA
BRANCH  23  24
ATOM     24  C   UNL A   1      41.002  19.610  26.090  1.00  0.00     0.338 C 
ATOM     25  O   UNL A   1      41.789  18.852  25.553  1.00  0.00    -0.246 OA
BRANCH  24  26
ATOM     26  C   UNL A   1      41.377  20.936  26.628  1.00  0.00     0.060 A 
ATOM     27  C   UNL A   1      41.849  21.904  25.733  1.00  0.00     0.016 A 
ATOM     28  C   UNL A   1      41.233  21.247  27.982  1.00  0.00     0.016 A 
ATOM     29  C   UNL A   1      42.184  23.181  26.191  1.00  0.00     0.010 A 
ATOM     30  C   UNL A   1      41.571  22.526  28.436  1.00  0.00     0.010 A 
ATOM     31  C   UNL A   1      42.059  23.503  27.550  1.00  0.00    -0.014 A 
BRANCH  31  32
ATOM     32  C   UNL A   1      42.543  24.815  28.060  1.00  0.00     0.031 A 
ATOM     33  C   UNL A   1      41.557  25.932  28.278  1.00  0.00     0.074 A 
ATOM     34  C   UNL A   1      43.845  25.024  28.340  1.00  0.00     0.049 A 
ATOM     35  N   UNL A   1      41.758  27.131  28.769  1.00  0.00    -0.248 NA
ATOM     36  C   UNL A   1      40.166  25.674  27.876  1.00  0.00     0.031 C 
ATOM     37  C   UNL A   1      44.925  24.053  28.161  1.00  0.00     0.029 A 
ATOM     38  N   UNL A   1      44.479  26.136  28.843  1.00  0.00    -0.354 N 
ATOM     39  C   UNL A   1      40.518  27.757  28.749  1.00  0.00     0.074 A 
ATOM     40  C   UNL A   1      39.591  26.840  28.124  1.00  0.00     0.031 C 
ATOM     41  C   UNL A   1      46.084  24.608  28.555  1.00  0.00     0.029 A 
ATOM     42  C   UNL A   1      45.833  25.972  29.017  1.00  0.00     0.049 A 
ATOM     43  H   UNL A   1      44.007  26.973  29.058  1.00  0.00     0.167 HD
ATOM     44  C   UNL A   1      40.163  28.969  29.240  1.00  0.00     0.031 A 
ATOM     45  C   UNL A   1      46.761  26.816  29.508  1.00  0.00     0.031 A 
ATOM     46  C   UNL A   1      41.064  29.896  29.865  1.00  0.00     0.049 A 
ATOM     47  C   UNL A   1      46.350  28.171  30.024  1.00  0.00     0.074 A 
ATOM     48  C   UNL A   1      40.783  31.135  30.416  1.00  0.00     0.029 A 
ATOM     49  N   UNL A   1      42.424  29.688  30.021  1.00  0.00    -0.354 N 
ATOM     50  N   UNL A   1      45.157  28.713  30.071  1.00  0.00    -0.248 NA
ATOM     51  C   UNL A   1      47.415  29.017  30.586  1.00  0.00     0.031 C 
ATOM     52  C   UNL A   1      41.982  31.693  30.871  1.00  0.00     0.029 A 
ATOM     53  C   UNL A   1      42.999  30.781  30.647  1.00  0.00     0.049 A 
ATOM     54  H   UNL A   1      42.911  28.882  29.732  1.00  0.00     0.167 HD
ATOM     55  C   UNL A   1      45.324  29.945  30.697  1.00  0.00     0.074 A 
ATOM     56  C   UNL A   1      46.728  30.063  31.027  1.00  0.00     0.031 C 
ATOM     57  C   UNL A   1      44.395  30.892  30.975  1.00  0.00     0.031 A 
BRANCH  44  58
ATOM     58  C   UNL A   1      38.714  29.345  29.126  1.00  0.00    -0.014 A 
ATOM     59  C   UNL A   1      38.207  29.893  27.935  1.00  0.00     0.009 A 
ATOM     60  C   UNL A   1      37.845  29.144  30.207  1.00  0.00     0.009 A 
ATOM     61  C   UNL A   1      36.867  30.273  27.846  1.00  0.00     0.001 A 
ATOM     62  C   UNL A   1      36.498  29.499  30.104  1.00  0.00     0.001 A 
ATOM     63  C   UNL A   1      36.014  30.072  28.929  1.00  0.00     0.000 A 
ENDBRANCH  44  58
BRANCH  45  64
ATOM     64  C   UNL A   1      48.191  26.409  29.573  1.00  0.00    -0.014 A 
ATOM     65  C   UNL A   1      48.703  25.773  30.716  1.00  0.00     0.009 A 
ATOM     66  C   UNL A   1      49.063  26.713  28.518  1.00  0.00     0.009 A 
ATOM     67  C   UNL A   1      50.066  25.486  30.816  1.00  0.00     0.001 A 
ATOM     68  C   UNL A   1      50.422  26.402  28.610  1.00  0.00     0.001 A 
ATOM     69  C   UNL A   1      50.924  25.801  29.763  1.00  0.00     0.000 A 
ENDBRANCH  45  64
BRANCH  57  70
ATOM     70  C   UNL A   1      44.859  32.124  31.701  1.00  0.00    -0.014 A 
ATOM     71  C   UNL A   1      45.289  33.265  31.005  1.00  0.00     0.009 A 
ATOM     72  C   UNL A   1      44.835  32.155  33.105  1.00  0.00     0.009 A 
ATOM     73  C   UNL A   1      45.722  34.396  31.700  1.00  0.00     0.001 A 
ATOM     74  C   UNL A   1      45.240  33.298  33.797  1.00  0.00     0.001 A 
ATOM     75  C   UNL A   1      45.693  34.413  33.095  1.00  0.00     0.000 A 
ENDBRANCH  57  70
ENDBRANCH  31  32
ENDBRANCH  24  26
ENDBRANCH  23  24
ENDBRANCH  22  23
ENDBRANCH   1  22
TORSDOF 14
ENDMDL
MODEL 2
REMARK VINA RESULT:     -10.6      1.676      6.240
REMARK SMILES O=C(Cc1ccccc1-c1ccn(C(F)F)c(=O)c1)OCCOC(=O)c1ccc(-c2c3nc(c(-c4ccccc4)c4ccc([nH]4)c(-c4ccccc4)c4nc(c(-c5ccccc5)c5ccc2[nH]5)C=C4)C=C3)cc1
REMARK SMILES IDX 21 1 20 2 2 3 1 4 3 5 4 6 5 7 9 8 6 9 8 10 7 11 10 12 11 13
REMARK SMILES IDX 19 14 12 15 17 16 13 17 18 18 14 19 15 20 16 21 22 22 23 23
REMARK SMILES IDX 24 24 25 25 26 26 27 27 73 28 28 29 72 30 29 31 30 32 31 33
REMARK SMILES IDX 66 34 32 35 71 36 65 37 67 38 33 39 70 40 64 41 63 42 34 44
REMARK SMILES IDX 56 45 41 46 55 47 42 48 45 49 54 50 68 51 43 52 44 53 53 55
REMARK SMILES IDX 69 56 46 57 35 58 36 59 40 60 37 61 39 62 38 63 57 64 58 65
REMARK SMILES IDX 62 66 59 67 61 68 60 69 47 70 48 71 52 72 49 73 51 74 50 75
REMARK H PARENT 67 43 45 54
REMARK Flexibility Score: inf
ROOT
ATOM      1  C   UNL A   1      38.106  20.637  25.017  1.00  0.00     0.274 C 
ENDROOT
BRANCH   1   2
ATOM      2  O   UNL A   1      37.797  22.019  24.731  1.00  0.00    -0.462 OA
BRANCH   2   3
ATOM      3  C   UNL A   1      36.656  22.462  24.153  1.00  0.00     0.310 C 
ATOM      4  O   UNL A   1      36.670  22.871  22.992  1.00  0.00    -0.252 OA
BRANCH   3   5
ATOM      5  C   UNL A   1      35.369  22.441  24.943  1.00  0.00     0.158 C 
BRANCH   5   6
ATOM      6  C   UNL A   1      34.366  21.369  24.580  1.00  0.00    -0.029 A 
ATOM      7  C   UNL A   1      34.639  20.020  24.872  1.00  0.00     0.005 A 
ATOM      8  C   UNL A   1      33.183  21.687  23.872  1.00  0.00    -0.014 A 
ATOM      9  C   UNL A   1      33.750  19.013  24.496  1.00  0.00     0.000 A 
ATOM     10  C   UNL A   1      32.309  20.659  23.486  1.00  0.00     0.009 A 
ATOM     11  C   UNL A   1      32.589  19.331  23.800  1.00  0.00     0.001 A 
BRANCH   8  12
ATOM     12  C   UNL A   1      32.816  23.075  23.512  1.00  0.00    -0.011 A 
ATOM     13  C   UNL A   1      32.072  23.950  24.396  1.00  0.00     0.027 A 
ATOM     14  C   UNL A   1      33.206  23.536  22.312  1.00  0.00     0.080 A 
ATOM     15  C   UNL A   1      31.757  25.193  24.012  1.00  0.00     0.095 A 
ATOM     16  C   UNL A   1      32.854  24.913  21.867  1.00  0.00     0.255 A 
ATOM     17  N   UNL A   1      32.116  25.669  22.764  1.00  0.00    -0.258 N 
ATOM     18  O   UNL A   1      33.216  25.277  20.753  1.00  0.00    -0.269 OA
BRANCH  17  19
ATOM     19  C   UNL A   1      31.716  26.984  22.333  1.00  0.00     0.451 C 
ATOM     20  F   UNL A   1      30.761  27.498  23.143  1.00  0.00    -0.185 F 
ATOM     21  F   UNL A   1      32.775  27.832  22.336  1.00  0.00    -0.185 F 
ENDBRANCH  17  19
ENDBRANCH   8  12
ENDBRANCH   5   6
ENDBRANCH   3   5
ENDBRANCH   2   3
ENDBRANCH   1   2
BRANCH   1  22
ATOM     22  C   UNL A   1      39.354  20.514  25.894  1.00  0.00     0.275 C 
BRANCH  22  23
ATOM     23  O   UNL A   1      40.041  19.283  25.612  1.00  0.00    -0.458 OA
BRANCH  23  24
ATOM     24  C   UNL A   1      41.326  19.209  26.042  1.00  0.00     0.338 C 
ATOM     25  O   UNL A   1      42.074  18.252  25.961  1.00  0.00    -0.246 OA
BRANCH  24  26
ATOM     26  C   UNL A   1      41.767  20.563  26.444  1.00  0.00     0.060 A 
ATOM     27  C   UNL A   1      41.858  20.851  27.812  1.00  0.00     0.016 A 
ATOM     28  C   UNL A   1      42.128  21.529  25.501  1.00  0.00     0.016 A 
ATOM     29  C   UNL A   1      42.302  22.106  28.238  1.00  0.00     0.010 A 
ATOM     30  C   UNL A   1      42.569  22.783  25.933  1.00  0.00     0.010 A 
ATOM     31  C   UNL A   1      42.652  23.090  27.302  1.00  0.00    -0.014 A 
BRANCH  31  32
ATOM     32  C   UNL A   1      42.994  24.467  27.753  1.00  0.00     0.031 A 
ATOM     33  C   UNL A   1      44.438  24.895  27.789  1.00  0.00     0.074 A 
ATOM     34  C   UNL A   1      42.038  25.343  28.120  1.00  0.00     0.049 A 
ATOM     35  N   UNL A   1      44.947  26.064  28.091  1.00  0.00    -0.248 NA
ATOM     36  C   UNL A   1      45.440  23.871  27.458  1.00  0.00     0.031 C 
ATOM     37  C   UNL A   1      40.601  25.075  28.162  1.00  0.00     0.029 A 
ATOM     38  N   UNL A   1      42.143  26.653  28.529  1.00  0.00    -0.354 N 
ATOM     39  C   UNL A   1      46.323  25.917  27.969  1.00  0.00     0.074 A 
ATOM     40  C   UNL A   1      46.573  24.529  27.647  1.00  0.00     0.031 C 
ATOM     41  C   UNL A   1      39.959  26.185  28.565  1.00  0.00     0.029 A 
ATOM     42  C   UNL A   1      40.934  27.246  28.808  1.00  0.00     0.049 A 
ATOM     43  H   UNL A   1      43.004  27.122  28.613  1.00  0.00     0.167 HD
ATOM     44  C   UNL A   1      47.297  26.852  28.074  1.00  0.00     0.031 A 
ATOM     45  C   UNL A   1      40.645  28.503  29.197  1.00  0.00     0.031 A 
ATOM     46  C   UNL A   1      47.075  28.235  28.392  1.00  0.00     0.049 A 
ATOM     47  C   UNL A   1      41.746  29.522  29.334  1.00  0.00     0.074 A 
ATOM     48  C   UNL A   1      48.003  29.258  28.491  1.00  0.00     0.029 A 
ATOM     49  N   UNL A   1      45.836  28.791  28.665  1.00  0.00    -0.354 N 
ATOM     50  N   UNL A   1      43.034  29.381  29.135  1.00  0.00    -0.248 NA
ATOM     51  C   UNL A   1      41.344  30.884  29.720  1.00  0.00     0.031 C 
ATOM     52  C   UNL A   1      47.328  30.426  28.862  1.00  0.00     0.029 A 
ATOM     53  C   UNL A   1      45.976  30.139  28.947  1.00  0.00     0.049 A 
ATOM     54  H   UNL A   1      44.982  28.301  28.659  1.00  0.00     0.167 HD
ATOM     55  C   UNL A   1      43.589  30.642  29.337  1.00  0.00     0.074 A 
ATOM     56  C   UNL A   1      42.497  31.536  29.657  1.00  0.00     0.031 C 
ATOM     57  C   UNL A   1      44.887  31.024  29.262  1.00  0.00     0.031 A 
BRANCH  44  58
ATOM     58  C   UNL A   1      48.705  26.393  27.821  1.00  0.00    -0.014 A 
ATOM     59  C   UNL A   1      49.520  25.963  28.882  1.00  0.00     0.009 A 
ATOM     60  C   UNL A   1      49.219  26.378  26.517  1.00  0.00     0.009 A 
ATOM     61  C   UNL A   1      50.838  25.570  28.646  1.00  0.00     0.001 A 
ATOM     62  C   UNL A   1      50.529  25.957  26.281  1.00  0.00     0.001 A 
ATOM     63  C   UNL A   1      51.339  25.564  27.346  1.00  0.00     0.000 A 
ENDBRANCH  44  58
BRANCH  45  64
ATOM     64  C   UNL A   1      39.237  28.902  29.465  1.00  0.00    -0.014 A 
ATOM     65  C   UNL A   1      38.666  28.707  30.733  1.00  0.00     0.009 A 
ATOM     66  C   UNL A   1      38.439  29.422  28.435  1.00  0.00     0.009 A 
ATOM     67  C   UNL A   1      37.315  28.986  30.952  1.00  0.00     0.001 A 
ATOM     68  C   UNL A   1      37.095  29.724  28.664  1.00  0.00     0.001 A 
ATOM     69  C   UNL A   1      36.531  29.495  29.917  1.00  0.00     0.000 A 
ENDBRANCH  45  64
BRANCH  57  70
ATOM     70  C   UNL A   1      45.196  32.477  29.495  1.00  0.00    -0.014 A 
ATOM     71  C   UNL A   1      45.519  32.960  30.773  1.00  0.00     0.009 A 
ATOM     72  C   UNL A   1      45.196  33.371  28.412  1.00  0.00     0.009 A 
ATOM     73  C   UNL A   1      45.797  34.314  30.967  1.00  0.00     0.001 A 
ATOM     74  C   UNL A   1      45.502  34.720  28.605  1.00  0.00     0.001 A 
ATOM     75  C   UNL A   1      45.792  35.192  29.883  1.00  0.00     0.000 A 
ENDBRANCH  57  70
ENDBRANCH  31  32
ENDBRANCH  24  26
ENDBRANCH  23  24
ENDBRANCH  22  23
ENDBRANCH   1  22
TORSDOF 14
ENDMDL
MODEL 3
REMARK VINA RESULT:     -10.6      4.489      9.035
REMARK SMILES O=C(Cc1ccccc1-c1ccn(C(F)F)c(=O)c1)OCCOC(=O)c1ccc(-c2c3nc(c(-c4ccccc4)c4ccc([nH]4)c(-c4ccccc4)c4nc(c(-c5ccccc5)c5ccc2[nH]5)C=C4)C=C3)cc1
REMARK SMILES IDX 21 1 20 2 2 3 1 4 3 5 4 6 5 7 9 8 6 9 8 10 7 11 10 12 11 13
REMARK SMILES IDX 19 14 12 15 17 16 13 17 18 18 14 19 15 20 16 21 22 22 23 23
REMARK SMILES IDX 24 24 25 25 26 26 27 27 73 28 28 29 72 30 29 31 30 32 31 33
REMARK SMILES IDX 66 34 32 35 71 36 65 37 67 38 33 39 70 40 64 41 63 42 34 44
REMARK SMILES IDX 56 45 41 46 55 47 42 48 45 49 54 50 68 51 43 52 44 53 53 55
REMARK SMILES IDX 69 56 46 57 35 58 36 59 40 60 37 61 39 62 38 63 57 64 58 65
REMARK SMILES IDX 62 66 59 67 61 68 60 69 47 70 48 71 52 72 49 73 51 74 50 75
REMARK H PARENT 67 43 45 54
REMARK Flexibility Score: inf
ROOT
ATOM      1  C   UNL A   1      32.162  31.788  27.133  1.00  0.00     0.274 C 
ENDROOT
BRANCH   1   2
ATOM      2  O   UNL A   1      33.042  30.665  27.358  1.00  0.00    -0.462 OA
BRANCH   2   3
ATOM      3  C   UNL A   1      33.041  29.514  26.645  1.00  0.00     0.310 C 
ATOM      4  O   UNL A   1      34.084  29.101  26.138  1.00  0.00    -0.252 OA
BRANCH   3   5
ATOM      5  C   UNL A   1      31.752  28.745  26.484  1.00  0.00     0.158 C 
BRANCH   5   6
ATOM      6  C   UNL A   1      31.303  28.460  25.067  1.00  0.00    -0.029 A 
ATOM      7  C   UNL A   1      30.800  29.500  24.265  1.00  0.00     0.005 A 
ATOM      8  C   UNL A   1      31.302  27.141  24.554  1.00  0.00    -0.014 A 
ATOM      9  C   UNL A   1      30.332  29.245  22.975  1.00  0.00     0.000 A 
ATOM     10  C   UNL A   1      30.811  26.901  23.262  1.00  0.00     0.009 A 
ATOM     11  C   UNL A   1      30.333  27.948  22.476  1.00  0.00     0.001 A 
BRANCH   8  12
ATOM     12  C   UNL A   1      31.803  25.983  25.327  1.00  0.00    -0.011 A 
ATOM     13  C   UNL A   1      33.208  25.639  25.414  1.00  0.00     0.027 A 
ATOM     14  C   UNL A   1      30.903  25.229  25.981  1.00  0.00     0.080 A 
ATOM     15  C   UNL A   1      33.602  24.571  26.119  1.00  0.00     0.095 A 
ATOM     16  C   UNL A   1      31.326  24.032  26.760  1.00  0.00     0.255 A 
ATOM     17  N   UNL A   1      32.685  23.763  26.765  1.00  0.00    -0.258 N 
ATOM     18  O   UNL A   1      30.462  23.367  27.322  1.00  0.00    -0.269 OA
BRANCH  17  19
ATOM     19  C   UNL A   1      33.111  22.578  27.466  1.00  0.00     0.451 C 
ATOM     20  F   UNL A   1      33.160  21.507  26.639  1.00  0.00    -0.185 F 
ATOM     21  F   UNL A   1      34.345  22.756  28.001  1.00  0.00    -0.185 F 
ENDBRANCH  17  19
ENDBRANCH   8  12
ENDBRANCH   5   6
ENDBRANCH   3   5
ENDBRANCH   2   3
ENDBRANCH   1   2
BRANCH   1  22
ATOM     22  C   UNL A   1      32.914  33.116  27.235  1.00  0.00     0.275 C 
BRANCH  22  23
ATOM     23  O   UNL A   1      32.134  34.075  27.971  1.00  0.00    -0.458 OA
BRANCH  23  24
ATOM     24  C   UNL A   1      32.837  35.024  28.638  1.00  0.00     0.338 C 
ATOM     25  O   UNL A   1      32.475  36.156  28.904  1.00  0.00    -0.246 OA
BRANCH  24  26
ATOM     26  C   UNL A   1      34.061  34.403  29.192  1.00  0.00     0.060 A 
ATOM     27  C   UNL A   1      35.248  34.508  28.457  1.00  0.00     0.016 A 
ATOM     28  C   UNL A   1      34.061  33.762  30.434  1.00  0.00     0.016 A 
ATOM     29  C   UNL A   1      36.435  33.965  28.958  1.00  0.00     0.010 A 
ATOM     30  C   UNL A   1      35.250  33.219  30.929  1.00  0.00     0.010 A 
ATOM     31  C   UNL A   1      36.446  33.304  30.195  1.00  0.00    -0.014 A 
BRANCH  31  32
ATOM     32  C   UNL A   1      37.677  32.610  30.664  1.00  0.00     0.031 A 
ATOM     33  C   UNL A   1      38.369  33.095  31.910  1.00  0.00     0.074 A 
ATOM     34  C   UNL A   1      38.179  31.548  30.003  1.00  0.00     0.049 A 
ATOM     35  N   UNL A   1      39.416  32.599  32.523  1.00  0.00    -0.248 NA
ATOM     36  C   UNL A   1      37.824  34.307  32.540  1.00  0.00     0.031 C 
ATOM     37  C   UNL A   1      37.639  30.972  28.772  1.00  0.00     0.029 A 
ATOM     38  N   UNL A   1      39.269  30.759  30.288  1.00  0.00    -0.354 N 
ATOM     39  C   UNL A   1      39.640  33.427  33.615  1.00  0.00     0.074 A 
ATOM     40  C   UNL A   1      38.675  34.502  33.536  1.00  0.00     0.031 C 
ATOM     41  C   UNL A   1      38.394  29.920  28.412  1.00  0.00     0.029 A 
ATOM     42  C   UNL A   1      39.469  29.741  29.385  1.00  0.00     0.049 A 
ATOM     43  H   UNL A   1      39.853  30.909  31.067  1.00  0.00     0.167 HD
ATOM     44  C   UNL A   1      40.537  33.294  34.621  1.00  0.00     0.031 A 
ATOM     45  C   UNL A   1      40.400  28.767  29.355  1.00  0.00     0.031 A 
ATOM     46  C   UNL A   1      41.504  32.237  34.722  1.00  0.00     0.049 A 
ATOM     47  C   UNL A   1      41.407  28.653  30.471  1.00  0.00     0.074 A 
ATOM     48  C   UNL A   1      42.433  32.011  35.724  1.00  0.00     0.029 A 
ATOM     49  N   UNL A   1      41.669  31.229  33.788  1.00  0.00    -0.354 N 
ATOM     50  N   UNL A   1      41.550  29.401  31.538  1.00  0.00    -0.248 NA
ATOM     51  C   UNL A   1      42.362  27.536  30.388  1.00  0.00     0.031 C 
ATOM     52  C   UNL A   1      43.187  30.886  35.374  1.00  0.00     0.029 A 
ATOM     53  C   UNL A   1      42.695  30.386  34.181  1.00  0.00     0.049 A 
ATOM     54  H   UNL A   1      41.136  31.126  32.966  1.00  0.00     0.167 HD
ATOM     55  C   UNL A   1      42.585  28.824  32.269  1.00  0.00     0.074 A 
ATOM     56  C   UNL A   1      43.022  27.658  31.533  1.00  0.00     0.031 C 
ATOM     57  C   UNL A   1      43.123  29.226  33.446  1.00  0.00     0.031 A 
BRANCH  44  58
ATOM     58  C   UNL A   1      40.492  34.330  35.708  1.00  0.00    -0.014 A 
ATOM     59  C   UNL A   1      41.272  35.496  35.620  1.00  0.00     0.009 A 
ATOM     60  C   UNL A   1      39.660  34.149  36.821  1.00  0.00     0.009 A 
ATOM     61  C   UNL A   1      41.252  36.438  36.649  1.00  0.00     0.001 A 
ATOM     62  C   UNL A   1      39.620  35.108  37.835  1.00  0.00     0.001 A 
ATOM     63  C   UNL A   1      40.424  36.245  37.753  1.00  0.00     0.000 A 
ENDBRANCH  44  58
BRANCH  45  64
ATOM     64  C   UNL A   1      40.423  27.782  28.241  1.00  0.00    -0.014 A 
ATOM     65  C   UNL A   1      39.749  26.556  28.356  1.00  0.00     0.009 A 
ATOM     66  C   UNL A   1      41.173  28.038  27.084  1.00  0.00     0.009 A 
ATOM     67  C   UNL A   1      39.859  25.590  27.353  1.00  0.00     0.001 A 
ATOM     68  C   UNL A   1      41.260  27.080  26.070  1.00  0.00     0.001 A 
ATOM     69  C   UNL A   1      40.614  25.854  26.210  1.00  0.00     0.000 A 
ENDBRANCH  45  64
BRANCH  57  70
ATOM     70  C   UNL A   1      44.220  28.379  34.030  1.00  0.00    -0.014 A 
ATOM     71  C   UNL A   1      43.939  27.174  34.694  1.00  0.00     0.009 A 
ATOM     72  C   UNL A   1      45.559  28.779  33.886  1.00  0.00     0.009 A 
ATOM     73  C   UNL A   1      44.974  26.408  35.234  1.00  0.00     0.001 A 
ATOM     74  C   UNL A   1      46.593  27.995  34.402  1.00  0.00     0.001 A 
ATOM     75  C   UNL A   1      46.299  26.817  35.084  1.00  0.00     0.000 A 
ENDBRANCH  57  70
ENDBRANCH  31  32
ENDBRANCH  24  26
ENDBRANCH  23  24
ENDBRANCH  22  23
ENDBRANCH   1  22
TORSDOF 14
ENDMDL
