MODEL 1
REMARK VINA RESULT:     -12.4      0.000      0.000
REMARK SMILES O=C(OCCOC(=O)c1cnccc1C(=O)N1CCC(Cc2ccccc2)CC1)c1ccc(-c2c3nc(c(-c4ccccc4)c4ccc([nH]4)c(-c4ccccc4)c4nc(c(-c5ccccc5)c5ccc2[nH]5)C=C4)C=C3)cc1
REMARK SMILES IDX 5 1 4 2 3 3 2 4 1 5 30 6 31 7 77 8 32 9 76 10 33 11 34 12
REMARK SMILES IDX 35 13 70 14 36 15 75 16 69 17 71 18 37 19 74 20 68 21 67 22
REMARK SMILES IDX 38 24 60 25 45 26 59 27 46 28 49 29 58 30 72 31 47 32 48 33
REMARK SMILES IDX 57 35 73 36 50 37 39 38 40 39 44 40 41 41 43 42 42 43 61 44
REMARK SMILES IDX 62 45 66 46 63 47 65 48 64 49 51 50 52 51 56 52 53 53 55 54
REMARK SMILES IDX 54 55 6 56 7 57 8 58 9 59 10 60 14 61 11 62 13 63 12 64
REMARK SMILES IDX 15 65 16 66 17 67 18 68 29 69 19 70 28 71 20 72 21 73 22 74
REMARK SMILES IDX 23 75 27 76 24 77 26 78 25 79
REMARK H PARENT 71 23 49 34
REMARK Flexibility Score: inf
ROOT
ATOM      1  C   UNL A   1      32.604  30.910  26.802  1.00  0.00     0.275 C 
ENDROOT
BRANCH   1   2
ATOM      2  C   UNL A   1      31.604  32.051  26.964  1.00  0.00     0.275 C 
BRANCH   2   3
ATOM      3  O   UNL A   1      32.202  33.359  26.993  1.00  0.00    -0.458 OA
BRANCH   3   4
ATOM      4  C   UNL A   1      32.929  33.966  27.959  1.00  0.00     0.338 C 
ATOM      5  O   UNL A   1      32.527  35.047  28.389  1.00  0.00    -0.246 OA
BRANCH   4   6
ATOM      6  C   UNL A   1      34.210  33.424  28.531  1.00  0.00     0.060 A 
ATOM      7  C   UNL A   1      35.500  33.811  28.166  1.00  0.00     0.016 A 
ATOM      8  C   UNL A   1      34.085  32.460  29.553  1.00  0.00     0.016 A 
ATOM      9  C   UNL A   1      36.620  33.325  28.841  1.00  0.00     0.010 A 
ATOM     10  C   UNL A   1      35.205  31.952  30.223  1.00  0.00     0.010 A 
ATOM     11  C   UNL A   1      36.480  32.388  29.864  1.00  0.00    -0.014 A 
BRANCH  11  12
ATOM     12  C   UNL A   1      37.708  31.764  30.399  1.00  0.00     0.031 A 
ATOM     13  C   UNL A   1      38.091  32.082  31.804  1.00  0.00     0.074 A 
ATOM     14  C   UNL A   1      38.359  30.813  29.707  1.00  0.00     0.049 A 
ATOM     15  N   UNL A   1      39.010  31.525  32.544  1.00  0.00    -0.248 NA
ATOM     16  C   UNL A   1      37.303  33.125  32.482  1.00  0.00     0.031 C 
ATOM     17  C   UNL A   1      37.970  30.358  28.384  1.00  0.00     0.029 A 
ATOM     18  N   UNL A   1      39.446  30.038  30.012  1.00  0.00    -0.354 N 
ATOM     19  C   UNL A   1      38.878  32.114  33.790  1.00  0.00     0.074 A 
ATOM     20  C   UNL A   1      37.831  33.107  33.695  1.00  0.00     0.031 C 
ATOM     21  C   UNL A   1      38.810  29.398  27.966  1.00  0.00     0.029 A 
ATOM     22  C   UNL A   1      39.803  29.170  29.004  1.00  0.00     0.049 A 
ATOM     23  H   UNL A   1      39.926  30.097  30.870  1.00  0.00     0.167 HD
ATOM     24  C   UNL A   1      39.561  31.828  34.919  1.00  0.00     0.031 A 
ATOM     25  C   UNL A   1      40.816  28.288  28.933  1.00  0.00     0.031 A 
ATOM     26  C   UNL A   1      40.649  30.895  34.973  1.00  0.00     0.049 A 
ATOM     27  C   UNL A   1      41.673  28.119  30.156  1.00  0.00     0.074 A 
ATOM     28  C   UNL A   1      41.483  30.600  36.034  1.00  0.00     0.029 A 
ATOM     29  N   UNL A   1      41.069  30.117  33.901  1.00  0.00    -0.354 N 
ATOM     30  N   UNL A   1      41.545  28.688  31.333  1.00  0.00    -0.248 NA
ATOM     31  C   UNL A   1      42.792  27.176  30.059  1.00  0.00     0.031 C 
ATOM     32  C   UNL A   1      42.445  29.687  35.588  1.00  0.00     0.029 A 
ATOM     33  C   UNL A   1      42.168  29.360  34.268  1.00  0.00     0.049 A 
ATOM     34  H   UNL A   1      40.646  30.105  33.012  1.00  0.00     0.167 HD
ATOM     35  C   UNL A   1      42.547  28.151  32.124  1.00  0.00     0.074 A 
ATOM     36  C   UNL A   1      43.255  27.189  31.300  1.00  0.00     0.031 C 
ATOM     37  C   UNL A   1      42.858  28.425  33.415  1.00  0.00     0.031 A 
BRANCH  24  38
ATOM     38  C   UNL A   1      39.168  32.598  36.144  1.00  0.00    -0.014 A 
ATOM     39  C   UNL A   1      39.796  33.812  36.471  1.00  0.00     0.009 A 
ATOM     40  C   UNL A   1      38.200  32.076  37.012  1.00  0.00     0.009 A 
ATOM     41  C   UNL A   1      39.487  34.468  37.664  1.00  0.00     0.001 A 
ATOM     42  C   UNL A   1      37.875  32.747  38.191  1.00  0.00     0.001 A 
ATOM     43  C   UNL A   1      38.525  33.935  38.521  1.00  0.00     0.000 A 
ENDBRANCH  24  38
BRANCH  25  44
ATOM     44  C   UNL A   1      41.093  27.529  27.681  1.00  0.00    -0.014 A 
ATOM     45  C   UNL A   1      40.570  26.245  27.467  1.00  0.00     0.009 A 
ATOM     46  C   UNL A   1      41.942  28.077  26.704  1.00  0.00     0.009 A 
ATOM     47  C   UNL A   1      40.927  25.511  26.330  1.00  0.00     0.001 A 
ATOM     48  C   UNL A   1      42.271  27.355  25.554  1.00  0.00     0.001 A 
ATOM     49  C   UNL A   1      41.777  26.065  25.375  1.00  0.00     0.000 A 
ENDBRANCH  25  44
BRANCH  37  50
ATOM     50  C   UNL A   1      44.003  27.653  34.006  1.00  0.00    -0.014 A 
ATOM     51  C   UNL A   1      43.803  26.407  34.619  1.00  0.00     0.009 A 
ATOM     52  C   UNL A   1      45.303  28.177  33.929  1.00  0.00     0.009 A 
ATOM     53  C   UNL A   1      44.877  25.722  35.187  1.00  0.00     0.001 A 
ATOM     54  C   UNL A   1      46.380  27.472  34.464  1.00  0.00     0.001 A 
ATOM     55  C   UNL A   1      46.165  26.253  35.104  1.00  0.00     0.000 A 
ENDBRANCH  37  50
ENDBRANCH  11  12
ENDBRANCH   4   6
ENDBRANCH   3   4
ENDBRANCH   2   3
ENDBRANCH   1   2
BRANCH   1  56
ATOM     56  O   UNL A   1      31.960  29.635  26.630  1.00  0.00    -0.458 OA
BRANCH  56  57
ATOM     57  C   UNL A   1      32.429  28.842  25.640  1.00  0.00     0.340 C 
ATOM     58  O   UNL A   1      33.587  28.493  25.460  1.00  0.00    -0.246 OA
BRANCH  57  59
ATOM     59  C   UNL A   1      31.330  28.362  24.811  1.00  0.00     0.091 A 
ATOM     60  C   UNL A   1      30.760  29.323  23.978  1.00  0.00     0.127 A 
ATOM     61  C   UNL A   1      30.776  27.080  24.824  1.00  0.00     0.057 A 
ATOM     62  N   UNL A   1      29.740  29.082  23.121  1.00  0.00    -0.264 NA
ATOM     63  C   UNL A   1      29.689  26.833  23.960  1.00  0.00     0.035 A 
ATOM     64  C   UNL A   1      29.229  27.838  23.126  1.00  0.00     0.112 A 
BRANCH  61  65
ATOM     65  C   UNL A   1      31.237  25.896  25.624  1.00  0.00     0.254 C 
ATOM     66  O   UNL A   1      31.021  25.858  26.834  1.00  0.00    -0.269 OA
ATOM     67  N   UNL A   1      31.768  24.802  24.968  1.00  0.00    -0.339 N 
ATOM     68  C   UNL A   1      30.989  23.563  24.902  1.00  0.00     0.120 C 
ATOM     69  C   UNL A   1      33.198  24.764  24.698  1.00  0.00     0.120 C 
ATOM     70  C   UNL A   1      31.727  22.314  25.386  1.00  0.00     0.025 C 
ATOM     71  C   UNL A   1      33.883  23.528  25.247  1.00  0.00     0.025 C 
ATOM     72  C   UNL A   1      33.145  22.255  24.804  1.00  0.00    -0.003 C 
BRANCH  72  73
ATOM     73  C   UNL A   1      33.960  21.037  25.257  1.00  0.00     0.039 C 
BRANCH  73  74
ATOM     74  C   UNL A   1      33.671  19.735  24.554  1.00  0.00    -0.048 A 
ATOM     75  C   UNL A   1      34.605  18.692  24.628  1.00  0.00     0.004 A 
ATOM     76  C   UNL A   1      32.526  19.564  23.765  1.00  0.00     0.004 A 
ATOM     77  C   UNL A   1      34.411  17.510  23.914  1.00  0.00     0.000 A 
ATOM     78  C   UNL A   1      32.331  18.378  23.052  1.00  0.00     0.000 A 
ATOM     79  C   UNL A   1      33.276  17.355  23.121  1.00  0.00     0.000 A 
ENDBRANCH  73  74
ENDBRANCH  72  73
ENDBRANCH  61  65
ENDBRANCH  57  59
ENDBRANCH  56  57
ENDBRANCH   1  56
TORSDOF 14
ENDMDL
MODEL 2
REMARK VINA RESULT:     -12.2      4.507      9.704
REMARK SMILES O=C(OCCOC(=O)c1cnccc1C(=O)N1CCC(Cc2ccccc2)CC1)c1ccc(-c2c3nc(c(-c4ccccc4)c4ccc([nH]4)c(-c4ccccc4)c4nc(c(-c5ccccc5)c5ccc2[nH]5)C=C4)C=C3)cc1
REMARK SMILES IDX 5 1 4 2 3 3 2 4 1 5 30 6 31 7 77 8 32 9 76 10 33 11 34 12
REMARK SMILES IDX 35 13 70 14 36 15 75 16 69 17 71 18 37 19 74 20 68 21 67 22
REMARK SMILES IDX 38 24 60 25 45 26 59 27 46 28 49 29 58 30 72 31 47 32 48 33
REMARK SMILES IDX 57 35 73 36 50 37 39 38 40 39 44 40 41 41 43 42 42 43 61 44
REMARK SMILES IDX 62 45 66 46 63 47 65 48 64 49 51 50 52 51 56 52 53 53 55 54
REMARK SMILES IDX 54 55 6 56 7 57 8 58 9 59 10 60 14 61 11 62 13 63 12 64
REMARK SMILES IDX 15 65 16 66 17 67 18 68 29 69 19 70 28 71 20 72 21 73 22 74
REMARK SMILES IDX 23 75 27 76 24 77 26 78 25 79
REMARK H PARENT 71 23 49 34
REMARK Flexibility Score: inf
ROOT
ATOM      1  C   UNL A   1      37.849  20.870  25.274  1.00  0.00     0.275 C 
ENDROOT
BRANCH   1   2
ATOM      2  C   UNL A   1      38.558  19.585  24.861  1.00  0.00     0.275 C 
BRANCH   2   3
ATOM      3  O   UNL A   1      39.539  19.122  25.806  1.00  0.00    -0.458 OA
BRANCH   3   4
ATOM      4  C   UNL A   1      40.821  19.510  25.994  1.00  0.00     0.338 C 
ATOM      5  O   UNL A   1      41.714  18.733  25.657  1.00  0.00    -0.246 OA
BRANCH   4   6
ATOM      6  C   UNL A   1      41.236  20.817  26.610  1.00  0.00     0.060 A 
ATOM      7  C   UNL A   1      41.275  21.106  27.975  1.00  0.00     0.016 A 
ATOM      8  C   UNL A   1      41.653  21.829  25.720  1.00  0.00     0.016 A 
ATOM      9  C   UNL A   1      41.785  22.317  28.445  1.00  0.00     0.010 A 
ATOM     10  C   UNL A   1      42.148  23.054  26.182  1.00  0.00     0.010 A 
ATOM     11  C   UNL A   1      42.214  23.299  27.553  1.00  0.00    -0.014 A 
BRANCH  11  12
ATOM     12  C   UNL A   1      42.550  24.629  28.103  1.00  0.00     0.031 A 
ATOM     13  C   UNL A   1      43.992  24.960  28.280  1.00  0.00     0.074 A 
ATOM     14  C   UNL A   1      41.603  25.567  28.275  1.00  0.00     0.049 A 
ATOM     15  N   UNL A   1      44.535  26.111  28.569  1.00  0.00    -0.248 NA
ATOM     16  C   UNL A   1      44.953  23.869  28.049  1.00  0.00     0.031 C 
ATOM     17  C   UNL A   1      40.192  25.360  28.002  1.00  0.00     0.029 A 
ATOM     18  N   UNL A   1      41.668  26.874  28.679  1.00  0.00    -0.354 N 
ATOM     19  C   UNL A   1      45.900  25.895  28.506  1.00  0.00     0.074 A 
ATOM     20  C   UNL A   1      46.107  24.495  28.205  1.00  0.00     0.031 C 
ATOM     21  C   UNL A   1      39.505  26.483  28.263  1.00  0.00     0.029 A 
ATOM     22  C   UNL A   1      40.441  27.497  28.724  1.00  0.00     0.049 A 
ATOM     23  H   UNL A   1      42.511  27.324  28.915  1.00  0.00     0.167 HD
ATOM     24  C   UNL A   1      46.892  26.797  28.663  1.00  0.00     0.031 A 
ATOM     25  C   UNL A   1      40.114  28.749  29.093  1.00  0.00     0.031 A 
ATOM     26  C   UNL A   1      46.668  28.165  29.038  1.00  0.00     0.049 A 
ATOM     27  C   UNL A   1      41.238  29.686  29.435  1.00  0.00     0.074 A 
ATOM     28  C   UNL A   1      47.597  29.144  29.329  1.00  0.00     0.029 A 
ATOM     29  N   UNL A   1      45.412  28.738  29.197  1.00  0.00    -0.354 N 
ATOM     30  N   UNL A   1      42.532  29.469  29.379  1.00  0.00    -0.248 NA
ATOM     31  C   UNL A   1      40.868  31.039  29.862  1.00  0.00     0.031 C 
ATOM     32  C   UNL A   1      46.904  30.295  29.721  1.00  0.00     0.029 A 
ATOM     33  C   UNL A   1      45.542  30.053  29.607  1.00  0.00     0.049 A 
ATOM     34  H   UNL A   1      44.557  28.278  29.040  1.00  0.00     0.167 HD
ATOM     35  C   UNL A   1      43.131  30.666  29.736  1.00  0.00     0.074 A 
ATOM     36  C   UNL A   1      42.058  31.612  29.977  1.00  0.00     0.031 C 
ATOM     37  C   UNL A   1      44.450  30.961  29.855  1.00  0.00     0.031 A 
BRANCH  24  38
ATOM     38  C   UNL A   1      48.290  26.284  28.489  1.00  0.00    -0.014 A 
ATOM     39  C   UNL A   1      48.980  25.683  29.555  1.00  0.00     0.009 A 
ATOM     40  C   UNL A   1      48.945  26.456  27.262  1.00  0.00     0.009 A 
ATOM     41  C   UNL A   1      50.313  25.298  29.405  1.00  0.00     0.001 A 
ATOM     42  C   UNL A   1      50.269  26.046  27.107  1.00  0.00     0.001 A 
ATOM     43  C   UNL A   1      50.955  25.478  28.180  1.00  0.00     0.000 A 
ENDBRANCH  24  38
BRANCH  25  44
ATOM     44  C   UNL A   1      38.690  29.179  29.185  1.00  0.00    -0.014 A 
ATOM     45  C   UNL A   1      38.028  29.774  28.099  1.00  0.00     0.009 A 
ATOM     46  C   UNL A   1      37.994  29.044  30.398  1.00  0.00     0.009 A 
ATOM     47  C   UNL A   1      36.725  30.263  28.241  1.00  0.00     0.001 A 
ATOM     48  C   UNL A   1      36.681  29.503  30.528  1.00  0.00     0.001 A 
ATOM     49  C   UNL A   1      36.053  30.129  29.454  1.00  0.00     0.000 A 
ENDBRANCH  25  44
BRANCH  37  50
ATOM     50  C   UNL A   1      44.787  32.371  30.245  1.00  0.00    -0.014 A 
ATOM     51  C   UNL A   1      44.937  32.740  31.590  1.00  0.00     0.009 A 
ATOM     52  C   UNL A   1      44.974  33.339  29.245  1.00  0.00     0.009 A 
ATOM     53  C   UNL A   1      45.221  34.064  31.929  1.00  0.00     0.001 A 
ATOM     54  C   UNL A   1      45.295  34.652  29.586  1.00  0.00     0.001 A 
ATOM     55  C   UNL A   1      45.405  35.016  30.926  1.00  0.00     0.000 A 
ENDBRANCH  37  50
ENDBRANCH  11  12
ENDBRANCH   4   6
ENDBRANCH   3   4
ENDBRANCH   2   3
ENDBRANCH   1   2
BRANCH   1  56
ATOM     56  O   UNL A   1      36.574  21.029  24.625  1.00  0.00    -0.458 OA
BRANCH  56  57
ATOM     57  C   UNL A   1      35.477  20.994  25.415  1.00  0.00     0.340 C 
ATOM     58  O   UNL A   1      35.359  21.471  26.534  1.00  0.00    -0.246 OA
BRANCH  57  59
ATOM     59  C   UNL A   1      34.369  20.357  24.715  1.00  0.00     0.091 A 
ATOM     60  C   UNL A   1      34.394  18.963  24.721  1.00  0.00     0.127 A 
ATOM     61  C   UNL A   1      33.350  21.000  24.009  1.00  0.00     0.057 A 
ATOM     62  N   UNL A   1      33.453  18.180  24.142  1.00  0.00    -0.264 NA
ATOM     63  C   UNL A   1      32.388  20.189  23.372  1.00  0.00     0.035 A 
ATOM     64  C   UNL A   1      32.465  18.811  23.484  1.00  0.00     0.112 A 
BRANCH  61  65
ATOM     65  C   UNL A   1      33.122  22.479  23.883  1.00  0.00     0.254 C 
ATOM     66  O   UNL A   1      33.717  23.115  23.016  1.00  0.00    -0.269 OA
ATOM     67  N   UNL A   1      32.140  23.079  24.648  1.00  0.00    -0.339 N 
ATOM     68  C   UNL A   1      30.915  23.548  23.996  1.00  0.00     0.120 C 
ATOM     69  C   UNL A   1      32.480  23.574  25.975  1.00  0.00     0.120 C 
ATOM     70  C   UNL A   1      30.558  25.008  24.276  1.00  0.00     0.025 C 
ATOM     71  C   UNL A   1      32.150  25.039  26.174  1.00  0.00     0.025 C 
ATOM     72  C   UNL A   1      30.696  25.330  25.769  1.00  0.00    -0.003 C 
BRANCH  72  73
ATOM     73  C   UNL A   1      30.371  26.786  26.131  1.00  0.00     0.039 C 
BRANCH  73  74
ATOM     74  C   UNL A   1      31.531  27.749  26.148  1.00  0.00    -0.048 A 
ATOM     75  C   UNL A   1      32.048  28.223  24.934  1.00  0.00     0.004 A 
ATOM     76  C   UNL A   1      32.156  28.127  27.344  1.00  0.00     0.004 A 
ATOM     77  C   UNL A   1      33.176  29.041  24.912  1.00  0.00     0.000 A 
ATOM     78  C   UNL A   1      33.285  28.950  27.320  1.00  0.00     0.000 A 
ATOM     79  C   UNL A   1      33.799  29.400  26.105  1.00  0.00     0.000 A 
ENDBRANCH  73  74
ENDBRANCH  72  73
ENDBRANCH  61  65
ENDBRANCH  57  59
ENDBRANCH  56  57
ENDBRANCH   1  56
TORSDOF 14
ENDMDL
MODEL 3
REMARK VINA RESULT:     -12.0      4.583      9.853
REMARK SMILES O=C(OCCOC(=O)c1cnccc1C(=O)N1CCC(Cc2ccccc2)CC1)c1ccc(-c2c3nc(c(-c4ccccc4)c4ccc([nH]4)c(-c4ccccc4)c4nc(c(-c5ccccc5)c5ccc2[nH]5)C=C4)C=C3)cc1
REMARK SMILES IDX 5 1 4 2 3 3 2 4 1 5 30 6 31 7 77 8 32 9 76 10 33 11 34 12
REMARK SMILES IDX 35 13 70 14 36 15 75 16 69 17 71 18 37 19 74 20 68 21 67 22
REMARK SMILES IDX 38 24 60 25 45 26 59 27 46 28 49 29 58 30 72 31 47 32 48 33
REMARK SMILES IDX 57 35 73 36 50 37 39 38 40 39 44 40 41 41 43 42 42 43 61 44
REMARK SMILES IDX 62 45 66 46 63 47 65 48 64 49 51 50 52 51 56 52 53 53 55 54
REMARK SMILES IDX 54 55 6 56 7 57 8 58 9 59 10 60 14 61 11 62 13 63 12 64
REMARK SMILES IDX 15 65 16 66 17 67 18 68 29 69 19 70 28 71 20 72 21 73 22 74
REMARK SMILES IDX 23 75 27 76 24 77 26 78 25 79
REMARK H PARENT 71 23 49 34
REMARK Flexibility Score: inf
ROOT
ATOM      1  C   UNL A   1      38.191  21.036  25.340  1.00  0.00     0.275 C 
ENDROOT
BRANCH   1   2
ATOM      2  C   UNL A   1      38.597  19.620  25.736  1.00  0.00     0.275 C 
BRANCH   2   3
ATOM      3  O   UNL A   1      39.945  19.270  25.375  1.00  0.00    -0.458 OA
BRANCH   3   4
ATOM      4  C   UNL A   1      41.110  19.504  26.021  1.00  0.00     0.338 C 
ATOM      5  O   UNL A   1      41.898  18.566  26.145  1.00  0.00    -0.246 OA
BRANCH   4   6
ATOM      6  C   UNL A   1      41.504  20.825  26.621  1.00  0.00     0.060 A 
ATOM      7  C   UNL A   1      41.524  21.134  27.982  1.00  0.00     0.016 A 
ATOM      8  C   UNL A   1      41.921  21.827  25.721  1.00  0.00     0.016 A 
ATOM      9  C   UNL A   1      42.015  22.358  28.440  1.00  0.00     0.010 A 
ATOM     10  C   UNL A   1      42.397  23.064  26.169  1.00  0.00     0.010 A 
ATOM     11  C   UNL A   1      42.444  23.331  27.537  1.00  0.00    -0.014 A 
BRANCH  11  12
ATOM     12  C   UNL A   1      42.760  24.672  28.071  1.00  0.00     0.031 A 
ATOM     13  C   UNL A   1      44.197  25.032  28.232  1.00  0.00     0.074 A 
ATOM     14  C   UNL A   1      41.797  25.594  28.241  1.00  0.00     0.049 A 
ATOM     15  N   UNL A   1      44.720  26.196  28.505  1.00  0.00    -0.248 NA
ATOM     16  C   UNL A   1      45.176  23.957  28.004  1.00  0.00     0.031 C 
ATOM     17  C   UNL A   1      40.387  25.357  27.982  1.00  0.00     0.029 A 
ATOM     18  N   UNL A   1      41.840  26.906  28.631  1.00  0.00    -0.354 N 
ATOM     19  C   UNL A   1      46.089  26.005  28.432  1.00  0.00     0.074 A 
ATOM     20  C   UNL A   1      46.320  24.606  28.144  1.00  0.00     0.031 C 
ATOM     21  C   UNL A   1      39.682  26.470  28.237  1.00  0.00     0.029 A 
ATOM     22  C   UNL A   1      40.602  27.506  28.680  1.00  0.00     0.049 A 
ATOM     23  H   UNL A   1      42.677  27.374  28.855  1.00  0.00     0.167 HD
ATOM     24  C   UNL A   1      47.065  26.928  28.572  1.00  0.00     0.031 A 
ATOM     25  C   UNL A   1      40.254  28.755  29.039  1.00  0.00     0.031 A 
ATOM     26  C   UNL A   1      46.818  28.294  28.935  1.00  0.00     0.049 A 
ATOM     27  C   UNL A   1      41.364  29.717  29.362  1.00  0.00     0.074 A 
ATOM     28  C   UNL A   1      47.731  29.294  29.207  1.00  0.00     0.029 A 
ATOM     29  N   UNL A   1      45.553  28.846  29.099  1.00  0.00    -0.354 N 
ATOM     30  N   UNL A   1      42.661  29.524  29.297  1.00  0.00    -0.248 NA
ATOM     31  C   UNL A   1      40.972  31.068  29.778  1.00  0.00     0.031 C 
ATOM     32  C   UNL A   1      47.019  30.435  29.594  1.00  0.00     0.029 A 
ATOM     33  C   UNL A   1      45.661  30.167  29.494  1.00  0.00     0.049 A 
ATOM     34  H   UNL A   1      44.705  28.367  28.953  1.00  0.00     0.167 HD
ATOM     35  C   UNL A   1      43.241  30.736  29.636  1.00  0.00     0.074 A 
ATOM     36  C   UNL A   1      42.152  31.664  29.877  1.00  0.00     0.031 C 
ATOM     37  C   UNL A   1      44.554  31.057  29.741  1.00  0.00     0.031 A 
BRANCH  24  38
ATOM     38  C   UNL A   1      48.470  26.439  28.391  1.00  0.00    -0.014 A 
ATOM     39  C   UNL A   1      49.191  25.888  29.464  1.00  0.00     0.009 A 
ATOM     40  C   UNL A   1      49.102  26.585  27.148  1.00  0.00     0.009 A 
ATOM     41  C   UNL A   1      50.529  25.527  29.304  1.00  0.00     0.001 A 
ATOM     42  C   UNL A   1      50.432  26.199  26.985  1.00  0.00     0.001 A 
ATOM     43  C   UNL A   1      51.148  25.681  28.063  1.00  0.00     0.000 A 
ENDBRANCH  24  38
BRANCH  25  44
ATOM     44  C   UNL A   1      38.823  29.160  29.138  1.00  0.00    -0.014 A 
ATOM     45  C   UNL A   1      38.105  29.038  30.337  1.00  0.00     0.009 A 
ATOM     46  C   UNL A   1      38.147  29.627  27.998  1.00  0.00     0.009 A 
ATOM     47  C   UNL A   1      36.736  29.328  30.380  1.00  0.00     0.001 A 
ATOM     48  C   UNL A   1      36.788  29.947  28.051  1.00  0.00     0.001 A 
ATOM     49  C   UNL A   1      36.079  29.781  29.238  1.00  0.00     0.000 A 
ENDBRANCH  25  44
BRANCH  37  50
ATOM     50  C   UNL A   1      44.868  32.477  30.114  1.00  0.00    -0.014 A 
ATOM     51  C   UNL A   1      44.969  33.482  29.140  1.00  0.00     0.009 A 
ATOM     52  C   UNL A   1      45.046  32.814  31.466  1.00  0.00     0.009 A 
ATOM     53  C   UNL A   1      45.291  34.789  29.508  1.00  0.00     0.001 A 
ATOM     54  C   UNL A   1      45.329  34.128  31.833  1.00  0.00     0.001 A 
ATOM     55  C   UNL A   1      45.466  35.111  30.855  1.00  0.00     0.000 A 
ENDBRANCH  37  50
ENDBRANCH  11  12
ENDBRANCH   4   6
ENDBRANCH   3   4
ENDBRANCH   2   3
ENDBRANCH   1   2
BRANCH   1  56
ATOM     56  O   UNL A   1      36.943  21.071  24.624  1.00  0.00    -0.458 OA
BRANCH  56  57
ATOM     57  C   UNL A   1      35.944  21.799  25.171  1.00  0.00     0.340 C 
ATOM     58  O   UNL A   1      36.055  22.754  25.925  1.00  0.00    -0.246 OA
BRANCH  57  59
ATOM     59  C   UNL A   1      34.652  21.341  24.674  1.00  0.00     0.091 A 
ATOM     60  C   UNL A   1      34.344  20.016  24.976  1.00  0.00     0.127 A 
ATOM     61  C   UNL A   1      33.753  22.071  23.894  1.00  0.00     0.057 A 
ATOM     62  N   UNL A   1      33.191  19.400  24.621  1.00  0.00    -0.264 NA
ATOM     63  C   UNL A   1      32.568  21.423  23.489  1.00  0.00     0.035 A 
ATOM     64  C   UNL A   1      32.323  20.120  23.889  1.00  0.00     0.112 A 
BRANCH  61  65
ATOM     65  C   UNL A   1      33.875  23.506  23.466  1.00  0.00     0.254 C 
ATOM     66  O   UNL A   1      34.813  23.850  22.751  1.00  0.00    -0.269 OA
ATOM     67  N   UNL A   1      32.853  24.388  23.762  1.00  0.00    -0.339 N 
ATOM     68  C   UNL A   1      31.995  24.874  22.679  1.00  0.00     0.120 C 
ATOM     69  C   UNL A   1      32.881  25.104  25.029  1.00  0.00     0.120 C 
ATOM     70  C   UNL A   1      31.873  26.395  22.589  1.00  0.00     0.025 C 
ATOM     71  C   UNL A   1      32.809  26.610  24.873  1.00  0.00     0.025 C 
ATOM     72  C   UNL A   1      31.628  27.008  23.974  1.00  0.00    -0.003 C 
BRANCH  72  73
ATOM     73  C   UNL A   1      31.511  28.538  23.972  1.00  0.00     0.039 C 
BRANCH  73  74
ATOM     74  C   UNL A   1      30.172  29.110  23.582  1.00  0.00    -0.048 A 
ATOM     75  C   UNL A   1      29.930  30.479  23.764  1.00  0.00     0.004 A 
ATOM     76  C   UNL A   1      29.134  28.295  23.111  1.00  0.00     0.004 A 
ATOM     77  C   UNL A   1      28.673  31.020  23.499  1.00  0.00     0.000 A 
ATOM     78  C   UNL A   1      27.875  28.840  22.843  1.00  0.00     0.000 A 
ATOM     79  C   UNL A   1      27.644  30.200  23.044  1.00  0.00     0.000 A 
ENDBRANCH  73  74
ENDBRANCH  72  73
ENDBRANCH  61  65
ENDBRANCH  57  59
ENDBRANCH  56  57
ENDBRANCH   1  56
TORSDOF 14
ENDMDL
