MODEL 1
REMARK VINA RESULT:     -12.5      0.000      0.000
REMARK SMILES Cc1c(CC(=O)N[C@H](CO)C(=O)OCCOC(=O)c2ccc(-c3c4nc(c(-c5ccccc5)c5ccc([nH]5)c(-c5ccccc5)c5nc(c(-c6ccccc6)c6ccc3[nH]6)C=C5)C=C4)cc2)cc(-c2ccc(S(C)(=O)=O)cc2)n1-c1cccc(F)c1
REMARK SMILES IDX 13 1 11 2 12 3 8 4 7 5 5 6 6 7 4 9 3 10 1 11 2 12 79 13
REMARK SMILES IDX 67 14 68 15 80 16 81 17 86 18 82 19 84 20 83 21 85 22 69 23
REMARK SMILES IDX 70 24 78 25 71 26 77 27 72 28 73 29 74 30 75 31 76 32 9 33
REMARK SMILES IDX 10 34 14 36 15 37 16 38 17 39 18 40 19 41 20 42 66 43 21 44
REMARK SMILES IDX 65 45 22 46 23 47 24 48 59 49 25 50 64 51 58 52 60 53 26 54
REMARK SMILES IDX 63 55 57 56 56 57 27 59 49 60 34 61 48 62 35 63 38 64 47 65
REMARK SMILES IDX 61 66 36 67 37 68 46 70 62 71 39 72 28 73 29 74 33 75 30 76
REMARK SMILES IDX 32 77 31 78 50 79 51 80 55 81 52 82 54 83 53 84 40 85 41 86
REMARK SMILES IDX 45 87 42 88 44 89 43 90
REMARK H PARENT 7 8 10 35 60 58 38 69
REMARK Flexibility Score: inf
ROOT
ATOM      1  O   UNL A   1      31.151  29.832  24.800  1.00  0.00    -0.460 OA
ENDROOT
BRANCH   1   2
ATOM      2  C   UNL A   1      30.090  30.473  24.247  1.00  0.00     0.331 C 
ATOM      3  O   UNL A   1      29.871  31.673  24.380  1.00  0.00    -0.250 OA
BRANCH   2   4
ATOM      4  C   UNL A   1      29.117  29.525  23.517  1.00  0.00     0.218 C 
BRANCH   4   5
ATOM      5  N   UNL A   1      29.753  28.712  22.458  1.00  0.00    -0.341 N 
ATOM      6  C   UNL A   1      30.386  27.504  22.514  1.00  0.00     0.225 C 
ATOM      7  O   UNL A   1      31.088  27.188  21.549  1.00  0.00    -0.275 OA
ATOM      8  H   UNL A   1      29.715  29.112  21.559  1.00  0.00     0.164 HD
BRANCH   6   9
ATOM      9  C   UNL A   1      30.167  26.540  23.667  1.00  0.00     0.137 C 
BRANCH   9  10
ATOM     10  C   UNL A   1      31.207  25.470  23.816  1.00  0.00    -0.017 A 
ATOM     11  C   UNL A   1      33.349  26.870  24.183  1.00  0.00     0.065 C 
ATOM     12  C   UNL A   1      32.570  25.597  24.070  1.00  0.00     0.024 A 
ATOM     13  N   UNL A   1      33.140  24.320  24.078  1.00  0.00    -0.313 N 
ATOM     14  C   UNL A   1      30.974  24.095  23.602  1.00  0.00     0.033 A 
ATOM     15  C   UNL A   1      32.135  23.390  23.832  1.00  0.00     0.053 A 
BRANCH  13  16
ATOM     16  C   UNL A   1      34.510  23.994  24.263  1.00  0.00     0.049 A 
ATOM     17  C   UNL A   1      35.248  23.482  23.183  1.00  0.00     0.027 A 
ATOM     18  C   UNL A   1      35.093  24.106  25.526  1.00  0.00     0.065 A 
ATOM     19  C   UNL A   1      36.569  23.073  23.370  1.00  0.00     0.005 A 
ATOM     20  C   UNL A   1      36.403  23.671  25.698  1.00  0.00     0.125 A 
ATOM     21  C   UNL A   1      37.143  23.157  24.636  1.00  0.00     0.039 A 
ATOM     22  F   UNL A   1      36.958  23.725  26.916  1.00  0.00    -0.207 F 
ENDBRANCH  13  16
BRANCH  15  23
ATOM     23  C   UNL A   1      32.247  21.929  23.899  1.00  0.00    -0.001 A 
ATOM     24  C   UNL A   1      32.120  21.143  22.745  1.00  0.00     0.011 A 
ATOM     25  C   UNL A   1      32.599  21.319  25.110  1.00  0.00     0.011 A 
ATOM     26  C   UNL A   1      32.333  19.763  22.802  1.00  0.00     0.021 A 
ATOM     27  C   UNL A   1      32.807  19.942  25.177  1.00  0.00     0.021 A 
ATOM     28  C   UNL A   1      32.667  19.170  24.024  1.00  0.00     0.067 A 
BRANCH  28  29
ATOM     29  S   UNL A   1      32.957  17.418  24.083  1.00  0.00     0.175 S 
ATOM     30  C   UNL A   1      34.647  17.288  24.603  1.00  0.00     0.163 C 
ATOM     31  O   UNL A   1      32.113  16.871  25.108  1.00  0.00    -0.224 OA
ATOM     32  O   UNL A   1      32.891  16.919  22.708  1.00  0.00    -0.224 OA
ENDBRANCH  28  29
ENDBRANCH  15  23
ENDBRANCH   9  10
ENDBRANCH   6   9
ENDBRANCH   4   5
BRANCH   4  33
ATOM     33  C   UNL A   1      27.756  30.086  23.071  1.00  0.00     0.193 C 
BRANCH  33  34
ATOM     34  O   UNL A   1      26.743  29.072  23.148  1.00  0.00    -0.394 OA
ATOM     35  H   UNL A   1      26.012  29.386  23.704  1.00  0.00     0.210 HD
ENDBRANCH  33  34
ENDBRANCH   4  33
ENDBRANCH   2   4
ENDBRANCH   1   2
BRANCH   1  36
ATOM     36  C   UNL A   1      31.739  30.422  25.983  1.00  0.00     0.274 C 
BRANCH  36  37
ATOM     37  C   UNL A   1      33.218  30.017  26.085  1.00  0.00     0.275 C 
BRANCH  37  38
ATOM     38  O   UNL A   1      33.719  29.972  27.450  1.00  0.00    -0.458 OA
BRANCH  38  39
ATOM     39  C   UNL A   1      34.628  30.922  27.806  1.00  0.00     0.338 C 
ATOM     40  O   UNL A   1      34.435  32.124  27.802  1.00  0.00    -0.246 OA
BRANCH  39  41
ATOM     41  C   UNL A   1      35.929  30.279  28.194  1.00  0.00     0.060 A 
ATOM     42  C   UNL A   1      36.881  30.029  27.220  1.00  0.00     0.016 A 
ATOM     43  C   UNL A   1      36.194  29.804  29.493  1.00  0.00     0.016 A 
ATOM     44  C   UNL A   1      38.084  29.359  27.560  1.00  0.00     0.010 A 
ATOM     45  C   UNL A   1      37.394  29.068  29.818  1.00  0.00     0.010 A 
ATOM     46  C   UNL A   1      38.385  28.813  28.857  1.00  0.00    -0.014 A 
BRANCH  46  47
ATOM     47  C   UNL A   1      39.457  27.663  28.897  1.00  0.00     0.031 A 
ATOM     48  C   UNL A   1      40.387  28.077  29.985  1.00  0.00     0.074 A 
ATOM     49  C   UNL A   1      39.857  26.534  28.205  1.00  0.00     0.049 A 
ATOM     50  N   UNL A   1      41.016  29.212  29.901  1.00  0.00    -0.248 NA
ATOM     51  C   UNL A   1      40.362  27.478  31.320  1.00  0.00     0.031 C 
ATOM     52  C   UNL A   1      39.304  25.996  26.955  1.00  0.00     0.029 A 
ATOM     53  N   UNL A   1      40.866  25.570  28.473  1.00  0.00    -0.354 N 
ATOM     54  C   UNL A   1      41.675  29.377  31.095  1.00  0.00     0.074 A 
ATOM     55  C   UNL A   1      41.070  28.395  31.986  1.00  0.00     0.031 C 
ATOM     56  C   UNL A   1      39.847  24.781  26.655  1.00  0.00     0.029 A 
ATOM     57  C   UNL A   1      40.856  24.406  27.642  1.00  0.00     0.049 A 
ATOM     58  H   UNL A   1      41.532  25.697  29.186  1.00  0.00     0.167 HD
ATOM     59  C   UNL A   1      42.986  29.742  31.021  1.00  0.00     0.031 A 
ATOM     60  C   UNL A   1      41.622  23.254  27.694  1.00  0.00     0.031 A 
ATOM     61  C   UNL A   1      43.856  28.610  31.199  1.00  0.00     0.049 A 
ATOM     62  C   UNL A   1      42.857  23.586  28.416  1.00  0.00     0.074 A 
ATOM     63  C   UNL A   1      43.898  27.600  32.141  1.00  0.00     0.029 A 
ATOM     64  N   UNL A   1      44.516  28.139  30.081  1.00  0.00    -0.354 N 
ATOM     65  N   UNL A   1      43.837  24.207  27.831  1.00  0.00    -0.248 NA
ATOM     66  C   UNL A   1      43.117  23.152  29.783  1.00  0.00     0.031 C 
ATOM     67  C   UNL A   1      44.120  26.420  31.396  1.00  0.00     0.029 A 
ATOM     68  C   UNL A   1      44.553  26.759  30.121  1.00  0.00     0.049 A 
ATOM     69  H   UNL A   1      44.901  28.700  29.370  1.00  0.00     0.167 HD
ATOM     70  C   UNL A   1      44.542  24.706  28.883  1.00  0.00     0.074 A 
ATOM     71  C   UNL A   1      44.258  23.812  29.989  1.00  0.00     0.031 C 
ATOM     72  C   UNL A   1      44.789  26.040  28.889  1.00  0.00     0.031 A 
BRANCH  59  73
ATOM     73  C   UNL A   1      43.260  30.882  30.082  1.00  0.00    -0.014 A 
ATOM     74  C   UNL A   1      44.005  30.640  28.923  1.00  0.00     0.009 A 
ATOM     75  C   UNL A   1      42.937  32.216  30.402  1.00  0.00     0.009 A 
ATOM     76  C   UNL A   1      44.474  31.707  28.148  1.00  0.00     0.001 A 
ATOM     77  C   UNL A   1      43.435  33.279  29.650  1.00  0.00     0.001 A 
ATOM     78  C   UNL A   1      44.213  33.023  28.527  1.00  0.00     0.000 A 
ENDBRANCH  59  73
BRANCH  60  79
ATOM     79  C   UNL A   1      41.724  21.835  27.131  1.00  0.00    -0.014 A 
ATOM     80  C   UNL A   1      42.636  21.573  26.057  1.00  0.00     0.009 A 
ATOM     81  C   UNL A   1      41.286  20.704  27.827  1.00  0.00     0.009 A 
ATOM     82  C   UNL A   1      43.173  20.304  25.783  1.00  0.00     0.001 A 
ATOM     83  C   UNL A   1      41.800  19.416  27.527  1.00  0.00     0.001 A 
ATOM     84  C   UNL A   1      42.767  19.220  26.538  1.00  0.00     0.000 A 
ENDBRANCH  60  79
BRANCH  72  85
ATOM     85  C   UNL A   1      45.079  26.696  27.546  1.00  0.00    -0.014 A 
ATOM     86  C   UNL A   1      44.105  27.240  26.679  1.00  0.00     0.009 A 
ATOM     87  C   UNL A   1      46.406  26.703  27.094  1.00  0.00     0.009 A 
ATOM     88  C   UNL A   1      44.428  27.687  25.392  1.00  0.00     0.001 A 
ATOM     89  C   UNL A   1      46.739  27.195  25.826  1.00  0.00     0.001 A 
ATOM     90  C   UNL A   1      45.748  27.664  24.966  1.00  0.00     0.000 A 
ENDBRANCH  72  85
ENDBRANCH  46  47
ENDBRANCH  39  41
ENDBRANCH  38  39
ENDBRANCH  37  38
ENDBRANCH  36  37
ENDBRANCH   1  36
TORSDOF 19
ENDMDL
MODEL 2
REMARK VINA RESULT:     -11.3      3.393      8.980
REMARK SMILES Cc1c(CC(=O)N[C@H](CO)C(=O)OCCOC(=O)c2ccc(-c3c4nc(c(-c5ccccc5)c5ccc([nH]5)c(-c5ccccc5)c5nc(c(-c6ccccc6)c6ccc3[nH]6)C=C5)C=C4)cc2)cc(-c2ccc(S(C)(=O)=O)cc2)n1-c1cccc(F)c1
REMARK SMILES IDX 13 1 11 2 12 3 8 4 7 5 5 6 6 7 4 9 3 10 1 11 2 12 79 13
REMARK SMILES IDX 67 14 68 15 80 16 81 17 86 18 82 19 84 20 83 21 85 22 69 23
REMARK SMILES IDX 70 24 78 25 71 26 77 27 72 28 73 29 74 30 75 31 76 32 9 33
REMARK SMILES IDX 10 34 14 36 15 37 16 38 17 39 18 40 19 41 20 42 66 43 21 44
REMARK SMILES IDX 65 45 22 46 23 47 24 48 59 49 25 50 64 51 58 52 60 53 26 54
REMARK SMILES IDX 63 55 57 56 56 57 27 59 49 60 34 61 48 62 35 63 38 64 47 65
REMARK SMILES IDX 61 66 36 67 37 68 46 70 62 71 39 72 28 73 29 74 33 75 30 76
REMARK SMILES IDX 32 77 31 78 50 79 51 80 55 81 52 82 54 83 53 84 40 85 41 86
REMARK SMILES IDX 45 87 42 88 44 89 43 90
REMARK H PARENT 7 8 10 35 60 58 38 69
REMARK Flexibility Score: inf
ROOT
ATOM      1  O   UNL A   1      35.345  21.103  25.664  1.00  0.00    -0.460 OA
ENDROOT
BRANCH   1   2
ATOM      2  C   UNL A   1      34.413  21.246  24.688  1.00  0.00     0.331 C 
ATOM      3  O   UNL A   1      34.465  22.107  23.814  1.00  0.00    -0.250 OA
BRANCH   2   4
ATOM      4  C   UNL A   1      33.215  20.287  24.841  1.00  0.00     0.218 C 
BRANCH   4   5
ATOM      5  N   UNL A   1      32.115  20.830  25.667  1.00  0.00    -0.341 N 
ATOM      6  C   UNL A   1      31.401  21.988  25.558  1.00  0.00     0.225 C 
ATOM      7  O   UNL A   1      30.747  22.344  26.543  1.00  0.00    -0.275 OA
ATOM      8  H   UNL A   1      31.853  20.259  26.425  1.00  0.00     0.164 HD
BRANCH   6   9
ATOM      9  C   UNL A   1      31.330  22.765  24.255  1.00  0.00     0.137 C 
BRANCH   9  10
ATOM     10  C   UNL A   1      31.346  24.257  24.394  1.00  0.00    -0.017 A 
ATOM     11  C   UNL A   1      33.353  24.613  25.984  1.00  0.00     0.065 C 
ATOM     12  C   UNL A   1      32.228  25.066  25.108  1.00  0.00     0.024 A 
ATOM     13  N   UNL A   1      31.814  26.395  24.978  1.00  0.00    -0.313 N 
ATOM     14  C   UNL A   1      30.349  25.117  23.887  1.00  0.00     0.033 A 
ATOM     15  C   UNL A   1      30.674  26.423  24.181  1.00  0.00     0.053 A 
BRANCH  13  16
ATOM     16  C   UNL A   1      32.408  27.540  25.574  1.00  0.00     0.049 A 
ATOM     17  C   UNL A   1      33.808  27.640  25.626  1.00  0.00     0.027 A 
ATOM     18  C   UNL A   1      31.607  28.514  26.170  1.00  0.00     0.065 A 
ATOM     19  C   UNL A   1      34.407  28.714  26.286  1.00  0.00     0.005 A 
ATOM     20  C   UNL A   1      32.223  29.564  26.843  1.00  0.00     0.125 A 
ATOM     21  C   UNL A   1      33.610  29.672  26.907  1.00  0.00     0.039 A 
ATOM     22  F   UNL A   1      31.466  30.479  27.465  1.00  0.00    -0.207 F 
ENDBRANCH  13  16
BRANCH  15  23
ATOM     23  C   UNL A   1      29.990  27.611  23.659  1.00  0.00    -0.001 A 
ATOM     24  C   UNL A   1      28.592  27.654  23.564  1.00  0.00     0.011 A 
ATOM     25  C   UNL A   1      30.734  28.759  23.358  1.00  0.00     0.011 A 
ATOM     26  C   UNL A   1      27.946  28.827  23.165  1.00  0.00     0.021 A 
ATOM     27  C   UNL A   1      30.098  29.932  22.953  1.00  0.00     0.021 A 
ATOM     28  C   UNL A   1      28.707  29.958  22.853  1.00  0.00     0.067 A 
BRANCH  28  29
ATOM     29  S   UNL A   1      27.875  31.451  22.368  1.00  0.00     0.175 S 
ATOM     30  C   UNL A   1      29.139  32.691  22.476  1.00  0.00     0.163 C 
ATOM     31  O   UNL A   1      27.486  31.306  20.993  1.00  0.00    -0.224 OA
ATOM     32  O   UNL A   1      26.885  31.754  23.403  1.00  0.00    -0.224 OA
ENDBRANCH  28  29
ENDBRANCH  15  23
ENDBRANCH   9  10
ENDBRANCH   6   9
ENDBRANCH   4   5
BRANCH   4  33
ATOM     33  C   UNL A   1      33.505  18.812  25.169  1.00  0.00     0.193 C 
BRANCH  33  34
ATOM     34  O   UNL A   1      32.352  18.192  25.758  1.00  0.00    -0.394 OA
ATOM     35  H   UNL A   1      32.218  18.541  26.653  1.00  0.00     0.210 HD
ENDBRANCH  33  34
ENDBRANCH   4  33
ENDBRANCH   2   4
ENDBRANCH   1   2
BRANCH   1  36
ATOM     36  C   UNL A   1      36.698  20.798  25.250  1.00  0.00     0.274 C 
BRANCH  36  37
ATOM     37  C   UNL A   1      37.446  22.099  24.919  1.00  0.00     0.275 C 
BRANCH  37  38
ATOM     38  O   UNL A   1      37.894  22.829  26.093  1.00  0.00    -0.458 OA
BRANCH  38  39
ATOM     39  C   UNL A   1      39.237  22.878  26.316  1.00  0.00     0.338 C 
ATOM     40  O   UNL A   1      40.022  21.970  26.109  1.00  0.00    -0.246 OA
BRANCH  39  41
ATOM     41  C   UNL A   1      39.625  24.218  26.874  1.00  0.00     0.060 A 
ATOM     42  C   UNL A   1      39.069  24.642  28.070  1.00  0.00     0.016 A 
ATOM     43  C   UNL A   1      40.446  25.130  26.184  1.00  0.00     0.016 A 
ATOM     44  C   UNL A   1      39.372  25.933  28.573  1.00  0.00     0.010 A 
ATOM     45  C   UNL A   1      40.700  26.465  26.673  1.00  0.00     0.010 A 
ATOM     46  C   UNL A   1      40.165  26.920  27.889  1.00  0.00    -0.014 A 
BRANCH  46  47
ATOM     47  C   UNL A   1      39.931  28.417  28.309  1.00  0.00     0.031 A 
ATOM     48  C   UNL A   1      41.307  28.976  28.427  1.00  0.00     0.074 A 
ATOM     49  C   UNL A   1      38.928  29.283  28.705  1.00  0.00     0.049 A 
ATOM     50  N   UNL A   1      42.150  28.447  29.265  1.00  0.00    -0.248 NA
ATOM     51  C   UNL A   1      41.904  29.835  27.404  1.00  0.00     0.031 C 
ATOM     52  C   UNL A   1      37.508  28.983  28.926  1.00  0.00     0.029 A 
ATOM     53  N   UNL A   1      38.942  30.675  28.992  1.00  0.00    -0.354 N 
ATOM     54  C   UNL A   1      43.353  29.074  29.048  1.00  0.00     0.074 A 
ATOM     55  C   UNL A   1      43.187  29.753  27.769  1.00  0.00     0.031 C 
ATOM     56  C   UNL A   1      36.790  30.120  29.155  1.00  0.00     0.029 A 
ATOM     57  C   UNL A   1      37.663  31.292  29.165  1.00  0.00     0.049 A 
ATOM     58  H   UNL A   1      39.781  31.183  29.068  1.00  0.00     0.167 HD
ATOM     59  C   UNL A   1      44.014  29.524  30.152  1.00  0.00     0.031 A 
ATOM     60  C   UNL A   1      37.320  32.619  29.356  1.00  0.00     0.031 A 
ATOM     61  C   UNL A   1      43.812  30.935  30.346  1.00  0.00     0.049 A 
ATOM     62  C   UNL A   1      38.502  33.299  29.900  1.00  0.00     0.074 A 
ATOM     63  C   UNL A   1      43.913  32.020  29.497  1.00  0.00     0.029 A 
ATOM     64  N   UNL A   1      42.988  31.318  31.385  1.00  0.00    -0.354 N 
ATOM     65  N   UNL A   1      38.819  33.205  31.155  1.00  0.00    -0.248 NA
ATOM     66  C   UNL A   1      39.327  34.206  29.111  1.00  0.00     0.031 C 
ATOM     67  C   UNL A   1      42.774  32.808  29.781  1.00  0.00     0.029 A 
ATOM     68  C   UNL A   1      42.223  32.398  30.988  1.00  0.00     0.049 A 
ATOM     69  H   UNL A   1      42.953  30.889  32.271  1.00  0.00     0.167 HD
ATOM     70  C   UNL A   1      40.134  33.560  31.157  1.00  0.00     0.074 A 
ATOM     71  C   UNL A   1      40.296  34.423  30.002  1.00  0.00     0.031 C 
ATOM     72  C   UNL A   1      41.011  32.691  31.719  1.00  0.00     0.031 A 
BRANCH  59  73
ATOM     73  C   UNL A   1      44.112  28.521  31.266  1.00  0.00    -0.014 A 
ATOM     74  C   UNL A   1      45.182  27.619  31.271  1.00  0.00     0.009 A 
ATOM     75  C   UNL A   1      43.085  28.346  32.215  1.00  0.00     0.009 A 
ATOM     76  C   UNL A   1      45.185  26.531  32.153  1.00  0.00     0.001 A 
ATOM     77  C   UNL A   1      43.072  27.242  33.068  1.00  0.00     0.001 A 
ATOM     78  C   UNL A   1      44.118  26.329  33.029  1.00  0.00     0.000 A 
ENDBRANCH  59  73
BRANCH  60  79
ATOM     79  C   UNL A   1      36.126  33.577  29.370  1.00  0.00    -0.014 A 
ATOM     80  C   UNL A   1      35.538  33.979  28.127  1.00  0.00     0.009 A 
ATOM     81  C   UNL A   1      35.328  33.785  30.499  1.00  0.00     0.009 A 
ATOM     82  C   UNL A   1      34.213  34.429  28.001  1.00  0.00     0.001 A 
ATOM     83  C   UNL A   1      34.002  34.273  30.378  1.00  0.00     0.001 A 
ATOM     84  C   UNL A   1      33.432  34.557  29.134  1.00  0.00     0.000 A 
ENDBRANCH  60  79
BRANCH  72  85
ATOM     85  C   UNL A   1      40.543  31.938  32.956  1.00  0.00    -0.014 A 
ATOM     86  C   UNL A   1      40.236  32.531  34.202  1.00  0.00     0.009 A 
ATOM     87  C   UNL A   1      40.475  30.540  32.885  1.00  0.00     0.009 A 
ATOM     88  C   UNL A   1      39.963  31.761  35.339  1.00  0.00     0.001 A 
ATOM     89  C   UNL A   1      40.151  29.770  34.009  1.00  0.00     0.001 A 
ATOM     90  C   UNL A   1      39.920  30.378  35.240  1.00  0.00     0.000 A 
ENDBRANCH  72  85
ENDBRANCH  46  47
ENDBRANCH  39  41
ENDBRANCH  38  39
ENDBRANCH  37  38
ENDBRANCH  36  37
ENDBRANCH   1  36
TORSDOF 19
ENDMDL
MODEL 3
REMARK VINA RESULT:     -11.1      3.520      8.766
REMARK SMILES Cc1c(CC(=O)N[C@H](CO)C(=O)OCCOC(=O)c2ccc(-c3c4nc(c(-c5ccccc5)c5ccc([nH]5)c(-c5ccccc5)c5nc(c(-c6ccccc6)c6ccc3[nH]6)C=C5)C=C4)cc2)cc(-c2ccc(S(C)(=O)=O)cc2)n1-c1cccc(F)c1
REMARK SMILES IDX 13 1 11 2 12 3 8 4 7 5 5 6 6 7 4 9 3 10 1 11 2 12 79 13
REMARK SMILES IDX 67 14 68 15 80 16 81 17 86 18 82 19 84 20 83 21 85 22 69 23
REMARK SMILES IDX 70 24 78 25 71 26 77 27 72 28 73 29 74 30 75 31 76 32 9 33
REMARK SMILES IDX 10 34 14 36 15 37 16 38 17 39 18 40 19 41 20 42 66 43 21 44
REMARK SMILES IDX 65 45 22 46 23 47 24 48 59 49 25 50 64 51 58 52 60 53 26 54
REMARK SMILES IDX 63 55 57 56 56 57 27 59 49 60 34 61 48 62 35 63 38 64 47 65
REMARK SMILES IDX 61 66 36 67 37 68 46 70 62 71 39 72 28 73 29 74 33 75 30 76
REMARK SMILES IDX 32 77 31 78 50 79 51 80 55 81 52 82 54 83 53 84 40 85 41 86
REMARK SMILES IDX 45 87 42 88 44 89 43 90
REMARK H PARENT 7 8 10 35 60 58 38 69
REMARK Flexibility Score: inf
ROOT
ATOM      1  O   UNL A   1      36.245  21.298  25.432  1.00  0.00    -0.460 OA
ENDROOT
BRANCH   1   2
ATOM      2  C   UNL A   1      35.299  21.812  24.606  1.00  0.00     0.331 C 
ATOM      3  O   UNL A   1      35.546  22.559  23.665  1.00  0.00    -0.250 OA
BRANCH   2   4
ATOM      4  C   UNL A   1      33.860  21.455  25.030  1.00  0.00     0.218 C 
BRANCH   4   5
ATOM      5  N   UNL A   1      33.604  21.616  26.478  1.00  0.00    -0.341 N 
ATOM      6  C   UNL A   1      32.730  22.421  27.149  1.00  0.00     0.225 C 
ATOM      7  O   UNL A   1      32.924  22.584  28.357  1.00  0.00    -0.275 OA
ATOM      8  H   UNL A   1      34.160  21.045  27.056  1.00  0.00     0.164 HD
BRANCH   6   9
ATOM      9  C   UNL A   1      31.512  23.022  26.469  1.00  0.00     0.137 C 
BRANCH   9  10
ATOM     10  C   UNL A   1      31.641  24.464  26.077  1.00  0.00    -0.017 A 
ATOM     11  C   UNL A   1      30.477  24.486  23.769  1.00  0.00     0.065 C 
ATOM     12  C   UNL A   1      31.174  25.112  24.937  1.00  0.00     0.024 A 
ATOM     13  N   UNL A   1      31.575  26.450  24.991  1.00  0.00    -0.313 N 
ATOM     14  C   UNL A   1      32.394  25.421  26.791  1.00  0.00     0.033 A 
ATOM     15  C   UNL A   1      32.293  26.644  26.167  1.00  0.00     0.053 A 
BRANCH  13  16
ATOM     16  C   UNL A   1      31.342  27.456  24.015  1.00  0.00     0.049 A 
ATOM     17  C   UNL A   1      32.421  27.949  23.264  1.00  0.00     0.027 A 
ATOM     18  C   UNL A   1      30.067  28.002  23.863  1.00  0.00     0.065 A 
ATOM     19  C   UNL A   1      32.226  28.999  22.365  1.00  0.00     0.005 A 
ATOM     20  C   UNL A   1      29.897  29.063  22.980  1.00  0.00     0.125 A 
ATOM     21  C   UNL A   1      30.960  29.565  22.233  1.00  0.00     0.039 A 
ATOM     22  F   UNL A   1      28.689  29.632  22.862  1.00  0.00    -0.207 F 
ENDBRANCH  13  16
BRANCH  15  23
ATOM     23  C   UNL A   1      32.774  27.920  26.708  1.00  0.00    -0.001 A 
ATOM     24  C   UNL A   1      34.145  28.159  26.880  1.00  0.00     0.011 A 
ATOM     25  C   UNL A   1      31.861  28.955  26.949  1.00  0.00     0.011 A 
ATOM     26  C   UNL A   1      34.597  29.414  27.296  1.00  0.00     0.021 A 
ATOM     27  C   UNL A   1      32.304  30.208  27.371  1.00  0.00     0.021 A 
ATOM     28  C   UNL A   1      33.670  30.429  27.548  1.00  0.00     0.067 A 
BRANCH  28  29
ATOM     29  S   UNL A   1      34.256  32.028  28.056  1.00  0.00     0.175 S 
ATOM     30  C   UNL A   1      32.989  33.137  27.500  1.00  0.00     0.163 C 
ATOM     31  O   UNL A   1      34.288  32.044  29.492  1.00  0.00    -0.224 OA
ATOM     32  O   UNL A   1      35.458  32.320  27.272  1.00  0.00    -0.224 OA
ENDBRANCH  28  29
ENDBRANCH  15  23
ENDBRANCH   9  10
ENDBRANCH   6   9
ENDBRANCH   4   5
BRANCH   4  33
ATOM     33  C   UNL A   1      33.242  20.158  24.478  1.00  0.00     0.193 C 
BRANCH  33  34
ATOM     34  O   UNL A   1      32.144  19.735  25.300  1.00  0.00    -0.394 OA
ATOM     35  H   UNL A   1      31.307  19.942  24.854  1.00  0.00     0.210 HD
ENDBRANCH  33  34
ENDBRANCH   4  33
ENDBRANCH   2   4
ENDBRANCH   1   2
BRANCH   1  36
ATOM     36  C   UNL A   1      36.909  20.084  25.004  1.00  0.00     0.274 C 
BRANCH  36  37
ATOM     37  C   UNL A   1      38.413  20.181  25.308  1.00  0.00     0.275 C 
BRANCH  37  38
ATOM     38  O   UNL A   1      38.851  21.520  25.666  1.00  0.00    -0.458 OA
BRANCH  38  39
ATOM     39  C   UNL A   1      39.795  21.620  26.644  1.00  0.00     0.338 C 
ATOM     40  O   UNL A   1      40.326  20.684  27.214  1.00  0.00    -0.246 OA
BRANCH  39  41
ATOM     41  C   UNL A   1      40.086  23.063  26.941  1.00  0.00     0.060 A 
ATOM     42  C   UNL A   1      40.911  23.383  28.007  1.00  0.00     0.016 A 
ATOM     43  C   UNL A   1      39.468  24.129  26.260  1.00  0.00     0.016 A 
ATOM     44  C   UNL A   1      41.138  24.743  28.344  1.00  0.00     0.010 A 
ATOM     45  C   UNL A   1      39.656  25.508  26.647  1.00  0.00     0.010 A 
ATOM     46  C   UNL A   1      40.498  25.866  27.712  1.00  0.00    -0.014 A 
BRANCH  46  47
ATOM     47  C   UNL A   1      40.436  27.195  28.551  1.00  0.00     0.031 A 
ATOM     48  C   UNL A   1      41.545  28.022  27.997  1.00  0.00     0.074 A 
ATOM     49  C   UNL A   1      39.806  27.750  29.650  1.00  0.00     0.049 A 
ATOM     50  N   UNL A   1      42.766  27.575  28.038  1.00  0.00    -0.248 NA
ATOM     51  C   UNL A   1      41.320  29.133  27.073  1.00  0.00     0.031 C 
ATOM     52  C   UNL A   1      38.844  27.112  30.559  1.00  0.00     0.029 A 
ATOM     53  N   UNL A   1      39.867  29.052  30.217  1.00  0.00    -0.354 N 
ATOM     54  C   UNL A   1      43.529  28.478  27.338  1.00  0.00     0.074 A 
ATOM     55  C   UNL A   1      42.563  29.285  26.604  1.00  0.00     0.031 C 
ATOM     56  C   UNL A   1      38.316  28.016  31.434  1.00  0.00     0.029 A 
ATOM     57  C   UNL A   1      38.908  29.337  31.238  1.00  0.00     0.049 A 
ATOM     58  H   UNL A   1      40.532  29.716  29.925  1.00  0.00     0.167 HD
ATOM     59  C   UNL A   1      44.681  28.895  27.936  1.00  0.00     0.031 A 
ATOM     60  C   UNL A   1      38.634  30.512  31.917  1.00  0.00     0.031 A 
ATOM     61  C   UNL A   1      44.514  30.181  28.558  1.00  0.00     0.049 A 
ATOM     62  C   UNL A   1      39.838  31.349  31.837  1.00  0.00     0.074 A 
ATOM     63  C   UNL A   1      43.983  31.375  28.110  1.00  0.00     0.029 A 
ATOM     64  N   UNL A   1      44.459  30.214  29.937  1.00  0.00    -0.354 N 
ATOM     65  N   UNL A   1      40.858  31.143  32.613  1.00  0.00    -0.248 NA
ATOM     66  C   UNL A   1      39.931  32.523  30.978  1.00  0.00     0.031 C 
ATOM     67  C   UNL A   1      43.185  31.840  29.180  1.00  0.00     0.029 A 
ATOM     68  C   UNL A   1      43.518  31.144  30.335  1.00  0.00     0.049 A 
ATOM     69  H   UNL A   1      45.006  29.661  30.541  1.00  0.00     0.167 HD
ATOM     70  C   UNL A   1      41.867  31.775  31.952  1.00  0.00     0.074 A 
ATOM     71  C   UNL A   1      41.218  32.814  31.175  1.00  0.00     0.031 C 
ATOM     72  C   UNL A   1      42.978  31.050  31.672  1.00  0.00     0.031 A 
BRANCH  59  73
ATOM     73  C   UNL A   1      45.523  27.784  28.499  1.00  0.00    -0.014 A 
ATOM     74  C   UNL A   1      46.286  27.004  27.622  1.00  0.00     0.009 A 
ATOM     75  C   UNL A   1      45.451  27.394  29.851  1.00  0.00     0.009 A 
ATOM     76  C   UNL A   1      46.897  25.828  28.073  1.00  0.00     0.001 A 
ATOM     77  C   UNL A   1      46.029  26.204  30.289  1.00  0.00     0.001 A 
ATOM     78  C   UNL A   1      46.745  25.415  29.396  1.00  0.00     0.000 A 
ENDBRANCH  59  73
BRANCH  60  79
ATOM     79  C   UNL A   1      37.615  31.168  32.851  1.00  0.00    -0.014 A 
ATOM     80  C   UNL A   1      38.041  31.624  34.140  1.00  0.00     0.009 A 
ATOM     81  C   UNL A   1      36.402  31.701  32.403  1.00  0.00     0.009 A 
ATOM     82  C   UNL A   1      37.382  32.630  34.868  1.00  0.00     0.001 A 
ATOM     83  C   UNL A   1      35.716  32.690  33.153  1.00  0.00     0.001 A 
ATOM     84  C   UNL A   1      36.222  33.182  34.360  1.00  0.00     0.000 A 
ENDBRANCH  60  79
BRANCH  72  85
ATOM     85  C   UNL A   1      43.425  30.037  32.717  1.00  0.00    -0.014 A 
ATOM     86  C   UNL A   1      44.243  30.326  33.833  1.00  0.00     0.009 A 
ATOM     87  C   UNL A   1      43.060  28.697  32.528  1.00  0.00     0.009 A 
ATOM     88  C   UNL A   1      44.742  29.316  34.665  1.00  0.00     0.001 A 
ATOM     89  C   UNL A   1      43.517  27.691  33.389  1.00  0.00     0.001 A 
ATOM     90  C   UNL A   1      44.376  27.996  34.441  1.00  0.00     0.000 A 
ENDBRANCH  72  85
ENDBRANCH  46  47
ENDBRANCH  39  41
ENDBRANCH  38  39
ENDBRANCH  37  38
ENDBRANCH  36  37
ENDBRANCH   1  36
TORSDOF 19
ENDMDL
