MODEL 1
REMARK VINA RESULT:     -12.0      0.000      0.000
REMARK SMILES Cc1nc(-c2ccccc2Cl)nc2sc(C(=O)OCCOC(=O)c3ccc(-c4c5nc(c(-c6ccccc6)c6ccc([nH]6)c(-c6ccccc6)c6nc(c(-c7ccccc7)c7ccc4[nH]7)C=C6)C=C5)cc3)c(N)c12
REMARK SMILES IDX 20 1 19 2 18 3 16 4 17 5 15 6 1 7 2 8 3 9 74 10 4 11 13 12
REMARK SMILES IDX 72 13 12 14 14 15 5 16 6 17 10 18 7 19 9 20 11 21 8 22 73 23
REMARK SMILES IDX 21 26 22 27 23 28 24 29 25 30 71 31 26 32 70 33 27 34 28 35
REMARK SMILES IDX 29 36 64 37 30 38 69 39 63 40 65 41 31 42 68 43 62 44 61 45
REMARK SMILES IDX 32 47 54 48 39 49 53 50 40 51 43 52 52 53 66 54 41 55 42 56
REMARK SMILES IDX 51 58 67 59 44 60 33 61 34 62 38 63 35 64 37 65 36 66 55 67
REMARK SMILES IDX 56 68 60 69 57 70 59 71 58 72 45 73 46 74 50 75 47 76 49 77
REMARK SMILES IDX 48 78
REMARK H PARENT 73 24 73 25 65 46 43 57
REMARK Flexibility Score: inf
ROOT
ATOM      1  C   UNL A   1      33.966  31.476  27.796  1.00  0.00     0.275 C 
ENDROOT
BRANCH   1   2
ATOM      2  C   UNL A   1      32.941  30.481  27.271  1.00  0.00     0.275 C 
BRANCH   2   3
ATOM      3  O   UNL A   1      33.287  30.025  25.956  1.00  0.00    -0.458 OA
BRANCH   3   4
ATOM      4  C   UNL A   1      32.302  29.492  25.171  1.00  0.00     0.350 C 
ATOM      5  O   UNL A   1      31.244  30.065  24.912  1.00  0.00    -0.245 OA
BRANCH   4   6
ATOM      6  C   UNL A   1      32.704  28.198  24.642  1.00  0.00     0.138 A 
ATOM      7  C   UNL A   1      32.702  25.491  20.772  1.00  0.00     0.067 C 
ATOM      8  C   UNL A   1      33.161  25.362  22.193  1.00  0.00     0.052 A 
ATOM      9  N   UNL A   1      33.658  24.123  22.504  1.00  0.00    -0.233 NA
ATOM     10  C   UNL A   1      33.081  26.338  23.219  1.00  0.00     0.057 A 
ATOM     11  C   UNL A   1      34.100  23.871  23.747  1.00  0.00     0.162 A 
ATOM     12  C   UNL A   1      33.575  25.921  24.446  1.00  0.00     0.130 A 
ATOM     13  C   UNL A   1      32.593  27.700  23.347  1.00  0.00     0.069 A 
ATOM     14  N   UNL A   1      34.088  24.730  24.759  1.00  0.00    -0.217 NA
ATOM     15  S   UNL A   1      33.461  27.069  25.674  1.00  0.00    -0.106 S 
BRANCH  11  16
ATOM     16  C   UNL A   1      34.506  22.516  24.111  1.00  0.00     0.038 A 
ATOM     17  C   UNL A   1      33.521  21.500  24.112  1.00  0.00     0.013 A 
ATOM     18  C   UNL A   1      35.792  22.178  24.554  1.00  0.00     0.052 A 
ATOM     19  C   UNL A   1      33.800  20.205  24.549  1.00  0.00     0.001 A 
ATOM     20  C   UNL A   1      36.072  20.876  24.994  1.00  0.00     0.021 A 
ATOM     21  Cl  UNL A   1      37.071  23.338  24.659  1.00  0.00    -0.084 Cl
ATOM     22  C   UNL A   1      35.078  19.895  24.995  1.00  0.00     0.002 A 
ENDBRANCH  11  16
BRANCH  13  23
ATOM     23  N   UNL A   1      32.069  28.443  22.346  1.00  0.00    -0.397 N 
ATOM     24  H   UNL A   1      32.221  29.415  22.322  1.00  0.00     0.156 HD
ATOM     25  H   UNL A   1      31.534  28.011  21.641  1.00  0.00     0.156 HD
ENDBRANCH  13  23
ENDBRANCH   4   6
ENDBRANCH   3   4
ENDBRANCH   2   3
ENDBRANCH   1   2
BRANCH   1  26
ATOM     26  O   UNL A   1      35.276  30.914  27.761  1.00  0.00    -0.458 OA
BRANCH  26  27
ATOM     27  C   UNL A   1      36.241  31.670  28.329  1.00  0.00     0.338 C 
ATOM     28  O   UNL A   1      36.410  32.871  28.215  1.00  0.00    -0.246 OA
BRANCH  27  29
ATOM     29  C   UNL A   1      37.200  30.788  28.993  1.00  0.00     0.060 A 
ATOM     30  C   UNL A   1      38.519  31.231  29.116  1.00  0.00     0.016 A 
ATOM     31  C   UNL A   1      36.833  29.457  29.242  1.00  0.00     0.016 A 
ATOM     32  C   UNL A   1      39.505  30.294  29.342  1.00  0.00     0.010 A 
ATOM     33  C   UNL A   1      37.816  28.524  29.451  1.00  0.00     0.010 A 
ATOM     34  C   UNL A   1      39.143  28.945  29.428  1.00  0.00    -0.014 A 
BRANCH  34  35
ATOM     35  C   UNL A   1      40.188  27.960  29.603  1.00  0.00     0.031 A 
ATOM     36  C   UNL A   1      40.819  28.017  30.941  1.00  0.00     0.074 A 
ATOM     37  C   UNL A   1      40.434  27.008  28.686  1.00  0.00     0.049 A 
ATOM     38  N   UNL A   1      42.045  28.305  31.221  1.00  0.00    -0.248 NA
ATOM     39  C   UNL A   1      39.940  27.891  32.117  1.00  0.00     0.031 C 
ATOM     40  C   UNL A   1      39.668  26.696  27.475  1.00  0.00     0.029 A 
ATOM     41  N   UNL A   1      41.370  26.025  28.716  1.00  0.00    -0.354 N 
ATOM     42  C   UNL A   1      42.141  28.209  32.604  1.00  0.00     0.074 A 
ATOM     43  C   UNL A   1      40.794  28.135  33.109  1.00  0.00     0.031 C 
ATOM     44  C   UNL A   1      40.021  25.468  27.029  1.00  0.00     0.029 A 
ATOM     45  C   UNL A   1      41.124  24.976  27.839  1.00  0.00     0.049 A 
ATOM     46  H   UNL A   1      42.156  26.052  29.308  1.00  0.00     0.167 HD
ATOM     47  C   UNL A   1      43.322  27.921  33.212  1.00  0.00     0.031 A 
ATOM     48  C   UNL A   1      41.742  23.769  27.843  1.00  0.00     0.031 A 
ATOM     49  C   UNL A   1      44.443  28.156  32.339  1.00  0.00     0.049 A 
ATOM     50  C   UNL A   1      42.997  23.916  28.616  1.00  0.00     0.074 A 
ATOM     51  C   UNL A   1      44.954  29.263  31.693  1.00  0.00     0.029 A 
ATOM     52  N   UNL A   1      44.983  27.061  31.711  1.00  0.00    -0.354 N 
ATOM     53  N   UNL A   1      44.010  24.626  28.213  1.00  0.00    -0.248 NA
ATOM     54  C   UNL A   1      42.961  23.633  30.043  1.00  0.00     0.031 C 
ATOM     55  C   UNL A   1      45.403  28.777  30.430  1.00  0.00     0.029 A 
ATOM     56  C   UNL A   1      45.201  27.396  30.400  1.00  0.00     0.049 A 
ATOM     57  H   UNL A   1      45.179  26.190  32.127  1.00  0.00     0.167 HD
ATOM     58  C   UNL A   1      44.484  25.245  29.360  1.00  0.00     0.074 A 
ATOM     59  C   UNL A   1      43.873  24.513  30.467  1.00  0.00     0.031 C 
ATOM     60  C   UNL A   1      45.090  26.466  29.296  1.00  0.00     0.031 A 
BRANCH  47  61
ATOM     61  C   UNL A   1      43.413  27.017  34.414  1.00  0.00    -0.014 A 
ATOM     62  C   UNL A   1      43.310  25.630  34.226  1.00  0.00     0.009 A 
ATOM     63  C   UNL A   1      43.309  27.488  35.739  1.00  0.00     0.009 A 
ATOM     64  C   UNL A   1      43.054  24.771  35.301  1.00  0.00     0.001 A 
ATOM     65  C   UNL A   1      43.095  26.629  36.819  1.00  0.00     0.001 A 
ATOM     66  C   UNL A   1      42.940  25.270  36.595  1.00  0.00     0.000 A 
ENDBRANCH  47  61
BRANCH  48  67
ATOM     67  C   UNL A   1      41.194  22.437  27.506  1.00  0.00    -0.014 A 
ATOM     68  C   UNL A   1      39.990  22.324  26.790  1.00  0.00     0.009 A 
ATOM     69  C   UNL A   1      41.993  21.285  27.623  1.00  0.00     0.009 A 
ATOM     70  C   UNL A   1      39.628  21.121  26.170  1.00  0.00     0.001 A 
ATOM     71  C   UNL A   1      41.630  20.082  27.008  1.00  0.00     0.001 A 
ATOM     72  C   UNL A   1      40.456  20.005  26.265  1.00  0.00     0.000 A 
ENDBRANCH  48  67
BRANCH  60  73
ATOM     73  C   UNL A   1      45.442  27.008  27.930  1.00  0.00    -0.014 A 
ATOM     74  C   UNL A   1      46.733  26.919  27.377  1.00  0.00     0.009 A 
ATOM     75  C   UNL A   1      44.400  27.474  27.116  1.00  0.00     0.009 A 
ATOM     76  C   UNL A   1      46.972  27.304  26.053  1.00  0.00     0.001 A 
ATOM     77  C   UNL A   1      44.636  27.838  25.789  1.00  0.00     0.001 A 
ATOM     78  C   UNL A   1      45.921  27.756  25.259  1.00  0.00     0.000 A 
ENDBRANCH  60  73
ENDBRANCH  34  35
ENDBRANCH  27  29
ENDBRANCH  26  27
ENDBRANCH   1  26
TORSDOF 13
ENDMDL
MODEL 2
REMARK VINA RESULT:     -12.0      1.812      2.406
REMARK SMILES Cc1nc(-c2ccccc2Cl)nc2sc(C(=O)OCCOC(=O)c3ccc(-c4c5nc(c(-c6ccccc6)c6ccc([nH]6)c(-c6ccccc6)c6nc(c(-c7ccccc7)c7ccc4[nH]7)C=C6)C=C5)cc3)c(N)c12
REMARK SMILES IDX 20 1 19 2 18 3 16 4 17 5 15 6 1 7 2 8 3 9 74 10 4 11 13 12
REMARK SMILES IDX 72 13 12 14 14 15 5 16 6 17 10 18 7 19 9 20 11 21 8 22 73 23
REMARK SMILES IDX 21 26 22 27 23 28 24 29 25 30 71 31 26 32 70 33 27 34 28 35
REMARK SMILES IDX 29 36 64 37 30 38 69 39 63 40 65 41 31 42 68 43 62 44 61 45
REMARK SMILES IDX 32 47 54 48 39 49 53 50 40 51 43 52 52 53 66 54 41 55 42 56
REMARK SMILES IDX 51 58 67 59 44 60 33 61 34 62 38 63 35 64 37 65 36 66 55 67
REMARK SMILES IDX 56 68 60 69 57 70 59 71 58 72 45 73 46 74 50 75 47 76 49 77
REMARK SMILES IDX 48 78
REMARK H PARENT 73 24 73 25 65 46 43 57
REMARK Flexibility Score: inf
ROOT
ATOM      1  C   UNL A   1      33.198  31.465  27.394  1.00  0.00     0.275 C 
ENDROOT
BRANCH   1   2
ATOM      2  C   UNL A   1      32.251  30.433  26.799  1.00  0.00     0.275 C 
BRANCH   2   3
ATOM      3  O   UNL A   1      32.643  30.076  25.466  1.00  0.00    -0.458 OA
BRANCH   3   4
ATOM      4  C   UNL A   1      31.786  29.319  24.715  1.00  0.00     0.350 C 
ATOM      5  O   UNL A   1      30.651  29.675  24.401  1.00  0.00    -0.245 OA
BRANCH   4   6
ATOM      6  C   UNL A   1      32.421  28.081  24.293  1.00  0.00     0.138 A 
ATOM      7  C   UNL A   1      32.851  25.043  20.703  1.00  0.00     0.067 C 
ATOM      8  C   UNL A   1      33.364  25.151  22.107  1.00  0.00     0.052 A 
ATOM      9  N   UNL A   1      34.104  24.071  22.511  1.00  0.00    -0.233 NA
ATOM     10  C   UNL A   1      33.121  26.193  23.038  1.00  0.00     0.057 A 
ATOM     11  C   UNL A   1      34.620  24.038  23.750  1.00  0.00     0.162 A 
ATOM     12  C   UNL A   1      33.719  26.008  24.275  1.00  0.00     0.130 A 
ATOM     13  C   UNL A   1      32.377  27.441  23.059  1.00  0.00     0.069 A 
ATOM     14  N   UNL A   1      34.466  24.977  24.676  1.00  0.00    -0.217 NA
ATOM     15  S   UNL A   1      33.413  27.231  25.393  1.00  0.00    -0.106 S 
BRANCH  11  16
ATOM     16  C   UNL A   1      35.295  22.831  24.223  1.00  0.00     0.038 A 
ATOM     17  C   UNL A   1      36.710  22.802  24.192  1.00  0.00     0.013 A 
ATOM     18  C   UNL A   1      34.627  21.664  24.615  1.00  0.00     0.052 A 
ATOM     19  C   UNL A   1      37.428  21.654  24.524  1.00  0.00     0.001 A 
ATOM     20  C   UNL A   1      35.350  20.510  24.948  1.00  0.00     0.021 A 
ATOM     21  Cl  UNL A   1      32.900  21.548  24.639  1.00  0.00    -0.084 Cl
ATOM     22  C   UNL A   1      36.745  20.504  24.898  1.00  0.00     0.002 A 
ENDBRANCH  11  16
BRANCH  13  23
ATOM     23  N   UNL A   1      31.690  27.962  22.016  1.00  0.00    -0.397 N 
ATOM     24  H   UNL A   1      31.090  27.388  21.486  1.00  0.00     0.156 HD
ATOM     25  H   UNL A   1      31.790  28.914  21.787  1.00  0.00     0.156 HD
ENDBRANCH  13  23
ENDBRANCH   4   6
ENDBRANCH   3   4
ENDBRANCH   2   3
ENDBRANCH   1   2
BRANCH   1  26
ATOM     26  O   UNL A   1      34.505  30.918  27.549  1.00  0.00    -0.458 OA
BRANCH  26  27
ATOM     27  C   UNL A   1      35.454  31.796  27.941  1.00  0.00     0.338 C 
ATOM     28  O   UNL A   1      35.512  32.989  27.695  1.00  0.00    -0.246 OA
BRANCH  27  29
ATOM     29  C   UNL A   1      36.539  31.061  28.588  1.00  0.00     0.060 A 
ATOM     30  C   UNL A   1      37.640  31.788  29.046  1.00  0.00     0.016 A 
ATOM     31  C   UNL A   1      36.556  29.661  28.492  1.00  0.00     0.016 A 
ATOM     32  C   UNL A   1      38.823  31.115  29.266  1.00  0.00     0.010 A 
ATOM     33  C   UNL A   1      37.738  28.996  28.696  1.00  0.00     0.010 A 
ATOM     34  C   UNL A   1      38.871  29.740  29.011  1.00  0.00    -0.014 A 
BRANCH  34  35
ATOM     35  C   UNL A   1      40.130  29.050  29.184  1.00  0.00     0.031 A 
ATOM     36  C   UNL A   1      40.448  28.770  30.602  1.00  0.00     0.074 A 
ATOM     37  C   UNL A   1      40.843  28.590  28.140  1.00  0.00     0.049 A 
ATOM     38  N   UNL A   1      41.435  29.229  31.293  1.00  0.00    -0.248 NA
ATOM     39  C   UNL A   1      39.457  28.012  31.388  1.00  0.00     0.031 C 
ATOM     40  C   UNL A   1      40.461  28.561  26.725  1.00  0.00     0.029 A 
ATOM     41  N   UNL A   1      42.028  27.927  28.150  1.00  0.00    -0.354 N 
ATOM     42  C   UNL A   1      41.299  28.663  32.555  1.00  0.00     0.074 A 
ATOM     43  C   UNL A   1      39.983  28.080  32.609  1.00  0.00     0.031 C 
ATOM     44  C   UNL A   1      41.275  27.707  26.061  1.00  0.00     0.029 A 
ATOM     45  C   UNL A   1      42.308  27.244  26.973  1.00  0.00     0.049 A 
ATOM     46  H   UNL A   1      42.636  27.930  28.923  1.00  0.00     0.167 HD
ATOM     47  C   UNL A   1      42.375  28.476  33.365  1.00  0.00     0.031 A 
ATOM     48  C   UNL A   1      43.278  26.311  26.803  1.00  0.00     0.031 A 
ATOM     49  C   UNL A   1      43.497  29.281  32.958  1.00  0.00     0.049 A 
ATOM     50  C   UNL A   1      44.247  26.471  27.911  1.00  0.00     0.074 A 
ATOM     51  C   UNL A   1      43.725  30.637  32.837  1.00  0.00     0.029 A 
ATOM     52  N   UNL A   1      44.474  28.660  32.220  1.00  0.00    -0.354 N 
ATOM     53  N   UNL A   1      45.026  27.506  28.040  1.00  0.00    -0.248 NA
ATOM     54  C   UNL A   1      44.043  25.689  29.121  1.00  0.00     0.031 C 
ATOM     55  C   UNL A   1      44.535  30.771  31.672  1.00  0.00     0.029 A 
ATOM     56  C   UNL A   1      44.809  29.492  31.184  1.00  0.00     0.049 A 
ATOM     57  H   UNL A   1      44.866  27.775  32.402  1.00  0.00     0.167 HD
ATOM     58  C   UNL A   1      45.047  27.762  29.403  1.00  0.00     0.074 A 
ATOM     59  C   UNL A   1      44.518  26.550  30.025  1.00  0.00     0.031 C 
ATOM     60  C   UNL A   1      45.218  29.032  29.874  1.00  0.00     0.031 A 
BRANCH  47  61
ATOM     61  C   UNL A   1      42.534  27.249  34.225  1.00  0.00    -0.014 A 
ATOM     62  C   UNL A   1      43.440  26.255  33.824  1.00  0.00     0.009 A 
ATOM     63  C   UNL A   1      41.629  26.907  35.251  1.00  0.00     0.009 A 
ATOM     64  C   UNL A   1      43.396  24.969  34.377  1.00  0.00     0.001 A 
ATOM     65  C   UNL A   1      41.611  25.639  35.835  1.00  0.00     0.001 A 
ATOM     66  C   UNL A   1      42.479  24.660  35.377  1.00  0.00     0.000 A 
ENDBRANCH  47  61
BRANCH  48  67
ATOM     67  C   UNL A   1      43.272  25.102  25.950  1.00  0.00    -0.014 A 
ATOM     68  C   UNL A   1      44.338  24.848  25.069  1.00  0.00     0.009 A 
ATOM     69  C   UNL A   1      42.375  24.050  26.209  1.00  0.00     0.009 A 
ATOM     70  C   UNL A   1      44.528  23.575  24.515  1.00  0.00     0.001 A 
ATOM     71  C   UNL A   1      42.562  22.781  25.651  1.00  0.00     0.001 A 
ATOM     72  C   UNL A   1      43.650  22.538  24.819  1.00  0.00     0.000 A 
ENDBRANCH  48  67
BRANCH  60  73
ATOM     73  C   UNL A   1      45.618  30.102  28.886  1.00  0.00    -0.014 A 
ATOM     74  C   UNL A   1      44.689  30.810  28.101  1.00  0.00     0.009 A 
ATOM     75  C   UNL A   1      46.956  30.518  28.868  1.00  0.00     0.009 A 
ATOM     76  C   UNL A   1      45.096  31.890  27.310  1.00  0.00     0.001 A 
ATOM     77  C   UNL A   1      47.358  31.609  28.095  1.00  0.00     0.001 A 
ATOM     78  C   UNL A   1      46.429  32.292  27.314  1.00  0.00     0.000 A 
ENDBRANCH  60  73
ENDBRANCH  34  35
ENDBRANCH  27  29
ENDBRANCH  26  27
ENDBRANCH   1  26
TORSDOF 13
ENDMDL
MODEL 3
REMARK VINA RESULT:     -11.8      3.480      5.911
REMARK SMILES Cc1nc(-c2ccccc2Cl)nc2sc(C(=O)OCCOC(=O)c3ccc(-c4c5nc(c(-c6ccccc6)c6ccc([nH]6)c(-c6ccccc6)c6nc(c(-c7ccccc7)c7ccc4[nH]7)C=C6)C=C5)cc3)c(N)c12
REMARK SMILES IDX 20 1 19 2 18 3 16 4 17 5 15 6 1 7 2 8 3 9 74 10 4 11 13 12
REMARK SMILES IDX 72 13 12 14 14 15 5 16 6 17 10 18 7 19 9 20 11 21 8 22 73 23
REMARK SMILES IDX 21 26 22 27 23 28 24 29 25 30 71 31 26 32 70 33 27 34 28 35
REMARK SMILES IDX 29 36 64 37 30 38 69 39 63 40 65 41 31 42 68 43 62 44 61 45
REMARK SMILES IDX 32 47 54 48 39 49 53 50 40 51 43 52 52 53 66 54 41 55 42 56
REMARK SMILES IDX 51 58 67 59 44 60 33 61 34 62 38 63 35 64 37 65 36 66 55 67
REMARK SMILES IDX 56 68 60 69 57 70 59 71 58 72 45 73 46 74 50 75 47 76 49 77
REMARK SMILES IDX 48 78
REMARK H PARENT 73 24 73 25 65 46 43 57
REMARK Flexibility Score: inf
ROOT
ATOM      1  C   UNL A   1      38.979  32.983  33.527  1.00  0.00     0.275 C 
ENDROOT
BRANCH   1   2
ATOM      2  C   UNL A   1      38.453  34.211  34.255  1.00  0.00     0.275 C 
BRANCH   2   3
ATOM      3  O   UNL A   1      37.227  34.674  33.671  1.00  0.00    -0.458 OA
BRANCH   3   4
ATOM      4  C   UNL A   1      36.130  33.858  33.726  1.00  0.00     0.350 C 
ATOM      5  O   UNL A   1      35.628  33.452  34.773  1.00  0.00    -0.245 OA
BRANCH   4   6
ATOM      6  C   UNL A   1      35.612  33.596  32.393  1.00  0.00     0.138 A 
ATOM      7  C   UNL A   1      33.293  35.516  28.754  1.00  0.00     0.067 C 
ATOM      8  C   UNL A   1      33.875  34.177  29.092  1.00  0.00     0.052 A 
ATOM      9  N   UNL A   1      33.634  33.214  28.147  1.00  0.00    -0.233 NA
ATOM     10  C   UNL A   1      34.572  33.810  30.272  1.00  0.00     0.057 A 
ATOM     11  C   UNL A   1      34.096  31.967  28.328  1.00  0.00     0.162 A 
ATOM     12  C   UNL A   1      34.979  32.485  30.308  1.00  0.00     0.130 A 
ATOM     13  C   UNL A   1      34.979  34.460  31.505  1.00  0.00     0.069 A 
ATOM     14  N   UNL A   1      34.779  31.543  29.385  1.00  0.00    -0.217 NA
ATOM     15  S   UNL A   1      35.787  32.038  31.718  1.00  0.00    -0.106 S 
BRANCH  11  16
ATOM     16  C   UNL A   1      33.727  30.912  27.386  1.00  0.00     0.038 A 
ATOM     17  C   UNL A   1      32.407  30.903  26.877  1.00  0.00     0.013 A 
ATOM     18  C   UNL A   1      34.572  29.853  27.029  1.00  0.00     0.052 A 
ATOM     19  C   UNL A   1      31.942  29.874  26.059  1.00  0.00     0.001 A 
ATOM     20  C   UNL A   1      34.104  28.818  26.207  1.00  0.00     0.021 A 
ATOM     21  Cl  UNL A   1      36.189  29.713  27.630  1.00  0.00    -0.084 Cl
ATOM     22  C   UNL A   1      32.792  28.827  25.727  1.00  0.00     0.002 A 
ENDBRANCH  11  16
BRANCH  13  23
ATOM     23  N   UNL A   1      34.778  35.763  31.808  1.00  0.00    -0.397 N 
ATOM     24  H   UNL A   1      33.868  36.090  31.997  1.00  0.00     0.156 HD
ATOM     25  H   UNL A   1      35.540  36.385  31.840  1.00  0.00     0.156 HD
ENDBRANCH  13  23
ENDBRANCH   4   6
ENDBRANCH   3   4
ENDBRANCH   2   3
ENDBRANCH   1   2
BRANCH   1  26
ATOM     26  O   UNL A   1      39.958  33.352  32.560  1.00  0.00    -0.458 OA
BRANCH  26  27
ATOM     27  C   UNL A   1      39.523  33.377  31.281  1.00  0.00     0.338 C 
ATOM     28  O   UNL A   1      38.735  34.159  30.778  1.00  0.00    -0.246 OA
BRANCH  27  29
ATOM     29  C   UNL A   1      40.018  32.187  30.592  1.00  0.00     0.060 A 
ATOM     30  C   UNL A   1      39.120  31.140  30.369  1.00  0.00     0.016 A 
ATOM     31  C   UNL A   1      41.401  32.034  30.417  1.00  0.00     0.016 A 
ATOM     32  C   UNL A   1      39.630  29.883  30.118  1.00  0.00     0.010 A 
ATOM     33  C   UNL A   1      41.907  30.781  30.182  1.00  0.00     0.010 A 
ATOM     34  C   UNL A   1      41.018  29.712  30.105  1.00  0.00    -0.014 A 
BRANCH  34  35
ATOM     35  C   UNL A   1      41.547  28.382  29.903  1.00  0.00     0.031 A 
ATOM     36  C   UNL A   1      42.314  27.880  31.065  1.00  0.00     0.074 A 
ATOM     37  C   UNL A   1      41.232  27.643  28.824  1.00  0.00     0.049 A 
ATOM     38  N   UNL A   1      43.569  27.585  31.112  1.00  0.00    -0.248 NA
ATOM     39  C   UNL A   1      41.634  27.852  32.372  1.00  0.00     0.031 C 
ATOM     40  C   UNL A   1      40.252  27.943  27.775  1.00  0.00     0.029 A 
ATOM     41  N   UNL A   1      41.645  26.389  28.505  1.00  0.00    -0.354 N 
ATOM     42  C   UNL A   1      43.799  27.150  32.412  1.00  0.00     0.074 A 
ATOM     43  C   UNL A   1      42.634  27.506  33.180  1.00  0.00     0.031 C 
ATOM     44  C   UNL A   1      39.975  26.810  27.088  1.00  0.00     0.029 A 
ATOM     45  C   UNL A   1      40.855  25.752  27.557  1.00  0.00     0.049 A 
ATOM     46  H   UNL A   1      42.437  25.968  28.910  1.00  0.00     0.167 HD
ATOM     47  C   UNL A   1      44.809  26.288  32.700  1.00  0.00     0.031 A 
ATOM     48  C   UNL A   1      40.884  24.431  27.249  1.00  0.00     0.031 A 
ATOM     49  C   UNL A   1      45.793  26.248  31.650  1.00  0.00     0.049 A 
ATOM     50  C   UNL A   1      42.170  23.889  27.745  1.00  0.00     0.074 A 
ATOM     51  C   UNL A   1      46.641  27.174  31.078  1.00  0.00     0.029 A 
ATOM     52  N   UNL A   1      45.716  25.200  30.764  1.00  0.00    -0.354 N 
ATOM     53  N   UNL A   1      43.326  24.208  27.241  1.00  0.00    -0.248 NA
ATOM     54  C   UNL A   1      42.207  23.330  29.088  1.00  0.00     0.031 C 
ATOM     55  C   UNL A   1      46.661  26.848  29.691  1.00  0.00     0.029 A 
ATOM     56  C   UNL A   1      45.880  25.706  29.501  1.00  0.00     0.049 A 
ATOM     57  H   UNL A   1      45.570  24.254  30.995  1.00  0.00     0.167 HD
ATOM     58  C   UNL A   1      44.171  24.313  28.337  1.00  0.00     0.074 A 
ATOM     59  C   UNL A   1      43.458  23.655  29.429  1.00  0.00     0.031 C 
ATOM     60  C   UNL A   1      45.231  25.173  28.323  1.00  0.00     0.031 A 
BRANCH  47  61
ATOM     61  C   UNL A   1      44.660  25.177  33.707  1.00  0.00    -0.014 A 
ATOM     62  C   UNL A   1      45.623  25.051  34.721  1.00  0.00     0.009 A 
ATOM     63  C   UNL A   1      43.779  24.091  33.530  1.00  0.00     0.009 A 
ATOM     64  C   UNL A   1      45.734  23.874  35.471  1.00  0.00     0.001 A 
ATOM     65  C   UNL A   1      43.860  22.933  34.305  1.00  0.00     0.001 A 
ATOM     66  C   UNL A   1      44.858  22.814  35.259  1.00  0.00     0.000 A 
ENDBRANCH  47  61
BRANCH  48  67
ATOM     67  C   UNL A   1      39.773  23.540  26.846  1.00  0.00    -0.014 A 
ATOM     68  C   UNL A   1      38.521  24.077  26.501  1.00  0.00     0.009 A 
ATOM     69  C   UNL A   1      40.022  22.196  26.514  1.00  0.00     0.009 A 
ATOM     70  C   UNL A   1      37.577  23.313  25.802  1.00  0.00     0.001 A 
ATOM     71  C   UNL A   1      39.076  21.432  25.821  1.00  0.00     0.001 A 
ATOM     72  C   UNL A   1      37.861  21.997  25.448  1.00  0.00     0.000 A 
ENDBRANCH  48  67
BRANCH  60  73
ATOM     73  C   UNL A   1      45.595  25.822  27.009  1.00  0.00    -0.014 A 
ATOM     74  C   UNL A   1      45.012  27.019  26.555  1.00  0.00     0.009 A 
ATOM     75  C   UNL A   1      46.676  25.294  26.288  1.00  0.00     0.009 A 
ATOM     76  C   UNL A   1      45.488  27.656  25.403  1.00  0.00     0.001 A 
ATOM     77  C   UNL A   1      47.164  25.941  25.151  1.00  0.00     0.001 A 
ATOM     78  C   UNL A   1      46.568  27.119  24.707  1.00  0.00     0.000 A 
ENDBRANCH  60  73
ENDBRANCH  34  35
ENDBRANCH  27  29
ENDBRANCH  26  27
ENDBRANCH   1  26
TORSDOF 13
ENDMDL
