MODEL 1
REMARK VINA RESULT:     -10.3      0.000      0.000
REMARK SMILES C[NH2+][C@]1(C(=O)OCCOC(=O)c2ccc(-c3c4nc(c(-c5ccccc5)c5ccc([nH]5)c(-c5ccccc5)c5nc(c(-c6ccccc6)c6ccc3[nH]6)C=C5)C=C4)cc2)CCC[C@@H](Sc2nccn2C)C1
REMARK SMILES IDX 7 1 6 2 4 3 5 4 3 5 60 6 71 7 61 8 63 9 62 10 2 11 1 12
REMARK SMILES IDX 64 15 65 16 66 17 69 18 67 19 68 20 70 21 8 22 9 23 10 24
REMARK SMILES IDX 11 25 12 26 13 27 59 28 14 29 58 30 15 31 16 32 17 33 52 34
REMARK SMILES IDX 18 35 57 36 51 37 53 38 19 39 56 40 50 41 49 42 20 44 42 45
REMARK SMILES IDX 27 46 41 47 28 48 31 49 40 50 54 51 29 52 30 53 39 55 55 56
REMARK SMILES IDX 32 57 21 58 22 59 26 60 23 61 25 62 24 63 43 64 44 65 48 66
REMARK SMILES IDX 45 67 47 68 46 69 33 70 34 71 38 72 35 73 37 74 36 75
REMARK H PARENT 2 13 2 14 53 43 31 54
REMARK Flexibility Score: inf
ROOT
ATOM      1  C   UNL A   1      35.843  22.463  23.897  1.00  0.00     0.274 C 
ENDROOT
BRANCH   1   2
ATOM      2  O   UNL A   1      34.404  22.555  23.891  1.00  0.00    -0.457 OA
BRANCH   2   3
ATOM      3  C   UNL A   1      33.896  23.605  23.190  1.00  0.00     0.368 C 
ATOM      4  O   UNL A   1      33.916  23.686  21.964  1.00  0.00    -0.245 OA
BRANCH   3   5
ATOM      5  C   UNL A   1      33.282  24.714  24.090  1.00  0.00     0.195 C 
ATOM      6  C   UNL A   1      34.164  25.084  25.300  1.00  0.00     0.081 C 
ATOM      7  C   UNL A   1      33.187  25.944  23.152  1.00  0.00     0.096 C 
ATOM      8  C   UNL A   1      33.665  26.330  26.036  1.00  0.00     0.008 C 
ATOM      9  C   UNL A   1      32.725  27.217  23.861  1.00  0.00     0.061 C 
ATOM     10  C   UNL A   1      33.576  27.531  25.096  1.00  0.00     0.015 C 
BRANCH   5  11
ATOM     11  N   UNL A   1      31.886  24.356  24.475  1.00  0.00    -0.335 N 
ATOM     12  C   UNL A   1      30.987  24.083  23.363  1.00  0.00     0.331 C 
ATOM     13  H   UNL A   1      31.924  23.523  25.062  1.00  0.00     0.347 HD
ATOM     14  H   UNL A   1      31.504  25.173  24.953  1.00  0.00     0.347 HD
ENDBRANCH   5  11
BRANCH   9  15
ATOM     15  S   UNL A   1      32.639  28.643  22.709  1.00  0.00    -0.084 SA
BRANCH  15  16
ATOM     16  C   UNL A   1      30.964  29.077  22.791  1.00  0.00     0.167 A 
ATOM     17  N   UNL A   1      30.067  28.786  21.879  1.00  0.00    -0.231 NA
ATOM     18  N   UNL A   1      30.419  29.798  23.818  1.00  0.00    -0.329 N 
ATOM     19  C   UNL A   1      28.903  29.362  22.312  1.00  0.00     0.132 A 
ATOM     20  C   UNL A   1      29.098  30.006  23.510  1.00  0.00     0.108 A 
ATOM     21  C   UNL A   1      31.055  30.300  25.010  1.00  0.00     0.152 C 
ENDBRANCH  15  16
ENDBRANCH   9  15
ENDBRANCH   3   5
ENDBRANCH   2   3
ENDBRANCH   1   2
BRANCH   1  22
ATOM     22  C   UNL A   1      36.323  21.204  24.615  1.00  0.00     0.275 C 
BRANCH  22  23
ATOM     23  O   UNL A   1      36.965  21.558  25.852  1.00  0.00    -0.458 OA
BRANCH  23  24
ATOM     24  C   UNL A   1      38.308  21.404  25.886  1.00  0.00     0.338 C 
ATOM     25  O   UNL A   1      38.949  20.440  25.503  1.00  0.00    -0.246 OA
BRANCH  24  26
ATOM     26  C   UNL A   1      38.947  22.606  26.460  1.00  0.00     0.060 A 
ATOM     27  C   UNL A   1      38.472  23.883  26.163  1.00  0.00     0.016 A 
ATOM     28  C   UNL A   1      40.118  22.461  27.202  1.00  0.00     0.016 A 
ATOM     29  C   UNL A   1      39.208  25.012  26.517  1.00  0.00     0.010 A 
ATOM     30  C   UNL A   1      40.805  23.595  27.644  1.00  0.00     0.010 A 
ATOM     31  C   UNL A   1      40.380  24.884  27.273  1.00  0.00    -0.014 A 
BRANCH  31  32
ATOM     32  C   UNL A   1      41.190  26.076  27.638  1.00  0.00     0.031 A 
ATOM     33  C   UNL A   1      40.643  27.086  28.610  1.00  0.00     0.074 A 
ATOM     34  C   UNL A   1      42.413  26.269  27.105  1.00  0.00     0.049 A 
ATOM     35  N   UNL A   1      41.071  28.294  28.877  1.00  0.00    -0.248 NA
ATOM     36  C   UNL A   1      39.446  26.692  29.371  1.00  0.00     0.031 C 
ATOM     37  C   UNL A   1      43.106  25.352  26.199  1.00  0.00     0.029 A 
ATOM     38  N   UNL A   1      43.295  27.310  27.260  1.00  0.00    -0.354 N 
ATOM     39  C   UNL A   1      40.156  28.828  29.776  1.00  0.00     0.074 A 
ATOM     40  C   UNL A   1      39.159  27.810  30.022  1.00  0.00     0.031 C 
ATOM     41  C   UNL A   1      44.317  25.851  25.910  1.00  0.00     0.029 A 
ATOM     42  C   UNL A   1      44.453  27.161  26.536  1.00  0.00     0.049 A 
ATOM     43  H   UNL A   1      43.115  28.089  27.835  1.00  0.00     0.167 HD
ATOM     44  C   UNL A   1      40.142  30.062  30.335  1.00  0.00     0.031 A 
ATOM     45  C   UNL A   1      45.489  28.000  26.354  1.00  0.00     0.031 A 
ATOM     46  C   UNL A   1      41.162  31.057  30.134  1.00  0.00     0.049 A 
ATOM     47  C   UNL A   1      45.450  29.365  26.976  1.00  0.00     0.074 A 
ATOM     48  C   UNL A   1      41.232  32.340  30.650  1.00  0.00     0.029 A 
ATOM     49  N   UNL A   1      42.305  30.867  29.375  1.00  0.00    -0.354 N 
ATOM     50  N   UNL A   1      44.528  29.896  27.742  1.00  0.00    -0.248 NA
ATOM     51  C   UNL A   1      46.583  30.254  26.685  1.00  0.00     0.031 C 
ATOM     52  C   UNL A   1      42.411  32.934  30.185  1.00  0.00     0.029 A 
ATOM     53  C   UNL A   1      43.087  32.007  29.409  1.00  0.00     0.049 A 
ATOM     54  H   UNL A   1      42.528  30.042  28.885  1.00  0.00     0.167 HD
ATOM     55  C   UNL A   1      44.966  31.183  28.020  1.00  0.00     0.074 A 
ATOM     56  C   UNL A   1      46.249  31.344  27.364  1.00  0.00     0.031 C 
ATOM     57  C   UNL A   1      44.355  32.150  28.745  1.00  0.00     0.031 A 
BRANCH  44  58
ATOM     58  C   UNL A   1      38.956  30.421  31.182  1.00  0.00    -0.014 A 
ATOM     59  C   UNL A   1      38.961  30.229  32.572  1.00  0.00     0.009 A 
ATOM     60  C   UNL A   1      37.824  30.987  30.575  1.00  0.00     0.009 A 
ATOM     61  C   UNL A   1      37.841  30.574  33.333  1.00  0.00     0.001 A 
ATOM     62  C   UNL A   1      36.715  31.349  31.341  1.00  0.00     0.001 A 
ATOM     63  C   UNL A   1      36.722  31.135  32.719  1.00  0.00     0.000 A 
ENDBRANCH  44  58
BRANCH  45  64
ATOM     64  C   UNL A   1      46.626  27.589  25.494  1.00  0.00    -0.014 A 
ATOM     65  C   UNL A   1      46.650  27.934  24.135  1.00  0.00     0.009 A 
ATOM     66  C   UNL A   1      47.703  26.868  26.033  1.00  0.00     0.009 A 
ATOM     67  C   UNL A   1      47.728  27.557  23.331  1.00  0.00     0.001 A 
ATOM     68  C   UNL A   1      48.791  26.515  25.234  1.00  0.00     0.001 A 
ATOM     69  C   UNL A   1      48.799  26.855  23.882  1.00  0.00     0.000 A 
ENDBRANCH  45  64
BRANCH  57  70
ATOM     70  C   UNL A   1      45.075  33.459  28.872  1.00  0.00    -0.014 A 
ATOM     71  C   UNL A   1      44.825  34.507  27.975  1.00  0.00     0.009 A 
ATOM     72  C   UNL A   1      45.995  33.650  29.914  1.00  0.00     0.009 A 
ATOM     73  C   UNL A   1      45.505  35.720  28.104  1.00  0.00     0.001 A 
ATOM     74  C   UNL A   1      46.660  34.869  30.050  1.00  0.00     0.001 A 
ATOM     75  C   UNL A   1      46.420  35.900  29.141  1.00  0.00     0.000 A 
ENDBRANCH  57  70
ENDBRANCH  31  32
ENDBRANCH  24  26
ENDBRANCH  23  24
ENDBRANCH  22  23
ENDBRANCH   1  22
TORSDOF 14
ENDMDL
MODEL 2
REMARK VINA RESULT:     -10.1      3.048      7.182
REMARK SMILES C[NH2+][C@]1(C(=O)OCCOC(=O)c2ccc(-c3c4nc(c(-c5ccccc5)c5ccc([nH]5)c(-c5ccccc5)c5nc(c(-c6ccccc6)c6ccc3[nH]6)C=C5)C=C4)cc2)CCC[C@@H](Sc2nccn2C)C1
REMARK SMILES IDX 7 1 6 2 4 3 5 4 3 5 60 6 71 7 61 8 63 9 62 10 2 11 1 12
REMARK SMILES IDX 64 15 65 16 66 17 69 18 67 19 68 20 70 21 8 22 9 23 10 24
REMARK SMILES IDX 11 25 12 26 13 27 59 28 14 29 58 30 15 31 16 32 17 33 52 34
REMARK SMILES IDX 18 35 57 36 51 37 53 38 19 39 56 40 50 41 49 42 20 44 42 45
REMARK SMILES IDX 27 46 41 47 28 48 31 49 40 50 54 51 29 52 30 53 39 55 55 56
REMARK SMILES IDX 32 57 21 58 22 59 26 60 23 61 25 62 24 63 43 64 44 65 48 66
REMARK SMILES IDX 45 67 47 68 46 69 33 70 34 71 38 72 35 73 37 74 36 75
REMARK H PARENT 2 13 2 14 53 43 31 54
REMARK Flexibility Score: inf
ROOT
ATOM      1  C   UNL A   1      32.018  30.154  26.030  1.00  0.00     0.274 C 
ENDROOT
BRANCH   1   2
ATOM      2  O   UNL A   1      32.622  28.938  25.544  1.00  0.00    -0.457 OA
BRANCH   2   3
ATOM      3  C   UNL A   1      32.024  27.790  25.965  1.00  0.00     0.368 C 
ATOM      4  O   UNL A   1      31.391  27.690  27.014  1.00  0.00    -0.245 OA
BRANCH   3   5
ATOM      5  C   UNL A   1      32.218  26.595  24.991  1.00  0.00     0.195 C 
ATOM      6  C   UNL A   1      33.084  26.938  23.761  1.00  0.00     0.081 C 
ATOM      7  C   UNL A   1      32.967  25.538  25.843  1.00  0.00     0.096 C 
ATOM      8  C   UNL A   1      33.460  25.701  22.941  1.00  0.00     0.008 C 
ATOM      9  C   UNL A   1      33.391  24.303  25.048  1.00  0.00     0.061 C 
ATOM     10  C   UNL A   1      34.195  24.671  23.796  1.00  0.00     0.015 C 
BRANCH   5  11
ATOM     11  N   UNL A   1      30.899  26.000  24.628  1.00  0.00    -0.335 N 
ATOM     12  C   UNL A   1      30.016  26.870  23.866  1.00  0.00     0.331 C 
ATOM     13  H   UNL A   1      31.072  25.163  24.073  1.00  0.00     0.347 HD
ATOM     14  H   UNL A   1      30.420  25.813  25.509  1.00  0.00     0.347 HD
ENDBRANCH   5  11
BRANCH   9  15
ATOM     15  S   UNL A   1      34.280  23.091  26.100  1.00  0.00    -0.084 SA
BRANCH  15  16
ATOM     16  C   UNL A   1      33.750  21.579  25.442  1.00  0.00     0.167 A 
ATOM     17  N   UNL A   1      32.496  21.218  25.302  1.00  0.00    -0.231 NA
ATOM     18  N   UNL A   1      34.604  20.596  25.023  1.00  0.00    -0.329 N 
ATOM     19  C   UNL A   1      32.534  19.943  24.803  1.00  0.00     0.132 A 
ATOM     20  C   UNL A   1      33.833  19.530  24.631  1.00  0.00     0.108 A 
ATOM     21  C   UNL A   1      36.045  20.598  24.998  1.00  0.00     0.152 C 
ENDBRANCH  15  16
ENDBRANCH   9  15
ENDBRANCH   3   5
ENDBRANCH   2   3
ENDBRANCH   1   2
BRANCH   1  22
ATOM     22  C   UNL A   1      32.662  30.619  27.335  1.00  0.00     0.275 C 
BRANCH  22  23
ATOM     23  O   UNL A   1      34.087  30.717  27.172  1.00  0.00    -0.458 OA
BRANCH  23  24
ATOM     24  C   UNL A   1      34.784  31.070  28.276  1.00  0.00     0.338 C 
ATOM     25  O   UNL A   1      34.461  31.887  29.122  1.00  0.00    -0.246 OA
BRANCH  24  26
ATOM     26  C   UNL A   1      36.045  30.303  28.352  1.00  0.00     0.060 A 
ATOM     27  C   UNL A   1      36.449  29.702  29.544  1.00  0.00     0.016 A 
ATOM     28  C   UNL A   1      36.900  30.296  27.251  1.00  0.00     0.016 A 
ATOM     29  C   UNL A   1      37.734  29.180  29.673  1.00  0.00     0.010 A 
ATOM     30  C   UNL A   1      38.152  29.683  27.349  1.00  0.00     0.010 A 
ATOM     31  C   UNL A   1      38.600  29.153  28.572  1.00  0.00    -0.014 A 
BRANCH  31  32
ATOM     32  C   UNL A   1      39.984  28.622  28.699  1.00  0.00     0.031 A 
ATOM     33  C   UNL A   1      41.098  29.530  29.146  1.00  0.00     0.074 A 
ATOM     34  C   UNL A   1      40.258  27.334  28.413  1.00  0.00     0.049 A 
ATOM     35  N   UNL A   1      42.392  29.340  29.094  1.00  0.00    -0.248 NA
ATOM     36  C   UNL A   1      40.704  30.831  29.713  1.00  0.00     0.031 C 
ATOM     37  C   UNL A   1      39.279  26.316  28.027  1.00  0.00     0.029 A 
ATOM     38  N   UNL A   1      41.454  26.660  28.412  1.00  0.00    -0.354 N 
ATOM     39  C   UNL A   1      42.965  30.522  29.549  1.00  0.00     0.074 A 
ATOM     40  C   UNL A   1      41.880  31.417  29.887  1.00  0.00     0.031 C 
ATOM     41  C   UNL A   1      39.907  25.142  27.865  1.00  0.00     0.029 A 
ATOM     42  C   UNL A   1      41.341  25.341  28.046  1.00  0.00     0.049 A 
ATOM     43  H   UNL A   1      42.313  27.081  28.649  1.00  0.00     0.167 HD
ATOM     44  C   UNL A   1      44.277  30.836  29.661  1.00  0.00     0.031 A 
ATOM     45  C   UNL A   1      42.283  24.404  27.834  1.00  0.00     0.031 A 
ATOM     46  C   UNL A   1      45.357  29.929  29.376  1.00  0.00     0.049 A 
ATOM     47  C   UNL A   1      43.732  24.774  27.956  1.00  0.00     0.074 A 
ATOM     48  C   UNL A   1      46.720  30.157  29.451  1.00  0.00     0.029 A 
ATOM     49  N   UNL A   1      45.193  28.609  28.990  1.00  0.00    -0.354 N 
ATOM     50  N   UNL A   1      44.262  25.926  28.287  1.00  0.00    -0.248 NA
ATOM     51  C   UNL A   1      44.710  23.723  27.647  1.00  0.00     0.031 C 
ATOM     52  C   UNL A   1      47.382  28.978  29.088  1.00  0.00     0.029 A 
ATOM     53  C   UNL A   1      46.428  28.010  28.822  1.00  0.00     0.049 A 
ATOM     54  H   UNL A   1      44.324  28.164  28.854  1.00  0.00     0.167 HD
ATOM     55  C   UNL A   1      45.636  25.740  28.222  1.00  0.00     0.074 A 
ATOM     56  C   UNL A   1      45.857  24.357  27.847  1.00  0.00     0.031 C 
ATOM     57  C   UNL A   1      46.627  26.637  28.442  1.00  0.00     0.031 A 
BRANCH  44  58
ATOM     58  C   UNL A   1      44.617  32.241  30.065  1.00  0.00    -0.014 A 
ATOM     59  C   UNL A   1      44.705  33.276  29.122  1.00  0.00     0.009 A 
ATOM     60  C   UNL A   1      44.829  32.534  31.422  1.00  0.00     0.009 A 
ATOM     61  C   UNL A   1      45.024  34.574  29.530  1.00  0.00     0.001 A 
ATOM     62  C   UNL A   1      45.128  33.835  31.828  1.00  0.00     0.001 A 
ATOM     63  C   UNL A   1      45.232  34.852  30.881  1.00  0.00     0.000 A 
ENDBRANCH  44  58
BRANCH  45  64
ATOM     64  C   UNL A   1      41.881  23.036  27.424  1.00  0.00    -0.014 A 
ATOM     65  C   UNL A   1      41.898  22.665  26.071  1.00  0.00     0.009 A 
ATOM     66  C   UNL A   1      41.498  22.087  28.385  1.00  0.00     0.009 A 
ATOM     67  C   UNL A   1      41.531  21.373  25.690  1.00  0.00     0.001 A 
ATOM     68  C   UNL A   1      41.158  20.789  28.004  1.00  0.00     0.001 A 
ATOM     69  C   UNL A   1      41.169  20.435  26.656  1.00  0.00     0.000 A 
ENDBRANCH  45  64
BRANCH  57  70
ATOM     70  C   UNL A   1      48.034  26.142  28.293  1.00  0.00    -0.014 A 
ATOM     71  C   UNL A   1      48.748  25.660  29.399  1.00  0.00     0.009 A 
ATOM     72  C   UNL A   1      48.641  26.137  27.028  1.00  0.00     0.009 A 
ATOM     73  C   UNL A   1      50.059  25.205  29.246  1.00  0.00     0.001 A 
ATOM     74  C   UNL A   1      49.946  25.666  26.876  1.00  0.00     0.001 A 
ATOM     75  C   UNL A   1      50.655  25.207  27.985  1.00  0.00     0.000 A 
ENDBRANCH  57  70
ENDBRANCH  31  32
ENDBRANCH  24  26
ENDBRANCH  23  24
ENDBRANCH  22  23
ENDBRANCH   1  22
TORSDOF 14
ENDMDL
MODEL 3
REMARK VINA RESULT:      -9.8      3.843      7.604
REMARK SMILES C[NH2+][C@]1(C(=O)OCCOC(=O)c2ccc(-c3c4nc(c(-c5ccccc5)c5ccc([nH]5)c(-c5ccccc5)c5nc(c(-c6ccccc6)c6ccc3[nH]6)C=C5)C=C4)cc2)CCC[C@@H](Sc2nccn2C)C1
REMARK SMILES IDX 7 1 6 2 4 3 5 4 3 5 60 6 71 7 61 8 63 9 62 10 2 11 1 12
REMARK SMILES IDX 64 15 65 16 66 17 69 18 67 19 68 20 70 21 8 22 9 23 10 24
REMARK SMILES IDX 11 25 12 26 13 27 59 28 14 29 58 30 15 31 16 32 17 33 52 34
REMARK SMILES IDX 18 35 57 36 51 37 53 38 19 39 56 40 50 41 49 42 20 44 42 45
REMARK SMILES IDX 27 46 41 47 28 48 31 49 40 50 54 51 29 52 30 53 39 55 55 56
REMARK SMILES IDX 32 57 21 58 22 59 26 60 23 61 25 62 24 63 43 64 44 65 48 66
REMARK SMILES IDX 45 67 47 68 46 69 33 70 34 71 38 72 35 73 37 74 36 75
REMARK H PARENT 2 13 2 14 53 43 31 54
REMARK Flexibility Score: inf
ROOT
ATOM      1  C   UNL A   1      38.497  21.284  25.348  1.00  0.00     0.274 C 
ENDROOT
BRANCH   1   2
ATOM      2  O   UNL A   1      37.065  21.128  25.391  1.00  0.00    -0.457 OA
BRANCH   2   3
ATOM      3  C   UNL A   1      36.369  22.264  25.671  1.00  0.00     0.368 C 
ATOM      4  O   UNL A   1      36.883  23.376  25.770  1.00  0.00    -0.245 OA
BRANCH   3   5
ATOM      5  C   UNL A   1      34.845  22.029  25.861  1.00  0.00     0.195 C 
ATOM      6  C   UNL A   1      33.987  23.277  25.566  1.00  0.00     0.081 C 
ATOM      7  C   UNL A   1      34.504  20.937  24.816  1.00  0.00     0.096 C 
ATOM      8  C   UNL A   1      32.489  22.969  25.526  1.00  0.00     0.008 C 
ATOM      9  C   UNL A   1      33.010  20.627  24.723  1.00  0.00     0.061 C 
ATOM     10  C   UNL A   1      32.172  21.890  24.492  1.00  0.00     0.015 C 
BRANCH   5  11
ATOM     11  N   UNL A   1      34.573  21.440  27.204  1.00  0.00    -0.335 N 
ATOM     12  C   UNL A   1      33.966  22.347  28.167  1.00  0.00     0.331 C 
ATOM     13  H   UNL A   1      33.946  20.646  27.080  1.00  0.00     0.347 HD
ATOM     14  H   UNL A   1      35.482  21.184  27.591  1.00  0.00     0.347 HD
ENDBRANCH   5  11
BRANCH   9  15
ATOM     15  S   UNL A   1      32.661  19.336  23.466  1.00  0.00    -0.084 SA
BRANCH  15  16
ATOM     16  C   UNL A   1      32.782  17.880  24.395  1.00  0.00     0.167 A 
ATOM     17  N   UNL A   1      32.196  17.676  25.552  1.00  0.00    -0.231 NA
ATOM     18  N   UNL A   1      33.532  16.801  24.016  1.00  0.00    -0.329 N 
ATOM     19  C   UNL A   1      32.603  16.432  25.955  1.00  0.00     0.132 A 
ATOM     20  C   UNL A   1      33.442  15.871  25.022  1.00  0.00     0.108 A 
ATOM     21  C   UNL A   1      34.315  16.617  22.819  1.00  0.00     0.152 C 
ENDBRANCH  15  16
ENDBRANCH   9  15
ENDBRANCH   3   5
ENDBRANCH   2   3
ENDBRANCH   1   2
BRANCH   1  22
ATOM     22  C   UNL A   1      39.210  20.123  26.038  1.00  0.00     0.275 C 
BRANCH  22  23
ATOM     23  O   UNL A   1      40.374  19.743  25.285  1.00  0.00    -0.458 OA
BRANCH  23  24
ATOM     24  C   UNL A   1      41.504  19.550  26.002  1.00  0.00     0.338 C 
ATOM     25  O   UNL A   1      42.081  18.494  26.199  1.00  0.00    -0.246 OA
BRANCH  24  26
ATOM     26  C   UNL A   1      41.995  20.836  26.539  1.00  0.00     0.060 A 
ATOM     27  C   UNL A   1      41.991  21.090  27.910  1.00  0.00     0.016 A 
ATOM     28  C   UNL A   1      42.343  21.852  25.650  1.00  0.00     0.016 A 
ATOM     29  C   UNL A   1      42.237  22.374  28.393  1.00  0.00     0.010 A 
ATOM     30  C   UNL A   1      42.688  23.115  26.140  1.00  0.00     0.010 A 
ATOM     31  C   UNL A   1      42.600  23.402  27.515  1.00  0.00    -0.014 A 
BRANCH  31  32
ATOM     32  C   UNL A   1      42.842  24.783  28.010  1.00  0.00     0.031 A 
ATOM     33  C   UNL A   1      44.234  25.212  28.390  1.00  0.00     0.074 A 
ATOM     34  C   UNL A   1      41.827  25.661  28.130  1.00  0.00     0.049 A 
ATOM     35  N   UNL A   1      44.621  26.269  29.057  1.00  0.00    -0.248 NA
ATOM     36  C   UNL A   1      45.335  24.325  27.977  1.00  0.00     0.031 C 
ATOM     37  C   UNL A   1      40.435  25.417  27.746  1.00  0.00     0.029 A 
ATOM     38  N   UNL A   1      41.817  26.948  28.608  1.00  0.00    -0.354 N 
ATOM     39  C   UNL A   1      45.996  26.136  29.209  1.00  0.00     0.074 A 
ATOM     40  C   UNL A   1      46.379  24.905  28.551  1.00  0.00     0.031 C 
ATOM     41  C   UNL A   1      39.717  26.529  27.966  1.00  0.00     0.029 A 
ATOM     42  C   UNL A   1      40.573  27.532  28.589  1.00  0.00     0.049 A 
ATOM     43  H   UNL A   1      42.624  27.410  28.934  1.00  0.00     0.167 HD
ATOM     44  C   UNL A   1      46.859  26.959  29.851  1.00  0.00     0.031 A 
ATOM     45  C   UNL A   1      40.154  28.720  29.061  1.00  0.00     0.031 A 
ATOM     46  C   UNL A   1      46.489  28.209  30.459  1.00  0.00     0.049 A 
ATOM     47  C   UNL A   1      41.124  29.614  29.775  1.00  0.00     0.074 A 
ATOM     48  C   UNL A   1      47.291  29.109  31.140  1.00  0.00     0.029 A 
ATOM     49  N   UNL A   1      45.214  28.749  30.432  1.00  0.00    -0.354 N 
ATOM     50  N   UNL A   1      42.402  29.429  30.002  1.00  0.00    -0.248 NA
ATOM     51  C   UNL A   1      40.587  30.867  30.322  1.00  0.00     0.031 C 
ATOM     52  C   UNL A   1      46.492  30.186  31.545  1.00  0.00     0.029 A 
ATOM     53  C   UNL A   1      45.204  29.969  31.084  1.00  0.00     0.049 A 
ATOM     54  H   UNL A   1      44.430  28.326  30.011  1.00  0.00     0.167 HD
ATOM     55  C   UNL A   1      42.820  30.539  30.723  1.00  0.00     0.074 A 
ATOM     56  C   UNL A   1      41.668  31.405  30.871  1.00  0.00     0.031 C 
ATOM     57  C   UNL A   1      44.048  30.811  31.227  1.00  0.00     0.031 A 
BRANCH  44  58
ATOM     58  C   UNL A   1      48.285  26.505  29.971  1.00  0.00    -0.014 A 
ATOM     59  C   UNL A   1      48.713  25.699  31.036  1.00  0.00     0.009 A 
ATOM     60  C   UNL A   1      49.209  26.874  28.980  1.00  0.00     0.009 A 
ATOM     61  C   UNL A   1      50.046  25.293  31.120  1.00  0.00     0.001 A 
ATOM     62  C   UNL A   1      50.536  26.450  29.056  1.00  0.00     0.001 A 
ATOM     63  C   UNL A   1      50.956  25.666  30.130  1.00  0.00     0.000 A 
ENDBRANCH  44  58
BRANCH  45  64
ATOM     64  C   UNL A   1      38.728  29.105  28.921  1.00  0.00    -0.014 A 
ATOM     65  C   UNL A   1      37.836  28.927  29.990  1.00  0.00     0.009 A 
ATOM     66  C   UNL A   1      38.255  29.671  27.727  1.00  0.00     0.009 A 
ATOM     67  C   UNL A   1      36.497  29.302  29.860  1.00  0.00     0.001 A 
ATOM     68  C   UNL A   1      36.923  30.069  27.609  1.00  0.00     0.001 A 
ATOM     69  C   UNL A   1      36.044  29.878  28.674  1.00  0.00     0.000 A 
ENDBRANCH  45  64
BRANCH  57  70
ATOM     70  C   UNL A   1      44.202  32.102  31.972  1.00  0.00    -0.014 A 
ATOM     71  C   UNL A   1      44.012  32.158  33.361  1.00  0.00     0.009 A 
ATOM     72  C   UNL A   1      44.566  33.268  31.281  1.00  0.00     0.009 A 
ATOM     73  C   UNL A   1      44.157  33.368  34.042  1.00  0.00     0.001 A 
ATOM     74  C   UNL A   1      44.726  34.472  31.968  1.00  0.00     0.001 A 
ATOM     75  C   UNL A   1      44.515  34.523  33.345  1.00  0.00     0.000 A 
ENDBRANCH  57  70
ENDBRANCH  31  32
ENDBRANCH  24  26
ENDBRANCH  23  24
ENDBRANCH  22  23
ENDBRANCH   1  22
TORSDOF 14
ENDMDL
