MODEL 1
REMARK VINA RESULT:     -11.8      0.000      0.000
REMARK SMILES COCCNC(=O)NC(=O)C[N@H+]1CC[C@H](C(=O)OCCOC(=O)c2ccc(-c3c4nc(c(-c5ccccc5)c5ccc([nH]5)c(-c5ccccc5)c5nc(c(-c6ccccc6)c6ccc3[nH]6)C=C5)C=C4)cc2)[C@@H]1C
REMARK SMILES IDX 18 1 16 2 17 3 15 4 12 5 13 6 72 7 14 9 73 10 11 11 9 12
REMARK SMILES IDX 5 13 6 14 7 16 8 17 10 19 4 20 3 21 2 22 1 23 19 24 20 25
REMARK SMILES IDX 21 26 22 27 23 28 24 29 25 30 71 31 26 32 70 33 27 34 28 35
REMARK SMILES IDX 29 36 64 37 30 38 69 39 63 40 65 41 31 42 68 43 62 44 61 45
REMARK SMILES IDX 32 47 54 48 39 49 53 50 40 51 43 52 52 53 66 54 41 55 42 56
REMARK SMILES IDX 51 58 67 59 44 60 33 61 34 62 38 63 35 64 37 65 36 66 55 67
REMARK SMILES IDX 56 68 60 69 57 70 59 71 58 72 45 73 46 74 50 75 47 76 49 77
REMARK SMILES IDX 48 78
REMARK H PARENT 12 8 5 15 8 18 65 46 43 57
REMARK Flexibility Score: inf
ROOT
ATOM      1  O   UNL A   1      30.673  29.128  24.304  1.00  0.00    -0.462 OA
ENDROOT
BRANCH   1   2
ATOM      2  C   UNL A   1      30.968  28.622  23.082  1.00  0.00     0.315 C 
ATOM      3  O   UNL A   1      31.030  29.394  22.121  1.00  0.00    -0.252 OA
BRANCH   2   4
ATOM      4  C   UNL A   1      31.201  26.830  22.973  1.00  0.00     0.162 C 
ATOM      5  N   UNL A   1      32.350  24.992  25.404  1.00  0.00    -0.324 N 
ATOM      6  C   UNL A   1      33.691  26.171  24.823  1.00  0.00     0.264 C 
ATOM      7  C   UNL A   1      30.682  25.381  24.484  1.00  0.00     0.195 C 
ATOM      8  H   UNL A   1      32.196  25.141  26.401  1.00  0.00     0.348 HD
ATOM      9  C   UNL A   1      33.154  27.105  23.199  1.00  0.00     0.083 C 
ATOM     10  C   UNL A   1      29.838  25.528  25.972  1.00  0.00     0.076 C 
BRANCH   5  11
ATOM     11  C   UNL A   1      32.774  23.527  25.282  1.00  0.00     0.364 C 
BRANCH  11  12
ATOM     12  C   UNL A   1      32.241  22.457  26.315  1.00  0.00     0.283 C 
ATOM     13  N   UNL A   1      33.700  20.210  24.427  1.00  0.00    -0.335 N 
ATOM     14  C   UNL A   1      32.561  20.005  25.211  1.00  0.00     0.321 C 
ATOM     15  H   UNL A   1      34.096  19.488  23.888  1.00  0.00     0.165 HD
ATOM     16  O   UNL A   1      32.014  18.907  25.236  1.00  0.00    -0.248 OA
ATOM     17  N   UNL A   1      32.084  21.070  26.030  1.00  0.00    -0.273 N 
ATOM     18  H   UNL A   1      31.384  20.711  26.621  1.00  0.00     0.175 HD
ATOM     19  O   UNL A   1      31.927  22.822  27.456  1.00  0.00    -0.268 OA
BRANCH  13  20
ATOM     20  C   UNL A   1      34.274  21.563  24.451  1.00  0.00     0.146 C 
BRANCH  20  21
ATOM     21  C   UNL A   1      35.994  22.813  23.940  1.00  0.00     0.181 C 
BRANCH  21  22
ATOM     22  O   UNL A   1      37.616  22.056  24.317  1.00  0.00    -0.383 OA
ATOM     23  C   UNL A   1      37.813  20.774  25.185  1.00  0.00     0.194 C 
ENDBRANCH  21  22
ENDBRANCH  20  21
ENDBRANCH  13  20
ENDBRANCH  11  12
ENDBRANCH   5  11
ENDBRANCH   2   4
ENDBRANCH   1   2
BRANCH   1  24
ATOM     24  C   UNL A   1      31.848  29.812  24.848  1.00  0.00     0.274 C 
BRANCH  24  25
ATOM     25  C   UNL A   1      31.456  30.698  26.027  1.00  0.00     0.275 C 
BRANCH  25  26
ATOM     26  O   UNL A   1      32.279  30.536  27.214  1.00  0.00    -0.458 OA
BRANCH  26  27
ATOM     27  C   UNL A   1      33.200  31.532  27.354  1.00  0.00     0.338 C 
ATOM     28  O   UNL A   1      32.923  32.727  27.356  1.00  0.00    -0.246 OA
BRANCH  27  29
ATOM     29  C   UNL A   1      34.613  31.136  27.626  1.00  0.00     0.060 A 
ATOM     30  C   UNL A   1      35.028  29.838  27.871  1.00  0.00     0.016 A 
ATOM     31  C   UNL A   1      35.508  32.171  27.921  1.00  0.00     0.016 A 
ATOM     32  C   UNL A   1      36.140  29.626  28.707  1.00  0.00     0.010 A 
ATOM     33  C   UNL A   1      36.741  31.920  28.534  1.00  0.00     0.010 A 
ATOM     34  C   UNL A   1      37.055  30.643  29.003  1.00  0.00    -0.014 A 
BRANCH  34  35
ATOM     35  C   UNL A   1      38.362  30.365  29.681  1.00  0.00     0.031 A 
ATOM     36  C   UNL A   1      39.411  29.478  29.047  1.00  0.00     0.074 A 
ATOM     37  C   UNL A   1      38.562  30.824  30.937  1.00  0.00     0.049 A 
ATOM     38  N   UNL A   1      40.433  28.874  29.605  1.00  0.00    -0.248 NA
ATOM     39  C   UNL A   1      39.289  29.221  27.603  1.00  0.00     0.031 C 
ATOM     40  C   UNL A   1      37.675  31.736  31.668  1.00  0.00     0.029 A 
ATOM     41  N   UNL A   1      39.559  30.557  31.845  1.00  0.00    -0.354 N 
ATOM     42  C   UNL A   1      41.031  28.117  28.602  1.00  0.00     0.074 A 
ATOM     43  C   UNL A   1      40.255  28.335  27.400  1.00  0.00     0.031 C 
ATOM     44  C   UNL A   1      38.165  31.964  32.887  1.00  0.00     0.029 A 
ATOM     45  C   UNL A   1      39.324  31.115  33.081  1.00  0.00     0.049 A 
ATOM     46  H   UNL A   1      40.358  30.023  31.633  1.00  0.00     0.167 HD
ATOM     47  C   UNL A   1      42.117  27.305  28.684  1.00  0.00     0.031 A 
ATOM     48  C   UNL A   1      39.906  30.914  34.276  1.00  0.00     0.031 A 
ATOM     49  C   UNL A   1      42.873  27.094  29.895  1.00  0.00     0.049 A 
ATOM     50  C   UNL A   1      41.035  29.938  34.366  1.00  0.00     0.074 A 
ATOM     51  C   UNL A   1      43.996  26.306  30.088  1.00  0.00     0.029 A 
ATOM     52  N   UNL A   1      42.577  27.670  31.122  1.00  0.00    -0.354 N 
ATOM     53  N   UNL A   1      41.576  29.215  33.416  1.00  0.00    -0.248 NA
ATOM     54  C   UNL A   1      41.636  29.752  35.690  1.00  0.00     0.031 C 
ATOM     55  C   UNL A   1      44.321  26.336  31.448  1.00  0.00     0.029 A 
ATOM     56  C   UNL A   1      43.467  27.221  32.084  1.00  0.00     0.049 A 
ATOM     57  H   UNL A   1      41.841  28.304  31.286  1.00  0.00     0.167 HD
ATOM     58  C   UNL A   1      42.608  28.514  34.021  1.00  0.00     0.074 A 
ATOM     59  C   UNL A   1      42.624  28.913  35.414  1.00  0.00     0.031 C 
ATOM     60  C   UNL A   1      43.467  27.622  33.469  1.00  0.00     0.031 A 
BRANCH  47  61
ATOM     61  C   UNL A   1      42.505  26.522  27.452  1.00  0.00    -0.014 A 
ATOM     62  C   UNL A   1      43.447  27.002  26.529  1.00  0.00     0.009 A 
ATOM     63  C   UNL A   1      41.924  25.263  27.223  1.00  0.00     0.009 A 
ATOM     64  C   UNL A   1      43.751  26.269  25.376  1.00  0.00     0.001 A 
ATOM     65  C   UNL A   1      42.258  24.514  26.092  1.00  0.00     0.001 A 
ATOM     66  C   UNL A   1      43.158  25.025  25.160  1.00  0.00     0.000 A 
ENDBRANCH  47  61
BRANCH  48  67
ATOM     67  C   UNL A   1      39.382  31.609  35.485  1.00  0.00    -0.014 A 
ATOM     68  C   UNL A   1      38.343  31.045  36.238  1.00  0.00     0.009 A 
ATOM     69  C   UNL A   1      39.933  32.835  35.903  1.00  0.00     0.009 A 
ATOM     70  C   UNL A   1      37.843  31.709  37.361  1.00  0.00     0.001 A 
ATOM     71  C   UNL A   1      39.461  33.473  37.051  1.00  0.00     0.001 A 
ATOM     72  C   UNL A   1      38.406  32.918  37.770  1.00  0.00     0.000 A 
ENDBRANCH  48  67
BRANCH  60  73
ATOM     73  C   UNL A   1      44.536  27.062  34.367  1.00  0.00    -0.014 A 
ATOM     74  C   UNL A   1      45.769  27.708  34.543  1.00  0.00     0.009 A 
ATOM     75  C   UNL A   1      44.285  25.873  35.072  1.00  0.00     0.009 A 
ATOM     76  C   UNL A   1      46.744  27.152  35.373  1.00  0.00     0.001 A 
ATOM     77  C   UNL A   1      45.243  25.344  35.935  1.00  0.00     0.001 A 
ATOM     78  C   UNL A   1      46.477  25.977  36.074  1.00  0.00     0.000 A 
ENDBRANCH  60  73
ENDBRANCH  34  35
ENDBRANCH  27  29
ENDBRANCH  26  27
ENDBRANCH  25  26
ENDBRANCH  24  25
ENDBRANCH   1  24
TORSDOF 16
ENDMDL
MODEL 2
REMARK VINA RESULT:     -11.8      3.591      9.159
REMARK SMILES COCCNC(=O)NC(=O)C[N@H+]1CC[C@H](C(=O)OCCOC(=O)c2ccc(-c3c4nc(c(-c5ccccc5)c5ccc([nH]5)c(-c5ccccc5)c5nc(c(-c6ccccc6)c6ccc3[nH]6)C=C5)C=C4)cc2)[C@@H]1C
REMARK SMILES IDX 18 1 16 2 17 3 15 4 12 5 13 6 72 7 14 9 73 10 11 11 9 12
REMARK SMILES IDX 5 13 6 14 7 16 8 17 10 19 4 20 3 21 2 22 1 23 19 24 20 25
REMARK SMILES IDX 21 26 22 27 23 28 24 29 25 30 71 31 26 32 70 33 27 34 28 35
REMARK SMILES IDX 29 36 64 37 30 38 69 39 63 40 65 41 31 42 68 43 62 44 61 45
REMARK SMILES IDX 32 47 54 48 39 49 53 50 40 51 43 52 52 53 66 54 41 55 42 56
REMARK SMILES IDX 51 58 67 59 44 60 33 61 34 62 38 63 35 64 37 65 36 66 55 67
REMARK SMILES IDX 56 68 60 69 57 70 59 71 58 72 45 73 46 74 50 75 47 76 49 77
REMARK SMILES IDX 48 78
REMARK H PARENT 12 8 5 15 8 18 65 46 43 57
REMARK Flexibility Score: inf
ROOT
ATOM      1  O   UNL A   1      34.543  20.876  24.719  1.00  0.00    -0.462 OA
ENDROOT
BRANCH   1   2
ATOM      2  C   UNL A   1      33.403  20.972  25.445  1.00  0.00     0.315 C 
ATOM      3  O   UNL A   1      33.163  20.100  26.285  1.00  0.00    -0.252 OA
BRANCH   2   4
ATOM      4  C   UNL A   1      32.310  22.366  25.072  1.00  0.00     0.162 C 
ATOM      5  N   UNL A   1      33.327  25.190  23.808  1.00  0.00    -0.324 N 
ATOM      6  C   UNL A   1      34.054  24.975  25.526  1.00  0.00     0.264 C 
ATOM      7  C   UNL A   1      32.358  23.585  23.293  1.00  0.00     0.195 C 
ATOM      8  H   UNL A   1      34.091  25.317  23.145  1.00  0.00     0.348 HD
ATOM      9  C   UNL A   1      33.271  23.441  26.437  1.00  0.00     0.083 C 
ATOM     10  C   UNL A   1      33.255  23.451  21.835  1.00  0.00     0.076 C 
BRANCH   5  11
ATOM     11  C   UNL A   1      32.485  26.461  23.691  1.00  0.00     0.364 C 
BRANCH  11  12
ATOM     12  C   UNL A   1      32.730  27.471  22.501  1.00  0.00     0.283 C 
ATOM     13  N   UNL A   1      30.255  29.221  23.745  1.00  0.00    -0.335 N 
ATOM     14  C   UNL A   1      30.619  29.164  22.397  1.00  0.00     0.321 C 
ATOM     15  H   UNL A   1      29.504  29.776  24.056  1.00  0.00     0.165 HD
ATOM     16  O   UNL A   1      29.995  29.804  21.556  1.00  0.00    -0.248 OA
ATOM     17  N   UNL A   1      31.765  28.403  22.022  1.00  0.00    -0.273 N 
ATOM     18  H   UNL A   1      31.965  28.596  21.078  1.00  0.00     0.175 HD
ATOM     19  O   UNL A   1      33.826  27.471  21.924  1.00  0.00    -0.268 OA
BRANCH  13  20
ATOM     20  C   UNL A   1      31.053  28.407  24.673  1.00  0.00     0.146 C 
BRANCH  20  21
ATOM     21  C   UNL A   1      32.351  28.411  26.432  1.00  0.00     0.181 C 
BRANCH  21  22
ATOM     22  O   UNL A   1      33.638  29.711  26.418  1.00  0.00    -0.383 OA
ATOM     23  C   UNL A   1      34.927  29.688  27.298  1.00  0.00     0.194 C 
ENDBRANCH  21  22
ENDBRANCH  20  21
ENDBRANCH  13  20
ENDBRANCH  11  12
ENDBRANCH   5  11
ENDBRANCH   2   4
ENDBRANCH   1   2
BRANCH   1  24
ATOM     24  C   UNL A   1      35.701  21.051  25.599  1.00  0.00     0.274 C 
BRANCH  24  25
ATOM     25  C   UNL A   1      36.959  20.476  24.953  1.00  0.00     0.275 C 
BRANCH  25  26
ATOM     26  O   UNL A   1      38.055  21.419  24.804  1.00  0.00    -0.458 OA
BRANCH  26  27
ATOM     27  C   UNL A   1      38.989  21.297  25.790  1.00  0.00     0.338 C 
ATOM     28  O   UNL A   1      39.604  20.264  26.028  1.00  0.00    -0.246 OA
BRANCH  27  29
ATOM     29  C   UNL A   1      39.358  22.528  26.552  1.00  0.00     0.060 A 
ATOM     30  C   UNL A   1      38.897  23.799  26.253  1.00  0.00     0.016 A 
ATOM     31  C   UNL A   1      40.437  22.418  27.436  1.00  0.00     0.016 A 
ATOM     32  C   UNL A   1      39.718  24.905  26.544  1.00  0.00     0.010 A 
ATOM     33  C   UNL A   1      41.099  23.549  27.926  1.00  0.00     0.010 A 
ATOM     34  C   UNL A   1      40.794  24.820  27.435  1.00  0.00    -0.014 A 
BRANCH  34  35
ATOM     35  C   UNL A   1      41.510  26.038  27.935  1.00  0.00     0.031 A 
ATOM     36  C   UNL A   1      40.817  27.064  28.804  1.00  0.00     0.074 A 
ATOM     37  C   UNL A   1      42.769  26.282  27.507  1.00  0.00     0.049 A 
ATOM     38  N   UNL A   1      41.161  28.305  29.055  1.00  0.00    -0.248 NA
ATOM     39  C   UNL A   1      39.568  26.651  29.464  1.00  0.00     0.031 C 
ATOM     40  C   UNL A   1      43.597  25.368  26.712  1.00  0.00     0.029 A 
ATOM     41  N   UNL A   1      43.568  27.392  27.646  1.00  0.00    -0.354 N 
ATOM     42  C   UNL A   1      40.142  28.838  29.841  1.00  0.00     0.074 A 
ATOM     43  C   UNL A   1      39.165  27.785  30.022  1.00  0.00     0.031 C 
ATOM     44  C   UNL A   1      44.775  25.937  26.450  1.00  0.00     0.029 A 
ATOM     45  C   UNL A   1      44.743  27.302  26.935  1.00  0.00     0.049 A 
ATOM     46  H   UNL A   1      43.325  28.172  28.197  1.00  0.00     0.167 HD
ATOM     47  C   UNL A   1      40.029  30.093  30.347  1.00  0.00     0.031 A 
ATOM     48  C   UNL A   1      45.667  28.225  26.617  1.00  0.00     0.031 A 
ATOM     49  C   UNL A   1      41.011  31.131  30.148  1.00  0.00     0.049 A 
ATOM     50  C   UNL A   1      45.472  29.627  27.100  1.00  0.00     0.074 A 
ATOM     51  C   UNL A   1      41.004  32.432  30.626  1.00  0.00     0.029 A 
ATOM     52  N   UNL A   1      42.172  30.989  29.401  1.00  0.00    -0.354 N 
ATOM     53  N   UNL A   1      44.496  30.121  27.822  1.00  0.00    -0.248 NA
ATOM     54  C   UNL A   1      46.505  30.598  26.726  1.00  0.00     0.031 C 
ATOM     55  C   UNL A   1      42.113  33.097  30.095  1.00  0.00     0.029 A 
ATOM     56  C   UNL A   1      42.866  32.188  29.370  1.00  0.00     0.049 A 
ATOM     57  H   UNL A   1      42.460  30.158  28.958  1.00  0.00     0.167 HD
ATOM     58  C   UNL A   1      44.817  31.455  28.022  1.00  0.00     0.074 A 
ATOM     59  C   UNL A   1      46.084  31.684  27.358  1.00  0.00     0.031 C 
ATOM     60  C   UNL A   1      44.124  32.403  28.699  1.00  0.00     0.031 A 
BRANCH  47  61
ATOM     61  C   UNL A   1      38.765  30.437  31.098  1.00  0.00    -0.014 A 
ATOM     62  C   UNL A   1      38.681  30.353  32.497  1.00  0.00     0.009 A 
ATOM     63  C   UNL A   1      37.635  30.875  30.385  1.00  0.00     0.009 A 
ATOM     64  C   UNL A   1      37.481  30.639  33.157  1.00  0.00     0.001 A 
ATOM     65  C   UNL A   1      36.449  31.198  31.048  1.00  0.00     0.001 A 
ATOM     66  C   UNL A   1      36.367  31.063  32.432  1.00  0.00     0.000 A 
ENDBRANCH  47  61
BRANCH  48  67
ATOM     67  C   UNL A   1      46.819  27.856  25.749  1.00  0.00    -0.014 A 
ATOM     68  C   UNL A   1      48.032  27.437  26.314  1.00  0.00     0.009 A 
ATOM     69  C   UNL A   1      46.707  27.904  24.348  1.00  0.00     0.009 A 
ATOM     70  C   UNL A   1      49.116  27.108  25.498  1.00  0.00     0.001 A 
ATOM     71  C   UNL A   1      47.778  27.531  23.534  1.00  0.00     0.001 A 
ATOM     72  C   UNL A   1      48.987  27.149  24.109  1.00  0.00     0.000 A 
ENDBRANCH  48  67
BRANCH  60  73
ATOM     73  C   UNL A   1      44.756  33.764  28.803  1.00  0.00    -0.014 A 
ATOM     74  C   UNL A   1      44.477  34.782  27.878  1.00  0.00     0.009 A 
ATOM     75  C   UNL A   1      45.629  34.035  29.869  1.00  0.00     0.009 A 
ATOM     76  C   UNL A   1      45.094  36.029  27.996  1.00  0.00     0.001 A 
ATOM     77  C   UNL A   1      46.208  35.295  30.009  1.00  0.00     0.001 A 
ATOM     78  C   UNL A   1      45.950  36.287  29.065  1.00  0.00     0.000 A 
ENDBRANCH  60  73
ENDBRANCH  34  35
ENDBRANCH  27  29
ENDBRANCH  26  27
ENDBRANCH  25  26
ENDBRANCH  24  25
ENDBRANCH   1  24
TORSDOF 16
ENDMDL
MODEL 3
REMARK VINA RESULT:     -11.5      3.712      6.693
REMARK SMILES COCCNC(=O)NC(=O)C[N@H+]1CC[C@H](C(=O)OCCOC(=O)c2ccc(-c3c4nc(c(-c5ccccc5)c5ccc([nH]5)c(-c5ccccc5)c5nc(c(-c6ccccc6)c6ccc3[nH]6)C=C5)C=C4)cc2)[C@@H]1C
REMARK SMILES IDX 18 1 16 2 17 3 15 4 12 5 13 6 72 7 14 9 73 10 11 11 9 12
REMARK SMILES IDX 5 13 6 14 7 16 8 17 10 19 4 20 3 21 2 22 1 23 19 24 20 25
REMARK SMILES IDX 21 26 22 27 23 28 24 29 25 30 71 31 26 32 70 33 27 34 28 35
REMARK SMILES IDX 29 36 64 37 30 38 69 39 63 40 65 41 31 42 68 43 62 44 61 45
REMARK SMILES IDX 32 47 54 48 39 49 53 50 40 51 43 52 52 53 66 54 41 55 42 56
REMARK SMILES IDX 51 58 67 59 44 60 33 61 34 62 38 63 35 64 37 65 36 66 55 67
REMARK SMILES IDX 56 68 60 69 57 70 59 71 58 72 45 73 46 74 50 75 47 76 49 77
REMARK SMILES IDX 48 78
REMARK H PARENT 12 8 5 15 8 18 65 46 43 57
REMARK Flexibility Score: inf
ROOT
ATOM      1  O   UNL A   1      31.242  28.916  25.169  1.00  0.00    -0.462 OA
ENDROOT
BRANCH   1   2
ATOM      2  C   UNL A   1      31.475  28.519  23.894  1.00  0.00     0.315 C 
ATOM      3  O   UNL A   1      31.411  29.359  22.992  1.00  0.00    -0.252 OA
BRANCH   2   4
ATOM      4  C   UNL A   1      31.816  26.760  23.634  1.00  0.00     0.162 C 
ATOM      5  N   UNL A   1      32.723  24.712  26.000  1.00  0.00    -0.324 N 
ATOM      6  C   UNL A   1      34.065  26.000  25.737  1.00  0.00     0.264 C 
ATOM      7  C   UNL A   1      31.176  25.135  24.900  1.00  0.00     0.195 C 
ATOM      8  H   UNL A   1      32.428  24.745  26.975  1.00  0.00     0.348 HD
ATOM      9  C   UNL A   1      33.703  27.085  24.159  1.00  0.00     0.083 C 
ATOM     10  C   UNL A   1      30.132  25.085  26.262  1.00  0.00     0.076 C 
BRANCH   5  11
ATOM     11  C   UNL A   1      33.238  23.288  25.788  1.00  0.00     0.364 C 
BRANCH  11  12
ATOM     12  C   UNL A   1      32.890  22.154  26.831  1.00  0.00     0.283 C 
ATOM     13  N   UNL A   1      34.156  20.052  24.659  1.00  0.00    -0.335 N 
ATOM     14  C   UNL A   1      33.144  19.766  25.579  1.00  0.00     0.321 C 
ATOM     15  H   UNL A   1      34.500  19.370  24.038  1.00  0.00     0.165 HD
ATOM     16  O   UNL A   1      32.644  18.646  25.626  1.00  0.00    -0.248 OA
ATOM     17  N   UNL A   1      32.745  20.774  26.504  1.00  0.00    -0.273 N 
ATOM     18  H   UNL A   1      32.146  20.362  27.167  1.00  0.00     0.175 HD
ATOM     19  O   UNL A   1      32.723  22.456  28.020  1.00  0.00    -0.268 OA
BRANCH  13  20
ATOM     20  C   UNL A   1      34.679  21.425  24.669  1.00  0.00     0.146 C 
BRANCH  20  21
ATOM     21  C   UNL A   1      35.666  22.999  23.515  1.00  0.00     0.181 C 
BRANCH  21  22
ATOM     22  O   UNL A   1      34.527  24.045  22.537  1.00  0.00    -0.383 OA
ATOM     23  C   UNL A   1      33.120  23.592  22.038  1.00  0.00     0.194 C 
ENDBRANCH  21  22
ENDBRANCH  20  21
ENDBRANCH  13  20
ENDBRANCH  11  12
ENDBRANCH   5  11
ENDBRANCH   2   4
ENDBRANCH   1   2
BRANCH   1  24
ATOM     24  C   UNL A   1      32.275  29.869  25.582  1.00  0.00     0.274 C 
BRANCH  24  25
ATOM     25  C   UNL A   1      32.660  29.645  27.041  1.00  0.00     0.275 C 
BRANCH  25  26
ATOM     26  O   UNL A   1      34.077  29.421  27.273  1.00  0.00    -0.458 OA
BRANCH  26  27
ATOM     27  C   UNL A   1      34.630  30.363  28.089  1.00  0.00     0.338 C 
ATOM     28  O   UNL A   1      33.984  31.216  28.688  1.00  0.00    -0.246 OA
BRANCH  27  29
ATOM     29  C   UNL A   1      36.099  30.280  28.349  1.00  0.00     0.060 A 
ATOM     30  C   UNL A   1      37.073  30.414  27.374  1.00  0.00     0.016 A 
ATOM     31  C   UNL A   1      36.487  29.766  29.591  1.00  0.00     0.016 A 
ATOM     32  C   UNL A   1      38.290  29.725  27.530  1.00  0.00     0.010 A 
ATOM     33  C   UNL A   1      37.790  29.308  29.818  1.00  0.00     0.010 A 
ATOM     34  C   UNL A   1      38.705  29.215  28.767  1.00  0.00    -0.014 A 
BRANCH  34  35
ATOM     35  C   UNL A   1      40.095  28.705  28.991  1.00  0.00     0.031 A 
ATOM     36  C   UNL A   1      41.238  29.639  29.326  1.00  0.00     0.074 A 
ATOM     37  C   UNL A   1      40.358  27.397  28.778  1.00  0.00     0.049 A 
ATOM     38  N   UNL A   1      42.530  29.434  29.235  1.00  0.00    -0.248 NA
ATOM     39  C   UNL A   1      40.885  30.985  29.809  1.00  0.00     0.031 C 
ATOM     40  C   UNL A   1      39.361  26.355  28.504  1.00  0.00     0.029 A 
ATOM     41  N   UNL A   1      41.551  26.716  28.719  1.00  0.00    -0.354 N 
ATOM     42  C   UNL A   1      43.139  30.637  29.582  1.00  0.00     0.074 A 
ATOM     43  C   UNL A   1      42.074  31.569  29.882  1.00  0.00     0.031 C 
ATOM     44  C   UNL A   1      39.970  25.182  28.324  1.00  0.00     0.029 A 
ATOM     45  C   UNL A   1      41.403  25.403  28.332  1.00  0.00     0.049 A 
ATOM     46  H   UNL A   1      42.422  27.124  28.931  1.00  0.00     0.167 HD
ATOM     47  C   UNL A   1      44.463  30.935  29.629  1.00  0.00     0.031 A 
ATOM     48  C   UNL A   1      42.299  24.482  27.936  1.00  0.00     0.031 A 
ATOM     49  C   UNL A   1      45.511  29.993  29.318  1.00  0.00     0.049 A 
ATOM     50  C   UNL A   1      43.744  24.863  27.898  1.00  0.00     0.074 A 
ATOM     51  C   UNL A   1      46.883  30.184  29.346  1.00  0.00     0.029 A 
ATOM     52  N   UNL A   1      45.301  28.682  28.912  1.00  0.00    -0.354 N 
ATOM     53  N   UNL A   1      44.304  26.007  28.208  1.00  0.00    -0.248 NA
ATOM     54  C   UNL A   1      44.683  23.826  27.457  1.00  0.00     0.031 C 
ATOM     55  C   UNL A   1      47.495  29.019  28.873  1.00  0.00     0.029 A 
ATOM     56  C   UNL A   1      46.514  28.068  28.646  1.00  0.00     0.049 A 
ATOM     57  H   UNL A   1      44.419  28.253  28.825  1.00  0.00     0.167 HD
ATOM     58  C   UNL A   1      45.666  25.817  28.035  1.00  0.00     0.074 A 
ATOM     59  C   UNL A   1      45.845  24.443  27.610  1.00  0.00     0.031 C 
ATOM     60  C   UNL A   1      46.677  26.701  28.218  1.00  0.00     0.031 A 
BRANCH  47  61
ATOM     61  C   UNL A   1      44.853  32.358  29.953  1.00  0.00    -0.014 A 
ATOM     62  C   UNL A   1      44.980  33.342  28.961  1.00  0.00     0.009 A 
ATOM     63  C   UNL A   1      45.080  32.723  31.292  1.00  0.00     0.009 A 
ATOM     64  C   UNL A   1      45.384  34.640  29.293  1.00  0.00     0.001 A 
ATOM     65  C   UNL A   1      45.445  34.030  31.626  1.00  0.00     0.001 A 
ATOM     66  C   UNL A   1      45.614  34.982  30.625  1.00  0.00     0.000 A 
ENDBRANCH  47  61
BRANCH  48  67
ATOM     67  C   UNL A   1      41.837  23.139  27.489  1.00  0.00    -0.014 A 
ATOM     68  C   UNL A   1      41.576  22.889  26.135  1.00  0.00     0.009 A 
ATOM     69  C   UNL A   1      41.671  22.092  28.415  1.00  0.00     0.009 A 
ATOM     70  C   UNL A   1      41.127  21.632  25.722  1.00  0.00     0.001 A 
ATOM     71  C   UNL A   1      41.265  20.826  27.992  1.00  0.00     0.001 A 
ATOM     72  C   UNL A   1      40.978  20.601  26.648  1.00  0.00     0.000 A 
ENDBRANCH  48  67
BRANCH  60  73
ATOM     73  C   UNL A   1      48.075  26.187  28.012  1.00  0.00    -0.014 A 
ATOM     74  C   UNL A   1      48.743  25.444  28.998  1.00  0.00     0.009 A 
ATOM     75  C   UNL A   1      48.723  26.433  26.791  1.00  0.00     0.009 A 
ATOM     76  C   UNL A   1      50.047  24.995  28.779  1.00  0.00     0.001 A 
ATOM     77  C   UNL A   1      50.008  25.944  26.558  1.00  0.00     0.001 A 
ATOM     78  C   UNL A   1      50.674  25.237  27.557  1.00  0.00     0.000 A 
ENDBRANCH  60  73
ENDBRANCH  34  35
ENDBRANCH  27  29
ENDBRANCH  26  27
ENDBRANCH  25  26
ENDBRANCH  24  25
ENDBRANCH   1  24
TORSDOF 16
ENDMDL
