MODEL 1
REMARK VINA RESULT:      -9.5      0.000      0.000
REMARK SMILES Cc1cc(OCCc2nc(CC(=O)OCCOC(=O)c3ccc(-c4c5nc(c(-c6ccccc6)c6ccc([nH]6)c(-c6ccccc6)c6nc(c(-c7ccccc7)c7ccc4[nH]7)C=C6)C=C5)cc3)cs2)ccc1Cl
REMARK SMILES IDX 14 1 12 2 13 3 11 4 10 5 8 6 9 7 69 8 68 9 7 10 6 11 5 12
REMARK SMILES IDX 4 13 1 14 2 15 3 16 72 17 71 18 73 19 70 20 15 21 16 22
REMARK SMILES IDX 17 23 18 24 19 25 20 26 21 27 67 28 22 29 66 30 23 31 24 32
REMARK SMILES IDX 25 33 60 34 26 35 65 36 59 37 61 38 27 39 64 40 58 41 57 42
REMARK SMILES IDX 28 44 50 45 35 46 49 47 36 48 39 49 48 50 62 51 37 52 38 53
REMARK SMILES IDX 47 55 63 56 40 57 29 58 30 59 34 60 31 61 33 62 32 63 51 64
REMARK SMILES IDX 52 65 56 66 53 67 55 68 54 69 41 70 42 71 46 72 43 73 45 74
REMARK SMILES IDX 44 75
REMARK H PARENT 61 43 39 54
REMARK Flexibility Score: inf
ROOT
ATOM      1  O   UNL A   1      32.974  34.713  28.406  1.00  0.00    -0.462 OA
ENDROOT
BRANCH   1   2
ATOM      2  C   UNL A   1      33.301  35.955  28.849  1.00  0.00     0.312 C 
ATOM      3  O   UNL A   1      34.024  36.725  28.217  1.00  0.00    -0.252 OA
BRANCH   2   4
ATOM      4  C   UNL A   1      32.680  36.389  30.159  1.00  0.00     0.179 C 
BRANCH   4   5
ATOM      5  C   UNL A   1      33.295  35.997  31.467  1.00  0.00     0.063 A 
ATOM      6  C   UNL A   1      34.088  34.413  32.839  1.00  0.00     0.096 A 
ATOM      7  N   UNL A   1      33.514  34.638  31.675  1.00  0.00    -0.246 NA
ATOM      8  S   UNL A   1      34.492  35.827  33.722  1.00  0.00    -0.127 S 
ATOM      9  C   UNL A   1      33.846  36.789  32.456  1.00  0.00     0.091 A 
BRANCH   6  10
ATOM     10  C   UNL A   1      34.436  33.048  33.361  1.00  0.00     0.109 C 
BRANCH  10  11
ATOM     11  C   UNL A   1      35.876  32.609  33.077  1.00  0.00     0.237 C 
BRANCH  11  12
ATOM     12  O   UNL A   1      36.170  32.469  31.681  1.00  0.00    -0.493 OA
BRANCH  12  13
ATOM     13  C   UNL A   1      37.252  33.151  31.201  1.00  0.00     0.119 A 
ATOM     14  C   UNL A   1      40.545  34.606  32.339  1.00  0.00     0.046 C 
ATOM     15  C   UNL A   1      39.416  34.264  31.408  1.00  0.00    -0.029 A 
ATOM     16  C   UNL A   1      38.276  33.682  31.987  1.00  0.00     0.051 A 
ATOM     17  C   UNL A   1      39.471  34.372  30.012  1.00  0.00     0.044 A 
ATOM     18  C   UNL A   1      38.430  33.878  29.221  1.00  0.00     0.024 A 
ATOM     19  Cl  UNL A   1      40.788  35.122  29.190  1.00  0.00    -0.084 Cl
ATOM     20  C   UNL A   1      37.325  33.270  29.815  1.00  0.00     0.048 A 
ENDBRANCH  12  13
ENDBRANCH  11  12
ENDBRANCH  10  11
ENDBRANCH   6  10
ENDBRANCH   4   5
ENDBRANCH   2   4
ENDBRANCH   1   2
BRANCH   1  21
ATOM     21  C   UNL A   1      34.070  33.915  27.891  1.00  0.00     0.274 C 
BRANCH  21  22
ATOM     22  C   UNL A   1      33.952  32.456  28.338  1.00  0.00     0.275 C 
BRANCH  22  23
ATOM     23  O   UNL A   1      34.851  31.668  27.549  1.00  0.00    -0.458 OA
BRANCH  23  24
ATOM     24  C   UNL A   1      34.801  30.345  27.813  1.00  0.00     0.338 C 
ATOM     25  O   UNL A   1      33.925  29.551  27.530  1.00  0.00    -0.246 OA
BRANCH  24  26
ATOM     26  C   UNL A   1      36.141  29.962  28.258  1.00  0.00     0.060 A 
ATOM     27  C   UNL A   1      37.184  30.077  27.334  1.00  0.00     0.016 A 
ATOM     28  C   UNL A   1      36.369  29.506  29.552  1.00  0.00     0.016 A 
ATOM     29  C   UNL A   1      38.471  29.713  27.684  1.00  0.00     0.010 A 
ATOM     30  C   UNL A   1      37.665  29.146  29.910  1.00  0.00     0.010 A 
ATOM     31  C   UNL A   1      38.712  29.233  28.973  1.00  0.00    -0.014 A 
BRANCH  31  32
ATOM     32  C   UNL A   1      40.045  28.711  29.310  1.00  0.00     0.031 A 
ATOM     33  C   UNL A   1      40.983  29.597  30.068  1.00  0.00     0.074 A 
ATOM     34  C   UNL A   1      40.391  27.465  28.948  1.00  0.00     0.049 A 
ATOM     35  N   UNL A   1      42.254  29.435  30.318  1.00  0.00    -0.248 NA
ATOM     36  C   UNL A   1      40.410  30.841  30.613  1.00  0.00     0.031 C 
ATOM     37  C   UNL A   1      39.510  26.495  28.294  1.00  0.00     0.029 A 
ATOM     38  N   UNL A   1      41.584  26.807  29.075  1.00  0.00    -0.354 N 
ATOM     39  C   UNL A   1      42.643  30.573  31.011  1.00  0.00     0.074 A 
ATOM     40  C   UNL A   1      41.478  31.419  31.140  1.00  0.00     0.031 C 
ATOM     41  C   UNL A   1      40.201  25.366  28.064  1.00  0.00     0.029 A 
ATOM     42  C   UNL A   1      41.580  25.561  28.499  1.00  0.00     0.049 A 
ATOM     43  H   UNL A   1      42.367  27.188  29.533  1.00  0.00     0.167 HD
ATOM     44  C   UNL A   1      43.872  30.881  31.484  1.00  0.00     0.031 A 
ATOM     45  C   UNL A   1      42.595  24.700  28.303  1.00  0.00     0.031 A 
ATOM     46  C   UNL A   1      45.015  30.021  31.334  1.00  0.00     0.049 A 
ATOM     47  C   UNL A   1      43.969  25.101  28.765  1.00  0.00     0.074 A 
ATOM     48  C   UNL A   1      46.316  30.231  31.751  1.00  0.00     0.029 A 
ATOM     49  N   UNL A   1      44.982  28.779  30.717  1.00  0.00    -0.354 N 
ATOM     50  N   UNL A   1      44.347  26.198  29.379  1.00  0.00    -0.248 NA
ATOM     51  C   UNL A   1      45.056  24.151  28.500  1.00  0.00     0.031 C 
ATOM     52  C   UNL A   1      47.081  29.132  31.344  1.00  0.00     0.029 A 
ATOM     53  C   UNL A   1      46.244  28.214  30.725  1.00  0.00     0.049 A 
ATOM     54  H   UNL A   1      44.178  28.362  30.330  1.00  0.00     0.167 HD
ATOM     55  C   UNL A   1      45.712  26.061  29.595  1.00  0.00     0.074 A 
ATOM     56  C   UNL A   1      46.088  24.766  29.060  1.00  0.00     0.031 C 
ATOM     57  C   UNL A   1      46.578  26.922  30.182  1.00  0.00     0.031 A 
BRANCH  44  58
ATOM     58  C   UNL A   1      44.039  32.223  32.139  1.00  0.00    -0.014 A 
ATOM     59  C   UNL A   1      43.892  32.389  33.525  1.00  0.00     0.009 A 
ATOM     60  C   UNL A   1      44.339  33.344  31.350  1.00  0.00     0.009 A 
ATOM     61  C   UNL A   1      44.004  33.657  34.101  1.00  0.00     0.001 A 
ATOM     62  C   UNL A   1      44.478  34.605  31.931  1.00  0.00     0.001 A 
ATOM     63  C   UNL A   1      44.300  34.763  33.304  1.00  0.00     0.000 A 
ENDBRANCH  44  58
BRANCH  45  64
ATOM     64  C   UNL A   1      42.359  23.412  27.603  1.00  0.00    -0.014 A 
ATOM     65  C   UNL A   1      41.956  22.273  28.318  1.00  0.00     0.009 A 
ATOM     66  C   UNL A   1      42.534  23.311  26.213  1.00  0.00     0.009 A 
ATOM     67  C   UNL A   1      41.753  21.058  27.658  1.00  0.00     0.001 A 
ATOM     68  C   UNL A   1      42.301  22.103  25.553  1.00  0.00     0.001 A 
ATOM     69  C   UNL A   1      41.919  20.975  26.277  1.00  0.00     0.000 A 
ENDBRANCH  45  64
BRANCH  57  70
ATOM     70  C   UNL A   1      48.003  26.466  30.310  1.00  0.00    -0.014 A 
ATOM     71  C   UNL A   1      48.447  25.768  31.442  1.00  0.00     0.009 A 
ATOM     72  C   UNL A   1      48.901  26.710  29.259  1.00  0.00     0.009 A 
ATOM     73  C   UNL A   1      49.776  25.352  31.534  1.00  0.00     0.001 A 
ATOM     74  C   UNL A   1      50.221  26.267  29.341  1.00  0.00     0.001 A 
ATOM     75  C   UNL A   1      50.660  25.597  30.482  1.00  0.00     0.000 A 
ENDBRANCH  57  70
ENDBRANCH  31  32
ENDBRANCH  24  26
ENDBRANCH  23  24
ENDBRANCH  22  23
ENDBRANCH  21  22
ENDBRANCH   1  21
TORSDOF 16
ENDMDL
MODEL 2
REMARK VINA RESULT:      -9.4      2.476      4.113
REMARK SMILES Cc1cc(OCCc2nc(CC(=O)OCCOC(=O)c3ccc(-c4c5nc(c(-c6ccccc6)c6ccc([nH]6)c(-c6ccccc6)c6nc(c(-c7ccccc7)c7ccc4[nH]7)C=C6)C=C5)cc3)cs2)ccc1Cl
REMARK SMILES IDX 14 1 12 2 13 3 11 4 10 5 8 6 9 7 69 8 68 9 7 10 6 11 5 12
REMARK SMILES IDX 4 13 1 14 2 15 3 16 72 17 71 18 73 19 70 20 15 21 16 22
REMARK SMILES IDX 17 23 18 24 19 25 20 26 21 27 67 28 22 29 66 30 23 31 24 32
REMARK SMILES IDX 25 33 60 34 26 35 65 36 59 37 61 38 27 39 64 40 58 41 57 42
REMARK SMILES IDX 28 44 50 45 35 46 49 47 36 48 39 49 48 50 62 51 37 52 38 53
REMARK SMILES IDX 47 55 63 56 40 57 29 58 30 59 34 60 31 61 33 62 32 63 51 64
REMARK SMILES IDX 52 65 56 66 53 67 55 68 54 69 41 70 42 71 46 72 43 73 45 74
REMARK SMILES IDX 44 75
REMARK H PARENT 61 43 39 54
REMARK Flexibility Score: inf
ROOT
ATOM      1  O   UNL A   1      32.959  36.432  31.983  1.00  0.00    -0.462 OA
ENDROOT
BRANCH   1   2
ATOM      2  C   UNL A   1      33.962  36.420  32.899  1.00  0.00     0.312 C 
ATOM      3  O   UNL A   1      33.940  37.096  33.928  1.00  0.00    -0.252 OA
BRANCH   2   4
ATOM      4  C   UNL A   1      35.113  35.477  32.627  1.00  0.00     0.179 C 
BRANCH   4   5
ATOM      5  C   UNL A   1      35.813  34.775  33.752  1.00  0.00     0.063 A 
ATOM      6  C   UNL A   1      37.682  34.363  34.913  1.00  0.00     0.096 A 
ATOM      7  N   UNL A   1      37.181  34.999  33.876  1.00  0.00    -0.246 NA
ATOM      8  S   UNL A   1      36.527  33.529  35.869  1.00  0.00    -0.127 S 
ATOM      9  C   UNL A   1      35.286  34.059  34.809  1.00  0.00     0.091 A 
BRANCH   6  10
ATOM     10  C   UNL A   1      39.134  34.390  35.302  1.00  0.00     0.109 C 
BRANCH  10  11
ATOM     11  C   UNL A   1      39.721  33.019  35.651  1.00  0.00     0.237 C 
BRANCH  11  12
ATOM     12  O   UNL A   1      40.606  32.500  34.650  1.00  0.00    -0.493 OA
BRANCH  12  13
ATOM     13  C   UNL A   1      40.211  31.365  33.997  1.00  0.00     0.119 A 
ATOM     14  C   UNL A   1      41.577  28.077  32.743  1.00  0.00     0.046 C 
ATOM     15  C   UNL A   1      40.577  29.170  32.993  1.00  0.00    -0.029 A 
ATOM     16  C   UNL A   1      41.071  30.362  33.547  1.00  0.00     0.051 A 
ATOM     17  C   UNL A   1      39.191  29.037  32.829  1.00  0.00     0.044 A 
ATOM     18  C   UNL A   1      38.328  30.056  33.241  1.00  0.00     0.024 A 
ATOM     19  Cl  UNL A   1      38.471  27.648  32.105  1.00  0.00    -0.084 Cl
ATOM     20  C   UNL A   1      38.837  31.215  33.823  1.00  0.00     0.048 A 
ENDBRANCH  12  13
ENDBRANCH  11  12
ENDBRANCH  10  11
ENDBRANCH   6  10
ENDBRANCH   4   5
ENDBRANCH   2   4
ENDBRANCH   1   2
BRANCH   1  21
ATOM     21  C   UNL A   1      33.263  37.076  30.719  1.00  0.00     0.274 C 
BRANCH  21  22
ATOM     22  C   UNL A   1      32.756  36.248  29.537  1.00  0.00     0.275 C 
BRANCH  22  23
ATOM     23  O   UNL A   1      32.867  34.861  29.878  1.00  0.00    -0.458 OA
BRANCH  23  24
ATOM     24  C   UNL A   1      33.259  34.072  28.854  1.00  0.00     0.338 C 
ATOM     25  O   UNL A   1      32.762  33.965  27.750  1.00  0.00    -0.246 OA
BRANCH  24  26
ATOM     26  C   UNL A   1      34.586  33.565  29.208  1.00  0.00     0.060 A 
ATOM     27  C   UNL A   1      35.649  33.900  28.365  1.00  0.00     0.016 A 
ATOM     28  C   UNL A   1      34.781  32.785  30.342  1.00  0.00     0.016 A 
ATOM     29  C   UNL A   1      36.924  33.437  28.630  1.00  0.00     0.010 A 
ATOM     30  C   UNL A   1      36.065  32.324  30.617  1.00  0.00     0.010 A 
ATOM     31  C   UNL A   1      37.133  32.635  29.753  1.00  0.00    -0.014 A 
BRANCH  31  32
ATOM     32  C   UNL A   1      38.453  32.022  29.967  1.00  0.00     0.031 A 
ATOM     33  C   UNL A   1      39.500  32.822  30.675  1.00  0.00     0.074 A 
ATOM     34  C   UNL A   1      38.691  30.771  29.540  1.00  0.00     0.049 A 
ATOM     35  N   UNL A   1      40.774  32.575  30.817  1.00  0.00    -0.248 NA
ATOM     36  C   UNL A   1      39.050  34.078  31.302  1.00  0.00     0.031 C 
ATOM     37  C   UNL A   1      37.703  29.880  28.928  1.00  0.00     0.029 A 
ATOM     38  N   UNL A   1      39.847  30.038  29.551  1.00  0.00    -0.354 N 
ATOM     39  C   UNL A   1      41.287  33.662  31.512  1.00  0.00     0.074 A 
ATOM     40  C   UNL A   1      40.190  34.572  31.760  1.00  0.00     0.031 C 
ATOM     41  C   UNL A   1      38.301  28.721  28.610  1.00  0.00     0.029 A 
ATOM     42  C   UNL A   1      39.719  28.816  28.939  1.00  0.00     0.049 A 
ATOM     43  H   UNL A   1      40.685  30.355  29.957  1.00  0.00     0.167 HD
ATOM     44  C   UNL A   1      42.565  33.879  31.895  1.00  0.00     0.031 A 
ATOM     45  C   UNL A   1      40.660  27.904  28.636  1.00  0.00     0.031 A 
ATOM     46  C   UNL A   1      43.637  32.958  31.628  1.00  0.00     0.049 A 
ATOM     47  C   UNL A   1      42.088  28.205  28.999  1.00  0.00     0.074 A 
ATOM     48  C   UNL A   1      44.977  33.073  31.946  1.00  0.00     0.029 A 
ATOM     49  N   UNL A   1      43.479  31.743  30.977  1.00  0.00    -0.354 N 
ATOM     50  N   UNL A   1      42.581  29.254  29.615  1.00  0.00    -0.248 NA
ATOM     51  C   UNL A   1      43.090  27.201  28.619  1.00  0.00     0.031 C 
ATOM     52  C   UNL A   1      45.638  31.946  31.445  1.00  0.00     0.029 A 
ATOM     53  C   UNL A   1      44.700  31.103  30.867  1.00  0.00     0.049 A 
ATOM     54  H   UNL A   1      42.623  31.389  30.643  1.00  0.00     0.167 HD
ATOM     55  C   UNL A   1      43.947  29.027  29.717  1.00  0.00     0.074 A 
ATOM     56  C   UNL A   1      44.198  27.732  29.114  1.00  0.00     0.031 C 
ATOM     57  C   UNL A   1      44.908  29.813  30.260  1.00  0.00     0.031 A 
BRANCH  44  58
ATOM     58  C   UNL A   1      42.867  35.183  32.576  1.00  0.00    -0.014 A 
ATOM     59  C   UNL A   1      42.521  35.412  33.917  1.00  0.00     0.009 A 
ATOM     60  C   UNL A   1      43.501  36.208  31.856  1.00  0.00     0.009 A 
ATOM     61  C   UNL A   1      42.769  36.653  34.510  1.00  0.00     0.001 A 
ATOM     62  C   UNL A   1      43.773  37.437  32.459  1.00  0.00     0.001 A 
ATOM     63  C   UNL A   1      43.397  37.662  33.782  1.00  0.00     0.000 A 
ENDBRANCH  44  58
BRANCH  45  64
ATOM     64  C   UNL A   1      40.290  26.657  27.918  1.00  0.00    -0.014 A 
ATOM     65  C   UNL A   1      39.496  25.683  28.540  1.00  0.00     0.009 A 
ATOM     66  C   UNL A   1      40.728  26.434  26.602  1.00  0.00     0.009 A 
ATOM     67  C   UNL A   1      39.165  24.503  27.867  1.00  0.00     0.001 A 
ATOM     68  C   UNL A   1      40.371  25.268  25.922  1.00  0.00     0.001 A 
ATOM     69  C   UNL A   1      39.597  24.300  26.558  1.00  0.00     0.000 A 
ENDBRANCH  45  64
BRANCH  57  70
ATOM     70  C   UNL A   1      46.307  29.268  30.259  1.00  0.00    -0.014 A 
ATOM     71  C   UNL A   1      47.242  29.657  29.289  1.00  0.00     0.009 A 
ATOM     72  C   UNL A   1      46.701  28.378  31.271  1.00  0.00     0.009 A 
ATOM     73  C   UNL A   1      48.537  29.138  29.313  1.00  0.00     0.001 A 
ATOM     74  C   UNL A   1      48.004  27.884  31.310  1.00  0.00     0.001 A 
ATOM     75  C   UNL A   1      48.918  28.256  30.325  1.00  0.00     0.000 A 
ENDBRANCH  57  70
ENDBRANCH  31  32
ENDBRANCH  24  26
ENDBRANCH  23  24
ENDBRANCH  22  23
ENDBRANCH  21  22
ENDBRANCH   1  21
TORSDOF 16
ENDMDL
MODEL 3
REMARK VINA RESULT:      -9.2      3.208      4.914
REMARK SMILES Cc1cc(OCCc2nc(CC(=O)OCCOC(=O)c3ccc(-c4c5nc(c(-c6ccccc6)c6ccc([nH]6)c(-c6ccccc6)c6nc(c(-c7ccccc7)c7ccc4[nH]7)C=C6)C=C5)cc3)cs2)ccc1Cl
REMARK SMILES IDX 14 1 12 2 13 3 11 4 10 5 8 6 9 7 69 8 68 9 7 10 6 11 5 12
REMARK SMILES IDX 4 13 1 14 2 15 3 16 72 17 71 18 73 19 70 20 15 21 16 22
REMARK SMILES IDX 17 23 18 24 19 25 20 26 21 27 67 28 22 29 66 30 23 31 24 32
REMARK SMILES IDX 25 33 60 34 26 35 65 36 59 37 61 38 27 39 64 40 58 41 57 42
REMARK SMILES IDX 28 44 50 45 35 46 49 47 36 48 39 49 48 50 62 51 37 52 38 53
REMARK SMILES IDX 47 55 63 56 40 57 29 58 30 59 34 60 31 61 33 62 32 63 51 64
REMARK SMILES IDX 52 65 56 66 53 67 55 68 54 69 41 70 42 71 46 72 43 73 45 74
REMARK SMILES IDX 44 75
REMARK H PARENT 61 43 39 54
REMARK Flexibility Score: inf
ROOT
ATOM      1  O   UNL A   1      34.148  35.784  34.002  1.00  0.00    -0.462 OA
ENDROOT
BRANCH   1   2
ATOM      2  C   UNL A   1      33.628  36.600  33.050  1.00  0.00     0.312 C 
ATOM      3  O   UNL A   1      33.813  37.817  33.033  1.00  0.00    -0.252 OA
BRANCH   2   4
ATOM      4  C   UNL A   1      32.834  35.932  31.949  1.00  0.00     0.179 C 
BRANCH   4   5
ATOM      5  C   UNL A   1      33.395  35.809  30.565  1.00  0.00     0.063 A 
ATOM      6  C   UNL A   1      34.296  34.552  28.944  1.00  0.00     0.096 A 
ATOM      7  N   UNL A   1      33.859  34.552  30.186  1.00  0.00    -0.246 NA
ATOM      8  S   UNL A   1      34.090  36.039  28.113  1.00  0.00    -0.127 S 
ATOM      9  C   UNL A   1      33.376  36.713  29.521  1.00  0.00     0.091 A 
BRANCH   6  10
ATOM     10  C   UNL A   1      34.877  33.352  28.251  1.00  0.00     0.109 C 
BRANCH  10  11
ATOM     11  C   UNL A   1      34.072  32.063  28.436  1.00  0.00     0.237 C 
BRANCH  11  12
ATOM     12  O   UNL A   1      34.694  30.908  27.859  1.00  0.00    -0.493 OA
BRANCH  12  13
ATOM     13  C   UNL A   1      33.905  30.087  27.102  1.00  0.00     0.119 A 
ATOM     14  C   UNL A   1      33.726  26.531  25.849  1.00  0.00     0.046 C 
ATOM     15  C   UNL A   1      33.330  27.968  26.033  1.00  0.00    -0.029 A 
ATOM     16  C   UNL A   1      34.246  28.792  26.707  1.00  0.00     0.051 A 
ATOM     17  C   UNL A   1      32.080  28.502  25.694  1.00  0.00     0.044 A 
ATOM     18  C   UNL A   1      31.748  29.811  26.052  1.00  0.00     0.024 A 
ATOM     19  Cl  UNL A   1      30.897  27.609  24.813  1.00  0.00    -0.084 Cl
ATOM     20  C   UNL A   1      32.658  30.600  26.754  1.00  0.00     0.048 A 
ENDBRANCH  12  13
ENDBRANCH  11  12
ENDBRANCH  10  11
ENDBRANCH   6  10
ENDBRANCH   4   5
ENDBRANCH   2   4
ENDBRANCH   1   2
BRANCH   1  21
ATOM     21  C   UNL A   1      35.385  35.111  33.652  1.00  0.00     0.274 C 
BRANCH  21  22
ATOM     22  C   UNL A   1      35.398  33.671  34.168  1.00  0.00     0.275 C 
BRANCH  22  23
ATOM     23  O   UNL A   1      36.363  32.929  33.411  1.00  0.00    -0.458 OA
BRANCH  23  24
ATOM     24  C   UNL A   1      35.824  32.099  32.493  1.00  0.00     0.338 C 
ATOM     25  O   UNL A   1      34.666  32.026  32.128  1.00  0.00    -0.246 OA
BRANCH  24  26
ATOM     26  C   UNL A   1      36.946  31.479  31.787  1.00  0.00     0.060 A 
ATOM     27  C   UNL A   1      37.879  30.775  32.554  1.00  0.00     0.016 A 
ATOM     28  C   UNL A   1      37.075  31.582  30.407  1.00  0.00     0.016 A 
ATOM     29  C   UNL A   1      38.973  30.182  31.951  1.00  0.00     0.010 A 
ATOM     30  C   UNL A   1      38.171  30.980  29.796  1.00  0.00     0.010 A 
ATOM     31  C   UNL A   1      39.128  30.295  30.569  1.00  0.00    -0.014 A 
BRANCH  31  32
ATOM     32  C   UNL A   1      40.358  29.791  29.938  1.00  0.00     0.031 A 
ATOM     33  C   UNL A   1      41.507  30.735  29.768  1.00  0.00     0.074 A 
ATOM     34  C   UNL A   1      40.434  28.511  29.540  1.00  0.00     0.049 A 
ATOM     35  N   UNL A   1      42.610  30.581  29.088  1.00  0.00    -0.248 NA
ATOM     36  C   UNL A   1      41.391  32.035  30.454  1.00  0.00     0.031 C 
ATOM     37  C   UNL A   1      39.403  27.493  29.753  1.00  0.00     0.029 A 
ATOM     38  N   UNL A   1      41.426  27.852  28.866  1.00  0.00    -0.354 N 
ATOM     39  C   UNL A   1      43.302  31.777  29.228  1.00  0.00     0.074 A 
ATOM     40  C   UNL A   1      42.494  32.648  30.053  1.00  0.00     0.031 C 
ATOM     41  C   UNL A   1      39.812  26.338  29.205  1.00  0.00     0.029 A 
ATOM     42  C   UNL A   1      41.100  26.556  28.554  1.00  0.00     0.049 A 
ATOM     43  H   UNL A   1      42.286  28.266  28.627  1.00  0.00     0.167 HD
ATOM     44  C   UNL A   1      44.499  32.114  28.700  1.00  0.00     0.031 A 
ATOM     45  C   UNL A   1      41.753  25.666  27.785  1.00  0.00     0.031 A 
ATOM     46  C   UNL A   1      45.277  31.228  27.876  1.00  0.00     0.049 A 
ATOM     47  C   UNL A   1      43.044  26.092  27.141  1.00  0.00     0.074 A 
ATOM     48  C   UNL A   1      46.495  31.459  27.265  1.00  0.00     0.029 A 
ATOM     49  N   UNL A   1      44.902  29.931  27.554  1.00  0.00    -0.354 N 
ATOM     50  N   UNL A   1      43.675  27.239  27.235  1.00  0.00    -0.248 NA
ATOM     51  C   UNL A   1      43.708  25.106  26.280  1.00  0.00     0.031 C 
ATOM     52  C   UNL A   1      46.836  30.315  26.534  1.00  0.00     0.029 A 
ATOM     53  C   UNL A   1      45.857  29.353  26.738  1.00  0.00     0.049 A 
ATOM     54  H   UNL A   1      44.078  29.489  27.861  1.00  0.00     0.167 HD
ATOM     55  C   UNL A   1      44.822  27.105  26.464  1.00  0.00     0.074 A 
ATOM     56  C   UNL A   1      44.804  25.759  25.925  1.00  0.00     0.031 C 
ATOM     57  C   UNL A   1      45.803  28.009  26.222  1.00  0.00     0.031 A 
BRANCH  44  58
ATOM     58  C   UNL A   1      44.992  33.511  28.948  1.00  0.00    -0.014 A 
ATOM     59  C   UNL A   1      44.670  34.570  28.085  1.00  0.00     0.009 A 
ATOM     60  C   UNL A   1      45.803  33.769  30.064  1.00  0.00     0.009 A 
ATOM     61  C   UNL A   1      45.183  35.849  28.314  1.00  0.00     0.001 A 
ATOM     62  C   UNL A   1      46.292  35.054  30.306  1.00  0.00     0.001 A 
ATOM     63  C   UNL A   1      45.990  36.091  29.425  1.00  0.00     0.000 A 
ENDBRANCH  44  58
BRANCH  45  64
ATOM     64  C   UNL A   1      41.178  24.318  27.547  1.00  0.00    -0.014 A 
ATOM     65  C   UNL A   1      41.694  23.193  28.209  1.00  0.00     0.009 A 
ATOM     66  C   UNL A   1      40.105  24.145  26.657  1.00  0.00     0.009 A 
ATOM     67  C   UNL A   1      41.161  21.923  27.969  1.00  0.00     0.001 A 
ATOM     68  C   UNL A   1      39.556  22.880  26.441  1.00  0.00     0.001 A 
ATOM     69  C   UNL A   1      40.090  21.769  27.090  1.00  0.00     0.000 A 
ENDBRANCH  45  64
BRANCH  57  70
ATOM     70  C   UNL A   1      46.952  27.548  25.371  1.00  0.00    -0.014 A 
ATOM     71  C   UNL A   1      48.001  26.789  25.910  1.00  0.00     0.009 A 
ATOM     72  C   UNL A   1      46.959  27.850  24.000  1.00  0.00     0.009 A 
ATOM     73  C   UNL A   1      49.055  26.370  25.097  1.00  0.00     0.001 A 
ATOM     74  C   UNL A   1      47.998  27.405  23.184  1.00  0.00     0.001 A 
ATOM     75  C   UNL A   1      49.050  26.674  23.735  1.00  0.00     0.000 A 
ENDBRANCH  57  70
ENDBRANCH  31  32
ENDBRANCH  24  26
ENDBRANCH  23  24
ENDBRANCH  22  23
ENDBRANCH  21  22
ENDBRANCH   1  21
TORSDOF 16
ENDMDL
