MODEL 1
REMARK VINA RESULT:     -11.0      0.000      0.000
REMARK SMILES COc1ccc(C(=O)OCCOC(=O)c2ccc(-c3c4nc(c(-c5ccccc5)c5ccc([nH]5)c(-c5ccccc5)c5nc(c(-c6ccccc6)c6ccc3[nH]6)C=C5)C=C4)cc2)cc1NC(=S)NC(=O)c1cccc(C)c1OC
REMARK SMILES IDX 9 1 7 2 8 3 6 4 3 5 4 6 64 7 5 8 63 9 2 10 1 11 65 12 66 14
REMARK SMILES IDX 67 15 68 16 69 17 70 19 71 20 72 21 77 22 73 23 75 24 74 25
REMARK SMILES IDX 76 26 78 27 79 28 10 29 11 30 12 31 13 32 14 33 15 34 16 35
REMARK SMILES IDX 62 36 17 37 61 38 18 39 19 40 20 41 55 42 21 43 60 44 54 45
REMARK SMILES IDX 56 46 22 47 59 48 53 49 52 50 23 52 45 53 30 54 44 55 31 56
REMARK SMILES IDX 34 57 43 58 57 59 32 60 33 61 42 63 58 64 35 65 24 66 25 67
REMARK SMILES IDX 29 68 26 69 28 70 27 71 46 72 47 73 51 74 48 75 50 76 49 77
REMARK SMILES IDX 36 78 37 79 41 80 38 81 40 82 39 83
REMARK H PARENT 65 13 68 18 56 51 34 62
REMARK Flexibility Score: inf
ROOT
ATOM      1  O   UNL A   1      38.977  22.325  25.558  1.00  0.00    -0.458 OA
ENDROOT
BRANCH   1   2
ATOM      2  C   UNL A   1      37.627  22.923  25.844  1.00  0.00     0.338 C 
ATOM      3  O   UNL A   1      37.966  24.076  26.211  1.00  0.00    -0.246 OA
BRANCH   2   4
ATOM      4  C   UNL A   1      35.738  21.896  25.628  1.00  0.00     0.062 A 
ATOM      5  C   UNL A   1      33.069  21.056  24.593  1.00  0.00     0.142 A 
ATOM      6  C   UNL A   1      34.073  20.123  24.611  1.00  0.00     0.049 A 
ATOM      7  C   UNL A   1      33.276  22.221  25.284  1.00  0.00     0.084 A 
ATOM      8  C   UNL A   1      35.349  20.551  25.041  1.00  0.00     0.019 A 
ATOM      9  C   UNL A   1      34.395  22.296  26.073  1.00  0.00     0.045 A 
BRANCH   5  10
ATOM     10  O   UNL A   1      31.903  20.804  23.947  1.00  0.00    -0.495 OA
ATOM     11  C   UNL A   1      32.116  20.832  22.535  1.00  0.00     0.278 C 
ENDBRANCH   5  10
BRANCH   7  12
ATOM     12  N   UNL A   1      32.431  23.329  25.189  1.00  0.00    -0.329 N 
ATOM     13  H   UNL A   1      32.831  24.084  24.703  1.00  0.00     0.169 HD
BRANCH  12  14
ATOM     14  C   UNL A   1      31.177  23.577  25.629  1.00  0.00     0.177 C 
ATOM     15  S   UNL A   1      30.613  22.597  26.871  1.00  0.00    -0.040 S 
BRANCH  14  16
ATOM     16  N   UNL A   1      30.281  24.521  25.155  1.00  0.00    -0.299 N 
ATOM     17  C   UNL A   1      30.002  25.884  24.894  1.00  0.00     0.261 C 
ATOM     18  H   UNL A   1      29.480  24.021  24.875  1.00  0.00     0.172 HD
ATOM     19  O   UNL A   1      28.872  26.222  24.547  1.00  0.00    -0.269 OA
BRANCH  17  20
ATOM     20  C   UNL A   1      31.013  26.928  25.059  1.00  0.00     0.082 A 
ATOM     21  C   UNL A   1      31.402  27.438  26.811  1.00  0.00     0.018 A 
ATOM     22  C   UNL A   1      32.023  27.563  23.706  1.00  0.00     0.134 A 
ATOM     23  C   UNL A   1      32.738  28.626  27.119  1.00  0.00     0.001 A 
ATOM     24  C   UNL A   1      33.381  28.710  24.029  1.00  0.00    -0.008 A 
ATOM     25  C   UNL A   1      33.702  29.307  25.732  1.00  0.00     0.007 A 
ATOM     26  C   UNL A   1      34.404  28.953  22.951  1.00  0.00     0.048 C 
BRANCH  22  27
ATOM     27  O   UNL A   1      31.953  27.236  22.380  1.00  0.00    -0.496 OA
ATOM     28  C   UNL A   1      32.351  25.941  21.987  1.00  0.00     0.278 C 
ENDBRANCH  22  27
ENDBRANCH  17  20
ENDBRANCH  14  16
ENDBRANCH  12  14
ENDBRANCH   7  12
ENDBRANCH   2   4
ENDBRANCH   1   2
BRANCH   1  29
ATOM     29  C   UNL A   1      39.655  21.236  26.247  1.00  0.00     0.275 C 
BRANCH  29  30
ATOM     30  C   UNL A   1      41.135  21.233  25.845  1.00  0.00     0.275 C 
BRANCH  30  31
ATOM     31  O   UNL A   1      41.832  22.178  26.672  1.00  0.00    -0.458 OA
BRANCH  31  32
ATOM     32  C   UNL A   1      42.277  23.292  26.056  1.00  0.00     0.338 C 
ATOM     33  O   UNL A   1      42.872  23.385  24.996  1.00  0.00    -0.246 OA
BRANCH  32  34
ATOM     34  C   UNL A   1      41.790  24.472  26.789  1.00  0.00     0.060 A 
ATOM     35  C   UNL A   1      42.477  25.668  26.627  1.00  0.00     0.016 A 
ATOM     36  C   UNL A   1      40.874  24.331  27.826  1.00  0.00     0.016 A 
ATOM     37  C   UNL A   1      42.428  26.616  27.638  1.00  0.00     0.010 A 
ATOM     38  C   UNL A   1      40.656  25.401  28.701  1.00  0.00     0.010 A 
ATOM     39  C   UNL A   1      41.473  26.544  28.654  1.00  0.00    -0.014 A 
BRANCH  39  40
ATOM     40  C   UNL A   1      41.324  27.665  29.628  1.00  0.00     0.031 A 
ATOM     41  C   UNL A   1      42.200  27.739  30.856  1.00  0.00     0.074 A 
ATOM     42  C   UNL A   1      40.375  28.608  29.432  1.00  0.00     0.049 A 
ATOM     43  N   UNL A   1      42.036  28.452  31.943  1.00  0.00    -0.248 NA
ATOM     44  C   UNL A   1      43.398  26.882  30.881  1.00  0.00     0.031 C 
ATOM     45  C   UNL A   1      39.495  28.717  28.261  1.00  0.00     0.029 A 
ATOM     46  N   UNL A   1      39.979  29.660  30.221  1.00  0.00    -0.354 N 
ATOM     47  C   UNL A   1      43.059  28.072  32.804  1.00  0.00     0.074 A 
ATOM     48  C   UNL A   1      43.834  27.061  32.121  1.00  0.00     0.031 C 
ATOM     49  C   UNL A   1      38.712  29.793  28.382  1.00  0.00     0.029 A 
ATOM     50  C   UNL A   1      38.911  30.356  29.704  1.00  0.00     0.049 A 
ATOM     51  H   UNL A   1      40.417  29.894  31.072  1.00  0.00     0.167 HD
ATOM     52  C   UNL A   1      43.317  28.523  34.057  1.00  0.00     0.031 A 
ATOM     53  C   UNL A   1      38.105  31.282  30.250  1.00  0.00     0.031 A 
ATOM     54  C   UNL A   1      42.544  29.547  34.714  1.00  0.00     0.049 A 
ATOM     55  C   UNL A   1      38.349  31.689  31.669  1.00  0.00     0.074 A 
ATOM     56  C   UNL A   1      42.726  30.087  35.975  1.00  0.00     0.029 A 
ATOM     57  N   UNL A   1      41.445  30.186  34.160  1.00  0.00    -0.354 N 
ATOM     58  N   UNL A   1      39.290  31.293  32.490  1.00  0.00    -0.248 NA
ATOM     59  C   UNL A   1      37.413  32.663  32.240  1.00  0.00     0.031 C 
ATOM     60  C   UNL A   1      41.688  30.993  36.214  1.00  0.00     0.029 A 
ATOM     61  C   UNL A   1      40.917  31.089  35.067  1.00  0.00     0.049 A 
ATOM     62  H   UNL A   1      41.092  30.021  33.256  1.00  0.00     0.167 HD
ATOM     63  C   UNL A   1      39.084  31.999  33.664  1.00  0.00     0.074 A 
ATOM     64  C   UNL A   1      37.940  32.861  33.439  1.00  0.00     0.031 C 
ATOM     65  C   UNL A   1      39.780  31.941  34.825  1.00  0.00     0.031 A 
BRANCH  52  66
ATOM     66  C   UNL A   1      44.439  27.873  34.824  1.00  0.00    -0.014 A 
ATOM     67  C   UNL A   1      45.746  28.384  34.811  1.00  0.00     0.009 A 
ATOM     68  C   UNL A   1      44.168  26.739  35.610  1.00  0.00     0.009 A 
ATOM     69  C   UNL A   1      46.763  27.751  35.532  1.00  0.00     0.001 A 
ATOM     70  C   UNL A   1      45.177  26.131  36.360  1.00  0.00     0.001 A 
ATOM     71  C   UNL A   1      46.477  26.629  36.310  1.00  0.00     0.000 A 
ENDBRANCH  52  66
BRANCH  53  72
ATOM     72  C   UNL A   1      36.955  31.827  29.476  1.00  0.00    -0.014 A 
ATOM     73  C   UNL A   1      35.743  31.124  29.416  1.00  0.00     0.009 A 
ATOM     74  C   UNL A   1      37.061  33.049  28.790  1.00  0.00     0.009 A 
ATOM     75  C   UNL A   1      34.678  31.613  28.656  1.00  0.00     0.001 A 
ATOM     76  C   UNL A   1      35.980  33.560  28.071  1.00  0.00     0.001 A 
ATOM     77  C   UNL A   1      34.795  32.832  27.991  1.00  0.00     0.000 A 
ENDBRANCH  53  72
BRANCH  65  78
ATOM     78  C   UNL A   1      39.362  32.885  35.916  1.00  0.00    -0.014 A 
ATOM     79  C   UNL A   1      39.887  34.183  36.013  1.00  0.00     0.009 A 
ATOM     80  C   UNL A   1      38.403  32.468  36.852  1.00  0.00     0.009 A 
ATOM     81  C   UNL A   1      39.491  35.027  37.051  1.00  0.00     0.001 A 
ATOM     82  C   UNL A   1      37.975  33.329  37.861  1.00  0.00     0.001 A 
ATOM     83  C   UNL A   1      38.529  34.603  37.968  1.00  0.00     0.000 A 
ENDBRANCH  65  78
ENDBRANCH  39  40
ENDBRANCH  32  34
ENDBRANCH  31  32
ENDBRANCH  30  31
ENDBRANCH  29  30
ENDBRANCH   1  29
TORSDOF 17
ENDMDL
MODEL 2
REMARK VINA RESULT:     -10.9      1.708      2.357
REMARK SMILES COc1ccc(C(=O)OCCOC(=O)c2ccc(-c3c4nc(c(-c5ccccc5)c5ccc([nH]5)c(-c5ccccc5)c5nc(c(-c6ccccc6)c6ccc3[nH]6)C=C5)C=C4)cc2)cc1NC(=S)NC(=O)c1cccc(C)c1OC
REMARK SMILES IDX 9 1 7 2 8 3 6 4 3 5 4 6 64 7 5 8 63 9 2 10 1 11 65 12 66 14
REMARK SMILES IDX 67 15 68 16 69 17 70 19 71 20 72 21 77 22 73 23 75 24 74 25
REMARK SMILES IDX 76 26 78 27 79 28 10 29 11 30 12 31 13 32 14 33 15 34 16 35
REMARK SMILES IDX 62 36 17 37 61 38 18 39 19 40 20 41 55 42 21 43 60 44 54 45
REMARK SMILES IDX 56 46 22 47 59 48 53 49 52 50 23 52 45 53 30 54 44 55 31 56
REMARK SMILES IDX 34 57 43 58 57 59 32 60 33 61 42 63 58 64 35 65 24 66 25 67
REMARK SMILES IDX 29 68 26 69 28 70 27 71 46 72 47 73 51 74 48 75 50 76 49 77
REMARK SMILES IDX 36 78 37 79 41 80 38 81 40 82 39 83
REMARK H PARENT 65 13 68 18 56 51 34 62
REMARK Flexibility Score: inf
ROOT
ATOM      1  O   UNL A   1      39.513  21.310  26.038  1.00  0.00    -0.458 OA
ENDROOT
BRANCH   1   2
ATOM      2  C   UNL A   1      38.492  22.408  26.175  1.00  0.00     0.338 C 
ATOM      3  O   UNL A   1      39.198  23.305  26.699  1.00  0.00    -0.246 OA
BRANCH   2   4
ATOM      4  C   UNL A   1      36.421  22.263  25.578  1.00  0.00     0.062 A 
ATOM      5  C   UNL A   1      33.941  22.266  23.920  1.00  0.00     0.142 A 
ATOM      6  C   UNL A   1      34.298  21.096  24.538  1.00  0.00     0.049 A 
ATOM      7  C   UNL A   1      34.588  23.410  24.307  1.00  0.00     0.084 A 
ATOM      8  C   UNL A   1      35.509  21.090  25.266  1.00  0.00     0.019 A 
ATOM      9  C   UNL A   1      35.421  23.326  25.393  1.00  0.00     0.045 A 
BRANCH   5  10
ATOM     10  O   UNL A   1      32.952  22.283  22.990  1.00  0.00    -0.495 OA
ATOM     11  C   UNL A   1      32.090  21.160  23.180  1.00  0.00     0.278 C 
ENDBRANCH   5  10
BRANCH   7  12
ATOM     12  N   UNL A   1      34.468  24.625  23.631  1.00  0.00    -0.329 N 
ATOM     13  H   UNL A   1      35.083  24.710  22.868  1.00  0.00     0.169 HD
BRANCH  12  14
ATOM     14  C   UNL A   1      33.680  25.710  23.808  1.00  0.00     0.177 C 
ATOM     15  S   UNL A   1      33.429  26.679  22.459  1.00  0.00    -0.040 S 
BRANCH  14  16
ATOM     16  N   UNL A   1      33.081  26.144  24.979  1.00  0.00    -0.299 N 
ATOM     17  C   UNL A   1      32.019  26.853  25.590  1.00  0.00     0.261 C 
ATOM     18  H   UNL A   1      33.646  25.813  25.714  1.00  0.00     0.172 HD
ATOM     19  O   UNL A   1      32.042  27.064  26.800  1.00  0.00    -0.269 OA
BRANCH  17  20
ATOM     20  C   UNL A   1      30.895  27.383  24.819  1.00  0.00     0.082 A 
ATOM     21  C   UNL A   1      29.480  26.210  24.500  1.00  0.00     0.018 A 
ATOM     22  C   UNL A   1      30.723  29.122  24.370  1.00  0.00     0.134 A 
ATOM     23  C   UNL A   1      27.985  26.819  23.670  1.00  0.00     0.001 A 
ATOM     24  C   UNL A   1      29.212  29.727  23.587  1.00  0.00    -0.008 A 
ATOM     25  C   UNL A   1      27.860  28.563  23.165  1.00  0.00     0.007 A 
ATOM     26  C   UNL A   1      28.959  31.211  23.536  1.00  0.00     0.048 C 
BRANCH  22  27
ATOM     27  O   UNL A   1      31.603  30.141  24.608  1.00  0.00    -0.496 OA
ATOM     28  C   UNL A   1      31.796  30.565  25.940  1.00  0.00     0.278 C 
ENDBRANCH  22  27
ENDBRANCH  17  20
ENDBRANCH  14  16
ENDBRANCH  12  14
ENDBRANCH   7  12
ENDBRANCH   2   4
ENDBRANCH   1   2
BRANCH   1  29
ATOM     29  C   UNL A   1      40.661  21.025  26.886  1.00  0.00     0.275 C 
BRANCH  29  30
ATOM     30  C   UNL A   1      41.904  20.855  26.004  1.00  0.00     0.275 C 
BRANCH  30  31
ATOM     31  O   UNL A   1      42.931  21.734  26.490  1.00  0.00    -0.458 OA
BRANCH  31  32
ATOM     32  C   UNL A   1      43.063  22.909  25.841  1.00  0.00     0.338 C 
ATOM     33  O   UNL A   1      43.010  23.123  24.642  1.00  0.00    -0.246 OA
BRANCH  32  34
ATOM     34  C   UNL A   1      43.129  23.998  26.830  1.00  0.00     0.060 A 
ATOM     35  C   UNL A   1      42.728  23.721  28.131  1.00  0.00     0.016 A 
ATOM     36  C   UNL A   1      43.294  25.316  26.419  1.00  0.00     0.016 A 
ATOM     37  C   UNL A   1      42.263  24.757  28.928  1.00  0.00     0.010 A 
ATOM     38  C   UNL A   1      43.051  26.355  27.325  1.00  0.00     0.010 A 
ATOM     39  C   UNL A   1      42.476  26.092  28.579  1.00  0.00    -0.014 A 
BRANCH  39  40
ATOM     40  C   UNL A   1      42.125  27.184  29.534  1.00  0.00     0.031 A 
ATOM     41  C   UNL A   1      42.932  27.396  30.792  1.00  0.00     0.074 A 
ATOM     42  C   UNL A   1      41.052  27.971  29.294  1.00  0.00     0.049 A 
ATOM     43  N   UNL A   1      42.622  28.081  31.865  1.00  0.00    -0.248 NA
ATOM     44  C   UNL A   1      44.244  26.730  30.870  1.00  0.00     0.031 C 
ATOM     45  C   UNL A   1      40.210  27.940  28.091  1.00  0.00     0.029 A 
ATOM     46  N   UNL A   1      40.472  28.956  30.057  1.00  0.00    -0.354 N 
ATOM     47  C   UNL A   1      43.658  27.866  32.767  1.00  0.00     0.074 A 
ATOM     48  C   UNL A   1      44.601  26.979  32.123  1.00  0.00     0.031 C 
ATOM     49  C   UNL A   1      39.270  28.886  28.171  1.00  0.00     0.029 A 
ATOM     50  C   UNL A   1      39.332  29.480  29.493  1.00  0.00     0.049 A 
ATOM     51  H   UNL A   1      40.838  29.258  30.921  1.00  0.00     0.167 HD
ATOM     52  C   UNL A   1      43.798  28.357  34.023  1.00  0.00     0.031 A 
ATOM     53  C   UNL A   1      38.376  30.277  30.000  1.00  0.00     0.031 A 
ATOM     54  C   UNL A   1      42.856  29.256  34.640  1.00  0.00     0.049 A 
ATOM     55  C   UNL A   1      38.502  30.723  31.423  1.00  0.00     0.074 A 
ATOM     56  C   UNL A   1      42.906  29.825  35.901  1.00  0.00     0.029 A 
ATOM     57  N   UNL A   1      41.694  29.718  34.040  1.00  0.00    -0.354 N 
ATOM     58  N   UNL A   1      39.461  30.478  32.281  1.00  0.00    -0.248 NA
ATOM     59  C   UNL A   1      37.410  31.548  31.948  1.00  0.00     0.031 C 
ATOM     60  C   UNL A   1      41.736  30.565  36.092  1.00  0.00     0.029 A 
ATOM     61  C   UNL A   1      41.002  30.537  34.917  1.00  0.00     0.049 A 
ATOM     62  H   UNL A   1      41.404  29.498  33.125  1.00  0.00     0.167 HD
ATOM     63  C   UNL A   1      39.107  31.151  33.439  1.00  0.00     0.074 A 
ATOM     64  C   UNL A   1      37.856  31.830  33.163  1.00  0.00     0.031 C 
ATOM     65  C   UNL A   1      39.760  31.205  34.625  1.00  0.00     0.031 A 
BRANCH  52  66
ATOM     66  C   UNL A   1      44.976  27.888  34.837  1.00  0.00    -0.014 A 
ATOM     67  C   UNL A   1      44.913  26.744  35.647  1.00  0.00     0.009 A 
ATOM     68  C   UNL A   1      46.191  28.591  34.759  1.00  0.00     0.009 A 
ATOM     69  C   UNL A   1      46.025  26.340  36.393  1.00  0.00     0.001 A 
ATOM     70  C   UNL A   1      47.312  28.164  35.473  1.00  0.00     0.001 A 
ATOM     71  C   UNL A   1      47.225  27.047  36.301  1.00  0.00     0.000 A 
ENDBRANCH  52  66
BRANCH  53  72
ATOM     72  C   UNL A   1      37.186  30.637  29.179  1.00  0.00    -0.014 A 
ATOM     73  C   UNL A   1      36.221  29.669  28.864  1.00  0.00     0.009 A 
ATOM     74  C   UNL A   1      37.009  31.947  28.702  1.00  0.00     0.009 A 
ATOM     75  C   UNL A   1      35.128  29.997  28.060  1.00  0.00     0.001 A 
ATOM     76  C   UNL A   1      35.891  32.284  27.938  1.00  0.00     0.001 A 
ATOM     77  C   UNL A   1      34.959  31.303  27.604  1.00  0.00     0.000 A 
ENDBRANCH  53  72
BRANCH  65  78
ATOM     78  C   UNL A   1      39.164  32.082  35.690  1.00  0.00    -0.014 A 
ATOM     79  C   UNL A   1      38.257  31.583  36.636  1.00  0.00     0.009 A 
ATOM     80  C   UNL A   1      39.544  33.432  35.756  1.00  0.00     0.009 A 
ATOM     81  C   UNL A   1      37.708  32.430  37.599  1.00  0.00     0.001 A 
ATOM     82  C   UNL A   1      39.028  34.265  36.748  1.00  0.00     0.001 A 
ATOM     83  C   UNL A   1      38.100  33.768  37.660  1.00  0.00     0.000 A 
ENDBRANCH  65  78
ENDBRANCH  39  40
ENDBRANCH  32  34
ENDBRANCH  31  32
ENDBRANCH  30  31
ENDBRANCH  29  30
ENDBRANCH   1  29
TORSDOF 17
ENDMDL
MODEL 3
REMARK VINA RESULT:     -10.9      4.419      6.777
REMARK SMILES COc1ccc(C(=O)OCCOC(=O)c2ccc(-c3c4nc(c(-c5ccccc5)c5ccc([nH]5)c(-c5ccccc5)c5nc(c(-c6ccccc6)c6ccc3[nH]6)C=C5)C=C4)cc2)cc1NC(=S)NC(=O)c1cccc(C)c1OC
REMARK SMILES IDX 9 1 7 2 8 3 6 4 3 5 4 6 64 7 5 8 63 9 2 10 1 11 65 12 66 14
REMARK SMILES IDX 67 15 68 16 69 17 70 19 71 20 72 21 77 22 73 23 75 24 74 25
REMARK SMILES IDX 76 26 78 27 79 28 10 29 11 30 12 31 13 32 14 33 15 34 16 35
REMARK SMILES IDX 62 36 17 37 61 38 18 39 19 40 20 41 55 42 21 43 60 44 54 45
REMARK SMILES IDX 56 46 22 47 59 48 53 49 52 50 23 52 45 53 30 54 44 55 31 56
REMARK SMILES IDX 34 57 43 58 57 59 32 60 33 61 42 63 58 64 35 65 24 66 25 67
REMARK SMILES IDX 29 68 26 69 28 70 27 71 46 72 47 73 51 74 48 75 50 76 49 77
REMARK SMILES IDX 36 78 37 79 41 80 38 81 40 82 39 83
REMARK H PARENT 65 13 68 18 56 51 34 62
REMARK Flexibility Score: inf
ROOT
ATOM      1  O   UNL A   1      38.454  21.756  25.566  1.00  0.00    -0.458 OA
ENDROOT
BRANCH   1   2
ATOM      2  C   UNL A   1      37.734  23.065  25.747  1.00  0.00     0.338 C 
ATOM      3  O   UNL A   1      38.498  23.628  26.570  1.00  0.00    -0.246 OA
BRANCH   2   4
ATOM      4  C   UNL A   1      35.888  23.617  24.768  1.00  0.00     0.062 A 
ATOM      5  C   UNL A   1      33.692  25.238  23.566  1.00  0.00     0.142 A 
ATOM      6  C   UNL A   1      34.378  24.380  22.747  1.00  0.00     0.049 A 
ATOM      7  C   UNL A   1      33.877  25.108  24.917  1.00  0.00     0.084 A 
ATOM      8  C   UNL A   1      35.459  23.667  23.313  1.00  0.00     0.019 A 
ATOM      9  C   UNL A   1      34.603  24.029  25.353  1.00  0.00     0.045 A 
BRANCH   5  10
ATOM     10  O   UNL A   1      32.831  26.149  23.046  1.00  0.00    -0.495 OA
ATOM     11  C   UNL A   1      32.959  26.181  21.625  1.00  0.00     0.278 C 
ENDBRANCH   5  10
BRANCH   7  12
ATOM     12  N   UNL A   1      33.401  26.032  25.849  1.00  0.00    -0.329 N 
ATOM     13  H   UNL A   1      34.084  26.677  26.143  1.00  0.00     0.169 HD
BRANCH  12  14
ATOM     14  C   UNL A   1      32.196  26.224  26.430  1.00  0.00     0.177 C 
ATOM     15  S   UNL A   1      31.741  27.819  26.697  1.00  0.00    -0.040 S 
BRANCH  14  16
ATOM     16  N   UNL A   1      31.300  25.263  26.869  1.00  0.00    -0.299 N 
ATOM     17  C   UNL A   1      30.724  23.984  26.676  1.00  0.00     0.261 C 
ATOM     18  H   UNL A   1      30.874  25.635  27.675  1.00  0.00     0.172 HD
ATOM     19  O   UNL A   1      29.771  23.632  27.367  1.00  0.00    -0.269 OA
BRANCH  17  20
ATOM     20  C   UNL A   1      31.204  23.065  25.644  1.00  0.00     0.082 A 
ATOM     21  C   UNL A   1      30.741  23.477  23.885  1.00  0.00     0.018 A 
ATOM     22  C   UNL A   1      32.368  21.724  25.964  1.00  0.00     0.134 A 
ATOM     23  C   UNL A   1      31.405  22.472  22.528  1.00  0.00     0.001 A 
ATOM     24  C   UNL A   1      33.060  20.760  24.601  1.00  0.00    -0.008 A 
ATOM     25  C   UNL A   1      32.526  21.080  22.878  1.00  0.00     0.007 A 
ATOM     26  C   UNL A   1      34.264  19.893  24.858  1.00  0.00     0.048 C 
BRANCH  22  27
ATOM     27  O   UNL A   1      32.896  21.339  27.165  1.00  0.00    -0.496 OA
ATOM     28  C   UNL A   1      33.567  22.304  27.944  1.00  0.00     0.278 C 
ENDBRANCH  22  27
ENDBRANCH  17  20
ENDBRANCH  14  16
ENDBRANCH  12  14
ENDBRANCH   7  12
ENDBRANCH   2   4
ENDBRANCH   1   2
BRANCH   1  29
ATOM     29  C   UNL A   1      39.647  21.272  26.244  1.00  0.00     0.275 C 
BRANCH  29  30
ATOM     30  C   UNL A   1      39.942  19.840  25.779  1.00  0.00     0.275 C 
BRANCH  30  31
ATOM     31  O   UNL A   1      40.871  19.245  26.699  1.00  0.00    -0.458 OA
BRANCH  31  32
ATOM     32  C   UNL A   1      42.131  19.082  26.247  1.00  0.00     0.338 C 
ATOM     33  O   UNL A   1      42.617  18.112  25.690  1.00  0.00    -0.246 OA
BRANCH  32  34
ATOM     34  C   UNL A   1      42.856  20.357  26.377  1.00  0.00     0.060 A 
ATOM     35  C   UNL A   1      42.821  21.003  27.605  1.00  0.00     0.016 A 
ATOM     36  C   UNL A   1      43.301  21.034  25.247  1.00  0.00     0.016 A 
ATOM     37  C   UNL A   1      42.994  22.379  27.648  1.00  0.00     0.010 A 
ATOM     38  C   UNL A   1      43.708  22.368  25.361  1.00  0.00     0.010 A 
ATOM     39  C   UNL A   1      43.507  23.080  26.555  1.00  0.00    -0.014 A 
BRANCH  39  40
ATOM     40  C   UNL A   1      43.849  24.527  26.684  1.00  0.00     0.031 A 
ATOM     41  C   UNL A   1      45.272  25.000  26.502  1.00  0.00     0.074 A 
ATOM     42  C   UNL A   1      42.887  25.422  27.000  1.00  0.00     0.049 A 
ATOM     43  N   UNL A   1      45.810  26.142  26.851  1.00  0.00    -0.248 NA
ATOM     44  C   UNL A   1      46.218  24.062  25.875  1.00  0.00     0.031 C 
ATOM     45  C   UNL A   1      41.453  25.136  27.141  1.00  0.00     0.029 A 
ATOM     46  N   UNL A   1      42.966  26.767  27.272  1.00  0.00    -0.354 N 
ATOM     47  C   UNL A   1      47.165  26.029  26.559  1.00  0.00     0.074 A 
ATOM     48  C   UNL A   1      47.370  24.705  26.014  1.00  0.00     0.031 C 
ATOM     49  C   UNL A   1      40.791  26.264  27.415  1.00  0.00     0.029 A 
ATOM     50  C   UNL A   1      41.760  27.321  27.634  1.00  0.00     0.049 A 
ATOM     51  H   UNL A   1      43.804  27.283  27.213  1.00  0.00     0.167 HD
ATOM     52  C   UNL A   1      48.147  26.946  26.742  1.00  0.00     0.031 A 
ATOM     53  C   UNL A   1      41.456  28.513  28.175  1.00  0.00     0.031 A 
ATOM     54  C   UNL A   1      47.919  28.268  27.269  1.00  0.00     0.049 A 
ATOM     55  C   UNL A   1      42.572  29.468  28.462  1.00  0.00     0.074 A 
ATOM     56  C   UNL A   1      48.838  29.280  27.484  1.00  0.00     0.029 A 
ATOM     57  N   UNL A   1      46.683  28.760  27.662  1.00  0.00    -0.354 N 
ATOM     58  N   UNL A   1      43.853  29.335  28.224  1.00  0.00    -0.248 NA
ATOM     59  C   UNL A   1      42.199  30.735  29.101  1.00  0.00     0.031 C 
ATOM     60  C   UNL A   1      48.171  30.354  28.081  1.00  0.00     0.029 A 
ATOM     61  C   UNL A   1      46.822  30.049  28.150  1.00  0.00     0.049 A 
ATOM     62  H   UNL A   1      45.833  28.267  27.602  1.00  0.00     0.167 HD
ATOM     63  C   UNL A   1      44.437  30.517  28.649  1.00  0.00     0.074 A 
ATOM     64  C   UNL A   1      43.365  31.361  29.139  1.00  0.00     0.031 C 
ATOM     65  C   UNL A   1      45.744  30.875  28.632  1.00  0.00     0.031 A 
BRANCH  52  66
ATOM     66  C   UNL A   1      49.563  26.536  26.432  1.00  0.00    -0.014 A 
ATOM     67  C   UNL A   1      50.360  25.848  27.360  1.00  0.00     0.009 A 
ATOM     68  C   UNL A   1      50.097  26.813  25.161  1.00  0.00     0.009 A 
ATOM     69  C   UNL A   1      51.672  25.487  27.038  1.00  0.00     0.001 A 
ATOM     70  C   UNL A   1      51.394  26.417  24.828  1.00  0.00     0.001 A 
ATOM     71  C   UNL A   1      52.186  25.766  25.771  1.00  0.00     0.000 A 
ENDBRANCH  52  66
BRANCH  53  72
ATOM     72  C   UNL A   1      40.050  28.831  28.546  1.00  0.00    -0.014 A 
ATOM     73  C   UNL A   1      39.570  28.539  29.831  1.00  0.00     0.009 A 
ATOM     74  C   UNL A   1      39.177  29.426  27.619  1.00  0.00     0.009 A 
ATOM     75  C   UNL A   1      38.239  28.799  30.166  1.00  0.00     0.001 A 
ATOM     76  C   UNL A   1      37.860  29.730  27.971  1.00  0.00     0.001 A 
ATOM     77  C   UNL A   1      37.389  29.400  29.239  1.00  0.00     0.000 A 
ENDBRANCH  53  72
BRANCH  65  78
ATOM     78  C   UNL A   1      46.075  32.264  29.099  1.00  0.00    -0.014 A 
ATOM     79  C   UNL A   1      46.060  33.361  28.224  1.00  0.00     0.009 A 
ATOM     80  C   UNL A   1      46.385  32.476  30.452  1.00  0.00     0.009 A 
ATOM     81  C   UNL A   1      46.392  34.634  28.688  1.00  0.00     0.001 A 
ATOM     82  C   UNL A   1      46.671  33.757  30.921  1.00  0.00     0.001 A 
ATOM     83  C   UNL A   1      46.689  34.833  30.037  1.00  0.00     0.000 A 
ENDBRANCH  65  78
ENDBRANCH  39  40
ENDBRANCH  32  34
ENDBRANCH  31  32
ENDBRANCH  30  31
ENDBRANCH  29  30
ENDBRANCH   1  29
TORSDOF 17
ENDMDL
