MODEL 1
REMARK VINA RESULT:      -9.5      0.000      0.000
REMARK SMILES COCC[C@@H](C)NC(=O)N[C@@H]1C=C[C@@H](C(=O)OCCOC(=O)c2ccc(-c3c4nc(c(-c5ccccc5)c5ccc([nH]5)c(-c5ccccc5)c5nc(c(-c6ccccc6)c6ccc3[nH]6)C=C5)C=C4)cc2)C1
REMARK SMILES IDX 17 1 15 2 16 3 14 4 11 5 12 6 71 7 13 8 10 9 7 10 8 11 9 13
REMARK SMILES IDX 5 15 6 16 4 17 3 18 2 19 1 20 18 21 19 22 20 23 21 24 22 25
REMARK SMILES IDX 23 26 24 27 70 28 25 29 69 30 26 31 27 32 28 33 63 34 29 35
REMARK SMILES IDX 68 36 62 37 64 38 30 39 67 40 61 41 60 42 31 44 53 45 38 46
REMARK SMILES IDX 52 47 39 48 42 49 51 50 65 51 40 52 41 53 50 55 66 56 43 57
REMARK SMILES IDX 32 58 33 59 37 60 34 61 36 62 35 63 54 64 55 65 59 66 56 67
REMARK SMILES IDX 58 68 57 69 44 70 45 71 49 72 46 73 48 74 47 75
REMARK H PARENT 7 12 10 14 64 43 42 54
REMARK Flexibility Score: inf
ROOT
ATOM      1  O   UNL A   1      42.130  20.882  26.332  1.00  0.00    -0.462 OA
ENDROOT
BRANCH   1   2
ATOM      2  C   UNL A   1      41.190  21.578  27.054  1.00  0.00     0.312 C 
ATOM      3  O   UNL A   1      41.283  21.800  28.255  1.00  0.00    -0.252 OA
BRANCH   2   4
ATOM      4  C   UNL A   1      40.132  22.196  26.125  1.00  0.00     0.124 C 
ATOM      5  C   UNL A   1      37.708  22.277  25.696  1.00  0.00     0.107 C 
ATOM      6  C   UNL A   1      38.198  23.514  26.378  1.00  0.00    -0.006 C 
ATOM      7  C   UNL A   1      38.897  21.321  25.838  1.00  0.00     0.048 C 
ATOM      8  C   UNL A   1      39.506  23.458  26.649  1.00  0.00    -0.014 C 
BRANCH   5   9
ATOM      9  N   UNL A   1      37.062  22.663  24.444  1.00  0.00    -0.332 N 
ATOM     10  N   UNL A   1      34.695  22.535  24.189  1.00  0.00    -0.336 N 
ATOM     11  C   UNL A   1      35.924  22.837  23.787  1.00  0.00     0.315 C 
ATOM     12  H   UNL A   1      33.989  23.023  23.708  1.00  0.00     0.165 HD
ATOM     13  O   UNL A   1      36.019  23.352  22.665  1.00  0.00    -0.249 OA
ATOM     14  H   UNL A   1      37.784  22.892  23.816  1.00  0.00     0.165 HD
BRANCH  10  15
ATOM     15  C   UNL A   1      34.196  21.631  25.192  1.00  0.00     0.083 C 
ATOM     16  C   UNL A   1      34.505  20.200  24.769  1.00  0.00     0.031 C 
BRANCH  15  17
ATOM     17  C   UNL A   1      32.694  21.844  25.479  1.00  0.00     0.053 C 
BRANCH  17  18
ATOM     18  C   UNL A   1      32.461  22.859  26.601  1.00  0.00     0.162 C 
BRANCH  18  19
ATOM     19  O   UNL A   1      33.318  23.984  26.426  1.00  0.00    -0.385 OA
ATOM     20  C   UNL A   1      32.626  25.102  25.886  1.00  0.00     0.194 C 
ENDBRANCH  18  19
ENDBRANCH  17  18
ENDBRANCH  15  17
ENDBRANCH  10  15
ENDBRANCH   5   9
ENDBRANCH   2   4
ENDBRANCH   1   2
BRANCH   1  21
ATOM     21  C   UNL A   1      41.879  19.456  26.220  1.00  0.00     0.274 C 
BRANCH  21  22
ATOM     22  C   UNL A   1      43.186  18.692  25.869  1.00  0.00     0.275 C 
BRANCH  22  23
ATOM     23  O   UNL A   1      43.785  18.837  24.539  1.00  0.00    -0.458 OA
BRANCH  23  24
ATOM     24  C   UNL A   1      44.987  19.420  24.447  1.00  0.00     0.338 C 
ATOM     25  O   UNL A   1      46.052  18.822  24.322  1.00  0.00    -0.246 OA
BRANCH  24  26
ATOM     26  C   UNL A   1      45.068  20.887  24.560  1.00  0.00     0.060 A 
ATOM     27  C   UNL A   1      45.630  21.303  25.770  1.00  0.00     0.016 A 
ATOM     28  C   UNL A   1      44.520  21.843  23.702  1.00  0.00     0.016 A 
ATOM     29  C   UNL A   1      45.524  22.610  26.193  1.00  0.00     0.010 A 
ATOM     30  C   UNL A   1      44.552  23.209  24.074  1.00  0.00     0.010 A 
ATOM     31  C   UNL A   1      45.054  23.602  25.329  1.00  0.00    -0.014 A 
BRANCH  31  32
ATOM     32  C   UNL A   1      45.217  25.005  25.806  1.00  0.00     0.031 A 
ATOM     33  C   UNL A   1      44.141  25.730  26.561  1.00  0.00     0.074 A 
ATOM     34  C   UNL A   1      46.442  25.566  25.698  1.00  0.00     0.049 A 
ATOM     35  N   UNL A   1      44.170  26.942  27.056  1.00  0.00    -0.248 NA
ATOM     36  C   UNL A   1      42.876  25.018  26.790  1.00  0.00     0.031 C 
ATOM     37  C   UNL A   1      47.599  24.939  25.045  1.00  0.00     0.029 A 
ATOM     38  N   UNL A   1      46.952  26.736  26.203  1.00  0.00    -0.354 N 
ATOM     39  C   UNL A   1      42.914  27.164  27.603  1.00  0.00     0.074 A 
ATOM     40  C   UNL A   1      42.150  25.949  27.399  1.00  0.00     0.031 C 
ATOM     41  C   UNL A   1      48.697  25.657  25.304  1.00  0.00     0.029 A 
ATOM     42  C   UNL A   1      48.306  26.871  26.006  1.00  0.00     0.049 A 
ATOM     43  H   UNL A   1      46.402  27.412  26.662  1.00  0.00     0.167 HD
ATOM     44  C   UNL A   1      42.440  28.287  28.195  1.00  0.00     0.031 A 
ATOM     45  C   UNL A   1      49.149  27.876  26.305  1.00  0.00     0.031 A 
ATOM     46  C   UNL A   1      43.215  29.483  28.420  1.00  0.00     0.049 A 
ATOM     47  C   UNL A   1      48.594  29.113  26.934  1.00  0.00     0.074 A 
ATOM     48  C   UNL A   1      42.811  30.681  28.986  1.00  0.00     0.029 A 
ATOM     49  N   UNL A   1      44.558  29.628  28.105  1.00  0.00    -0.354 N 
ATOM     50  N   UNL A   1      47.372  29.345  27.346  1.00  0.00    -0.248 NA
ATOM     51  C   UNL A   1      49.519  30.241  27.098  1.00  0.00     0.031 C 
ATOM     52  C   UNL A   1      43.898  31.563  28.974  1.00  0.00     0.029 A 
ATOM     53  C   UNL A   1      44.992  30.899  28.447  1.00  0.00     0.049 A 
ATOM     54  H   UNL A   1      45.120  28.930  27.698  1.00  0.00     0.167 HD
ATOM     55  C   UNL A   1      47.372  30.655  27.795  1.00  0.00     0.074 A 
ATOM     56  C   UNL A   1      48.726  31.151  27.647  1.00  0.00     0.031 C 
ATOM     57  C   UNL A   1      46.335  31.387  28.269  1.00  0.00     0.031 A 
BRANCH  44  58
ATOM     58  C   UNL A   1      40.985  28.310  28.575  1.00  0.00    -0.014 A 
ATOM     59  C   UNL A   1      40.530  27.808  29.803  1.00  0.00     0.009 A 
ATOM     60  C   UNL A   1      40.059  28.893  27.694  1.00  0.00     0.009 A 
ATOM     61  C   UNL A   1      39.170  27.866  30.127  1.00  0.00     0.001 A 
ATOM     62  C   UNL A   1      38.707  28.969  28.030  1.00  0.00     0.001 A 
ATOM     63  C   UNL A   1      38.262  28.448  29.243  1.00  0.00     0.000 A 
ENDBRANCH  44  58
BRANCH  45  64
ATOM     64  C   UNL A   1      50.577  27.777  25.904  1.00  0.00    -0.014 A 
ATOM     65  C   UNL A   1      51.524  27.166  26.737  1.00  0.00     0.009 A 
ATOM     66  C   UNL A   1      50.986  28.259  24.649  1.00  0.00     0.009 A 
ATOM     67  C   UNL A   1      52.851  27.035  26.315  1.00  0.00     0.001 A 
ATOM     68  C   UNL A   1      52.302  28.094  24.216  1.00  0.00     0.001 A 
ATOM     69  C   UNL A   1      53.235  27.486  25.052  1.00  0.00     0.000 A 
ENDBRANCH  45  64
BRANCH  57  70
ATOM     70  C   UNL A   1      46.641  32.804  28.655  1.00  0.00    -0.014 A 
ATOM     71  C   UNL A   1      46.504  33.848  27.726  1.00  0.00     0.009 A 
ATOM     72  C   UNL A   1      47.076  33.096  29.955  1.00  0.00     0.009 A 
ATOM     73  C   UNL A   1      46.831  35.157  28.086  1.00  0.00     0.001 A 
ATOM     74  C   UNL A   1      47.381  34.409  30.318  1.00  0.00     0.001 A 
ATOM     75  C   UNL A   1      47.268  35.435  29.381  1.00  0.00     0.000 A 
ENDBRANCH  57  70
ENDBRANCH  31  32
ENDBRANCH  24  26
ENDBRANCH  23  24
ENDBRANCH  22  23
ENDBRANCH  21  22
ENDBRANCH   1  21
TORSDOF 16
ENDMDL
MODEL 2
REMARK VINA RESULT:      -9.4      2.990      7.175
REMARK SMILES COCC[C@@H](C)NC(=O)N[C@@H]1C=C[C@@H](C(=O)OCCOC(=O)c2ccc(-c3c4nc(c(-c5ccccc5)c5ccc([nH]5)c(-c5ccccc5)c5nc(c(-c6ccccc6)c6ccc3[nH]6)C=C5)C=C4)cc2)C1
REMARK SMILES IDX 17 1 15 2 16 3 14 4 11 5 12 6 71 7 13 8 10 9 7 10 8 11 9 13
REMARK SMILES IDX 5 15 6 16 4 17 3 18 2 19 1 20 18 21 19 22 20 23 21 24 22 25
REMARK SMILES IDX 23 26 24 27 70 28 25 29 69 30 26 31 27 32 28 33 63 34 29 35
REMARK SMILES IDX 68 36 62 37 64 38 30 39 67 40 61 41 60 42 31 44 53 45 38 46
REMARK SMILES IDX 52 47 39 48 42 49 51 50 65 51 40 52 41 53 50 55 66 56 43 57
REMARK SMILES IDX 32 58 33 59 37 60 34 61 36 62 35 63 54 64 55 65 59 66 56 67
REMARK SMILES IDX 58 68 57 69 44 70 45 71 49 72 46 73 48 74 47 75
REMARK H PARENT 7 12 10 14 64 43 42 54
REMARK Flexibility Score: inf
ROOT
ATOM      1  O   UNL A   1      37.484  21.769  24.342  1.00  0.00    -0.462 OA
ENDROOT
BRANCH   1   2
ATOM      2  C   UNL A   1      37.047  22.791  25.150  1.00  0.00     0.312 C 
ATOM      3  O   UNL A   1      37.790  23.628  25.649  1.00  0.00    -0.252 OA
BRANCH   2   4
ATOM      4  C   UNL A   1      35.510  22.853  25.174  1.00  0.00     0.124 C 
ATOM      5  C   UNL A   1      33.612  23.985  26.260  1.00  0.00     0.107 C 
ATOM      6  C   UNL A   1      33.863  24.510  24.883  1.00  0.00    -0.006 C 
ATOM      7  C   UNL A   1      34.872  23.160  26.542  1.00  0.00     0.048 C 
ATOM      8  C   UNL A   1      34.919  23.927  24.304  1.00  0.00    -0.014 C 
BRANCH   5   9
ATOM      9  N   UNL A   1      32.236  23.499  26.327  1.00  0.00    -0.332 N 
ATOM     10  N   UNL A   1      31.633  21.377  25.424  1.00  0.00    -0.336 N 
ATOM     11  C   UNL A   1      31.392  22.507  26.078  1.00  0.00     0.315 C 
ATOM     12  H   UNL A   1      30.991  20.659  25.623  1.00  0.00     0.165 HD
ATOM     13  O   UNL A   1      30.243  22.649  26.514  1.00  0.00    -0.249 OA
ATOM     14  H   UNL A   1      31.704  24.222  26.732  1.00  0.00     0.165 HD
BRANCH  10  15
ATOM     15  C   UNL A   1      32.653  20.998  24.481  1.00  0.00     0.083 C 
ATOM     16  C   UNL A   1      32.331  21.617  23.126  1.00  0.00     0.031 C 
BRANCH  15  17
ATOM     17  C   UNL A   1      32.834  19.468  24.395  1.00  0.00     0.053 C 
BRANCH  17  18
ATOM     18  C   UNL A   1      34.281  19.043  24.662  1.00  0.00     0.162 C 
BRANCH  18  19
ATOM     19  O   UNL A   1      34.557  17.811  24.001  1.00  0.00    -0.385 OA
ATOM     20  C   UNL A   1      33.371  17.182  23.533  1.00  0.00     0.194 C 
ENDBRANCH  18  19
ENDBRANCH  17  18
ENDBRANCH  15  17
ENDBRANCH  10  15
ENDBRANCH   5   9
ENDBRANCH   2   4
ENDBRANCH   1   2
BRANCH   1  21
ATOM     21  C   UNL A   1      37.760  20.522  25.033  1.00  0.00     0.274 C 
BRANCH  21  22
ATOM     22  C   UNL A   1      39.131  20.589  25.762  1.00  0.00     0.275 C 
BRANCH  22  23
ATOM     23  O   UNL A   1      39.989  19.401  25.820  1.00  0.00    -0.458 OA
BRANCH  23  24
ATOM     24  C   UNL A   1      41.305  19.580  25.993  1.00  0.00     0.338 C 
ATOM     25  O   UNL A   1      42.153  18.697  25.895  1.00  0.00    -0.246 OA
BRANCH  24  26
ATOM     26  C   UNL A   1      41.789  20.915  26.387  1.00  0.00     0.060 A 
ATOM     27  C   UNL A   1      41.728  21.123  27.767  1.00  0.00     0.016 A 
ATOM     28  C   UNL A   1      42.124  21.983  25.553  1.00  0.00     0.016 A 
ATOM     29  C   UNL A   1      41.850  22.386  28.303  1.00  0.00     0.010 A 
ATOM     30  C   UNL A   1      42.400  23.249  26.125  1.00  0.00     0.010 A 
ATOM     31  C   UNL A   1      42.261  23.460  27.510  1.00  0.00    -0.014 A 
BRANCH  31  32
ATOM     32  C   UNL A   1      42.597  24.715  28.242  1.00  0.00     0.031 A 
ATOM     33  C   UNL A   1      44.008  25.098  28.581  1.00  0.00     0.074 A 
ATOM     34  C   UNL A   1      41.601  25.607  28.446  1.00  0.00     0.049 A 
ATOM     35  N   UNL A   1      44.434  26.177  29.188  1.00  0.00    -0.248 NA
ATOM     36  C   UNL A   1      45.075  24.163  28.197  1.00  0.00     0.031 C 
ATOM     37  C   UNL A   1      40.191  25.386  28.101  1.00  0.00     0.029 A 
ATOM     38  N   UNL A   1      41.623  26.900  28.904  1.00  0.00    -0.354 N 
ATOM     39  C   UNL A   1      45.808  26.028  29.315  1.00  0.00     0.074 A 
ATOM     40  C   UNL A   1      46.149  24.762  28.699  1.00  0.00     0.031 C 
ATOM     41  C   UNL A   1      39.518  26.535  28.229  1.00  0.00     0.029 A 
ATOM     42  C   UNL A   1      40.405  27.532  28.810  1.00  0.00     0.049 A 
ATOM     43  H   UNL A   1      42.430  27.333  29.263  1.00  0.00     0.167 HD
ATOM     44  C   UNL A   1      46.694  26.862  29.914  1.00  0.00     0.031 A 
ATOM     45  C   UNL A   1      40.013  28.761  29.190  1.00  0.00     0.031 A 
ATOM     46  C   UNL A   1      46.350  28.135  30.501  1.00  0.00     0.049 A 
ATOM     47  C   UNL A   1      41.003  29.650  29.872  1.00  0.00     0.074 A 
ATOM     48  C   UNL A   1      47.175  29.035  31.155  1.00  0.00     0.029 A 
ATOM     49  N   UNL A   1      45.082  28.697  30.489  1.00  0.00    -0.354 N 
ATOM     50  N   UNL A   1      42.280  29.444  30.081  1.00  0.00    -0.248 NA
ATOM     51  C   UNL A   1      40.492  30.916  30.410  1.00  0.00     0.031 C 
ATOM     52  C   UNL A   1      46.397  30.120  31.576  1.00  0.00     0.029 A 
ATOM     53  C   UNL A   1      45.098  29.920  31.140  1.00  0.00     0.049 A 
ATOM     54  H   UNL A   1      44.287  28.287  30.078  1.00  0.00     0.167 HD
ATOM     55  C   UNL A   1      42.723  30.543  30.798  1.00  0.00     0.074 A 
ATOM     56  C   UNL A   1      41.589  31.433  30.948  1.00  0.00     0.031 C 
ATOM     57  C   UNL A   1      43.957  30.782  31.304  1.00  0.00     0.031 A 
BRANCH  44  58
ATOM     58  C   UNL A   1      48.115  26.391  30.038  1.00  0.00    -0.014 A 
ATOM     59  C   UNL A   1      48.571  25.690  31.165  1.00  0.00     0.009 A 
ATOM     60  C   UNL A   1      49.005  26.618  28.974  1.00  0.00     0.009 A 
ATOM     61  C   UNL A   1      49.897  25.252  31.233  1.00  0.00     0.001 A 
ATOM     62  C   UNL A   1      50.321  26.159  29.036  1.00  0.00     0.001 A 
ATOM     63  C   UNL A   1      50.768  25.483  30.169  1.00  0.00     0.000 A 
ENDBRANCH  44  58
BRANCH  45  64
ATOM     64  C   UNL A   1      38.590  29.159  29.027  1.00  0.00    -0.014 A 
ATOM     65  C   UNL A   1      37.683  29.062  30.091  1.00  0.00     0.009 A 
ATOM     66  C   UNL A   1      38.147  29.689  27.804  1.00  0.00     0.009 A 
ATOM     67  C   UNL A   1      36.363  29.495  29.932  1.00  0.00     0.001 A 
ATOM     68  C   UNL A   1      36.840  30.154  27.659  1.00  0.00     0.001 A 
ATOM     69  C   UNL A   1      35.947  30.052  28.722  1.00  0.00     0.000 A 
ENDBRANCH  45  64
BRANCH  57  70
ATOM     70  C   UNL A   1      44.127  32.061  32.069  1.00  0.00    -0.014 A 
ATOM     71  C   UNL A   1      44.515  33.243  31.418  1.00  0.00     0.009 A 
ATOM     72  C   UNL A   1      43.903  32.083  33.452  1.00  0.00     0.009 A 
ATOM     73  C   UNL A   1      44.710  34.417  32.147  1.00  0.00     0.001 A 
ATOM     74  C   UNL A   1      44.076  33.264  34.176  1.00  0.00     0.001 A 
ATOM     75  C   UNL A   1      44.489  34.426  33.525  1.00  0.00     0.000 A 
ENDBRANCH  57  70
ENDBRANCH  31  32
ENDBRANCH  24  26
ENDBRANCH  23  24
ENDBRANCH  22  23
ENDBRANCH  21  22
ENDBRANCH   1  21
TORSDOF 16
ENDMDL
MODEL 3
REMARK VINA RESULT:      -9.2      2.524      7.157
REMARK SMILES COCC[C@@H](C)NC(=O)N[C@@H]1C=C[C@@H](C(=O)OCCOC(=O)c2ccc(-c3c4nc(c(-c5ccccc5)c5ccc([nH]5)c(-c5ccccc5)c5nc(c(-c6ccccc6)c6ccc3[nH]6)C=C5)C=C4)cc2)C1
REMARK SMILES IDX 17 1 15 2 16 3 14 4 11 5 12 6 71 7 13 8 10 9 7 10 8 11 9 13
REMARK SMILES IDX 5 15 6 16 4 17 3 18 2 19 1 20 18 21 19 22 20 23 21 24 22 25
REMARK SMILES IDX 23 26 24 27 70 28 25 29 69 30 26 31 27 32 28 33 63 34 29 35
REMARK SMILES IDX 68 36 62 37 64 38 30 39 67 40 61 41 60 42 31 44 53 45 38 46
REMARK SMILES IDX 52 47 39 48 42 49 51 50 65 51 40 52 41 53 50 55 66 56 43 57
REMARK SMILES IDX 32 58 33 59 37 60 34 61 36 62 35 63 54 64 55 65 59 66 56 67
REMARK SMILES IDX 58 68 57 69 44 70 45 71 49 72 46 73 48 74 47 75
REMARK H PARENT 7 12 10 14 64 43 42 54
REMARK Flexibility Score: inf
ROOT
ATOM      1  O   UNL A   1      36.815  22.371  24.880  1.00  0.00    -0.462 OA
ENDROOT
BRANCH   1   2
ATOM      2  C   UNL A   1      36.236  23.013  23.812  1.00  0.00     0.312 C 
ATOM      3  O   UNL A   1      36.622  22.892  22.655  1.00  0.00    -0.252 OA
BRANCH   2   4
ATOM      4  C   UNL A   1      34.940  23.726  24.235  1.00  0.00     0.124 C 
ATOM      5  C   UNL A   1      34.086  25.815  25.220  1.00  0.00     0.107 C 
ATOM      6  C   UNL A   1      33.873  25.766  23.741  1.00  0.00    -0.006 C 
ATOM      7  C   UNL A   1      35.054  24.652  25.461  1.00  0.00     0.048 C 
ATOM      8  C   UNL A   1      34.372  24.651  23.195  1.00  0.00    -0.014 C 
BRANCH   5   9
ATOM      9  N   UNL A   1      32.790  26.001  25.868  1.00  0.00    -0.332 N 
ATOM     10  N   UNL A   1      31.205  24.225  25.986  1.00  0.00    -0.336 N 
ATOM     11  C   UNL A   1      31.646  25.450  26.249  1.00  0.00     0.315 C 
ATOM     12  H   UNL A   1      30.509  23.913  26.608  1.00  0.00     0.165 HD
ATOM     13  O   UNL A   1      30.904  26.160  26.939  1.00  0.00    -0.249 OA
ATOM     14  H   UNL A   1      32.747  26.946  26.140  1.00  0.00     0.165 HD
BRANCH  10  15
ATOM     15  C   UNL A   1      31.547  23.266  24.969  1.00  0.00     0.083 C 
ATOM     16  C   UNL A   1      30.772  23.592  23.698  1.00  0.00     0.031 C 
BRANCH  15  17
ATOM     17  C   UNL A   1      31.321  21.812  25.433  1.00  0.00     0.053 C 
BRANCH  17  18
ATOM     18  C   UNL A   1      32.641  21.069  25.663  1.00  0.00     0.162 C 
BRANCH  18  19
ATOM     19  O   UNL A   1      33.118  20.532  24.432  1.00  0.00    -0.385 OA
ATOM     20  C   UNL A   1      34.040  19.469  24.637  1.00  0.00     0.194 C 
ENDBRANCH  18  19
ENDBRANCH  17  18
ENDBRANCH  15  17
ENDBRANCH  10  15
ENDBRANCH   5   9
ENDBRANCH   2   4
ENDBRANCH   1   2
BRANCH   1  21
ATOM     21  C   UNL A   1      37.347  21.053  24.581  1.00  0.00     0.274 C 
BRANCH  21  22
ATOM     22  C   UNL A   1      38.397  20.630  25.646  1.00  0.00     0.275 C 
BRANCH  22  23
ATOM     23  O   UNL A   1      39.349  19.555  25.350  1.00  0.00    -0.458 OA
BRANCH  23  24
ATOM     24  C   UNL A   1      40.597  19.668  25.822  1.00  0.00     0.338 C 
ATOM     25  O   UNL A   1      41.477  18.821  25.695  1.00  0.00    -0.246 OA
BRANCH  24  26
ATOM     26  C   UNL A   1      40.948  20.866  26.604  1.00  0.00     0.060 A 
ATOM     27  C   UNL A   1      41.258  21.964  25.797  1.00  0.00     0.016 A 
ATOM     28  C   UNL A   1      41.150  20.959  27.983  1.00  0.00     0.016 A 
ATOM     29  C   UNL A   1      41.889  23.074  26.315  1.00  0.00     0.010 A 
ATOM     30  C   UNL A   1      41.658  22.162  28.530  1.00  0.00     0.010 A 
ATOM     31  C   UNL A   1      42.035  23.231  27.695  1.00  0.00    -0.014 A 
BRANCH  31  32
ATOM     32  C   UNL A   1      42.503  24.572  28.148  1.00  0.00     0.031 A 
ATOM     33  C   UNL A   1      43.952  24.966  28.136  1.00  0.00     0.074 A 
ATOM     34  C   UNL A   1      41.565  25.509  28.411  1.00  0.00     0.049 A 
ATOM     35  N   UNL A   1      44.485  26.113  28.477  1.00  0.00    -0.248 NA
ATOM     36  C   UNL A   1      44.925  23.959  27.693  1.00  0.00     0.031 C 
ATOM     37  C   UNL A   1      40.115  25.274  28.392  1.00  0.00     0.029 A 
ATOM     38  N   UNL A   1      41.670  26.855  28.654  1.00  0.00    -0.354 N 
ATOM     39  C   UNL A   1      45.857  25.951  28.347  1.00  0.00     0.074 A 
ATOM     40  C   UNL A   1      46.075  24.599  27.873  1.00  0.00     0.031 C 
ATOM     41  C   UNL A   1      39.475  26.445  28.477  1.00  0.00     0.029 A 
ATOM     42  C   UNL A   1      40.454  27.496  28.712  1.00  0.00     0.049 A 
ATOM     43  H   UNL A   1      42.531  27.317  28.775  1.00  0.00     0.167 HD
ATOM     44  C   UNL A   1      46.840  26.843  28.624  1.00  0.00     0.031 A 
ATOM     45  C   UNL A   1      40.140  28.778  28.973  1.00  0.00     0.031 A 
ATOM     46  C   UNL A   1      46.615  28.197  29.069  1.00  0.00     0.049 A 
ATOM     47  C   UNL A   1      41.242  29.733  29.301  1.00  0.00     0.074 A 
ATOM     48  C   UNL A   1      47.549  29.164  29.401  1.00  0.00     0.029 A 
ATOM     49  N   UNL A   1      45.367  28.782  29.226  1.00  0.00    -0.354 N 
ATOM     50  N   UNL A   1      42.536  29.529  29.279  1.00  0.00    -0.248 NA
ATOM     51  C   UNL A   1      40.842  31.078  29.733  1.00  0.00     0.031 C 
ATOM     52  C   UNL A   1      46.866  30.318  29.801  1.00  0.00     0.029 A 
ATOM     53  C   UNL A   1      45.507  30.088  29.669  1.00  0.00     0.049 A 
ATOM     54  H   UNL A   1      44.508  28.335  29.049  1.00  0.00     0.167 HD
ATOM     55  C   UNL A   1      43.108  30.711  29.719  1.00  0.00     0.074 A 
ATOM     56  C   UNL A   1      42.022  31.641  29.957  1.00  0.00     0.031 C 
ATOM     57  C   UNL A   1      44.417  30.992  29.926  1.00  0.00     0.031 A 
BRANCH  44  58
ATOM     58  C   UNL A   1      48.261  26.360  28.531  1.00  0.00    -0.014 A 
ATOM     59  C   UNL A   1      48.904  25.730  29.606  1.00  0.00     0.009 A 
ATOM     60  C   UNL A   1      48.952  26.503  27.315  1.00  0.00     0.009 A 
ATOM     61  C   UNL A   1      50.221  25.278  29.473  1.00  0.00     0.001 A 
ATOM     62  C   UNL A   1      50.258  26.031  27.179  1.00  0.00     0.001 A 
ATOM     63  C   UNL A   1      50.894  25.425  28.260  1.00  0.00     0.000 A 
ENDBRANCH  44  58
BRANCH  45  64
ATOM     64  C   UNL A   1      38.711  29.182  29.040  1.00  0.00    -0.014 A 
ATOM     65  C   UNL A   1      37.977  29.060  30.227  1.00  0.00     0.009 A 
ATOM     66  C   UNL A   1      38.089  29.743  27.912  1.00  0.00     0.009 A 
ATOM     67  C   UNL A   1      36.651  29.498  30.283  1.00  0.00     0.001 A 
ATOM     68  C   UNL A   1      36.778  30.213  27.980  1.00  0.00     0.001 A 
ATOM     69  C   UNL A   1      36.058  30.086  29.165  1.00  0.00     0.000 A 
ENDBRANCH  45  64
BRANCH  57  70
ATOM     70  C   UNL A   1      44.730  32.366  30.440  1.00  0.00    -0.014 A 
ATOM     71  C   UNL A   1      44.814  32.617  31.819  1.00  0.00     0.009 A 
ATOM     72  C   UNL A   1      44.935  33.420  29.538  1.00  0.00     0.009 A 
ATOM     73  C   UNL A   1      45.066  33.909  32.285  1.00  0.00     0.001 A 
ATOM     74  C   UNL A   1      45.209  34.705  30.007  1.00  0.00     0.001 A 
ATOM     75  C   UNL A   1      45.263  34.951  31.379  1.00  0.00     0.000 A 
ENDBRANCH  57  70
ENDBRANCH  31  32
ENDBRANCH  24  26
ENDBRANCH  23  24
ENDBRANCH  22  23
ENDBRANCH  21  22
ENDBRANCH   1  21
TORSDOF 16
ENDMDL
