MODEL 1
REMARK VINA RESULT:     -10.4      0.000      0.000
REMARK SMILES COc1cccc(-c2ccc(=O)n(CC(=O)N[C@@H](C(=O)OCCOC(=O)c3ccc(-c4c5nc(c(-c6ccccc6)c6ccc([nH]6)c(-c6ccccc6)c6nc(c(-c7ccccc7)c7ccc4[nH]7)C=C6)C=C5)cc3)C(C)C)n2)c1
REMARK SMILES IDX 21 1 19 2 20 3 18 4 17 5 15 6 16 7 14 9 13 10 8 11 9 12
REMARK SMILES IDX 78 13 10 14 11 15 12 16 7 17 3 18 4 19 79 20 5 21 6 22 2 23
REMARK SMILES IDX 1 24 75 25 76 26 77 27 22 28 23 29 24 30 25 31 26 32 27 33
REMARK SMILES IDX 28 34 74 35 29 36 73 37 30 38 31 39 32 40 67 41 33 42 72 43
REMARK SMILES IDX 66 44 68 45 34 46 71 47 65 48 64 49 35 51 57 52 42 53 56 54
REMARK SMILES IDX 43 55 46 56 55 57 69 58 44 59 45 60 54 62 70 63 47 64 36 65
REMARK SMILES IDX 37 66 41 67 38 68 40 69 39 70 58 71 59 72 63 73 60 74 62 75
REMARK SMILES IDX 61 76 48 77 49 78 53 79 50 80 52 81 51 82
REMARK H PARENT 17 8 68 50 46 61
REMARK Flexibility Score: inf
ROOT
ATOM      1  O   UNL A   1      31.114  27.484  26.500  1.00  0.00    -0.461 OA
ENDROOT
BRANCH   1   2
ATOM      2  C   UNL A   1      31.850  26.783  25.587  1.00  0.00     0.329 C 
ATOM      3  O   UNL A   1      32.779  26.045  25.895  1.00  0.00    -0.250 OA
BRANCH   2   4
ATOM      4  C   UNL A   1      31.401  27.044  24.121  1.00  0.00     0.194 C 
BRANCH   4   5
ATOM      5  N   UNL A   1      32.553  27.303  23.251  1.00  0.00    -0.341 N 
ATOM      6  C   UNL A   1      33.063  26.524  22.252  1.00  0.00     0.242 C 
ATOM      7  O   UNL A   1      33.932  27.029  21.535  1.00  0.00    -0.273 OA
ATOM      8  H   UNL A   1      33.022  28.154  23.408  1.00  0.00     0.164 HD
BRANCH   6   9
ATOM      9  C   UNL A   1      32.463  25.151  21.933  1.00  0.00     0.248 C 
BRANCH   9  10
ATOM     10  N   UNL A   1      32.708  24.177  22.995  1.00  0.00    -0.220 N 
ATOM     11  C   UNL A   1      34.244  23.130  24.333  1.00  0.00     0.091 A 
ATOM     12  C   UNL A   1      33.220  22.243  24.919  1.00  0.00     0.036 A 
ATOM     13  N   UNL A   1      34.004  24.057  23.460  1.00  0.00    -0.169 NA
ATOM     14  C   UNL A   1      31.964  22.436  24.516  1.00  0.00     0.075 A 
ATOM     15  C   UNL A   1      31.636  23.457  23.499  1.00  0.00     0.267 A 
ATOM     16  O   UNL A   1      30.468  23.589  23.148  1.00  0.00    -0.268 OA
BRANCH  11  17
ATOM     17  C   UNL A   1      35.633  22.906  24.788  1.00  0.00     0.006 A 
ATOM     18  C   UNL A   1      37.566  21.472  24.939  1.00  0.00     0.119 A 
ATOM     19  C   UNL A   1      38.199  22.429  25.739  1.00  0.00     0.046 A 
ATOM     20  C   UNL A   1      36.265  21.695  24.486  1.00  0.00     0.056 A 
ATOM     21  C   UNL A   1      37.560  23.629  26.048  1.00  0.00     0.005 A 
ATOM     22  C   UNL A   1      36.277  23.875  25.564  1.00  0.00     0.011 A 
BRANCH  18  23
ATOM     23  O   UNL A   1      38.294  20.340  24.697  1.00  0.00    -0.497 OA
ATOM     24  C   UNL A   1      37.683  19.129  25.130  1.00  0.00     0.278 C 
ENDBRANCH  18  23
ENDBRANCH  11  17
ENDBRANCH   9  10
ENDBRANCH   6   9
ENDBRANCH   4   5
BRANCH   4  25
ATOM     25  C   UNL A   1      30.350  28.175  23.964  1.00  0.00     0.017 C 
ATOM     26  C   UNL A   1      30.908  29.337  23.125  1.00  0.00     0.010 C 
ATOM     27  C   UNL A   1      29.060  27.687  23.289  1.00  0.00     0.010 C 
ENDBRANCH   4  25
ENDBRANCH   2   4
ENDBRANCH   1   2
BRANCH   1  28
ATOM     28  C   UNL A   1      31.836  28.105  27.588  1.00  0.00     0.274 C 
BRANCH  28  29
ATOM     29  C   UNL A   1      32.674  29.274  27.081  1.00  0.00     0.275 C 
BRANCH  29  30
ATOM     30  O   UNL A   1      34.002  29.143  27.609  1.00  0.00    -0.458 OA
BRANCH  30  31
ATOM     31  C   UNL A   1      34.575  30.281  28.055  1.00  0.00     0.338 C 
ATOM     32  O   UNL A   1      34.045  31.366  28.242  1.00  0.00    -0.246 OA
BRANCH  31  33
ATOM     33  C   UNL A   1      35.988  30.013  28.356  1.00  0.00     0.060 A 
ATOM     34  C   UNL A   1      36.945  30.248  27.372  1.00  0.00     0.016 A 
ATOM     35  C   UNL A   1      36.353  29.416  29.560  1.00  0.00     0.016 A 
ATOM     36  C   UNL A   1      38.251  29.802  27.541  1.00  0.00     0.010 A 
ATOM     37  C   UNL A   1      37.689  29.058  29.770  1.00  0.00     0.010 A 
ATOM     38  C   UNL A   1      38.645  29.209  28.747  1.00  0.00    -0.014 A 
BRANCH  38  39
ATOM     39  C   UNL A   1      40.028  28.689  28.914  1.00  0.00     0.031 A 
ATOM     40  C   UNL A   1      41.097  29.577  29.495  1.00  0.00     0.074 A 
ATOM     41  C   UNL A   1      40.336  27.420  28.581  1.00  0.00     0.049 A 
ATOM     42  N   UNL A   1      42.392  29.393  29.537  1.00  0.00    -0.248 NA
ATOM     43  C   UNL A   1      40.650  30.844  30.098  1.00  0.00     0.031 C 
ATOM     44  C   UNL A   1      39.396  26.415  28.080  1.00  0.00     0.029 A 
ATOM     45  N   UNL A   1      41.537  26.753  28.629  1.00  0.00    -0.354 N 
ATOM     46  C   UNL A   1      42.918  30.546  30.106  1.00  0.00     0.074 A 
ATOM     47  C   UNL A   1      41.804  31.419  30.405  1.00  0.00     0.031 C 
ATOM     48  C   UNL A   1      40.044  25.252  27.911  1.00  0.00     0.029 A 
ATOM     49  C   UNL A   1      41.460  25.451  28.200  1.00  0.00     0.049 A 
ATOM     50  H   UNL A   1      42.372  27.171  28.940  1.00  0.00     0.167 HD
ATOM     51  C   UNL A   1      44.214  30.854  30.348  1.00  0.00     0.031 A 
ATOM     52  C   UNL A   1      42.423  24.530  28.014  1.00  0.00     0.031 A 
ATOM     53  C   UNL A   1      45.320  29.970  30.100  1.00  0.00     0.049 A 
ATOM     54  C   UNL A   1      43.857  24.905  28.252  1.00  0.00     0.074 A 
ATOM     55  C   UNL A   1      46.671  30.198  30.301  1.00  0.00     0.029 A 
ATOM     56  N   UNL A   1      45.199  28.677  29.620  1.00  0.00    -0.354 N 
ATOM     57  N   UNL A   1      44.350  26.036  28.694  1.00  0.00    -0.248 NA
ATOM     58  C   UNL A   1      44.867  23.886  27.937  1.00  0.00     0.031 C 
ATOM     59  C   UNL A   1      47.370  29.048  29.916  1.00  0.00     0.029 A 
ATOM     60  C   UNL A   1      46.450  28.094  29.510  1.00  0.00     0.049 A 
ATOM     61  H   UNL A   1      44.349  28.236  29.390  1.00  0.00     0.167 HD
ATOM     62  C   UNL A   1      45.728  25.866  28.706  1.00  0.00     0.074 A 
ATOM     63  C   UNL A   1      45.991  24.514  28.255  1.00  0.00     0.031 C 
ATOM     64  C   UNL A   1      46.691  26.754  29.051  1.00  0.00     0.031 A 
BRANCH  51  65
ATOM     65  C   UNL A   1      44.508  32.233  30.862  1.00  0.00    -0.014 A 
ATOM     66  C   UNL A   1      44.703  33.317  29.992  1.00  0.00     0.009 A 
ATOM     67  C   UNL A   1      44.568  32.453  32.248  1.00  0.00     0.009 A 
ATOM     68  C   UNL A   1      44.982  34.587  30.502  1.00  0.00     0.001 A 
ATOM     69  C   UNL A   1      44.825  33.727  32.754  1.00  0.00     0.001 A 
ATOM     70  C   UNL A   1      45.040  34.791  31.881  1.00  0.00     0.000 A 
ENDBRANCH  51  65
BRANCH  52  71
ATOM     71  C   UNL A   1      42.068  23.180  27.508  1.00  0.00    -0.014 A 
ATOM     72  C   UNL A   1      41.394  22.265  28.331  1.00  0.00     0.009 A 
ATOM     73  C   UNL A   1      42.396  22.803  26.196  1.00  0.00     0.009 A 
ATOM     74  C   UNL A   1      41.067  20.995  27.851  1.00  0.00     0.001 A 
ATOM     75  C   UNL A   1      42.043  21.543  25.711  1.00  0.00     0.001 A 
ATOM     76  C   UNL A   1      41.384  20.637  26.541  1.00  0.00     0.000 A 
ENDBRANCH  52  71
BRANCH  64  77
ATOM     77  C   UNL A   1      48.112  26.282  28.964  1.00  0.00    -0.014 A 
ATOM     78  C   UNL A   1      48.829  26.379  27.761  1.00  0.00     0.009 A 
ATOM     79  C   UNL A   1      48.747  25.763  30.102  1.00  0.00     0.009 A 
ATOM     80  C   UNL A   1      50.152  25.939  27.694  1.00  0.00     0.001 A 
ATOM     81  C   UNL A   1      50.076  25.341  30.035  1.00  0.00     0.001 A 
ATOM     82  C   UNL A   1      50.774  25.424  28.831  1.00  0.00     0.000 A 
ENDBRANCH  64  77
ENDBRANCH  38  39
ENDBRANCH  31  33
ENDBRANCH  30  31
ENDBRANCH  29  30
ENDBRANCH  28  29
ENDBRANCH   1  28
TORSDOF 17
ENDMDL
MODEL 2
REMARK VINA RESULT:     -10.0      3.434      6.470
REMARK SMILES COc1cccc(-c2ccc(=O)n(CC(=O)N[C@@H](C(=O)OCCOC(=O)c3ccc(-c4c5nc(c(-c6ccccc6)c6ccc([nH]6)c(-c6ccccc6)c6nc(c(-c7ccccc7)c7ccc4[nH]7)C=C6)C=C5)cc3)C(C)C)n2)c1
REMARK SMILES IDX 21 1 19 2 20 3 18 4 17 5 15 6 16 7 14 9 13 10 8 11 9 12
REMARK SMILES IDX 78 13 10 14 11 15 12 16 7 17 3 18 4 19 79 20 5 21 6 22 2 23
REMARK SMILES IDX 1 24 75 25 76 26 77 27 22 28 23 29 24 30 25 31 26 32 27 33
REMARK SMILES IDX 28 34 74 35 29 36 73 37 30 38 31 39 32 40 67 41 33 42 72 43
REMARK SMILES IDX 66 44 68 45 34 46 71 47 65 48 64 49 35 51 57 52 42 53 56 54
REMARK SMILES IDX 43 55 46 56 55 57 69 58 44 59 45 60 54 62 70 63 47 64 36 65
REMARK SMILES IDX 37 66 41 67 38 68 40 69 39 70 58 71 59 72 63 73 60 74 62 75
REMARK SMILES IDX 61 76 48 77 49 78 53 79 50 80 52 81 51 82
REMARK H PARENT 17 8 68 50 46 61
REMARK Flexibility Score: inf
ROOT
ATOM      1  O   UNL A   1      33.034  27.979  26.731  1.00  0.00    -0.461 OA
ENDROOT
BRANCH   1   2
ATOM      2  C   UNL A   1      32.932  26.766  26.112  1.00  0.00     0.329 C 
ATOM      3  O   UNL A   1      33.891  26.174  25.630  1.00  0.00    -0.250 OA
BRANCH   2   4
ATOM      4  C   UNL A   1      31.472  26.234  26.062  1.00  0.00     0.194 C 
BRANCH   4   5
ATOM      5  N   UNL A   1      31.319  25.023  26.875  1.00  0.00    -0.341 N 
ATOM      6  C   UNL A   1      31.594  23.728  26.541  1.00  0.00     0.242 C 
ATOM      7  O   UNL A   1      31.555  22.893  27.451  1.00  0.00    -0.273 OA
ATOM      8  H   UNL A   1      30.973  25.163  27.785  1.00  0.00     0.164 HD
BRANCH   6   9
ATOM      9  C   UNL A   1      32.091  23.359  25.140  1.00  0.00     0.248 C 
BRANCH   9  10
ATOM     10  N   UNL A   1      33.183  22.388  25.175  1.00  0.00    -0.220 N 
ATOM     11  C   UNL A   1      35.420  22.016  25.493  1.00  0.00     0.091 A 
ATOM     12  C   UNL A   1      35.298  20.592  25.124  1.00  0.00     0.036 A 
ATOM     13  N   UNL A   1      34.430  22.849  25.551  1.00  0.00    -0.169 NA
ATOM     14  C   UNL A   1      34.071  20.152  24.848  1.00  0.00     0.075 A 
ATOM     15  C   UNL A   1      32.909  21.064  24.867  1.00  0.00     0.267 A 
ATOM     16  O   UNL A   1      31.800  20.618  24.591  1.00  0.00    -0.268 OA
BRANCH  11  17
ATOM     17  C   UNL A   1      36.787  22.491  25.797  1.00  0.00     0.006 A 
ATOM     18  C   UNL A   1      39.130  22.020  26.120  1.00  0.00     0.119 A 
ATOM     19  C   UNL A   1      39.336  23.355  26.481  1.00  0.00     0.046 A 
ATOM     20  C   UNL A   1      37.844  21.576  25.806  1.00  0.00     0.056 A 
ATOM     21  C   UNL A   1      38.277  24.262  26.484  1.00  0.00     0.005 A 
ATOM     22  C   UNL A   1      37.000  23.833  26.131  1.00  0.00     0.011 A 
BRANCH  18  23
ATOM     23  O   UNL A   1      40.244  21.229  26.147  1.00  0.00    -0.497 OA
ATOM     24  C   UNL A   1      41.097  21.429  27.270  1.00  0.00     0.278 C 
ENDBRANCH  18  23
ENDBRANCH  11  17
ENDBRANCH   9  10
ENDBRANCH   6   9
ENDBRANCH   4   5
BRANCH   4  25
ATOM     25  C   UNL A   1      30.928  25.985  24.630  1.00  0.00     0.017 C 
ATOM     26  C   UNL A   1      29.392  26.069  24.598  1.00  0.00     0.010 C 
ATOM     27  C   UNL A   1      31.474  26.997  23.611  1.00  0.00     0.010 C 
ENDBRANCH   4  25
ENDBRANCH   2   4
ENDBRANCH   1   2
BRANCH   1  28
ATOM     28  C   UNL A   1      31.799  28.651  27.066  1.00  0.00     0.274 C 
BRANCH  28  29
ATOM     29  C   UNL A   1      31.786  30.068  26.503  1.00  0.00     0.275 C 
BRANCH  29  30
ATOM     30  O   UNL A   1      33.145  30.505  26.344  1.00  0.00    -0.458 OA
BRANCH  30  31
ATOM     31  C   UNL A   1      33.551  31.486  27.178  1.00  0.00     0.338 C 
ATOM     32  O   UNL A   1      32.945  32.496  27.502  1.00  0.00    -0.246 OA
BRANCH  31  33
ATOM     33  C   UNL A   1      34.870  31.130  27.720  1.00  0.00     0.060 A 
ATOM     34  C   UNL A   1      35.120  29.805  28.071  1.00  0.00     0.016 A 
ATOM     35  C   UNL A   1      35.812  32.118  27.995  1.00  0.00     0.016 A 
ATOM     36  C   UNL A   1      36.266  29.473  28.786  1.00  0.00     0.010 A 
ATOM     37  C   UNL A   1      37.010  31.766  28.624  1.00  0.00     0.010 A 
ATOM     38  C   UNL A   1      37.233  30.447  29.064  1.00  0.00    -0.014 A 
BRANCH  38  39
ATOM     39  C   UNL A   1      38.436  30.105  29.869  1.00  0.00     0.031 A 
ATOM     40  C   UNL A   1      39.556  29.318  29.242  1.00  0.00     0.074 A 
ATOM     41  C   UNL A   1      38.555  30.516  31.146  1.00  0.00     0.049 A 
ATOM     42  N   UNL A   1      40.586  28.747  29.813  1.00  0.00    -0.248 NA
ATOM     43  C   UNL A   1      39.504  29.139  27.781  1.00  0.00     0.031 C 
ATOM     44  C   UNL A   1      37.594  31.351  31.870  1.00  0.00     0.029 A 
ATOM     45  N   UNL A   1      39.554  30.294  32.064  1.00  0.00    -0.354 N 
ATOM     46  C   UNL A   1      41.264  28.088  28.796  1.00  0.00     0.074 A 
ATOM     47  C   UNL A   1      40.538  28.337  27.570  1.00  0.00     0.031 C 
ATOM     48  C   UNL A   1      38.070  31.607  33.098  1.00  0.00     0.029 A 
ATOM     49  C   UNL A   1      39.321  30.881  33.283  1.00  0.00     0.049 A 
ATOM     50  H   UNL A   1      40.360  29.765  31.864  1.00  0.00     0.167 HD
ATOM     51  C   UNL A   1      42.386  27.333  28.877  1.00  0.00     0.031 A 
ATOM     52  C   UNL A   1      40.008  30.807  34.438  1.00  0.00     0.031 A 
ATOM     53  C   UNL A   1      43.140  27.124  30.083  1.00  0.00     0.049 A 
ATOM     54  C   UNL A   1      41.227  29.935  34.516  1.00  0.00     0.074 A 
ATOM     55  C   UNL A   1      44.282  26.364  30.268  1.00  0.00     0.029 A 
ATOM     56  N   UNL A   1      42.838  27.699  31.306  1.00  0.00    -0.354 N 
ATOM     57  N   UNL A   1      41.801  29.234  33.569  1.00  0.00    -0.248 NA
ATOM     58  C   UNL A   1      41.875  29.822  35.830  1.00  0.00     0.031 C 
ATOM     59  C   UNL A   1      44.658  26.460  31.613  1.00  0.00     0.029 A 
ATOM     60  C   UNL A   1      43.768  27.307  32.254  1.00  0.00     0.049 A 
ATOM     61  H   UNL A   1      42.076  28.298  31.477  1.00  0.00     0.167 HD
ATOM     62  C   UNL A   1      42.874  28.592  34.173  1.00  0.00     0.074 A 
ATOM     63  C   UNL A   1      42.889  29.010  35.560  1.00  0.00     0.031 C 
ATOM     64  C   UNL A   1      43.762  27.726  33.629  1.00  0.00     0.031 A 
BRANCH  51  65
ATOM     65  C   UNL A   1      42.833  26.631  27.628  1.00  0.00    -0.014 A 
ATOM     66  C   UNL A   1      42.375  25.345  27.302  1.00  0.00     0.009 A 
ATOM     67  C   UNL A   1      43.715  27.283  26.751  1.00  0.00     0.009 A 
ATOM     68  C   UNL A   1      42.816  24.716  26.136  1.00  0.00     0.001 A 
ATOM     69  C   UNL A   1      44.137  26.660  25.576  1.00  0.00     0.001 A 
ATOM     70  C   UNL A   1      43.693  25.374  25.274  1.00  0.00     0.000 A 
ENDBRANCH  51  65
BRANCH  52  71
ATOM     71  C   UNL A   1      39.517  31.530  35.638  1.00  0.00    -0.014 A 
ATOM     72  C   UNL A   1      40.133  32.719  36.057  1.00  0.00     0.009 A 
ATOM     73  C   UNL A   1      38.424  31.036  36.368  1.00  0.00     0.009 A 
ATOM     74  C   UNL A   1      39.669  33.392  37.189  1.00  0.00     0.001 A 
ATOM     75  C   UNL A   1      37.946  31.726  37.483  1.00  0.00     0.001 A 
ATOM     76  C   UNL A   1      38.573  32.900  37.897  1.00  0.00     0.000 A 
ENDBRANCH  52  71
BRANCH  64  77
ATOM     77  C   UNL A   1      44.827  27.187  34.536  1.00  0.00    -0.014 A 
ATOM     78  C   UNL A   1      46.052  27.857  34.685  1.00  0.00     0.009 A 
ATOM     79  C   UNL A   1      44.593  26.014  35.269  1.00  0.00     0.009 A 
ATOM     80  C   UNL A   1      47.034  27.345  35.534  1.00  0.00     0.001 A 
ATOM     81  C   UNL A   1      45.571  25.516  36.131  1.00  0.00     0.001 A 
ATOM     82  C   UNL A   1      46.791  26.178  36.258  1.00  0.00     0.000 A 
ENDBRANCH  64  77
ENDBRANCH  38  39
ENDBRANCH  31  33
ENDBRANCH  30  31
ENDBRANCH  29  30
ENDBRANCH  28  29
ENDBRANCH   1  28
TORSDOF 17
ENDMDL
MODEL 3
REMARK VINA RESULT:      -9.9      2.369      7.832
REMARK SMILES COc1cccc(-c2ccc(=O)n(CC(=O)N[C@@H](C(=O)OCCOC(=O)c3ccc(-c4c5nc(c(-c6ccccc6)c6ccc([nH]6)c(-c6ccccc6)c6nc(c(-c7ccccc7)c7ccc4[nH]7)C=C6)C=C5)cc3)C(C)C)n2)c1
REMARK SMILES IDX 21 1 19 2 20 3 18 4 17 5 15 6 16 7 14 9 13 10 8 11 9 12
REMARK SMILES IDX 78 13 10 14 11 15 12 16 7 17 3 18 4 19 79 20 5 21 6 22 2 23
REMARK SMILES IDX 1 24 75 25 76 26 77 27 22 28 23 29 24 30 25 31 26 32 27 33
REMARK SMILES IDX 28 34 74 35 29 36 73 37 30 38 31 39 32 40 67 41 33 42 72 43
REMARK SMILES IDX 66 44 68 45 34 46 71 47 65 48 64 49 35 51 57 52 42 53 56 54
REMARK SMILES IDX 43 55 46 56 55 57 69 58 44 59 45 60 54 62 70 63 47 64 36 65
REMARK SMILES IDX 37 66 41 67 38 68 40 69 39 70 58 71 59 72 63 73 60 74 62 75
REMARK SMILES IDX 61 76 48 77 49 78 53 79 50 80 52 81 51 82
REMARK H PARENT 17 8 68 50 46 61
REMARK Flexibility Score: inf
ROOT
ATOM      1  O   UNL A   1      35.472  22.631  25.426  1.00  0.00    -0.461 OA
ENDROOT
BRANCH   1   2
ATOM      2  C   UNL A   1      34.234  22.171  25.779  1.00  0.00     0.329 C 
ATOM      3  O   UNL A   1      34.060  21.209  26.518  1.00  0.00    -0.250 OA
BRANCH   2   4
ATOM      4  C   UNL A   1      33.080  22.980  25.122  1.00  0.00     0.194 C 
BRANCH   4   5
ATOM      5  N   UNL A   1      32.398  23.827  26.107  1.00  0.00    -0.341 N 
ATOM      6  C   UNL A   1      32.136  25.166  26.048  1.00  0.00     0.242 C 
ATOM      7  O   UNL A   1      31.390  25.630  26.916  1.00  0.00    -0.273 OA
ATOM      8  H   UNL A   1      32.088  23.369  26.920  1.00  0.00     0.164 HD
BRANCH   6   9
ATOM      9  C   UNL A   1      32.607  26.015  24.863  1.00  0.00     0.248 C 
BRANCH   9  10
ATOM     10  N   UNL A   1      32.427  27.446  25.099  1.00  0.00    -0.220 N 
ATOM     11  C   UNL A   1      33.155  29.327  26.183  1.00  0.00     0.091 A 
ATOM     12  C   UNL A   1      32.035  30.134  25.664  1.00  0.00     0.036 A 
ATOM     13  N   UNL A   1      33.361  28.081  25.894  1.00  0.00    -0.169 NA
ATOM     14  C   UNL A   1      31.195  29.521  24.831  1.00  0.00     0.075 A 
ATOM     15  C   UNL A   1      31.362  28.093  24.491  1.00  0.00     0.267 A 
ATOM     16  O   UNL A   1      30.556  27.567  23.731  1.00  0.00    -0.268 OA
BRANCH  11  17
ATOM     17  C   UNL A   1      34.080  30.019  27.107  1.00  0.00     0.006 A 
ATOM     18  C   UNL A   1      34.625  31.950  28.444  1.00  0.00     0.119 A 
ATOM     19  C   UNL A   1      35.863  31.375  28.748  1.00  0.00     0.046 A 
ATOM     20  C   UNL A   1      33.741  31.285  27.594  1.00  0.00     0.056 A 
ATOM     21  C   UNL A   1      36.203  30.118  28.250  1.00  0.00     0.005 A 
ATOM     22  C   UNL A   1      35.306  29.432  27.435  1.00  0.00     0.011 A 
BRANCH  18  23
ATOM     23  O   UNL A   1      34.402  33.181  28.996  1.00  0.00    -0.497 OA
ATOM     24  C   UNL A   1      34.780  34.285  28.179  1.00  0.00     0.278 C 
ENDBRANCH  18  23
ENDBRANCH  11  17
ENDBRANCH   9  10
ENDBRANCH   6   9
ENDBRANCH   4   5
BRANCH   4  25
ATOM     25  C   UNL A   1      32.045  22.114  24.357  1.00  0.00     0.017 C 
ATOM     26  C   UNL A   1      31.254  22.962  23.346  1.00  0.00     0.010 C 
ATOM     27  C   UNL A   1      32.701  20.959  23.587  1.00  0.00     0.010 C 
ENDBRANCH   4  25
ENDBRANCH   2   4
ENDBRANCH   1   2
BRANCH   1  28
ATOM     28  C   UNL A   1      36.108  22.000  24.292  1.00  0.00     0.274 C 
BRANCH  28  29
ATOM     29  C   UNL A   1      37.326  21.196  24.736  1.00  0.00     0.275 C 
BRANCH  29  30
ATOM     30  O   UNL A   1      37.783  21.721  25.992  1.00  0.00    -0.458 OA
BRANCH  30  31
ATOM     31  C   UNL A   1      39.102  21.584  26.244  1.00  0.00     0.338 C 
ATOM     32  O   UNL A   1      39.798  20.592  26.086  1.00  0.00    -0.246 OA
BRANCH  31  33
ATOM     33  C   UNL A   1      39.633  22.875  26.705  1.00  0.00     0.060 A 
ATOM     34  C   UNL A   1      39.074  24.050  26.209  1.00  0.00     0.016 A 
ATOM     35  C   UNL A   1      40.756  22.924  27.526  1.00  0.00     0.016 A 
ATOM     36  C   UNL A   1      39.687  25.275  26.448  1.00  0.00     0.010 A 
ATOM     37  C   UNL A   1      41.314  24.166  27.849  1.00  0.00     0.010 A 
ATOM     38  C   UNL A   1      40.811  25.352  27.280  1.00  0.00    -0.014 A 
BRANCH  38  39
ATOM     39  C   UNL A   1      41.497  26.653  27.500  1.00  0.00     0.031 A 
ATOM     40  C   UNL A   1      42.801  26.939  26.804  1.00  0.00     0.074 A 
ATOM     41  C   UNL A   1      40.952  27.598  28.291  1.00  0.00     0.049 A 
ATOM     42  N   UNL A   1      43.653  27.911  27.011  1.00  0.00    -0.248 NA
ATOM     43  C   UNL A   1      43.206  26.001  25.744  1.00  0.00     0.031 C 
ATOM     44  C   UNL A   1      39.658  27.503  28.971  1.00  0.00     0.029 A 
ATOM     45  N   UNL A   1      41.420  28.841  28.646  1.00  0.00    -0.354 N 
ATOM     46  C   UNL A   1      44.721  27.664  26.159  1.00  0.00     0.074 A 
ATOM     47  C   UNL A   1      44.408  26.458  25.422  1.00  0.00     0.031 C 
ATOM     48  C   UNL A   1      39.417  28.653  29.621  1.00  0.00     0.029 A 
ATOM     49  C   UNL A   1      40.576  29.527  29.483  1.00  0.00     0.049 A 
ATOM     50  H   UNL A   1      42.279  29.202  28.330  1.00  0.00     0.167 HD
ATOM     51  C   UNL A   1      45.866  28.371  26.010  1.00  0.00     0.031 A 
ATOM     52  C   UNL A   1      40.731  30.708  30.111  1.00  0.00     0.031 A 
ATOM     53  C   UNL A   1      46.160  29.597  26.701  1.00  0.00     0.049 A 
ATOM     54  C   UNL A   1      42.023  31.457  29.961  1.00  0.00     0.074 A 
ATOM     55  C   UNL A   1      47.300  30.380  26.627  1.00  0.00     0.029 A 
ATOM     56  N   UNL A   1      45.295  30.231  27.577  1.00  0.00    -0.354 N 
ATOM     57  N   UNL A   1      43.069  31.160  29.230  1.00  0.00    -0.248 NA
ATOM     58  C   UNL A   1      42.166  32.690  30.748  1.00  0.00     0.031 C 
ATOM     59  C   UNL A   1      47.133  31.477  27.480  1.00  0.00     0.029 A 
ATOM     60  C   UNL A   1      45.876  31.392  28.057  1.00  0.00     0.049 A 
ATOM     61  H   UNL A   1      44.399  29.904  27.823  1.00  0.00     0.167 HD
ATOM     62  C   UNL A   1      43.995  32.165  29.471  1.00  0.00     0.074 A 
ATOM     63  C   UNL A   1      43.378  33.095  30.395  1.00  0.00     0.031 C 
ATOM     64  C   UNL A   1      45.250  32.299  28.979  1.00  0.00     0.031 A 
BRANCH  51  65
ATOM     65  C   UNL A   1      46.913  27.801  25.097  1.00  0.00    -0.014 A 
ATOM     66  C   UNL A   1      46.952  28.119  23.732  1.00  0.00     0.009 A 
ATOM     67  C   UNL A   1      47.891  26.943  25.626  1.00  0.00     0.009 A 
ATOM     68  C   UNL A   1      47.935  27.565  22.908  1.00  0.00     0.001 A 
ATOM     69  C   UNL A   1      48.885  26.409  24.805  1.00  0.00     0.001 A 
ATOM     70  C   UNL A   1      48.900  26.713  23.446  1.00  0.00     0.000 A 
ENDBRANCH  51  65
BRANCH  52  71
ATOM     71  C   UNL A   1      39.656  31.222  30.997  1.00  0.00    -0.014 A 
ATOM     72  C   UNL A   1      39.513  30.730  32.303  1.00  0.00     0.009 A 
ATOM     73  C   UNL A   1      38.770  32.211  30.540  1.00  0.00     0.009 A 
ATOM     74  C   UNL A   1      38.497  31.214  33.130  1.00  0.00     0.001 A 
ATOM     75  C   UNL A   1      37.773  32.711  31.379  1.00  0.00     0.001 A 
ATOM     76  C   UNL A   1      37.633  32.207  32.671  1.00  0.00     0.000 A 
ENDBRANCH  52  71
BRANCH  64  77
ATOM     77  C   UNL A   1      46.028  33.503  29.424  1.00  0.00    -0.014 A 
ATOM     78  C   UNL A   1      45.946  34.712  28.717  1.00  0.00     0.009 A 
ATOM     79  C   UNL A   1      46.827  33.432  30.574  1.00  0.00     0.009 A 
ATOM     80  C   UNL A   1      46.673  35.825  29.143  1.00  0.00     0.001 A 
ATOM     81  C   UNL A   1      47.538  34.552  31.007  1.00  0.00     0.001 A 
ATOM     82  C   UNL A   1      47.465  35.744  30.288  1.00  0.00     0.000 A 
ENDBRANCH  64  77
ENDBRANCH  38  39
ENDBRANCH  31  33
ENDBRANCH  30  31
ENDBRANCH  29  30
ENDBRANCH  28  29
ENDBRANCH   1  28
TORSDOF 17
ENDMDL
