MODEL 1
REMARK VINA RESULT:      -9.5      0.000      0.000
REMARK SMILES [NH3+]CC1([C@H](O)C(=O)OCCOC(=O)c2ccc(-c3c4nc(c(-c5ccccc5)c5ccc([nH]5)c(-c5ccccc5)c5nc(c(-c6ccccc6)c6ccc3[nH]6)C=C5)C=C4)cc2)Cc2ccccc2C1
REMARK SMILES IDX 9 1 8 2 6 3 7 4 4 5 3 6 62 7 69 8 63 9 68 10 64 11 67 12
REMARK SMILES IDX 65 13 66 14 2 15 1 16 5 20 10 22 11 23 12 24 13 25 14 26
REMARK SMILES IDX 15 27 61 28 16 29 60 30 17 31 18 32 19 33 54 34 20 35 59 36
REMARK SMILES IDX 53 37 55 38 21 39 58 40 52 41 51 42 22 44 44 45 29 46 43 47
REMARK SMILES IDX 30 48 33 49 42 50 56 51 31 52 32 53 41 55 57 56 34 57 23 58
REMARK SMILES IDX 24 59 28 60 25 61 27 62 26 63 45 64 46 65 50 66 47 67 49 68
REMARK SMILES IDX 48 69 35 70 36 71 40 72 37 73 39 74 38 75
REMARK H PARENT 1 17 1 18 1 19 5 21 55 43 33 54
REMARK Flexibility Score: inf
ROOT
ATOM      1  C   UNL A   1      33.239  34.461  29.080  1.00  0.00     0.274 C 
ENDROOT
BRANCH   1   2
ATOM      2  O   UNL A   1      34.192  35.080  29.962  1.00  0.00    -0.460 OA
BRANCH   2   3
ATOM      3  C   UNL A   1      33.770  35.293  31.240  1.00  0.00     0.335 C 
ATOM      4  O   UNL A   1      32.599  35.286  31.607  1.00  0.00    -0.249 OA
BRANCH   3   5
ATOM      5  C   UNL A   1      34.959  35.434  32.214  1.00  0.00     0.236 C 
BRANCH   5   6
ATOM      6  C   UNL A   1      35.658  34.100  32.615  1.00  0.00     0.064 C 
ATOM      7  C   UNL A   1      37.146  34.331  33.022  1.00  0.00     0.052 C 
ATOM      8  C   UNL A   1      35.739  33.134  31.393  1.00  0.00     0.052 C 
ATOM      9  C   UNL A   1      37.843  34.215  31.700  1.00  0.00    -0.044 A 
ATOM     10  C   UNL A   1      37.040  33.543  30.773  1.00  0.00    -0.044 A 
ATOM     11  C   UNL A   1      39.067  34.744  31.335  1.00  0.00     0.004 A 
ATOM     12  C   UNL A   1      37.445  33.381  29.460  1.00  0.00     0.004 A 
ATOM     13  C   UNL A   1      39.474  34.608  30.006  1.00  0.00     0.000 A 
ATOM     14  C   UNL A   1      38.669  33.930  29.076  1.00  0.00     0.000 A 
BRANCH   6  15
ATOM     15  C   UNL A   1      34.879  33.403  33.760  1.00  0.00     0.269 C 
BRANCH  15  16
ATOM     16  N   UNL A   1      33.430  33.320  33.579  1.00  0.00    -0.357 N 
ATOM     17  H   UNL A   1      33.172  32.363  33.332  1.00  0.00     0.344 HD
ATOM     18  H   UNL A   1      33.144  33.952  32.831  1.00  0.00     0.344 HD
ATOM     19  H   UNL A   1      32.963  33.585  34.446  1.00  0.00     0.344 HD
ENDBRANCH  15  16
ENDBRANCH   6  15
ENDBRANCH   5   6
BRANCH   5  20
ATOM     20  O   UNL A   1      34.636  36.203  33.377  1.00  0.00    -0.381 OA
ATOM     21  H   UNL A   1      34.805  35.674  34.171  1.00  0.00     0.211 HD
ENDBRANCH   5  20
ENDBRANCH   3   5
ENDBRANCH   2   3
ENDBRANCH   1   2
BRANCH   1  22
ATOM     22  C   UNL A   1      33.896  33.406  28.179  1.00  0.00     0.275 C 
BRANCH  22  23
ATOM     23  O   UNL A   1      34.161  32.169  28.871  1.00  0.00    -0.458 OA
BRANCH  23  24
ATOM     24  C   UNL A   1      34.325  31.090  28.069  1.00  0.00     0.338 C 
ATOM     25  O   UNL A   1      33.582  30.729  27.168  1.00  0.00    -0.246 OA
BRANCH  24  26
ATOM     26  C   UNL A   1      35.656  30.484  28.274  1.00  0.00     0.060 A 
ATOM     27  C   UNL A   1      35.901  29.936  29.536  1.00  0.00     0.016 A 
ATOM     28  C   UNL A   1      36.660  30.478  27.303  1.00  0.00     0.016 A 
ATOM     29  C   UNL A   1      37.132  29.377  29.840  1.00  0.00     0.010 A 
ATOM     30  C   UNL A   1      37.916  29.934  27.616  1.00  0.00     0.010 A 
ATOM     31  C   UNL A   1      38.158  29.391  28.889  1.00  0.00    -0.014 A 
BRANCH  31  32
ATOM     32  C   UNL A   1      39.493  28.912  29.315  1.00  0.00     0.031 A 
ATOM     33  C   UNL A   1      40.243  29.663  30.376  1.00  0.00     0.074 A 
ATOM     34  C   UNL A   1      39.961  27.738  28.854  1.00  0.00     0.049 A 
ATOM     35  N   UNL A   1      41.378  29.365  30.955  1.00  0.00    -0.248 NA
ATOM     36  C   UNL A   1      39.628  30.910  30.859  1.00  0.00     0.031 C 
ATOM     37  C   UNL A   1      39.284  26.883  27.878  1.00  0.00     0.029 A 
ATOM     38  N   UNL A   1      41.100  27.045  29.176  1.00  0.00    -0.354 N 
ATOM     39  C   UNL A   1      41.620  30.390  31.861  1.00  0.00     0.074 A 
ATOM     40  C   UNL A   1      40.524  31.329  31.742  1.00  0.00     0.031 C 
ATOM     41  C   UNL A   1      40.009  25.767  27.699  1.00  0.00     0.029 A 
ATOM     42  C   UNL A   1      41.215  25.844  28.520  1.00  0.00     0.049 A 
ATOM     43  H   UNL A   1      41.771  27.377  29.816  1.00  0.00     0.167 HD
ATOM     44  C   UNL A   1      42.660  30.535  32.717  1.00  0.00     0.031 A 
ATOM     45  C   UNL A   1      42.187  24.914  28.571  1.00  0.00     0.031 A 
ATOM     46  C   UNL A   1      43.750  29.604  32.831  1.00  0.00     0.049 A 
ATOM     47  C   UNL A   1      43.362  25.132  29.483  1.00  0.00     0.074 A 
ATOM     48  C   UNL A   1      44.858  29.668  33.659  1.00  0.00     0.029 A 
ATOM     49  N   UNL A   1      43.870  28.436  32.093  1.00  0.00    -0.354 N 
ATOM     50  N   UNL A   1      43.584  26.112  30.323  1.00  0.00    -0.248 NA
ATOM     51  C   UNL A   1      44.417  24.110  29.454  1.00  0.00     0.031 C 
ATOM     52  C   UNL A   1      45.672  28.563  33.388  1.00  0.00     0.029 A 
ATOM     53  C   UNL A   1      45.044  27.782  32.429  1.00  0.00     0.049 A 
ATOM     54  H   UNL A   1      43.217  28.118  31.429  1.00  0.00     0.167 HD
ATOM     55  C   UNL A   1      44.797  25.820  30.933  1.00  0.00     0.074 A 
ATOM     56  C   UNL A   1      45.248  24.557  30.385  1.00  0.00     0.031 C 
ATOM     57  C   UNL A   1      45.481  26.533  31.862  1.00  0.00     0.031 A 
BRANCH  44  58
ATOM     58  C   UNL A   1      42.685  31.779  33.560  1.00  0.00    -0.014 A 
ATOM     59  C   UNL A   1      42.123  31.804  34.845  1.00  0.00     0.009 A 
ATOM     60  C   UNL A   1      43.297  32.939  33.061  1.00  0.00     0.009 A 
ATOM     61  C   UNL A   1      42.143  32.979  35.601  1.00  0.00     0.001 A 
ATOM     62  C   UNL A   1      43.338  34.104  33.829  1.00  0.00     0.001 A 
ATOM     63  C   UNL A   1      42.753  34.126  35.094  1.00  0.00     0.000 A 
ENDBRANCH  44  58
BRANCH  45  64
ATOM     64  C   UNL A   1      42.104  23.702  27.714  1.00  0.00    -0.014 A 
ATOM     65  C   UNL A   1      42.622  23.705  26.410  1.00  0.00     0.009 A 
ATOM     66  C   UNL A   1      41.489  22.536  28.198  1.00  0.00     0.009 A 
ATOM     67  C   UNL A   1      42.506  22.571  25.602  1.00  0.00     0.001 A 
ATOM     68  C   UNL A   1      41.400  21.396  27.397  1.00  0.00     0.001 A 
ATOM     69  C   UNL A   1      41.901  21.417  26.097  1.00  0.00     0.000 A 
ENDBRANCH  45  64
BRANCH  57  70
ATOM     70  C   UNL A   1      46.776  25.949  32.349  1.00  0.00    -0.014 A 
ATOM     71  C   UNL A   1      46.821  25.126  33.485  1.00  0.00     0.009 A 
ATOM     72  C   UNL A   1      47.966  26.216  31.655  1.00  0.00     0.009 A 
ATOM     73  C   UNL A   1      48.038  24.615  33.939  1.00  0.00     0.001 A 
ATOM     74  C   UNL A   1      49.177  25.682  32.095  1.00  0.00     0.001 A 
ATOM     75  C   UNL A   1      49.215  24.891  33.242  1.00  0.00     0.000 A 
ENDBRANCH  57  70
ENDBRANCH  31  32
ENDBRANCH  24  26
ENDBRANCH  23  24
ENDBRANCH  22  23
ENDBRANCH   1  22
TORSDOF 15
ENDMDL
MODEL 2
REMARK VINA RESULT:      -9.0      4.886     10.818
REMARK SMILES [NH3+]CC1([C@H](O)C(=O)OCCOC(=O)c2ccc(-c3c4nc(c(-c5ccccc5)c5ccc([nH]5)c(-c5ccccc5)c5nc(c(-c6ccccc6)c6ccc3[nH]6)C=C5)C=C4)cc2)Cc2ccccc2C1
REMARK SMILES IDX 9 1 8 2 6 3 7 4 4 5 3 6 62 7 69 8 63 9 68 10 64 11 67 12
REMARK SMILES IDX 65 13 66 14 2 15 1 16 5 20 10 22 11 23 12 24 13 25 14 26
REMARK SMILES IDX 15 27 61 28 16 29 60 30 17 31 18 32 19 33 54 34 20 35 59 36
REMARK SMILES IDX 53 37 55 38 21 39 58 40 52 41 51 42 22 44 44 45 29 46 43 47
REMARK SMILES IDX 30 48 33 49 42 50 56 51 31 52 32 53 41 55 57 56 34 57 23 58
REMARK SMILES IDX 24 59 28 60 25 61 27 62 26 63 45 64 46 65 50 66 47 67 49 68
REMARK SMILES IDX 48 69 35 70 36 71 40 72 37 73 39 74 38 75
REMARK H PARENT 1 17 1 18 1 19 5 21 55 43 33 54
REMARK Flexibility Score: inf
ROOT
ATOM      1  C   UNL A   1      45.665  22.299  25.903  1.00  0.00     0.274 C 
ENDROOT
BRANCH   1   2
ATOM      2  O   UNL A   1      45.357  20.931  25.583  1.00  0.00    -0.460 OA
BRANCH   2   3
ATOM      3  C   UNL A   1      44.101  20.699  25.109  1.00  0.00     0.335 C 
ATOM      4  O   UNL A   1      43.802  19.827  24.300  1.00  0.00    -0.249 OA
BRANCH   3   5
ATOM      5  C   UNL A   1      43.057  21.600  25.803  1.00  0.00     0.236 C 
BRANCH   5   6
ATOM      6  C   UNL A   1      42.084  20.870  26.778  1.00  0.00     0.064 C 
ATOM      7  C   UNL A   1      40.656  20.729  26.166  1.00  0.00     0.052 C 
ATOM      8  C   UNL A   1      41.867  21.713  28.072  1.00  0.00     0.052 C 
ATOM      9  C   UNL A   1      40.014  22.011  26.600  1.00  0.00    -0.044 A 
ATOM     10  C   UNL A   1      40.707  22.574  27.677  1.00  0.00    -0.044 A 
ATOM     11  C   UNL A   1      38.940  22.663  26.022  1.00  0.00     0.004 A 
ATOM     12  C   UNL A   1      40.339  23.800  28.203  1.00  0.00     0.004 A 
ATOM     13  C   UNL A   1      38.577  23.912  26.529  1.00  0.00     0.000 A 
ATOM     14  C   UNL A   1      39.271  24.476  27.612  1.00  0.00     0.000 A 
BRANCH   6  15
ATOM     15  C   UNL A   1      42.652  19.481  27.169  1.00  0.00     0.269 C 
BRANCH  15  16
ATOM     16  N   UNL A   1      41.990  18.823  28.296  1.00  0.00    -0.357 N 
ATOM     17  H   UNL A   1      41.485  19.518  28.847  1.00  0.00     0.344 HD
ATOM     18  H   UNL A   1      42.689  18.367  28.882  1.00  0.00     0.344 HD
ATOM     19  H   UNL A   1      41.333  18.125  27.945  1.00  0.00     0.344 HD
ENDBRANCH  15  16
ENDBRANCH   6  15
ENDBRANCH   5   6
BRANCH   5  20
ATOM     20  O   UNL A   1      42.327  22.416  24.881  1.00  0.00    -0.381 OA
ATOM     21  H   UNL A   1      42.375  22.025  23.995  1.00  0.00     0.211 HD
ENDBRANCH   5  20
ENDBRANCH   3   5
ENDBRANCH   2   3
ENDBRANCH   1   2
BRANCH   1  22
ATOM     22  C   UNL A   1      45.899  23.143  24.642  1.00  0.00     0.275 C 
BRANCH  22  23
ATOM     23  O   UNL A   1      44.972  24.241  24.526  1.00  0.00    -0.458 OA
BRANCH  23  24
ATOM     24  C   UNL A   1      45.427  25.426  25.000  1.00  0.00     0.338 C 
ATOM     25  O   UNL A   1      46.338  26.097  24.536  1.00  0.00    -0.246 OA
BRANCH  24  26
ATOM     26  C   UNL A   1      44.538  25.942  26.060  1.00  0.00     0.060 A 
ATOM     27  C   UNL A   1      44.671  27.297  26.376  1.00  0.00     0.016 A 
ATOM     28  C   UNL A   1      43.632  25.146  26.765  1.00  0.00     0.016 A 
ATOM     29  C   UNL A   1      43.908  27.868  27.382  1.00  0.00     0.010 A 
ATOM     30  C   UNL A   1      42.875  25.717  27.799  1.00  0.00     0.010 A 
ATOM     31  C   UNL A   1      43.018  27.078  28.118  1.00  0.00    -0.014 A 
BRANCH  31  32
ATOM     32  C   UNL A   1      42.337  27.707  29.273  1.00  0.00     0.031 A 
ATOM     33  C   UNL A   1      43.045  27.787  30.593  1.00  0.00     0.074 A 
ATOM     34  C   UNL A   1      41.154  28.323  29.097  1.00  0.00     0.049 A 
ATOM     35  N   UNL A   1      42.667  28.374  31.700  1.00  0.00    -0.248 NA
ATOM     36  C   UNL A   1      44.359  27.129  30.677  1.00  0.00     0.031 C 
ATOM     37  C   UNL A   1      40.408  28.375  27.839  1.00  0.00     0.029 A 
ATOM     38  N   UNL A   1      40.392  29.054  29.972  1.00  0.00    -0.354 N 
ATOM     39  C   UNL A   1      43.688  28.149  32.614  1.00  0.00     0.074 A 
ATOM     40  C   UNL A   1      44.693  27.354  31.940  1.00  0.00     0.031 C 
ATOM     41  C   UNL A   1      39.306  29.123  28.017  1.00  0.00     0.029 A 
ATOM     42  C   UNL A   1      39.252  29.571  29.406  1.00  0.00     0.049 A 
ATOM     43  H   UNL A   1      40.638  29.195  30.914  1.00  0.00     0.167 HD
ATOM     44  C   UNL A   1      43.781  28.567  33.899  1.00  0.00     0.031 A 
ATOM     45  C   UNL A   1      38.272  30.316  29.950  1.00  0.00     0.031 A 
ATOM     46  C   UNL A   1      42.780  29.353  34.569  1.00  0.00     0.049 A 
ATOM     47  C   UNL A   1      38.371  30.713  31.396  1.00  0.00     0.074 A 
ATOM     48  C   UNL A   1      42.775  29.816  35.874  1.00  0.00     0.029 A 
ATOM     49  N   UNL A   1      41.601  29.792  33.985  1.00  0.00    -0.354 N 
ATOM     50  N   UNL A   1      39.335  30.481  32.253  1.00  0.00    -0.248 NA
ATOM     51  C   UNL A   1      37.244  31.479  31.948  1.00  0.00     0.031 C 
ATOM     52  C   UNL A   1      41.572  30.495  36.093  1.00  0.00     0.029 A 
ATOM     53  C   UNL A   1      40.852  30.501  34.908  1.00  0.00     0.049 A 
ATOM     54  H   UNL A   1      41.338  29.625  33.052  1.00  0.00     0.167 HD
ATOM     55  C   UNL A   1      38.939  31.082  33.441  1.00  0.00     0.074 A 
ATOM     56  C   UNL A   1      37.659  31.712  33.185  1.00  0.00     0.031 C 
ATOM     57  C   UNL A   1      39.574  31.109  34.638  1.00  0.00     0.031 A 
BRANCH  44  58
ATOM     58  C   UNL A   1      44.993  28.134  34.674  1.00  0.00    -0.014 A 
ATOM     59  C   UNL A   1      46.163  28.909  34.699  1.00  0.00     0.009 A 
ATOM     60  C   UNL A   1      44.954  26.936  35.404  1.00  0.00     0.009 A 
ATOM     61  C   UNL A   1      47.282  28.474  35.414  1.00  0.00     0.001 A 
ATOM     62  C   UNL A   1      46.066  26.517  36.138  1.00  0.00     0.001 A 
ATOM     63  C   UNL A   1      47.232  27.281  36.134  1.00  0.00     0.000 A 
ENDBRANCH  44  58
BRANCH  45  64
ATOM     64  C   UNL A   1      37.098  30.716  29.130  1.00  0.00    -0.014 A 
ATOM     65  C   UNL A   1      36.948  32.037  28.682  1.00  0.00     0.009 A 
ATOM     66  C   UNL A   1      36.112  29.772  28.801  1.00  0.00     0.009 A 
ATOM     67  C   UNL A   1      35.822  32.408  27.942  1.00  0.00     0.001 A 
ATOM     68  C   UNL A   1      35.003  30.140  28.037  1.00  0.00     0.001 A 
ATOM     69  C   UNL A   1      34.855  31.460  27.615  1.00  0.00     0.000 A 
ENDBRANCH  45  64
BRANCH  57  70
ATOM     70  C   UNL A   1      38.897  31.858  35.750  1.00  0.00    -0.014 A 
ATOM     71  C   UNL A   1      38.984  33.256  35.842  1.00  0.00     0.009 A 
ATOM     72  C   UNL A   1      38.152  31.157  36.710  1.00  0.00     0.009 A 
ATOM     73  C   UNL A   1      38.371  33.933  36.899  1.00  0.00     0.001 A 
ATOM     74  C   UNL A   1      37.517  31.839  37.749  1.00  0.00     0.001 A 
ATOM     75  C   UNL A   1      37.636  33.224  37.849  1.00  0.00     0.000 A 
ENDBRANCH  57  70
ENDBRANCH  31  32
ENDBRANCH  24  26
ENDBRANCH  23  24
ENDBRANCH  22  23
ENDBRANCH   1  22
TORSDOF 15
ENDMDL
MODEL 3
REMARK VINA RESULT:      -9.0      3.506      6.161
REMARK SMILES [NH3+]CC1([C@H](O)C(=O)OCCOC(=O)c2ccc(-c3c4nc(c(-c5ccccc5)c5ccc([nH]5)c(-c5ccccc5)c5nc(c(-c6ccccc6)c6ccc3[nH]6)C=C5)C=C4)cc2)Cc2ccccc2C1
REMARK SMILES IDX 9 1 8 2 6 3 7 4 4 5 3 6 62 7 69 8 63 9 68 10 64 11 67 12
REMARK SMILES IDX 65 13 66 14 2 15 1 16 5 20 10 22 11 23 12 24 13 25 14 26
REMARK SMILES IDX 15 27 61 28 16 29 60 30 17 31 18 32 19 33 54 34 20 35 59 36
REMARK SMILES IDX 53 37 55 38 21 39 58 40 52 41 51 42 22 44 44 45 29 46 43 47
REMARK SMILES IDX 30 48 33 49 42 50 56 51 31 52 32 53 41 55 57 56 34 57 23 58
REMARK SMILES IDX 24 59 28 60 25 61 27 62 26 63 45 64 46 65 50 66 47 67 49 68
REMARK SMILES IDX 48 69 35 70 36 71 40 72 37 73 39 74 38 75
REMARK H PARENT 1 17 1 18 1 19 5 21 55 43 33 54
REMARK Flexibility Score: inf
ROOT
ATOM      1  C   UNL A   1      31.175  31.737  26.357  1.00  0.00     0.274 C 
ENDROOT
BRANCH   1   2
ATOM      2  O   UNL A   1      31.535  30.665  27.246  1.00  0.00    -0.460 OA
BRANCH   2   3
ATOM      3  C   UNL A   1      32.526  29.838  26.811  1.00  0.00     0.335 C 
ATOM      4  O   UNL A   1      33.649  30.198  26.474  1.00  0.00    -0.249 OA
BRANCH   3   5
ATOM      5  C   UNL A   1      32.107  28.354  26.900  1.00  0.00     0.236 C 
BRANCH   5   6
ATOM      6  C   UNL A   1      31.819  27.657  25.536  1.00  0.00     0.064 C 
ATOM      7  C   UNL A   1      30.881  26.423  25.707  1.00  0.00     0.052 C 
ATOM      8  C   UNL A   1      33.130  27.063  24.935  1.00  0.00     0.052 C 
ATOM      9  C   UNL A   1      31.868  25.329  25.977  1.00  0.00    -0.044 A 
ATOM     10  C   UNL A   1      33.146  25.696  25.546  1.00  0.00    -0.044 A 
ATOM     11  C   UNL A   1      31.650  24.130  26.632  1.00  0.00     0.004 A 
ATOM     12  C   UNL A   1      34.237  24.871  25.757  1.00  0.00     0.004 A 
ATOM     13  C   UNL A   1      32.749  23.302  26.871  1.00  0.00     0.000 A 
ATOM     14  C   UNL A   1      34.033  23.670  26.437  1.00  0.00     0.000 A 
BRANCH   6  15
ATOM     15  C   UNL A   1      31.215  28.669  24.527  1.00  0.00     0.269 C 
BRANCH  15  16
ATOM     16  N   UNL A   1      32.176  29.330  23.643  1.00  0.00    -0.357 N 
ATOM     17  H   UNL A   1      33.115  29.240  24.033  1.00  0.00     0.344 HD
ATOM     18  H   UNL A   1      31.935  30.317  23.558  1.00  0.00     0.344 HD
ATOM     19  H   UNL A   1      32.147  28.892  22.722  1.00  0.00     0.344 HD
ENDBRANCH  15  16
ENDBRANCH   6  15
ENDBRANCH   5   6
BRANCH   5  20
ATOM     20  O   UNL A   1      31.028  28.136  27.814  1.00  0.00    -0.381 OA
ATOM     21  H   UNL A   1      31.295  27.483  28.479  1.00  0.00     0.211 HD
ENDBRANCH   5  20
ENDBRANCH   3   5
ENDBRANCH   2   3
ENDBRANCH   1   2
BRANCH   1  22
ATOM     22  C   UNL A   1      31.979  33.013  26.646  1.00  0.00     0.275 C 
BRANCH  22  23
ATOM     23  O   UNL A   1      32.109  33.283  28.056  1.00  0.00    -0.458 OA
BRANCH  23  24
ATOM     24  C   UNL A   1      33.010  34.243  28.374  1.00  0.00     0.338 C 
ATOM     25  O   UNL A   1      32.791  35.440  28.495  1.00  0.00    -0.246 OA
BRANCH  24  26
ATOM     26  C   UNL A   1      34.297  33.640  28.774  1.00  0.00     0.060 A 
ATOM     27  C   UNL A   1      34.241  32.340  29.285  1.00  0.00     0.016 A 
ATOM     28  C   UNL A   1      35.520  34.312  28.706  1.00  0.00     0.016 A 
ATOM     29  C   UNL A   1      35.390  31.701  29.724  1.00  0.00     0.010 A 
ATOM     30  C   UNL A   1      36.681  33.675  29.170  1.00  0.00     0.010 A 
ATOM     31  C   UNL A   1      36.617  32.371  29.690  1.00  0.00    -0.014 A 
BRANCH  31  32
ATOM     32  C   UNL A   1      37.784  31.694  30.303  1.00  0.00     0.031 A 
ATOM     33  C   UNL A   1      38.078  31.906  31.759  1.00  0.00     0.074 A 
ATOM     34  C   UNL A   1      38.483  30.792  29.591  1.00  0.00     0.049 A 
ATOM     35  N   UNL A   1      38.990  31.340  32.509  1.00  0.00    -0.248 NA
ATOM     36  C   UNL A   1      37.227  32.872  32.470  1.00  0.00     0.031 C 
ATOM     37  C   UNL A   1      38.240  30.449  28.190  1.00  0.00     0.029 A 
ATOM     38  N   UNL A   1      39.519  29.973  29.964  1.00  0.00    -0.354 N 
ATOM     39  C   UNL A   1      38.830  31.889  33.775  1.00  0.00     0.074 A 
ATOM     40  C   UNL A   1      37.748  32.846  33.689  1.00  0.00     0.031 C 
ATOM     41  C   UNL A   1      39.085  29.470  27.827  1.00  0.00     0.029 A 
ATOM     42  C   UNL A   1      39.950  29.144  28.958  1.00  0.00     0.049 A 
ATOM     43  H   UNL A   1      39.913  29.979  30.865  1.00  0.00     0.167 HD
ATOM     44  C   UNL A   1      39.522  31.618  34.908  1.00  0.00     0.031 A 
ATOM     45  C   UNL A   1      40.938  28.228  28.948  1.00  0.00     0.031 A 
ATOM     46  C   UNL A   1      40.600  30.670  34.991  1.00  0.00     0.049 A 
ATOM     47  C   UNL A   1      41.731  27.994  30.204  1.00  0.00     0.074 A 
ATOM     48  C   UNL A   1      41.372  30.334  36.090  1.00  0.00     0.029 A 
ATOM     49  N   UNL A   1      41.060  29.904  33.931  1.00  0.00    -0.354 N 
ATOM     50  N   UNL A   1      41.578  28.531  31.390  1.00  0.00    -0.248 NA
ATOM     51  C   UNL A   1      42.831  27.024  30.116  1.00  0.00     0.031 C 
ATOM     52  C   UNL A   1      42.330  29.400  35.683  1.00  0.00     0.029 A 
ATOM     53  C   UNL A   1      42.120  29.114  34.343  1.00  0.00     0.049 A 
ATOM     54  H   UNL A   1      40.688  29.920  33.020  1.00  0.00     0.167 HD
ATOM     55  C   UNL A   1      42.553  27.954  32.194  1.00  0.00     0.074 A 
ATOM     56  C   UNL A   1      43.273  27.008  31.366  1.00  0.00     0.031 C 
ATOM     57  C   UNL A   1      42.831  28.188  33.500  1.00  0.00     0.031 A 
BRANCH  44  58
ATOM     58  C   UNL A   1      39.157  32.402  36.136  1.00  0.00    -0.014 A 
ATOM     59  C   UNL A   1      39.784  33.620  36.442  1.00  0.00     0.009 A 
ATOM     60  C   UNL A   1      38.157  31.918  36.993  1.00  0.00     0.009 A 
ATOM     61  C   UNL A   1      39.440  34.320  37.601  1.00  0.00     0.001 A 
ATOM     62  C   UNL A   1      37.796  32.633  38.137  1.00  0.00     0.001 A 
ATOM     63  C   UNL A   1      38.445  33.828  38.445  1.00  0.00     0.000 A 
ENDBRANCH  44  58
BRANCH  45  64
ATOM     64  C   UNL A   1      41.249  27.482  27.701  1.00  0.00    -0.014 A 
ATOM     65  C   UNL A   1      40.644  26.246  27.431  1.00  0.00     0.009 A 
ATOM     66  C   UNL A   1      42.169  28.004  26.778  1.00  0.00     0.009 A 
ATOM     67  C   UNL A   1      40.972  25.537  26.272  1.00  0.00     0.001 A 
ATOM     68  C   UNL A   1      42.473  27.306  25.607  1.00  0.00     0.001 A 
ATOM     69  C   UNL A   1      41.880  26.070  25.359  1.00  0.00     0.000 A 
ENDBRANCH  45  64
BRANCH  57  70
ATOM     70  C   UNL A   1      43.951  27.393  34.109  1.00  0.00    -0.014 A 
ATOM     71  C   UNL A   1      43.718  26.136  34.688  1.00  0.00     0.009 A 
ATOM     72  C   UNL A   1      45.258  27.903  34.092  1.00  0.00     0.009 A 
ATOM     73  C   UNL A   1      44.766  25.423  35.274  1.00  0.00     0.001 A 
ATOM     74  C   UNL A   1      46.308  27.176  34.654  1.00  0.00     0.001 A 
ATOM     75  C   UNL A   1      46.060  25.943  35.254  1.00  0.00     0.000 A 
ENDBRANCH  57  70
ENDBRANCH  31  32
ENDBRANCH  24  26
ENDBRANCH  23  24
ENDBRANCH  22  23
ENDBRANCH   1  22
TORSDOF 15
ENDMDL
