MODEL 1
REMARK VINA RESULT:     -12.7      0.000      0.000
REMARK SMILES Cc1ccccc1C(=O)Nc1ccc(OCC(=O)OCCOC(=O)c2ccc(-c3c4nc(c(-c5ccccc5)c5ccc([nH]5)c(-c5ccccc5)c5nc(c(-c6ccccc6)c6ccc3[nH]6)C=C5)C=C4)cc2)c(-c2nc3ccccc3s2)c1
REMARK SMILES IDX 20 1 19 2 17 3 18 4 16 5 15 6 14 7 11 8 12 9 83 10 13 11
REMARK SMILES IDX 73 12 10 13 8 14 9 15 7 17 1 18 2 19 3 20 4 21 6 22 5 23
REMARK SMILES IDX 74 24 75 25 82 26 76 27 81 28 77 29 80 30 78 31 79 32 21 33
REMARK SMILES IDX 22 34 23 35 24 36 25 37 26 38 72 39 27 40 71 41 28 42 29 43
REMARK SMILES IDX 30 44 65 45 31 46 70 47 64 48 66 49 32 50 69 51 63 52 62 53
REMARK SMILES IDX 33 55 55 56 40 57 54 58 41 59 44 60 53 61 67 62 42 63 43 64
REMARK SMILES IDX 52 66 68 67 45 68 34 69 35 70 39 71 36 72 38 73 37 74 56 75
REMARK SMILES IDX 57 76 61 77 58 78 60 79 59 80 46 81 47 82 51 83 48 84 50 85
REMARK SMILES IDX 49 86
REMARK H PARENT 10 16 66 54 44 65
REMARK Flexibility Score: inf
ROOT
ATOM      1  C   UNL A   1      34.013  32.959  27.658  1.00  0.00     0.274 C 
ENDROOT
BRANCH   1   2
ATOM      2  O   UNL A   1      33.807  31.604  28.093  1.00  0.00    -0.460 OA
BRANCH   2   3
ATOM      3  C   UNL A   1      33.110  30.848  27.202  1.00  0.00     0.344 C 
ATOM      4  O   UNL A   1      31.924  31.036  26.937  1.00  0.00    -0.248 OA
BRANCH   3   5
ATOM      5  C   UNL A   1      33.923  29.709  26.561  1.00  0.00     0.352 C 
BRANCH   5   6
ATOM      6  O   UNL A   1      33.526  29.034  25.370  1.00  0.00    -0.481 OA
BRANCH   6   7
ATOM      7  C   UNL A   1      32.968  27.784  25.436  1.00  0.00     0.130 A 
ATOM      8  C   UNL A   1      32.169  25.111  25.133  1.00  0.00     0.042 A 
ATOM      9  C   UNL A   1      33.054  25.458  26.147  1.00  0.00     0.030 A 
ATOM     10  C   UNL A   1      31.540  26.118  24.414  1.00  0.00     0.041 A 
ATOM     11  C   UNL A   1      33.498  26.777  26.256  1.00  0.00     0.049 A 
ATOM     12  C   UNL A   1      31.851  27.485  24.620  1.00  0.00     0.055 A 
BRANCH   8  13
ATOM     13  N   UNL A   1      31.950  23.754  24.882  1.00  0.00    -0.322 N 
ATOM     14  C   UNL A   1      32.788  22.768  24.398  1.00  0.00     0.255 C 
ATOM     15  O   UNL A   1      32.263  21.741  23.959  1.00  0.00    -0.269 OA
ATOM     16  H   UNL A   1      31.037  23.446  25.086  1.00  0.00     0.170 HD
BRANCH  14  17
ATOM     17  C   UNL A   1      34.283  22.780  24.524  1.00  0.00     0.043 A 
ATOM     18  C   UNL A   1      34.374  21.870  26.920  1.00  0.00     0.045 C 
ATOM     19  C   UNL A   1      35.005  22.298  25.628  1.00  0.00    -0.038 A 
ATOM     20  C   UNL A   1      36.416  22.209  25.532  1.00  0.00     0.004 A 
ATOM     21  C   UNL A   1      37.110  22.570  24.384  1.00  0.00     0.000 A 
ATOM     22  C   UNL A   1      34.997  23.062  23.338  1.00  0.00     0.014 A 
ATOM     23  C   UNL A   1      36.394  22.971  23.272  1.00  0.00     0.001 A 
ENDBRANCH  14  17
ENDBRANCH   8  13
BRANCH  12  24
ATOM     24  C   UNL A   1      30.990  28.445  23.876  1.00  0.00     0.128 A 
ATOM     25  N   UNL A   1      30.724  29.648  24.353  1.00  0.00    -0.236 NA
ATOM     26  S   UNL A   1      30.354  28.191  22.292  1.00  0.00    -0.114 S 
ATOM     27  C   UNL A   1      29.736  30.262  23.623  1.00  0.00     0.082 A 
ATOM     28  C   UNL A   1      29.367  29.604  22.452  1.00  0.00     0.055 A 
ATOM     29  C   UNL A   1      29.061  31.440  24.001  1.00  0.00     0.030 A 
ATOM     30  C   UNL A   1      28.321  30.086  21.643  1.00  0.00     0.021 A 
ATOM     31  C   UNL A   1      27.982  31.893  23.241  1.00  0.00     0.002 A 
ATOM     32  C   UNL A   1      27.613  31.217  22.081  1.00  0.00     0.002 A 
ENDBRANCH  12  24
ENDBRANCH   6   7
ENDBRANCH   5   6
ENDBRANCH   3   5
ENDBRANCH   2   3
ENDBRANCH   1   2
BRANCH   1  33
ATOM     33  C   UNL A   1      33.258  33.962  28.529  1.00  0.00     0.275 C 
BRANCH  33  34
ATOM     34  O   UNL A   1      34.020  34.603  29.596  1.00  0.00    -0.458 OA
BRANCH  34  35
ATOM     35  C   UNL A   1      34.394  34.161  30.815  1.00  0.00     0.338 C 
ATOM     36  O   UNL A   1      33.787  34.374  31.854  1.00  0.00    -0.246 OA
BRANCH  35  37
ATOM     37  C   UNL A   1      35.654  33.467  30.819  1.00  0.00     0.060 A 
ATOM     38  C   UNL A   1      36.757  33.912  30.080  1.00  0.00     0.016 A 
ATOM     39  C   UNL A   1      35.707  32.410  31.703  1.00  0.00     0.016 A 
ATOM     40  C   UNL A   1      37.961  33.264  30.228  1.00  0.00     0.010 A 
ATOM     41  C   UNL A   1      36.930  31.984  32.064  1.00  0.00     0.010 A 
ATOM     42  C   UNL A   1      37.994  32.283  31.206  1.00  0.00    -0.014 A 
BRANCH  42  43
ATOM     43  C   UNL A   1      39.050  31.320  31.357  1.00  0.00     0.031 A 
ATOM     44  C   UNL A   1      38.836  30.049  30.652  1.00  0.00     0.074 A 
ATOM     45  C   UNL A   1      40.147  31.931  31.879  1.00  0.00     0.049 A 
ATOM     46  N   UNL A   1      39.249  28.892  31.029  1.00  0.00    -0.248 NA
ATOM     47  C   UNL A   1      37.971  29.958  29.455  1.00  0.00     0.031 C 
ATOM     48  C   UNL A   1      41.564  31.671  31.755  1.00  0.00     0.029 A 
ATOM     49  N   UNL A   1      40.161  33.097  32.672  1.00  0.00    -0.354 N 
ATOM     50  C   UNL A   1      39.264  28.166  29.852  1.00  0.00     0.074 A 
ATOM     51  C   UNL A   1      38.186  28.698  29.062  1.00  0.00     0.031 C 
ATOM     52  C   UNL A   1      42.220  32.347  32.725  1.00  0.00     0.029 A 
ATOM     53  C   UNL A   1      41.225  33.005  33.562  1.00  0.00     0.049 A 
ATOM     54  H   UNL A   1      39.527  33.847  32.606  1.00  0.00     0.167 HD
ATOM     55  C   UNL A   1      40.445  27.604  29.455  1.00  0.00     0.031 A 
ATOM     56  C   UNL A   1      40.979  32.751  34.887  1.00  0.00     0.031 A 
ATOM     57  C   UNL A   1      41.506  27.918  30.422  1.00  0.00     0.049 A 
ATOM     58  C   UNL A   1      41.301  31.302  35.178  1.00  0.00     0.074 A 
ATOM     59  C   UNL A   1      42.621  28.739  30.363  1.00  0.00     0.029 A 
ATOM     60  N   UNL A   1      41.295  27.655  31.769  1.00  0.00    -0.354 N 
ATOM     61  N   UNL A   1      41.288  30.359  34.274  1.00  0.00    -0.248 NA
ATOM     62  C   UNL A   1      41.744  30.825  36.479  1.00  0.00     0.031 C 
ATOM     63  C   UNL A   1      43.072  28.965  31.697  1.00  0.00     0.029 A 
ATOM     64  C   UNL A   1      42.196  28.334  32.563  1.00  0.00     0.049 A 
ATOM     65  H   UNL A   1      40.592  27.060  32.114  1.00  0.00     0.167 HD
ATOM     66  C   UNL A   1      41.864  29.228  34.785  1.00  0.00     0.074 A 
ATOM     67  C   UNL A   1      42.087  29.558  36.185  1.00  0.00     0.031 C 
ATOM     68  C   UNL A   1      42.157  28.140  34.009  1.00  0.00     0.031 A 
BRANCH  55  69
ATOM     69  C   UNL A   1      40.742  27.081  28.065  1.00  0.00    -0.014 A 
ATOM     70  C   UNL A   1      41.403  27.920  27.147  1.00  0.00     0.009 A 
ATOM     71  C   UNL A   1      40.448  25.785  27.605  1.00  0.00     0.009 A 
ATOM     72  C   UNL A   1      41.719  27.512  25.845  1.00  0.00     0.001 A 
ATOM     73  C   UNL A   1      40.748  25.372  26.296  1.00  0.00     0.001 A 
ATOM     74  C   UNL A   1      41.387  26.236  25.416  1.00  0.00     0.000 A 
ENDBRANCH  55  69
BRANCH  56  75
ATOM     75  C   UNL A   1      39.781  33.496  35.401  1.00  0.00    -0.014 A 
ATOM     76  C   UNL A   1      38.695  32.713  35.856  1.00  0.00     0.009 A 
ATOM     77  C   UNL A   1      39.969  34.765  35.960  1.00  0.00     0.009 A 
ATOM     78  C   UNL A   1      37.991  33.070  37.011  1.00  0.00     0.001 A 
ATOM     79  C   UNL A   1      39.285  35.089  37.134  1.00  0.00     0.001 A 
ATOM     80  C   UNL A   1      38.344  34.224  37.694  1.00  0.00     0.000 A 
ENDBRANCH  56  75
BRANCH  68  81
ATOM     81  C   UNL A   1      42.508  26.757  34.505  1.00  0.00    -0.014 A 
ATOM     82  C   UNL A   1      41.676  25.956  35.286  1.00  0.00     0.009 A 
ATOM     83  C   UNL A   1      43.712  26.154  34.058  1.00  0.00     0.009 A 
ATOM     84  C   UNL A   1      42.047  24.657  35.649  1.00  0.00     0.001 A 
ATOM     85  C   UNL A   1      44.051  24.836  34.349  1.00  0.00     0.001 A 
ATOM     86  C   UNL A   1      43.224  24.092  35.169  1.00  0.00     0.000 A 
ENDBRANCH  68  81
ENDBRANCH  42  43
ENDBRANCH  35  37
ENDBRANCH  34  35
ENDBRANCH  33  34
ENDBRANCH   1  33
TORSDOF 16
ENDMDL
MODEL 2
REMARK VINA RESULT:     -12.6      4.777     10.323
REMARK SMILES Cc1ccccc1C(=O)Nc1ccc(OCC(=O)OCCOC(=O)c2ccc(-c3c4nc(c(-c5ccccc5)c5ccc([nH]5)c(-c5ccccc5)c5nc(c(-c6ccccc6)c6ccc3[nH]6)C=C5)C=C4)cc2)c(-c2nc3ccccc3s2)c1
REMARK SMILES IDX 20 1 19 2 17 3 18 4 16 5 15 6 14 7 11 8 12 9 83 10 13 11
REMARK SMILES IDX 73 12 10 13 8 14 9 15 7 17 1 18 2 19 3 20 4 21 6 22 5 23
REMARK SMILES IDX 74 24 75 25 82 26 76 27 81 28 77 29 80 30 78 31 79 32 21 33
REMARK SMILES IDX 22 34 23 35 24 36 25 37 26 38 72 39 27 40 71 41 28 42 29 43
REMARK SMILES IDX 30 44 65 45 31 46 70 47 64 48 66 49 32 50 69 51 63 52 62 53
REMARK SMILES IDX 33 55 55 56 40 57 54 58 41 59 44 60 53 61 67 62 42 63 43 64
REMARK SMILES IDX 52 66 68 67 45 68 34 69 35 70 39 71 36 72 38 73 37 74 56 75
REMARK SMILES IDX 57 76 61 77 58 78 60 79 59 80 46 81 47 82 51 83 48 84 50 85
REMARK SMILES IDX 49 86
REMARK H PARENT 10 16 66 54 44 65
REMARK Flexibility Score: inf
ROOT
ATOM      1  C   UNL A   1      40.694  20.418  26.840  1.00  0.00     0.274 C 
ENDROOT
BRANCH   1   2
ATOM      2  O   UNL A   1      39.513  20.580  26.035  1.00  0.00    -0.460 OA
BRANCH   2   3
ATOM      3  C   UNL A   1      38.966  21.823  26.119  1.00  0.00     0.344 C 
ATOM      4  O   UNL A   1      39.399  22.704  26.857  1.00  0.00    -0.248 OA
BRANCH   3   5
ATOM      5  C   UNL A   1      37.730  22.035  25.225  1.00  0.00     0.352 C 
BRANCH   5   6
ATOM      6  O   UNL A   1      36.421  22.269  25.738  1.00  0.00    -0.481 OA
BRANCH   6   7
ATOM      7  C   UNL A   1      35.474  22.886  24.963  1.00  0.00     0.130 A 
ATOM      8  C   UNL A   1      33.318  24.314  23.874  1.00  0.00     0.042 A 
ATOM      9  C   UNL A   1      34.590  24.876  23.876  1.00  0.00     0.030 A 
ATOM     10  C   UNL A   1      33.170  22.980  24.226  1.00  0.00     0.041 A 
ATOM     11  C   UNL A   1      35.648  24.189  24.475  1.00  0.00     0.049 A 
ATOM     12  C   UNL A   1      34.265  22.205  24.683  1.00  0.00     0.055 A 
BRANCH   8  13
ATOM     13  N   UNL A   1      32.238  25.125  23.513  1.00  0.00    -0.322 N 
ATOM     14  C   UNL A   1      31.626  26.175  24.169  1.00  0.00     0.255 C 
ATOM     15  O   UNL A   1      30.497  26.501  23.790  1.00  0.00    -0.269 OA
ATOM     16  H   UNL A   1      31.845  24.910  22.636  1.00  0.00     0.170 HD
BRANCH  14  17
ATOM     17  C   UNL A   1      32.293  27.054  25.185  1.00  0.00     0.043 A 
ATOM     18  C   UNL A   1      33.729  28.374  23.520  1.00  0.00     0.045 C 
ATOM     19  C   UNL A   1      33.180  28.102  24.890  1.00  0.00    -0.038 A 
ATOM     20  C   UNL A   1      33.593  28.961  25.938  1.00  0.00     0.004 A 
ATOM     21  C   UNL A   1      33.145  28.811  27.244  1.00  0.00     0.000 A 
ATOM     22  C   UNL A   1      31.783  26.970  26.500  1.00  0.00     0.014 A 
ATOM     23  C   UNL A   1      32.213  27.829  27.520  1.00  0.00     0.001 A 
ENDBRANCH  14  17
ENDBRANCH   8  13
BRANCH  12  24
ATOM     24  C   UNL A   1      33.972  20.760  24.883  1.00  0.00     0.128 A 
ATOM     25  N   UNL A   1      34.874  19.830  24.626  1.00  0.00    -0.236 NA
ATOM     26  S   UNL A   1      32.525  20.124  25.576  1.00  0.00    -0.114 S 
ATOM     27  C   UNL A   1      34.315  18.575  24.658  1.00  0.00     0.082 A 
ATOM     28  C   UNL A   1      33.007  18.521  25.132  1.00  0.00     0.055 A 
ATOM     29  C   UNL A   1      34.941  17.397  24.205  1.00  0.00     0.030 A 
ATOM     30  C   UNL A   1      32.289  17.311  25.155  1.00  0.00     0.021 A 
ATOM     31  C   UNL A   1      34.219  16.203  24.165  1.00  0.00     0.002 A 
ATOM     32  C   UNL A   1      32.906  16.165  24.627  1.00  0.00     0.002 A 
ENDBRANCH  12  24
ENDBRANCH   6   7
ENDBRANCH   5   6
ENDBRANCH   3   5
ENDBRANCH   2   3
ENDBRANCH   1   2
BRANCH   1  33
ATOM     33  C   UNL A   1      41.767  19.598  26.126  1.00  0.00     0.275 C 
BRANCH  33  34
ATOM     34  O   UNL A   1      43.107  20.176  26.079  1.00  0.00    -0.458 OA
BRANCH  34  35
ATOM     35  C   UNL A   1      43.602  21.226  25.391  1.00  0.00     0.338 C 
ATOM     36  O   UNL A   1      44.157  21.152  24.305  1.00  0.00    -0.246 OA
BRANCH  35  37
ATOM     37  C   UNL A   1      43.503  22.477  26.092  1.00  0.00     0.060 A 
ATOM     38  C   UNL A   1      43.422  22.549  27.488  1.00  0.00     0.016 A 
ATOM     39  C   UNL A   1      43.620  23.585  25.279  1.00  0.00     0.016 A 
ATOM     40  C   UNL A   1      43.451  23.784  28.092  1.00  0.00     0.010 A 
ATOM     41  C   UNL A   1      43.948  24.743  25.877  1.00  0.00     0.010 A 
ATOM     42  C   UNL A   1      43.681  24.857  27.246  1.00  0.00    -0.014 A 
BRANCH  42  43
ATOM     43  C   UNL A   1      43.501  26.236  27.612  1.00  0.00     0.031 A 
ATOM     44  C   UNL A   1      42.176  26.791  27.302  1.00  0.00     0.074 A 
ATOM     45  C   UNL A   1      44.511  26.620  28.438  1.00  0.00     0.049 A 
ATOM     46  N   UNL A   1      41.920  28.010  26.981  1.00  0.00    -0.248 NA
ATOM     47  C   UNL A   1      40.977  25.933  27.194  1.00  0.00     0.031 C 
ATOM     48  C   UNL A   1      44.589  27.603  29.495  1.00  0.00     0.029 A 
ATOM     49  N   UNL A   1      45.799  26.052  28.508  1.00  0.00    -0.354 N 
ATOM     50  C   UNL A   1      40.580  28.140  27.297  1.00  0.00     0.074 A 
ATOM     51  C   UNL A   1      40.005  26.842  27.065  1.00  0.00     0.031 C 
ATOM     52  C   UNL A   1      45.890  27.834  29.783  1.00  0.00     0.029 A 
ATOM     53  C   UNL A   1      46.698  27.056  28.852  1.00  0.00     0.049 A 
ATOM     54  H   UNL A   1      46.024  25.108  28.343  1.00  0.00     0.167 HD
ATOM     55  C   UNL A   1      40.218  29.110  28.190  1.00  0.00     0.031 A 
ATOM     56  C   UNL A   1      47.551  27.554  27.901  1.00  0.00     0.031 A 
ATOM     57  C   UNL A   1      41.406  29.843  28.650  1.00  0.00     0.049 A 
ATOM     58  C   UNL A   1      47.041  28.901  27.439  1.00  0.00     0.074 A 
ATOM     59  C   UNL A   1      42.076  29.884  29.863  1.00  0.00     0.029 A 
ATOM     60  N   UNL A   1      42.280  30.376  27.712  1.00  0.00    -0.354 N 
ATOM     61  N   UNL A   1      45.789  29.268  27.511  1.00  0.00    -0.248 NA
ATOM     62  C   UNL A   1      47.908  29.961  26.946  1.00  0.00     0.031 C 
ATOM     63  C   UNL A   1      43.366  30.447  29.633  1.00  0.00     0.029 A 
ATOM     64  C   UNL A   1      43.498  30.688  28.278  1.00  0.00     0.049 A 
ATOM     65  H   UNL A   1      42.058  30.513  26.763  1.00  0.00     0.167 HD
ATOM     66  C   UNL A   1      45.691  30.609  27.261  1.00  0.00     0.074 A 
ATOM     67  C   UNL A   1      47.039  30.985  26.863  1.00  0.00     0.031 C 
ATOM     68  C   UNL A   1      44.530  31.307  27.450  1.00  0.00     0.031 A 
BRANCH  55  69
ATOM     69  C   UNL A   1      38.888  29.186  28.909  1.00  0.00    -0.014 A 
ATOM     70  C   UNL A   1      37.749  29.610  28.196  1.00  0.00     0.009 A 
ATOM     71  C   UNL A   1      38.667  28.822  30.249  1.00  0.00     0.009 A 
ATOM     72  C   UNL A   1      36.483  29.703  28.785  1.00  0.00     0.001 A 
ATOM     73  C   UNL A   1      37.403  28.925  30.852  1.00  0.00     0.001 A 
ATOM     74  C   UNL A   1      36.308  29.364  30.118  1.00  0.00     0.000 A 
ENDBRANCH  55  69
BRANCH  56  75
ATOM     75  C   UNL A   1      48.105  26.480  27.008  1.00  0.00    -0.014 A 
ATOM     76  C   UNL A   1      47.587  26.420  25.693  1.00  0.00     0.009 A 
ATOM     77  C   UNL A   1      49.410  26.028  27.232  1.00  0.00     0.009 A 
ATOM     78  C   UNL A   1      48.429  26.173  24.604  1.00  0.00     0.001 A 
ATOM     79  C   UNL A   1      50.247  25.825  26.133  1.00  0.00     0.001 A 
ATOM     80  C   UNL A   1      49.780  25.953  24.825  1.00  0.00     0.000 A 
ENDBRANCH  56  75
BRANCH  68  81
ATOM     81  C   UNL A   1      44.226  32.694  26.934  1.00  0.00    -0.014 A 
ATOM     82  C   UNL A   1      44.152  33.043  25.587  1.00  0.00     0.009 A 
ATOM     83  C   UNL A   1      43.863  33.705  27.861  1.00  0.00     0.009 A 
ATOM     84  C   UNL A   1      43.798  34.337  25.188  1.00  0.00     0.001 A 
ATOM     85  C   UNL A   1      43.433  34.969  27.470  1.00  0.00     0.001 A 
ATOM     86  C   UNL A   1      43.424  35.293  26.126  1.00  0.00     0.000 A 
ENDBRANCH  68  81
ENDBRANCH  42  43
ENDBRANCH  35  37
ENDBRANCH  34  35
ENDBRANCH  33  34
ENDBRANCH   1  33
TORSDOF 16
ENDMDL
MODEL 3
REMARK VINA RESULT:     -12.4      1.372      2.015
REMARK SMILES Cc1ccccc1C(=O)Nc1ccc(OCC(=O)OCCOC(=O)c2ccc(-c3c4nc(c(-c5ccccc5)c5ccc([nH]5)c(-c5ccccc5)c5nc(c(-c6ccccc6)c6ccc3[nH]6)C=C5)C=C4)cc2)c(-c2nc3ccccc3s2)c1
REMARK SMILES IDX 20 1 19 2 17 3 18 4 16 5 15 6 14 7 11 8 12 9 83 10 13 11
REMARK SMILES IDX 73 12 10 13 8 14 9 15 7 17 1 18 2 19 3 20 4 21 6 22 5 23
REMARK SMILES IDX 74 24 75 25 82 26 76 27 81 28 77 29 80 30 78 31 79 32 21 33
REMARK SMILES IDX 22 34 23 35 24 36 25 37 26 38 72 39 27 40 71 41 28 42 29 43
REMARK SMILES IDX 30 44 65 45 31 46 70 47 64 48 66 49 32 50 69 51 63 52 62 53
REMARK SMILES IDX 33 55 55 56 40 57 54 58 41 59 44 60 53 61 67 62 42 63 43 64
REMARK SMILES IDX 52 66 68 67 45 68 34 69 35 70 39 71 36 72 38 73 37 74 56 75
REMARK SMILES IDX 57 76 61 77 58 78 60 79 59 80 46 81 47 82 51 83 48 84 50 85
REMARK SMILES IDX 49 86
REMARK H PARENT 10 16 66 54 44 65
REMARK Flexibility Score: inf
ROOT
ATOM      1  C   UNL A   1      33.661  30.955  27.066  1.00  0.00     0.274 C 
ENDROOT
BRANCH   1   2
ATOM      2  O   UNL A   1      32.980  29.705  27.274  1.00  0.00    -0.460 OA
BRANCH   2   3
ATOM      3  C   UNL A   1      33.704  28.622  26.884  1.00  0.00     0.344 C 
ATOM      4  O   UNL A   1      34.900  28.482  27.128  1.00  0.00    -0.248 OA
BRANCH   3   5
ATOM      5  C   UNL A   1      32.905  27.581  26.078  1.00  0.00     0.352 C 
BRANCH   5   6
ATOM      6  O   UNL A   1      31.750  26.915  26.582  1.00  0.00    -0.481 OA
BRANCH   6   7
ATOM      7  C   UNL A   1      31.471  25.629  26.200  1.00  0.00     0.130 A 
ATOM      8  C   UNL A   1      31.388  23.035  25.132  1.00  0.00     0.042 A 
ATOM      9  C   UNL A   1      31.777  23.227  26.453  1.00  0.00     0.030 A 
ATOM     10  C   UNL A   1      30.855  24.104  24.424  1.00  0.00     0.041 A 
ATOM     11  C   UNL A   1      31.877  24.524  26.962  1.00  0.00     0.049 A 
ATOM     12  C   UNL A   1      30.791  25.406  24.979  1.00  0.00     0.055 A 
BRANCH   8  13
ATOM     13  N   UNL A   1      31.551  21.764  24.573  1.00  0.00    -0.322 N 
ATOM     14  C   UNL A   1      32.617  21.188  23.911  1.00  0.00     0.255 C 
ATOM     15  O   UNL A   1      32.389  20.182  23.233  1.00  0.00    -0.269 OA
ATOM     16  H   UNL A   1      30.767  21.176  24.669  1.00  0.00     0.170 HD
BRANCH  14  17
ATOM     17  C   UNL A   1      34.052  21.588  24.091  1.00  0.00     0.043 A 
ATOM     18  C   UNL A   1      33.961  23.660  22.582  1.00  0.00     0.045 C 
ATOM     19  C   UNL A   1      34.641  22.747  23.559  1.00  0.00    -0.038 A 
ATOM     20  C   UNL A   1      35.958  23.086  23.958  1.00  0.00     0.004 A 
ATOM     21  C   UNL A   1      36.683  22.320  24.862  1.00  0.00     0.000 A 
ATOM     22  C   UNL A   1      34.772  20.870  25.071  1.00  0.00     0.014 A 
ATOM     23  C   UNL A   1      36.076  21.223  25.443  1.00  0.00     0.001 A 
ENDBRANCH  14  17
ENDBRANCH   8  13
BRANCH  12  24
ATOM     24  C   UNL A   1      30.065  26.407  24.150  1.00  0.00     0.128 A 
ATOM     25  N   UNL A   1      30.706  27.224  23.334  1.00  0.00    -0.236 NA
ATOM     26  S   UNL A   1      28.349  26.549  24.037  1.00  0.00    -0.114 S 
ATOM     27  C   UNL A   1      29.869  28.204  22.856  1.00  0.00     0.082 A 
ATOM     28  C   UNL A   1      28.521  28.029  23.156  1.00  0.00     0.055 A 
ATOM     29  C   UNL A   1      30.284  29.356  22.159  1.00  0.00     0.030 A 
ATOM     30  C   UNL A   1      27.561  28.991  22.788  1.00  0.00     0.021 A 
ATOM     31  C   UNL A   1      29.352  30.345  21.843  1.00  0.00     0.002 A 
ATOM     32  C   UNL A   1      28.009  30.166  22.162  1.00  0.00     0.002 A 
ENDBRANCH  12  24
ENDBRANCH   6   7
ENDBRANCH   5   6
ENDBRANCH   3   5
ENDBRANCH   2   3
ENDBRANCH   1   2
BRANCH   1  33
ATOM     33  C   UNL A   1      32.859  32.141  27.599  1.00  0.00     0.275 C 
BRANCH  33  34
ATOM     34  O   UNL A   1      33.627  33.273  28.108  1.00  0.00    -0.458 OA
BRANCH  34  35
ATOM     35  C   UNL A   1      34.163  33.514  29.323  1.00  0.00     0.338 C 
ATOM     36  O   UNL A   1      33.650  34.206  30.190  1.00  0.00    -0.246 OA
BRANCH  35  37
ATOM     37  C   UNL A   1      35.472  32.947  29.502  1.00  0.00     0.060 A 
ATOM     38  C   UNL A   1      36.611  33.483  28.887  1.00  0.00     0.016 A 
ATOM     39  C   UNL A   1      35.517  31.919  30.421  1.00  0.00     0.016 A 
ATOM     40  C   UNL A   1      37.844  32.960  29.201  1.00  0.00     0.010 A 
ATOM     41  C   UNL A   1      36.720  31.624  30.941  1.00  0.00     0.010 A 
ATOM     42  C   UNL A   1      37.849  32.008  30.208  1.00  0.00    -0.014 A 
BRANCH  42  43
ATOM     43  C   UNL A   1      38.966  31.157  30.518  1.00  0.00     0.031 A 
ATOM     44  C   UNL A   1      38.988  29.877  29.798  1.00  0.00     0.074 A 
ATOM     45  C   UNL A   1      39.906  31.873  31.190  1.00  0.00     0.049 A 
ATOM     46  N   UNL A   1      39.458  28.765  30.239  1.00  0.00    -0.248 NA
ATOM     47  C   UNL A   1      38.320  29.707  28.489  1.00  0.00     0.031 C 
ATOM     48  C   UNL A   1      41.345  31.761  31.275  1.00  0.00     0.029 A 
ATOM     49  N   UNL A   1      39.685  33.028  31.968  1.00  0.00    -0.354 N 
ATOM     50  C   UNL A   1      39.718  28.054  29.082  1.00  0.00     0.074 A 
ATOM     51  C   UNL A   1      38.717  28.479  28.140  1.00  0.00     0.031 C 
ATOM     52  C   UNL A   1      41.781  32.493  32.325  1.00  0.00     0.029 A 
ATOM     53  C   UNL A   1      40.612  33.038  33.004  1.00  0.00     0.049 A 
ATOM     54  H   UNL A   1      38.993  33.709  31.806  1.00  0.00     0.167 HD
ATOM     55  C   UNL A   1      40.996  27.620  28.864  1.00  0.00     0.031 A 
ATOM     56  C   UNL A   1      40.204  32.750  34.281  1.00  0.00     0.031 A 
ATOM     57  C   UNL A   1      41.868  28.033  29.973  1.00  0.00     0.049 A 
ATOM     58  C   UNL A   1      40.627  31.339  34.626  1.00  0.00     0.074 A 
ATOM     59  C   UNL A   1      42.889  28.964  30.072  1.00  0.00     0.029 A 
ATOM     60  N   UNL A   1      41.491  27.739  31.277  1.00  0.00    -0.354 N 
ATOM     61  N   UNL A   1      40.842  30.407  33.736  1.00  0.00    -0.248 NA
ATOM     62  C   UNL A   1      40.923  30.900  35.981  1.00  0.00     0.031 C 
ATOM     63  C   UNL A   1      43.115  29.224  31.455  1.00  0.00     0.029 A 
ATOM     64  C   UNL A   1      42.192  28.500  32.189  1.00  0.00     0.049 A 
ATOM     65  H   UNL A   1      40.810  27.072  31.520  1.00  0.00     0.167 HD
ATOM     66  C   UNL A   1      41.451  29.337  34.333  1.00  0.00     0.074 A 
ATOM     67  C   UNL A   1      41.433  29.677  35.748  1.00  0.00     0.031 C 
ATOM     68  C   UNL A   1      41.964  28.292  33.616  1.00  0.00     0.031 A 
BRANCH  55  69
ATOM     69  C   UNL A   1      41.544  27.142  27.536  1.00  0.00    -0.014 A 
ATOM     70  C   UNL A   1      41.831  28.089  26.535  1.00  0.00     0.009 A 
ATOM     71  C   UNL A   1      41.840  25.805  27.214  1.00  0.00     0.009 A 
ATOM     72  C   UNL A   1      42.344  27.731  25.282  1.00  0.00     0.001 A 
ATOM     73  C   UNL A   1      42.341  25.435  25.955  1.00  0.00     0.001 A 
ATOM     74  C   UNL A   1      42.596  26.400  24.988  1.00  0.00     0.000 A 
ENDBRANCH  55  69
BRANCH  56  75
ATOM     75  C   UNL A   1      38.873  33.364  34.610  1.00  0.00    -0.014 A 
ATOM     76  C   UNL A   1      38.591  34.619  34.023  1.00  0.00     0.009 A 
ATOM     77  C   UNL A   1      37.802  32.518  34.922  1.00  0.00     0.009 A 
ATOM     78  C   UNL A   1      37.317  34.902  33.519  1.00  0.00     0.001 A 
ATOM     79  C   UNL A   1      36.547  32.797  34.378  1.00  0.00     0.001 A 
ATOM     80  C   UNL A   1      36.314  33.951  33.630  1.00  0.00     0.000 A 
ENDBRANCH  56  75
BRANCH  68  81
ATOM     81  C   UNL A   1      42.380  26.948  34.167  1.00  0.00    -0.014 A 
ATOM     82  C   UNL A   1      43.597  26.321  33.902  1.00  0.00     0.009 A 
ATOM     83  C   UNL A   1      41.546  26.311  35.122  1.00  0.00     0.009 A 
ATOM     84  C   UNL A   1      43.936  25.105  34.505  1.00  0.00     0.001 A 
ATOM     85  C   UNL A   1      41.911  25.144  35.785  1.00  0.00     0.001 A 
ATOM     86  C   UNL A   1      43.103  24.526  35.456  1.00  0.00     0.000 A 
ENDBRANCH  68  81
ENDBRANCH  42  43
ENDBRANCH  35  37
ENDBRANCH  34  35
ENDBRANCH  33  34
ENDBRANCH   1  33
TORSDOF 16
ENDMDL
