MODEL 1
REMARK VINA RESULT:     -10.1      0.000      0.000
REMARK SMILES CC(C)(C)C(=O)Nc1ccc(C(=O)OCCOC(=O)c2ccc(-c3c4nc(c(-c5ccccc5)c5ccc([nH]5)c(-c5ccccc5)c5nc(c(-c6ccccc6)c6ccc3[nH]6)C=C5)C=C4)cc2)cc1Br
REMARK SMILES IDX 15 1 14 2 12 3 13 4 11 5 8 6 9 7 69 8 10 9 68 10 70 11 7 12
REMARK SMILES IDX 5 13 6 14 2 16 1 17 3 18 4 19 16 20 17 21 18 22 19 23 20 24
REMARK SMILES IDX 21 25 67 26 22 27 66 28 23 29 24 30 25 31 60 32 26 33 65 34
REMARK SMILES IDX 59 35 61 36 27 37 64 38 58 39 57 40 28 42 50 43 35 44 49 45
REMARK SMILES IDX 36 46 39 47 48 48 62 49 37 50 38 51 47 53 63 54 40 55 29 56
REMARK SMILES IDX 30 57 34 58 31 59 33 60 32 61 51 62 52 63 56 64 53 65 55 66
REMARK SMILES IDX 54 67 41 68 42 69 46 70 43 71 45 72 44 73
REMARK H PARENT 7 15 61 41 39 52
REMARK Flexibility Score: inf
ROOT
ATOM      1  C   UNL A   1      32.606  29.555  25.606  1.00  0.00     0.275 C 
ENDROOT
BRANCH   1   2
ATOM      2  O   UNL A   1      33.733  28.667  25.489  1.00  0.00    -0.458 OA
BRANCH   2   3
ATOM      3  C   UNL A   1      33.851  28.033  24.302  1.00  0.00     0.338 C 
ATOM      4  O   UNL A   1      34.117  28.551  23.227  1.00  0.00    -0.246 OA
BRANCH   3   5
ATOM      5  C   UNL A   1      33.670  26.566  24.448  1.00  0.00     0.061 A 
ATOM      6  C   UNL A   1      33.677  23.817  24.852  1.00  0.00     0.055 A 
ATOM      7  C   UNL A   1      33.674  24.665  25.955  1.00  0.00     0.028 A 
ATOM      8  C   UNL A   1      33.472  24.329  23.564  1.00  0.00     0.042 A 
ATOM      9  C   UNL A   1      33.712  26.038  25.749  1.00  0.00     0.018 A 
ATOM     10  C   UNL A   1      33.482  25.711  23.357  1.00  0.00     0.033 A 
ATOM     11  Br  UNL A   1      33.267  23.193  22.058  1.00  0.00    -0.049 Br
BRANCH   6  12
ATOM     12  N   UNL A   1      33.996  22.479  25.077  1.00  0.00    -0.325 N 
ATOM     13  C   UNL A   1      35.248  21.939  25.234  1.00  0.00     0.229 C 
ATOM     14  O   UNL A   1      35.285  20.774  25.648  1.00  0.00    -0.274 OA
ATOM     15  H   UNL A   1      33.239  21.850  25.128  1.00  0.00     0.169 HD
BRANCH  13  16
ATOM     16  C   UNL A   1      36.563  22.723  24.920  1.00  0.00     0.041 C 
ATOM     17  C   UNL A   1      36.565  23.038  23.405  1.00  0.00     0.021 C 
ATOM     18  C   UNL A   1      37.829  21.900  25.194  1.00  0.00     0.021 C 
ATOM     19  C   UNL A   1      36.644  24.072  25.648  1.00  0.00     0.021 C 
ENDBRANCH  13  16
ENDBRANCH   6  12
ENDBRANCH   3   5
ENDBRANCH   2   3
ENDBRANCH   1   2
BRANCH   1  20
ATOM     20  C   UNL A   1      32.864  30.606  26.687  1.00  0.00     0.275 C 
BRANCH  20  21
ATOM     21  O   UNL A   1      33.609  30.046  27.789  1.00  0.00    -0.458 OA
BRANCH  21  22
ATOM     22  C   UNL A   1      34.532  30.868  28.339  1.00  0.00     0.338 C 
ATOM     23  O   UNL A   1      34.355  31.977  28.813  1.00  0.00    -0.246 OA
BRANCH  22  24
ATOM     24  C   UNL A   1      35.831  30.183  28.411  1.00  0.00     0.060 A 
ATOM     25  C   UNL A   1      36.190  29.597  29.620  1.00  0.00     0.016 A 
ATOM     26  C   UNL A   1      36.751  30.248  27.368  1.00  0.00     0.016 A 
ATOM     27  C   UNL A   1      37.481  29.127  29.829  1.00  0.00     0.010 A 
ATOM     28  C   UNL A   1      38.034  29.711  27.552  1.00  0.00     0.010 A 
ATOM     29  C   UNL A   1      38.420  29.171  28.794  1.00  0.00    -0.014 A 
BRANCH  29  30
ATOM     30  C   UNL A   1      39.809  28.696  29.045  1.00  0.00     0.031 A 
ATOM     31  C   UNL A   1      40.806  29.593  29.728  1.00  0.00     0.074 A 
ATOM     32  C   UNL A   1      40.173  27.445  28.698  1.00  0.00     0.049 A 
ATOM     33  N   UNL A   1      42.087  29.407  29.927  1.00  0.00    -0.248 NA
ATOM     34  C   UNL A   1      40.299  30.873  30.248  1.00  0.00     0.031 C 
ATOM     35  C   UNL A   1      39.300  26.445  28.081  1.00  0.00     0.029 A 
ATOM     36  N   UNL A   1      41.378  26.796  28.827  1.00  0.00    -0.354 N 
ATOM     37  C   UNL A   1      42.548  30.565  30.542  1.00  0.00     0.074 A 
ATOM     38  C   UNL A   1      41.412  31.449  30.680  1.00  0.00     0.031 C 
ATOM     39  C   UNL A   1      39.984  25.303  27.916  1.00  0.00     0.029 A 
ATOM     40  C   UNL A   1      41.364  25.512  28.339  1.00  0.00     0.049 A 
ATOM     41  H   UNL A   1      42.173  27.211  29.233  1.00  0.00     0.167 HD
ATOM     42  C   UNL A   1      43.805  30.866  30.949  1.00  0.00     0.031 A 
ATOM     43  C   UNL A   1      42.358  24.612  28.203  1.00  0.00     0.031 A 
ATOM     44  C   UNL A   1      44.929  29.973  30.846  1.00  0.00     0.049 A 
ATOM     45  C   UNL A   1      43.750  24.984  28.626  1.00  0.00     0.074 A 
ATOM     46  C   UNL A   1      46.237  30.183  31.251  1.00  0.00     0.029 A 
ATOM     47  N   UNL A   1      44.879  28.697  30.308  1.00  0.00    -0.354 N 
ATOM     48  N   UNL A   1      44.177  26.097  29.172  1.00  0.00    -0.248 NA
ATOM     49  C   UNL A   1      44.798  23.978  28.404  1.00  0.00     0.031 C 
ATOM     50  C   UNL A   1      46.988  29.052  30.913  1.00  0.00     0.029 A 
ATOM     51  C   UNL A   1      46.136  28.116  30.350  1.00  0.00     0.049 A 
ATOM     52  H   UNL A   1      44.069  28.267  29.950  1.00  0.00     0.167 HD
ATOM     53  C   UNL A   1      45.540  25.921  29.368  1.00  0.00     0.074 A 
ATOM     54  C   UNL A   1      45.863  24.586  28.907  1.00  0.00     0.031 C 
ATOM     55  C   UNL A   1      46.445  26.791  29.880  1.00  0.00     0.031 A 
BRANCH  42  56
ATOM     56  C   UNL A   1      44.042  32.245  31.500  1.00  0.00    -0.014 A 
ATOM     57  C   UNL A   1      44.380  33.326  30.671  1.00  0.00     0.009 A 
ATOM     58  C   UNL A   1      43.893  32.469  32.879  1.00  0.00     0.009 A 
ATOM     59  C   UNL A   1      44.600  34.593  31.216  1.00  0.00     0.001 A 
ATOM     60  C   UNL A   1      44.086  33.742  33.418  1.00  0.00     0.001 A 
ATOM     61  C   UNL A   1      44.449  34.801  32.587  1.00  0.00     0.000 A 
ENDBRANCH  42  56
BRANCH  43  62
ATOM     62  C   UNL A   1      42.078  23.288  27.587  1.00  0.00    -0.014 A 
ATOM     63  C   UNL A   1      42.310  23.068  26.221  1.00  0.00     0.009 A 
ATOM     64  C   UNL A   1      41.580  22.234  28.370  1.00  0.00     0.009 A 
ATOM     65  C   UNL A   1      42.032  21.824  25.650  1.00  0.00     0.001 A 
ATOM     66  C   UNL A   1      41.335  20.983  27.803  1.00  0.00     0.001 A 
ATOM     67  C   UNL A   1      41.553  20.780  26.442  1.00  0.00     0.000 A 
ENDBRANCH  43  62
BRANCH  55  68
ATOM     68  C   UNL A   1      47.864  26.313  29.991  1.00  0.00    -0.014 A 
ATOM     69  C   UNL A   1      48.361  25.783  31.193  1.00  0.00     0.009 A 
ATOM     70  C   UNL A   1      48.709  26.369  28.872  1.00  0.00     0.009 A 
ATOM     71  C   UNL A   1      49.687  25.354  31.280  1.00  0.00     0.001 A 
ATOM     72  C   UNL A   1      50.025  25.915  28.954  1.00  0.00     0.001 A 
ATOM     73  C   UNL A   1      50.516  25.416  30.159  1.00  0.00     0.000 A 
ENDBRANCH  55  68
ENDBRANCH  29  30
ENDBRANCH  22  24
ENDBRANCH  21  22
ENDBRANCH  20  21
ENDBRANCH   1  20
TORSDOF 13
ENDMDL
MODEL 2
REMARK VINA RESULT:     -10.1      4.554     10.752
REMARK SMILES CC(C)(C)C(=O)Nc1ccc(C(=O)OCCOC(=O)c2ccc(-c3c4nc(c(-c5ccccc5)c5ccc([nH]5)c(-c5ccccc5)c5nc(c(-c6ccccc6)c6ccc3[nH]6)C=C5)C=C4)cc2)cc1Br
REMARK SMILES IDX 15 1 14 2 12 3 13 4 11 5 8 6 9 7 69 8 10 9 68 10 70 11 7 12
REMARK SMILES IDX 5 13 6 14 2 16 1 17 3 18 4 19 16 20 17 21 18 22 19 23 20 24
REMARK SMILES IDX 21 25 67 26 22 27 66 28 23 29 24 30 25 31 60 32 26 33 65 34
REMARK SMILES IDX 59 35 61 36 27 37 64 38 58 39 57 40 28 42 50 43 35 44 49 45
REMARK SMILES IDX 36 46 39 47 48 48 62 49 37 50 38 51 47 53 63 54 40 55 29 56
REMARK SMILES IDX 30 57 34 58 31 59 33 60 32 61 51 62 52 63 56 64 53 65 55 66
REMARK SMILES IDX 54 67 41 68 42 69 46 70 43 71 45 72 44 73
REMARK H PARENT 7 15 61 41 39 52
REMARK Flexibility Score: inf
ROOT
ATOM      1  C   UNL A   1      34.671  36.014  32.337  1.00  0.00     0.275 C 
ENDROOT
BRANCH   1   2
ATOM      2  O   UNL A   1      34.455  35.397  33.620  1.00  0.00    -0.458 OA
BRANCH   2   3
ATOM      3  C   UNL A   1      34.348  34.050  33.605  1.00  0.00     0.338 C 
ATOM      4  O   UNL A   1      33.373  33.406  33.249  1.00  0.00    -0.246 OA
BRANCH   3   5
ATOM      5  C   UNL A   1      35.611  33.398  34.034  1.00  0.00     0.061 A 
ATOM      6  C   UNL A   1      37.770  31.879  34.903  1.00  0.00     0.055 A 
ATOM      7  C   UNL A   1      37.160  31.563  33.692  1.00  0.00     0.028 A 
ATOM      8  C   UNL A   1      37.438  33.063  35.575  1.00  0.00     0.042 A 
ATOM      9  C   UNL A   1      36.057  32.299  33.281  1.00  0.00     0.018 A 
ATOM     10  C   UNL A   1      36.345  33.821  35.147  1.00  0.00     0.033 A 
ATOM     11  Br  UNL A   1      38.382  33.633  37.119  1.00  0.00    -0.049 Br
BRANCH   6  12
ATOM     12  N   UNL A   1      38.624  30.926  35.455  1.00  0.00    -0.325 N 
ATOM     13  C   UNL A   1      39.950  30.730  35.162  1.00  0.00     0.229 C 
ATOM     14  O   UNL A   1      40.568  29.984  35.931  1.00  0.00    -0.274 OA
ATOM     15  H   UNL A   1      38.232  30.325  36.131  1.00  0.00     0.169 HD
BRANCH  13  16
ATOM     16  C   UNL A   1      40.664  31.397  33.942  1.00  0.00     0.041 C 
ATOM     17  C   UNL A   1      42.154  30.985  33.995  1.00  0.00     0.021 C 
ATOM     18  C   UNL A   1      40.636  32.931  33.998  1.00  0.00     0.021 C 
ATOM     19  C   UNL A   1      40.121  30.909  32.591  1.00  0.00     0.021 C 
ENDBRANCH  13  16
ENDBRANCH   6  12
ENDBRANCH   3   5
ENDBRANCH   2   3
ENDBRANCH   1   2
BRANCH   1  20
ATOM     20  C   UNL A   1      33.334  36.299  31.650  1.00  0.00     0.275 C 
BRANCH  20  21
ATOM     21  O   UNL A   1      33.034  35.295  30.658  1.00  0.00    -0.458 OA
BRANCH  21  22
ATOM     22  C   UNL A   1      33.758  35.375  29.518  1.00  0.00     0.338 C 
ATOM     23  O   UNL A   1      33.951  36.359  28.825  1.00  0.00    -0.246 OA
BRANCH  22  24
ATOM     24  C   UNL A   1      34.421  34.089  29.256  1.00  0.00     0.060 A 
ATOM     25  C   UNL A   1      35.025  33.911  28.015  1.00  0.00     0.016 A 
ATOM     26  C   UNL A   1      34.320  33.020  30.141  1.00  0.00     0.016 A 
ATOM     27  C   UNL A   1      35.476  32.660  27.615  1.00  0.00     0.010 A 
ATOM     28  C   UNL A   1      34.838  31.771  29.768  1.00  0.00     0.010 A 
ATOM     29  C   UNL A   1      35.396  31.572  28.489  1.00  0.00    -0.014 A 
BRANCH  29  30
ATOM     30  C   UNL A   1      35.851  30.229  28.033  1.00  0.00     0.031 A 
ATOM     31  C   UNL A   1      34.919  29.334  27.262  1.00  0.00     0.074 A 
ATOM     32  C   UNL A   1      37.114  29.822  28.271  1.00  0.00     0.049 A 
ATOM     33  N   UNL A   1      35.089  28.091  26.884  1.00  0.00    -0.248 NA
ATOM     34  C   UNL A   1      33.620  29.906  26.873  1.00  0.00     0.031 C 
ATOM     35  C   UNL A   1      38.145  30.605  28.955  1.00  0.00     0.029 A 
ATOM     36  N   UNL A   1      37.750  28.647  27.951  1.00  0.00    -0.354 N 
ATOM     37  C   UNL A   1      33.902  27.717  26.265  1.00  0.00     0.074 A 
ATOM     38  C   UNL A   1      33.019  28.862  26.322  1.00  0.00     0.031 C 
ATOM     39  C   UNL A   1      39.289  29.905  28.975  1.00  0.00     0.029 A 
ATOM     40  C   UNL A   1      39.054  28.594  28.380  1.00  0.00     0.049 A 
ATOM     41  H   UNL A   1      37.313  27.913  27.461  1.00  0.00     0.167 HD
ATOM     42  C   UNL A   1      33.576  26.527  25.706  1.00  0.00     0.031 A 
ATOM     43  C   UNL A   1      39.954  27.592  28.340  1.00  0.00     0.031 A 
ATOM     44  C   UNL A   1      34.466  25.399  25.617  1.00  0.00     0.049 A 
ATOM     45  C   UNL A   1      39.556  26.270  27.749  1.00  0.00     0.074 A 
ATOM     46  C   UNL A   1      34.230  24.158  25.049  1.00  0.00     0.029 A 
ATOM     47  N   UNL A   1      35.765  25.377  26.099  1.00  0.00    -0.354 N 
ATOM     48  N   UNL A   1      38.417  25.920  27.202  1.00  0.00    -0.248 NA
ATOM     49  C   UNL A   1      40.564  25.202  27.784  1.00  0.00     0.031 C 
ATOM     50  C   UNL A   1      35.371  23.368  25.231  1.00  0.00     0.029 A 
ATOM     51  C   UNL A   1      36.336  24.137  25.862  1.00  0.00     0.049 A 
ATOM     52  H   UNL A   1      36.215  26.131  26.543  1.00  0.00     0.167 HD
ATOM     53  C   UNL A   1      38.576  24.596  26.816  1.00  0.00     0.074 A 
ATOM     54  C   UNL A   1      39.928  24.214  27.169  1.00  0.00     0.031 C 
ATOM     55  C   UNL A   1      37.679  23.768  26.226  1.00  0.00     0.031 A 
BRANCH  42  56
ATOM     56  C   UNL A   1      32.172  26.366  25.191  1.00  0.00    -0.014 A 
ATOM     57  C   UNL A   1      31.165  25.764  25.961  1.00  0.00     0.009 A 
ATOM     58  C   UNL A   1      31.848  26.856  23.915  1.00  0.00     0.009 A 
ATOM     59  C   UNL A   1      29.873  25.624  25.449  1.00  0.00     0.001 A 
ATOM     60  C   UNL A   1      30.550  26.741  23.416  1.00  0.00     0.001 A 
ATOM     61  C   UNL A   1      29.565  26.116  24.180  1.00  0.00     0.000 A 
ENDBRANCH  42  56
BRANCH  43  62
ATOM     62  C   UNL A   1      41.305  27.787  28.928  1.00  0.00    -0.014 A 
ATOM     63  C   UNL A   1      41.495  27.752  30.318  1.00  0.00     0.009 A 
ATOM     64  C   UNL A   1      42.415  28.003  28.096  1.00  0.00     0.009 A 
ATOM     65  C   UNL A   1      42.768  27.948  30.860  1.00  0.00     0.001 A 
ATOM     66  C   UNL A   1      43.690  28.166  28.640  1.00  0.00     0.001 A 
ATOM     67  C   UNL A   1      43.865  28.147  30.022  1.00  0.00     0.000 A 
ENDBRANCH  43  62
BRANCH  55  68
ATOM     68  C   UNL A   1      38.144  22.377  25.903  1.00  0.00    -0.014 A 
ATOM     69  C   UNL A   1      37.418  21.551  25.031  1.00  0.00     0.009 A 
ATOM     70  C   UNL A   1      39.340  21.895  26.459  1.00  0.00     0.009 A 
ATOM     71  C   UNL A   1      37.860  20.257  24.752  1.00  0.00     0.001 A 
ATOM     72  C   UNL A   1      39.794  20.611  26.157  1.00  0.00     0.001 A 
ATOM     73  C   UNL A   1      39.050  19.790  25.311  1.00  0.00     0.000 A 
ENDBRANCH  55  68
ENDBRANCH  29  30
ENDBRANCH  22  24
ENDBRANCH  21  22
ENDBRANCH  20  21
ENDBRANCH   1  20
TORSDOF 13
ENDMDL
MODEL 3
REMARK VINA RESULT:     -10.0      3.273      6.703
REMARK SMILES CC(C)(C)C(=O)Nc1ccc(C(=O)OCCOC(=O)c2ccc(-c3c4nc(c(-c5ccccc5)c5ccc([nH]5)c(-c5ccccc5)c5nc(c(-c6ccccc6)c6ccc3[nH]6)C=C5)C=C4)cc2)cc1Br
REMARK SMILES IDX 15 1 14 2 12 3 13 4 11 5 8 6 9 7 69 8 10 9 68 10 70 11 7 12
REMARK SMILES IDX 5 13 6 14 2 16 1 17 3 18 4 19 16 20 17 21 18 22 19 23 20 24
REMARK SMILES IDX 21 25 67 26 22 27 66 28 23 29 24 30 25 31 60 32 26 33 65 34
REMARK SMILES IDX 59 35 61 36 27 37 64 38 58 39 57 40 28 42 50 43 35 44 49 45
REMARK SMILES IDX 36 46 39 47 48 48 62 49 37 50 38 51 47 53 63 54 40 55 29 56
REMARK SMILES IDX 30 57 34 58 31 59 33 60 32 61 51 62 52 63 56 64 53 65 55 66
REMARK SMILES IDX 54 67 41 68 42 69 46 70 43 71 45 72 44 73
REMARK H PARENT 7 15 61 41 39 52
REMARK Flexibility Score: inf
ROOT
ATOM      1  C   UNL A   1      31.400  29.332  25.316  1.00  0.00     0.275 C 
ENDROOT
BRANCH   1   2
ATOM      2  O   UNL A   1      32.281  28.423  26.001  1.00  0.00    -0.458 OA
BRANCH   2   3
ATOM      3  C   UNL A   1      33.140  27.742  25.210  1.00  0.00     0.338 C 
ATOM      4  O   UNL A   1      33.887  28.222  24.370  1.00  0.00    -0.246 OA
BRANCH   3   5
ATOM      5  C   UNL A   1      33.125  26.289  25.515  1.00  0.00     0.061 A 
ATOM      6  C   UNL A   1      33.146  23.518  25.723  1.00  0.00     0.055 A 
ATOM      7  C   UNL A   1      34.324  24.183  25.399  1.00  0.00     0.028 A 
ATOM      8  C   UNL A   1      32.018  24.238  26.140  1.00  0.00     0.042 A 
ATOM      9  C   UNL A   1      34.301  25.564  25.256  1.00  0.00     0.018 A 
ATOM     10  C   UNL A   1      32.001  25.630  26.023  1.00  0.00     0.033 A 
ATOM     11  Br  UNL A   1      30.459  23.368  26.782  1.00  0.00    -0.049 Br
BRANCH   6  12
ATOM     12  N   UNL A   1      33.112  22.141  25.511  1.00  0.00    -0.325 N 
ATOM     13  C   UNL A   1      32.905  21.488  24.322  1.00  0.00     0.229 C 
ATOM     14  O   UNL A   1      33.141  20.274  24.325  1.00  0.00    -0.274 OA
ATOM     15  H   UNL A   1      33.250  21.572  26.304  1.00  0.00     0.169 HD
BRANCH  13  16
ATOM     16  C   UNL A   1      32.407  22.207  23.027  1.00  0.00     0.041 C 
ATOM     17  C   UNL A   1      31.982  21.111  22.022  1.00  0.00     0.021 C 
ATOM     18  C   UNL A   1      33.507  23.025  22.337  1.00  0.00     0.021 C 
ATOM     19  C   UNL A   1      31.171  23.085  23.268  1.00  0.00     0.021 C 
ENDBRANCH  13  16
ENDBRANCH   6  12
ENDBRANCH   3   5
ENDBRANCH   2   3
ENDBRANCH   1   2
BRANCH   1  20
ATOM     20  C   UNL A   1      31.594  30.758  25.836  1.00  0.00     0.275 C 
BRANCH  20  21
ATOM     21  O   UNL A   1      32.360  30.765  27.059  1.00  0.00    -0.458 OA
BRANCH  21  22
ATOM     22  C   UNL A   1      33.081  31.888  27.283  1.00  0.00     0.338 C 
ATOM     23  O   UNL A   1      32.706  33.045  27.193  1.00  0.00    -0.246 OA
BRANCH  22  24
ATOM     24  C   UNL A   1      34.414  31.533  27.790  1.00  0.00     0.060 A 
ATOM     25  C   UNL A   1      34.657  30.199  28.100  1.00  0.00     0.016 A 
ATOM     26  C   UNL A   1      35.359  32.506  28.108  1.00  0.00     0.016 A 
ATOM     27  C   UNL A   1      35.807  29.824  28.782  1.00  0.00     0.010 A 
ATOM     28  C   UNL A   1      36.553  32.120  28.735  1.00  0.00     0.010 A 
ATOM     29  C   UNL A   1      36.776  30.779  29.104  1.00  0.00    -0.014 A 
BRANCH  29  30
ATOM     30  C   UNL A   1      37.986  30.368  29.868  1.00  0.00     0.031 A 
ATOM     31  C   UNL A   1      39.062  29.551  29.204  1.00  0.00     0.074 A 
ATOM     32  C   UNL A   1      38.148  30.758  31.148  1.00  0.00     0.049 A 
ATOM     33  N   UNL A   1      40.126  28.998  29.731  1.00  0.00    -0.248 NA
ATOM     34  C   UNL A   1      38.918  29.315  27.758  1.00  0.00     0.031 C 
ATOM     35  C   UNL A   1      37.218  31.599  31.905  1.00  0.00     0.029 A 
ATOM     36  N   UNL A   1      39.163  30.506  32.039  1.00  0.00    -0.354 N 
ATOM     37  C   UNL A   1      40.745  28.305  28.697  1.00  0.00     0.074 A 
ATOM     38  C   UNL A   1      39.936  28.503  27.514  1.00  0.00     0.031 C 
ATOM     39  C   UNL A   1      37.719  31.819  33.130  1.00  0.00     0.029 A 
ATOM     40  C   UNL A   1      38.963  31.072  33.275  1.00  0.00     0.049 A 
ATOM     41  H   UNL A   1      39.959  29.972  31.813  1.00  0.00     0.167 HD
ATOM     42  C   UNL A   1      41.880  27.566  28.732  1.00  0.00     0.031 A 
ATOM     43  C   UNL A   1      39.674  30.971  34.415  1.00  0.00     0.031 A 
ATOM     44  C   UNL A   1      42.706  27.398  29.899  1.00  0.00     0.049 A 
ATOM     45  C   UNL A   1      40.908  30.116  34.438  1.00  0.00     0.074 A 
ATOM     46  C   UNL A   1      43.886  26.685  30.025  1.00  0.00     0.029 A 
ATOM     47  N   UNL A   1      42.444  27.958  31.140  1.00  0.00    -0.354 N 
ATOM     48  N   UNL A   1      41.460  29.436  33.462  1.00  0.00    -0.248 NA
ATOM     49  C   UNL A   1      41.610  30.004  35.724  1.00  0.00     0.031 C 
ATOM     50  C   UNL A   1      44.312  26.773  31.355  1.00  0.00     0.029 A 
ATOM     51  C   UNL A   1      43.427  27.587  32.042  1.00  0.00     0.049 A 
ATOM     52  H   UNL A   1      41.673  28.533  31.348  1.00  0.00     0.167 HD
ATOM     53  C   UNL A   1      42.579  28.827  34.013  1.00  0.00     0.074 A 
ATOM     54  C   UNL A   1      42.641  29.236  35.401  1.00  0.00     0.031 C 
ATOM     55  C   UNL A   1      43.472  27.995  33.423  1.00  0.00     0.031 A 
BRANCH  42  56
ATOM     56  C   UNL A   1      42.270  26.837  27.476  1.00  0.00    -0.014 A 
ATOM     57  C   UNL A   1      43.105  27.419  26.510  1.00  0.00     0.009 A 
ATOM     58  C   UNL A   1      41.811  25.525  27.273  1.00  0.00     0.009 A 
ATOM     59  C   UNL A   1      43.442  26.717  25.351  1.00  0.00     0.001 A 
ATOM     60  C   UNL A   1      42.172  24.814  26.127  1.00  0.00     0.001 A 
ATOM     61  C   UNL A   1      42.979  25.414  25.162  1.00  0.00     0.000 A 
ENDBRANCH  42  56
BRANCH  43  62
ATOM     62  C   UNL A   1      39.202  31.659  35.645  1.00  0.00    -0.014 A 
ATOM     63  C   UNL A   1      38.220  31.077  36.461  1.00  0.00     0.009 A 
ATOM     64  C   UNL A   1      39.739  32.903  36.011  1.00  0.00     0.009 A 
ATOM     65  C   UNL A   1      37.775  31.737  37.609  1.00  0.00     0.001 A 
ATOM     66  C   UNL A   1      39.315  33.545  37.176  1.00  0.00     0.001 A 
ATOM     67  C   UNL A   1      38.328  32.966  37.970  1.00  0.00     0.000 A 
ENDBRANCH  43  62
BRANCH  55  68
ATOM     68  C   UNL A   1      44.607  27.499  34.271  1.00  0.00    -0.014 A 
ATOM     69  C   UNL A   1      44.511  26.292  34.982  1.00  0.00     0.009 A 
ATOM     70  C   UNL A   1      45.799  28.237  34.342  1.00  0.00     0.009 A 
ATOM     71  C   UNL A   1      45.573  25.854  35.775  1.00  0.00     0.001 A 
ATOM     72  C   UNL A   1      46.869  27.783  35.113  1.00  0.00     0.001 A 
ATOM     73  C   UNL A   1      46.753  26.597  35.836  1.00  0.00     0.000 A 
ENDBRANCH  55  68
ENDBRANCH  29  30
ENDBRANCH  22  24
ENDBRANCH  21  22
ENDBRANCH  20  21
ENDBRANCH   1  20
TORSDOF 13
ENDMDL
