MODEL 1
REMARK VINA RESULT:     -11.0      0.000      0.000
REMARK SMILES O=C(OCCOC(=O)[C@@H](Cc1ccccc1)Nc1ccc(Cl)c(Br)c1)c1ccc(-c2c3nc(c(-c4ccccc4)c4ccc([nH]4)c(-c4ccccc4)c4nc(c(-c5ccccc5)c5ccc2[nH]5)C=C4)C=C3)cc1
REMARK SMILES IDX 4 1 3 2 2 3 1 4 26 5 27 6 73 7 28 8 72 9 29 10 30 11 31 12
REMARK SMILES IDX 66 13 32 14 71 15 65 16 67 17 33 18 70 19 64 20 63 21 34 23
REMARK SMILES IDX 56 24 41 25 55 26 42 27 45 28 54 29 68 30 43 31 44 32 53 34
REMARK SMILES IDX 69 35 46 36 35 37 36 38 40 39 37 40 39 41 38 42 57 43 58 44
REMARK SMILES IDX 62 45 59 46 61 47 60 48 47 49 48 50 52 51 49 52 51 53 50 54
REMARK SMILES IDX 5 55 6 56 7 57 8 58 9 59 10 60 11 61 12 62 16 63 13 64 15 65
REMARK SMILES IDX 14 66 17 67 18 69 19 70 25 71 20 72 23 73 21 74 24 75 22 76
REMARK H PARENT 67 22 45 33 17 68
REMARK Flexibility Score: inf
ROOT
ATOM      1  C   UNL A   1      38.263  22.714  25.724  1.00  0.00     0.275 C 
ENDROOT
BRANCH   1   2
ATOM      2  O   UNL A   1      39.432  21.914  25.854  1.00  0.00    -0.458 OA
BRANCH   2   3
ATOM      3  C   UNL A   1      40.660  22.427  25.996  1.00  0.00     0.338 C 
ATOM      4  O   UNL A   1      41.651  21.750  25.734  1.00  0.00    -0.246 OA
BRANCH   3   5
ATOM      5  C   UNL A   1      40.917  23.776  26.570  1.00  0.00     0.060 A 
ATOM      6  C   UNL A   1      41.758  25.228  25.820  1.00  0.00     0.016 A 
ATOM      7  C   UNL A   1      39.876  24.021  28.048  1.00  0.00     0.016 A 
ATOM      8  C   UNL A   1      41.354  26.914  26.416  1.00  0.00     0.010 A 
ATOM      9  C   UNL A   1      39.610  25.652  28.702  1.00  0.00     0.010 A 
ATOM     10  C   UNL A   1      40.354  27.100  27.960  1.00  0.00    -0.014 A 
BRANCH  10  11
ATOM     11  C   UNL A   1      40.479  28.329  28.798  1.00  0.00     0.031 A 
ATOM     12  C   UNL A   1      39.346  29.342  28.873  1.00  0.00     0.074 A 
ATOM     13  C   UNL A   1      41.447  28.289  29.724  1.00  0.00     0.049 A 
ATOM     14  N   UNL A   1      39.193  30.327  29.725  1.00  0.00    -0.248 NA
ATOM     15  C   UNL A   1      38.216  29.234  27.931  1.00  0.00     0.031 C 
ATOM     16  C   UNL A   1      42.497  27.279  29.757  1.00  0.00     0.029 A 
ATOM     17  N   UNL A   1      41.657  29.018  30.856  1.00  0.00    -0.354 N 
ATOM     18  C   UNL A   1      37.983  30.938  29.398  1.00  0.00     0.074 A 
ATOM     19  C   UNL A   1      37.412  30.216  28.300  1.00  0.00     0.031 C 
ATOM     20  C   UNL A   1      43.139  27.337  30.925  1.00  0.00     0.029 A 
ATOM     21  C   UNL A   1      42.694  28.535  31.615  1.00  0.00     0.049 A 
ATOM     22  H   UNL A   1      41.121  29.807  31.103  1.00  0.00     0.167 HD
ATOM     23  C   UNL A   1      37.413  32.030  29.954  1.00  0.00     0.031 A 
ATOM     24  C   UNL A   1      43.296  29.064  32.692  1.00  0.00     0.031 A 
ATOM     25  C   UNL A   1      38.027  32.743  31.033  1.00  0.00     0.049 A 
ATOM     26  C   UNL A   1      42.753  30.374  33.169  1.00  0.00     0.074 A 
ATOM     27  C   UNL A   1      37.631  33.925  31.626  1.00  0.00     0.029 A 
ATOM     28  N   UNL A   1      39.197  32.338  31.659  1.00  0.00    -0.354 N 
ATOM     29  N   UNL A   1      41.652  30.987  32.799  1.00  0.00    -0.248 NA
ATOM     30  C   UNL A   1      43.556  31.099  34.153  1.00  0.00     0.031 C 
ATOM     31  C   UNL A   1      38.620  34.285  32.544  1.00  0.00     0.029 A 
ATOM     32  C   UNL A   1      39.580  33.282  32.586  1.00  0.00     0.049 A 
ATOM     33  H   UNL A   1      39.679  31.501  31.470  1.00  0.00     0.167 HD
ATOM     34  C   UNL A   1      41.643  32.190  33.481  1.00  0.00     0.074 A 
ATOM     35  C   UNL A   1      42.821  32.188  34.331  1.00  0.00     0.031 C 
ATOM     36  C   UNL A   1      40.766  33.219  33.399  1.00  0.00     0.031 A 
BRANCH  23  37
ATOM     37  C   UNL A   1      36.175  32.598  29.313  1.00  0.00    -0.014 A 
ATOM     38  C   UNL A   1      34.878  32.191  29.661  1.00  0.00     0.009 A 
ATOM     39  C   UNL A   1      36.328  33.605  28.344  1.00  0.00     0.009 A 
ATOM     40  C   UNL A   1      33.765  32.784  29.050  1.00  0.00     0.001 A 
ATOM     41  C   UNL A   1      35.217  34.209  27.753  1.00  0.00     0.001 A 
ATOM     42  C   UNL A   1      33.935  33.797  28.105  1.00  0.00     0.000 A 
ENDBRANCH  23  37
BRANCH  24  43
ATOM     43  C   UNL A   1      44.575  28.481  33.186  1.00  0.00    -0.014 A 
ATOM     44  C   UNL A   1      44.624  27.556  34.233  1.00  0.00     0.009 A 
ATOM     45  C   UNL A   1      45.788  28.868  32.577  1.00  0.00     0.009 A 
ATOM     46  C   UNL A   1      45.855  27.037  34.658  1.00  0.00     0.001 A 
ATOM     47  C   UNL A   1      47.004  28.309  32.962  1.00  0.00     0.001 A 
ATOM     48  C   UNL A   1      47.038  27.403  34.014  1.00  0.00     0.000 A 
ENDBRANCH  24  43
BRANCH  36  49
ATOM     49  C   UNL A   1      41.052  34.397  34.271  1.00  0.00    -0.014 A 
ATOM     50  C   UNL A   1      41.900  35.425  33.838  1.00  0.00     0.009 A 
ATOM     51  C   UNL A   1      40.421  34.493  35.520  1.00  0.00     0.009 A 
ATOM     52  C   UNL A   1      42.143  36.519  34.665  1.00  0.00     0.001 A 
ATOM     53  C   UNL A   1      40.635  35.606  36.325  1.00  0.00     0.001 A 
ATOM     54  C   UNL A   1      41.505  36.611  35.902  1.00  0.00     0.000 A 
ENDBRANCH  36  49
ENDBRANCH  10  11
ENDBRANCH   3   5
ENDBRANCH   2   3
ENDBRANCH   1   2
BRANCH   1  55
ATOM     55  C   UNL A   1      37.268  22.096  24.720  1.00  0.00     0.274 C 
BRANCH  55  56
ATOM     56  O   UNL A   1      35.900  22.589  24.801  1.00  0.00    -0.461 OA
BRANCH  56  57
ATOM     57  C   UNL A   1      35.362  23.308  23.764  1.00  0.00     0.329 C 
ATOM     58  O   UNL A   1      35.699  23.152  22.599  1.00  0.00    -0.250 OA
BRANCH  57  59
ATOM     59  C   UNL A   1      34.220  24.315  24.255  1.00  0.00     0.194 C 
BRANCH  59  60
ATOM     60  C   UNL A   1      34.382  25.330  25.818  1.00  0.00     0.072 C 
BRANCH  60  61
ATOM     61  C   UNL A   1      33.696  27.265  26.474  1.00  0.00    -0.045 A 
ATOM     62  C   UNL A   1      32.198  27.758  26.672  1.00  0.00     0.004 A 
ATOM     63  C   UNL A   1      34.405  28.591  26.592  1.00  0.00     0.004 A 
ATOM     64  C   UNL A   1      31.629  29.044  26.755  1.00  0.00     0.000 A 
ATOM     65  C   UNL A   1      33.814  29.902  26.667  1.00  0.00     0.000 A 
ATOM     66  C   UNL A   1      32.448  30.128  26.700  1.00  0.00     0.000 A 
ENDBRANCH  60  61
ENDBRANCH  59  60
BRANCH  59  67
ATOM     67  N   UNL A   1      33.727  25.095  23.086  1.00  0.00    -0.372 N 
ATOM     68  H   UNL A   1      34.106  24.853  22.211  1.00  0.00     0.161 HD
BRANCH  67  69
ATOM     69  C   UNL A   1      32.800  26.118  23.084  1.00  0.00     0.036 A 
ATOM     70  C   UNL A   1      33.258  27.427  22.872  1.00  0.00     0.027 A 
ATOM     71  C   UNL A   1      31.436  25.953  23.356  1.00  0.00     0.043 A 
ATOM     72  C   UNL A   1      32.395  28.529  22.910  1.00  0.00     0.024 A 
ATOM     73  C   UNL A   1      30.564  27.055  23.419  1.00  0.00     0.038 A 
ATOM     74  C   UNL A   1      31.044  28.346  23.184  1.00  0.00     0.055 A 
ATOM     75  Br  UNL A   1      28.751  26.715  23.878  1.00  0.00    -0.049 Br
ATOM     76  Cl  UNL A   1      30.038  29.749  23.221  1.00  0.00    -0.083 Cl
ENDBRANCH  67  69
ENDBRANCH  59  67
ENDBRANCH  57  59
ENDBRANCH  56  57
ENDBRANCH  55  56
ENDBRANCH   1  55
TORSDOF 15
ENDMDL
MODEL 2
REMARK VINA RESULT:     -10.9      3.368      8.373
REMARK SMILES O=C(OCCOC(=O)[C@@H](Cc1ccccc1)Nc1ccc(Cl)c(Br)c1)c1ccc(-c2c3nc(c(-c4ccccc4)c4ccc([nH]4)c(-c4ccccc4)c4nc(c(-c5ccccc5)c5ccc2[nH]5)C=C4)C=C3)cc1
REMARK SMILES IDX 4 1 3 2 2 3 1 4 26 5 27 6 73 7 28 8 72 9 29 10 30 11 31 12
REMARK SMILES IDX 66 13 32 14 71 15 65 16 67 17 33 18 70 19 64 20 63 21 34 23
REMARK SMILES IDX 56 24 41 25 55 26 42 27 45 28 54 29 68 30 43 31 44 32 53 34
REMARK SMILES IDX 69 35 46 36 35 37 36 38 40 39 37 40 39 41 38 42 57 43 58 44
REMARK SMILES IDX 62 45 59 46 61 47 60 48 47 49 48 50 52 51 49 52 51 53 50 54
REMARK SMILES IDX 5 55 6 56 7 57 8 58 9 59 10 60 11 61 12 62 16 63 13 64 15 65
REMARK SMILES IDX 14 66 17 67 18 69 19 70 25 71 20 72 23 73 21 74 24 75 22 76
REMARK H PARENT 67 22 45 33 17 68
REMARK Flexibility Score: inf
ROOT
ATOM      1  C   UNL A   1      33.108  30.113  27.407  1.00  0.00     0.275 C 
ENDROOT
BRANCH   1   2
ATOM      2  O   UNL A   1      33.832  31.327  27.553  1.00  0.00    -0.458 OA
BRANCH   2   3
ATOM      3  C   UNL A   1      34.469  31.671  28.678  1.00  0.00     0.338 C 
ATOM      4  O   UNL A   1      34.051  32.595  29.372  1.00  0.00    -0.246 OA
BRANCH   3   5
ATOM      5  C   UNL A   1      35.755  31.056  29.106  1.00  0.00     0.060 A 
ATOM      6  C   UNL A   1      36.198  30.253  30.698  1.00  0.00     0.016 A 
ATOM      7  C   UNL A   1      36.814  30.773  27.647  1.00  0.00     0.016 A 
ATOM      8  C   UNL A   1      37.542  29.006  30.740  1.00  0.00     0.010 A 
ATOM      9  C   UNL A   1      38.204  29.671  27.743  1.00  0.00     0.010 A 
ATOM     10  C   UNL A   1      38.627  28.815  29.256  1.00  0.00    -0.014 A 
BRANCH  10  11
ATOM     11  C   UNL A   1      40.022  28.300  29.400  1.00  0.00     0.031 A 
ATOM     12  C   UNL A   1      40.404  26.923  28.875  1.00  0.00     0.074 A 
ATOM     13  C   UNL A   1      40.947  29.232  29.667  1.00  0.00     0.049 A 
ATOM     14  N   UNL A   1      41.605  26.426  28.704  1.00  0.00    -0.248 NA
ATOM     15  C   UNL A   1      39.344  25.997  28.434  1.00  0.00     0.031 C 
ATOM     16  C   UNL A   1      40.632  30.595  30.075  1.00  0.00     0.029 A 
ATOM     17  N   UNL A   1      42.304  29.232  29.537  1.00  0.00    -0.354 N 
ATOM     18  C   UNL A   1      41.423  25.151  28.167  1.00  0.00     0.074 A 
ATOM     19  C   UNL A   1      40.015  24.943  28.003  1.00  0.00     0.031 C 
ATOM     20  C   UNL A   1      41.729  31.349  30.004  1.00  0.00     0.029 A 
ATOM     21  C   UNL A   1      42.859  30.467  29.770  1.00  0.00     0.049 A 
ATOM     22  H   UNL A   1      42.829  28.434  29.300  1.00  0.00     0.167 HD
ATOM     23  C   UNL A   1      42.358  24.223  27.864  1.00  0.00     0.031 A 
ATOM     24  C   UNL A   1      44.147  30.825  29.896  1.00  0.00     0.031 A 
ATOM     25  C   UNL A   1      43.756  24.456  28.068  1.00  0.00     0.049 A 
ATOM     26  C   UNL A   1      45.151  29.727  29.736  1.00  0.00     0.074 A 
ATOM     27  C   UNL A   1      44.811  23.579  27.915  1.00  0.00     0.029 A 
ATOM     28  N   UNL A   1      44.282  25.664  28.501  1.00  0.00    -0.354 N 
ATOM     29  N   UNL A   1      44.961  28.500  29.307  1.00  0.00    -0.248 NA
ATOM     30  C   UNL A   1      46.524  30.029  30.139  1.00  0.00     0.031 C 
ATOM     31  C   UNL A   1      45.965  24.231  28.354  1.00  0.00     0.029 A 
ATOM     32  C   UNL A   1      45.641  25.539  28.692  1.00  0.00     0.049 A 
ATOM     33  H   UNL A   1      43.762  26.487  28.649  1.00  0.00     0.167 HD
ATOM     34  C   UNL A   1      46.186  27.869  29.417  1.00  0.00     0.074 A 
ATOM     35  C   UNL A   1      47.122  28.871  29.898  1.00  0.00     0.031 C 
ATOM     36  C   UNL A   1      46.514  26.578  29.174  1.00  0.00     0.031 A 
BRANCH  23  37
ATOM     37  C   UNL A   1      41.898  22.851  27.449  1.00  0.00    -0.014 A 
ATOM     38  C   UNL A   1      41.547  21.852  28.369  1.00  0.00     0.009 A 
ATOM     39  C   UNL A   1      41.788  22.571  26.076  1.00  0.00     0.009 A 
ATOM     40  C   UNL A   1      41.094  20.605  27.918  1.00  0.00     0.001 A 
ATOM     41  C   UNL A   1      41.316  21.336  25.630  1.00  0.00     0.001 A 
ATOM     42  C   UNL A   1      40.971  20.352  26.551  1.00  0.00     0.000 A 
ENDBRANCH  23  37
BRANCH  24  43
ATOM     43  C   UNL A   1      44.491  32.179  30.412  1.00  0.00    -0.014 A 
ATOM     44  C   UNL A   1      44.815  33.245  29.567  1.00  0.00     0.009 A 
ATOM     45  C   UNL A   1      44.489  32.406  31.805  1.00  0.00     0.009 A 
ATOM     46  C   UNL A   1      45.131  34.500  30.105  1.00  0.00     0.001 A 
ATOM     47  C   UNL A   1      44.746  33.667  32.335  1.00  0.00     0.001 A 
ATOM     48  C   UNL A   1      45.082  34.711  31.485  1.00  0.00     0.000 A 
ENDBRANCH  24  43
BRANCH  36  49
ATOM     49  C   UNL A   1      47.941  26.206  29.407  1.00  0.00    -0.014 A 
ATOM     50  C   UNL A   1      48.393  25.842  30.682  1.00  0.00     0.009 A 
ATOM     51  C   UNL A   1      48.826  26.175  28.319  1.00  0.00     0.009 A 
ATOM     52  C   UNL A   1      49.727  25.490  30.873  1.00  0.00     0.001 A 
ATOM     53  C   UNL A   1      50.147  25.784  28.506  1.00  0.00     0.001 A 
ATOM     54  C   UNL A   1      50.599  25.454  29.784  1.00  0.00     0.000 A 
ENDBRANCH  36  49
ENDBRANCH  10  11
ENDBRANCH   3   5
ENDBRANCH   2   3
ENDBRANCH   1   2
BRANCH   1  55
ATOM     55  C   UNL A   1      32.985  29.705  25.924  1.00  0.00     0.274 C 
BRANCH  55  56
ATOM     56  O   UNL A   1      33.870  28.634  25.486  1.00  0.00    -0.461 OA
BRANCH  56  57
ATOM     57  C   UNL A   1      33.478  27.325  25.599  1.00  0.00     0.329 C 
ATOM     58  O   UNL A   1      33.294  26.774  26.675  1.00  0.00    -0.250 OA
BRANCH  57  59
ATOM     59  C   UNL A   1      33.242  26.640  24.173  1.00  0.00     0.194 C 
BRANCH  59  60
ATOM     60  C   UNL A   1      34.189  25.124  23.619  1.00  0.00     0.072 C 
BRANCH  60  61
ATOM     61  C   UNL A   1      35.408  23.633  24.587  1.00  0.00    -0.045 A 
ATOM     62  C   UNL A   1      36.762  23.846  25.392  1.00  0.00     0.004 A 
ATOM     63  C   UNL A   1      35.428  22.129  24.475  1.00  0.00     0.004 A 
ATOM     64  C   UNL A   1      37.795  22.960  25.757  1.00  0.00     0.000 A 
ATOM     65  C   UNL A   1      36.493  21.232  24.843  1.00  0.00     0.000 A 
ATOM     66  C   UNL A   1      37.676  21.646  25.432  1.00  0.00     0.000 A 
ENDBRANCH  60  61
ENDBRANCH  59  60
BRANCH  59  67
ATOM     67  N   UNL A   1      31.778  26.554  23.913  1.00  0.00    -0.372 N 
ATOM     68  H   UNL A   1      31.338  25.715  24.179  1.00  0.00     0.161 HD
BRANCH  67  69
ATOM     69  C   UNL A   1      30.963  27.514  23.346  1.00  0.00     0.036 A 
ATOM     70  C   UNL A   1      31.570  28.564  22.640  1.00  0.00     0.027 A 
ATOM     71  C   UNL A   1      29.571  27.557  23.488  1.00  0.00     0.043 A 
ATOM     72  C   UNL A   1      30.824  29.609  22.081  1.00  0.00     0.024 A 
ATOM     73  C   UNL A   1      28.814  28.614  22.951  1.00  0.00     0.038 A 
ATOM     74  C   UNL A   1      29.441  29.637  22.235  1.00  0.00     0.055 A 
ATOM     75  Br  UNL A   1      26.941  28.608  23.279  1.00  0.00    -0.049 Br
ATOM     76  Cl  UNL A   1      28.584  30.957  21.525  1.00  0.00    -0.083 Cl
ENDBRANCH  67  69
ENDBRANCH  59  67
ENDBRANCH  57  59
ENDBRANCH  56  57
ENDBRANCH  55  56
ENDBRANCH   1  55
TORSDOF 15
ENDMDL
MODEL 3
REMARK VINA RESULT:     -10.7      6.515      8.647
REMARK SMILES O=C(OCCOC(=O)[C@@H](Cc1ccccc1)Nc1ccc(Cl)c(Br)c1)c1ccc(-c2c3nc(c(-c4ccccc4)c4ccc([nH]4)c(-c4ccccc4)c4nc(c(-c5ccccc5)c5ccc2[nH]5)C=C4)C=C3)cc1
REMARK SMILES IDX 4 1 3 2 2 3 1 4 26 5 27 6 73 7 28 8 72 9 29 10 30 11 31 12
REMARK SMILES IDX 66 13 32 14 71 15 65 16 67 17 33 18 70 19 64 20 63 21 34 23
REMARK SMILES IDX 56 24 41 25 55 26 42 27 45 28 54 29 68 30 43 31 44 32 53 34
REMARK SMILES IDX 69 35 46 36 35 37 36 38 40 39 37 40 39 41 38 42 57 43 58 44
REMARK SMILES IDX 62 45 59 46 61 47 60 48 47 49 48 50 52 51 49 52 51 53 50 54
REMARK SMILES IDX 5 55 6 56 7 57 8 58 9 59 10 60 11 61 12 62 16 63 13 64 15 65
REMARK SMILES IDX 14 66 17 67 18 69 19 70 25 71 20 72 23 73 21 74 24 75 22 76
REMARK H PARENT 67 22 45 33 17 68
REMARK Flexibility Score: inf
ROOT
ATOM      1  C   UNL A   1      38.616  23.131  26.200  1.00  0.00     0.275 C 
ENDROOT
BRANCH   1   2
ATOM      2  O   UNL A   1      39.425  24.065  26.902  1.00  0.00    -0.458 OA
BRANCH   2   3
ATOM      3  C   UNL A   1      40.715  23.852  27.185  1.00  0.00     0.338 C 
ATOM      4  O   UNL A   1      41.105  22.734  27.512  1.00  0.00    -0.246 OA
BRANCH   3   5
ATOM      5  C   UNL A   1      41.727  24.943  27.235  1.00  0.00     0.060 A 
ATOM      6  C   UNL A   1      42.704  25.572  28.659  1.00  0.00     0.016 A 
ATOM      7  C   UNL A   1      42.265  25.358  25.541  1.00  0.00     0.016 A 
ATOM      8  C   UNL A   1      44.314  26.396  28.358  1.00  0.00     0.010 A 
ATOM      9  C   UNL A   1      43.756  26.285  25.271  1.00  0.00     0.010 A 
ATOM     10  C   UNL A   1      44.772  26.856  26.628  1.00  0.00    -0.014 A 
BRANCH  10  11
ATOM     11  C   UNL A   1      45.711  27.988  26.370  1.00  0.00     0.031 A 
ATOM     12  C   UNL A   1      45.279  29.429  26.602  1.00  0.00     0.074 A 
ATOM     13  C   UNL A   1      47.005  27.647  26.289  1.00  0.00     0.049 A 
ATOM     14  N   UNL A   1      46.031  30.502  26.658  1.00  0.00    -0.248 NA
ATOM     15  C   UNL A   1      43.856  29.726  26.855  1.00  0.00     0.031 C 
ATOM     16  C   UNL A   1      47.475  26.273  26.168  1.00  0.00     0.029 A 
ATOM     17  N   UNL A   1      48.149  28.378  26.405  1.00  0.00    -0.354 N 
ATOM     18  C   UNL A   1      45.169  31.565  26.927  1.00  0.00     0.074 A 
ATOM     19  C   UNL A   1      43.845  31.032  27.058  1.00  0.00     0.031 C 
ATOM     20  C   UNL A   1      48.791  26.230  26.381  1.00  0.00     0.029 A 
ATOM     21  C   UNL A   1      49.279  27.597  26.421  1.00  0.00     0.049 A 
ATOM     22  H   UNL A   1      48.164  29.361  26.470  1.00  0.00     0.167 HD
ATOM     23  C   UNL A   1      45.460  32.881  27.028  1.00  0.00     0.031 A 
ATOM     24  C   UNL A   1      50.573  27.949  26.359  1.00  0.00     0.031 A 
ATOM     25  C   UNL A   1      46.791  33.381  26.863  1.00  0.00     0.049 A 
ATOM     26  C   UNL A   1      50.850  29.418  26.284  1.00  0.00     0.074 A 
ATOM     27  C   UNL A   1      47.226  34.691  26.825  1.00  0.00     0.029 A 
ATOM     28  N   UNL A   1      47.902  32.571  26.679  1.00  0.00    -0.354 N 
ATOM     29  N   UNL A   1      50.016  30.417  26.458  1.00  0.00    -0.248 NA
ATOM     30  C   UNL A   1      52.215  29.812  25.938  1.00  0.00     0.031 C 
ATOM     31  C   UNL A   1      48.588  34.672  26.517  1.00  0.00     0.029 A 
ATOM     32  C   UNL A   1      49.016  33.351  26.455  1.00  0.00     0.049 A 
ATOM     33  H   UNL A   1      47.896  31.587  26.705  1.00  0.00     0.167 HD
ATOM     34  C   UNL A   1      50.748  31.564  26.211  1.00  0.00     0.074 A 
ATOM     35  C   UNL A   1      52.107  31.133  25.935  1.00  0.00     0.031 C 
ATOM     36  C   UNL A   1      50.340  32.856  26.185  1.00  0.00     0.031 A 
BRANCH  23  37
ATOM     37  C   UNL A   1      44.323  33.859  27.161  1.00  0.00    -0.014 A 
ATOM     38  C   UNL A   1      43.803  34.262  28.400  1.00  0.00     0.009 A 
ATOM     39  C   UNL A   1      43.781  34.415  25.990  1.00  0.00     0.009 A 
ATOM     40  C   UNL A   1      42.766  35.203  28.458  1.00  0.00     0.001 A 
ATOM     41  C   UNL A   1      42.762  35.368  26.051  1.00  0.00     0.001 A 
ATOM     42  C   UNL A   1      42.254  35.760  27.285  1.00  0.00     0.000 A 
ENDBRANCH  23  37
BRANCH  24  43
ATOM     43  C   UNL A   1      51.612  26.908  26.124  1.00  0.00    -0.014 A 
ATOM     44  C   UNL A   1      51.880  26.387  24.854  1.00  0.00     0.009 A 
ATOM     45  C   UNL A   1      52.363  26.427  27.217  1.00  0.00     0.009 A 
ATOM     46  C   UNL A   1      52.870  25.409  24.689  1.00  0.00     0.001 A 
ATOM     47  C   UNL A   1      53.385  25.497  27.043  1.00  0.00     0.001 A 
ATOM     48  C   UNL A   1      53.628  24.977  25.779  1.00  0.00     0.000 A 
ENDBRANCH  24  43
BRANCH  36  49
ATOM     49  C   UNL A   1      51.389  33.871  25.869  1.00  0.00    -0.014 A 
ATOM     50  C   UNL A   1      51.598  34.307  24.554  1.00  0.00     0.009 A 
ATOM     51  C   UNL A   1      52.140  34.426  26.915  1.00  0.00     0.009 A 
ATOM     52  C   UNL A   1      52.575  35.262  24.285  1.00  0.00     0.001 A 
ATOM     53  C   UNL A   1      53.088  35.408  26.647  1.00  0.00     0.001 A 
ATOM     54  C   UNL A   1      53.313  35.815  25.332  1.00  0.00     0.000 A 
ENDBRANCH  36  49
ENDBRANCH  10  11
ENDBRANCH   3   5
ENDBRANCH   2   3
ENDBRANCH   1   2
BRANCH   1  55
ATOM     55  C   UNL A   1      37.302  23.776  25.715  1.00  0.00     0.274 C 
BRANCH  55  56
ATOM     56  O   UNL A   1      36.325  22.864  25.134  1.00  0.00    -0.461 OA
BRANCH  56  57
ATOM     57  C   UNL A   1      35.777  23.131  23.905  1.00  0.00     0.329 C 
ATOM     58  O   UNL A   1      36.436  23.182  22.877  1.00  0.00    -0.250 OA
BRANCH  57  59
ATOM     59  C   UNL A   1      34.188  23.307  23.978  1.00  0.00     0.194 C 
BRANCH  59  60
ATOM     60  C   UNL A   1      33.013  21.855  23.868  1.00  0.00     0.072 C 
BRANCH  60  61
ATOM     61  C   UNL A   1      33.208  19.709  23.937  1.00  0.00    -0.045 A 
ATOM     62  C   UNL A   1      34.380  18.852  24.585  1.00  0.00     0.004 A 
ATOM     63  C   UNL A   1      32.497  18.614  23.181  1.00  0.00     0.004 A 
ATOM     64  C   UNL A   1      34.787  17.516  24.402  1.00  0.00     0.000 A 
ATOM     65  C   UNL A   1      32.926  17.253  22.992  1.00  0.00     0.000 A 
ATOM     66  C   UNL A   1      34.076  16.725  23.555  1.00  0.00     0.000 A 
ENDBRANCH  60  61
ENDBRANCH  59  60
BRANCH  59  67
ATOM     67  N   UNL A   1      33.856  24.260  25.073  1.00  0.00    -0.372 N 
ATOM     68  H   UNL A   1      34.191  24.027  25.968  1.00  0.00     0.161 HD
BRANCH  67  69
ATOM     69  C   UNL A   1      33.134  25.434  24.981  1.00  0.00     0.036 A 
ATOM     70  C   UNL A   1      32.807  25.911  23.702  1.00  0.00     0.027 A 
ATOM     71  C   UNL A   1      32.768  26.227  26.074  1.00  0.00     0.043 A 
ATOM     72  C   UNL A   1      32.128  27.121  23.515  1.00  0.00     0.024 A 
ATOM     73  C   UNL A   1      32.105  27.456  25.897  1.00  0.00     0.038 A 
ATOM     74  C   UNL A   1      31.774  27.898  24.614  1.00  0.00     0.055 A 
ATOM     75  Br  UNL A   1      31.733  28.485  27.451  1.00  0.00    -0.049 Br
ATOM     76  Cl  UNL A   1      30.942  29.381  24.310  1.00  0.00    -0.083 Cl
ENDBRANCH  67  69
ENDBRANCH  59  67
ENDBRANCH  57  59
ENDBRANCH  56  57
ENDBRANCH  55  56
ENDBRANCH   1  55
TORSDOF 15
ENDMDL
