MODEL 1
REMARK VINA RESULT:      -9.9      0.000      0.000
REMARK SMILES O=C(OCCOC(=O)c1ccc(-c2ccn(C(F)F)c(=O)c2)cc1O)c1ccc(-c2c3nc(c(-c4ccccc4)c4ccc([nH]4)c(-c4ccccc4)c4nc(c(-c5ccccc5)c5ccc2[nH]5)C=C4)C=C3)cc1
REMARK SMILES IDX 4 1 3 2 2 3 1 4 26 5 27 6 73 7 28 8 72 9 29 10 30 11 31 12
REMARK SMILES IDX 66 13 32 14 71 15 65 16 67 17 33 18 70 19 64 20 63 21 34 23
REMARK SMILES IDX 56 24 41 25 55 26 42 27 45 28 54 29 68 30 43 31 44 32 53 34
REMARK SMILES IDX 69 35 46 36 35 37 36 38 40 39 37 40 39 41 38 42 57 43 58 44
REMARK SMILES IDX 62 45 59 46 61 47 60 48 47 49 48 50 52 51 49 52 51 53 50 54
REMARK SMILES IDX 5 55 6 56 7 57 8 58 9 59 10 60 24 61 11 62 23 63 12 64 25 65
REMARK SMILES IDX 13 67 14 68 22 69 15 70 20 71 16 72 21 73 17 74 18 75 19 76
REMARK H PARENT 67 22 45 33 25 66
REMARK Flexibility Score: inf
ROOT
ATOM      1  C   UNL A   1      32.942  36.593  29.253  1.00  0.00     0.275 C 
ENDROOT
BRANCH   1   2
ATOM      2  O   UNL A   1      32.479  35.241  29.080  1.00  0.00    -0.458 OA
BRANCH   2   3
ATOM      3  C   UNL A   1      33.063  34.205  28.435  1.00  0.00     0.338 C 
ATOM      4  O   UNL A   1      32.446  33.636  27.536  1.00  0.00    -0.246 OA
BRANCH   3   5
ATOM      5  C   UNL A   1      34.362  33.603  28.863  1.00  0.00     0.060 A 
ATOM      6  C   UNL A   1      35.485  33.953  28.094  1.00  0.00     0.016 A 
ATOM      7  C   UNL A   1      34.560  32.765  29.962  1.00  0.00     0.016 A 
ATOM      8  C   UNL A   1      36.737  33.386  28.344  1.00  0.00     0.010 A 
ATOM      9  C   UNL A   1      35.817  32.199  30.221  1.00  0.00     0.010 A 
ATOM     10  C   UNL A   1      36.909  32.480  29.398  1.00  0.00    -0.014 A 
BRANCH  10  11
ATOM     11  C   UNL A   1      38.259  31.960  29.714  1.00  0.00     0.031 A 
ATOM     12  C   UNL A   1      39.248  32.744  30.524  1.00  0.00     0.074 A 
ATOM     13  C   UNL A   1      38.590  30.740  29.254  1.00  0.00     0.049 A 
ATOM     14  N   UNL A   1      40.337  32.321  31.115  1.00  0.00    -0.248 NA
ATOM     15  C   UNL A   1      38.987  34.177  30.714  1.00  0.00     0.031 C 
ATOM     16  C   UNL A   1      37.730  29.899  28.421  1.00  0.00     0.029 A 
ATOM     17  N   UNL A   1      39.728  29.996  29.425  1.00  0.00    -0.354 N 
ATOM     18  C   UNL A   1      40.840  33.408  31.814  1.00  0.00     0.074 A 
ATOM     19  C   UNL A   1      39.979  34.533  31.526  1.00  0.00     0.031 C 
ATOM     20  C   UNL A   1      38.361  28.743  28.171  1.00  0.00     0.029 A 
ATOM     21  C   UNL A   1      39.675  28.772  28.805  1.00  0.00     0.049 A 
ATOM     22  H   UNL A   1      40.506  30.308  29.940  1.00  0.00     0.167 HD
ATOM     23  C   UNL A   1      41.920  33.454  32.627  1.00  0.00     0.031 A 
ATOM     24  C   UNL A   1      40.579  27.776  28.761  1.00  0.00     0.031 A 
ATOM     25  C   UNL A   1      42.867  32.379  32.766  1.00  0.00     0.049 A 
ATOM     26  C   UNL A   1      41.852  27.913  29.543  1.00  0.00     0.074 A 
ATOM     27  C   UNL A   1      44.014  32.339  33.540  1.00  0.00     0.029 A 
ATOM     28  N   UNL A   1      42.816  31.186  32.062  1.00  0.00    -0.354 N 
ATOM     29  N   UNL A   1      42.231  28.889  30.334  1.00  0.00    -0.248 NA
ATOM     30  C   UNL A   1      42.812  26.807  29.446  1.00  0.00     0.031 C 
ATOM     31  C   UNL A   1      44.711  31.171  33.222  1.00  0.00     0.029 A 
ATOM     32  C   UNL A   1      43.951  30.438  32.324  1.00  0.00     0.049 A 
ATOM     33  H   UNL A   1      42.083  30.912  31.464  1.00  0.00     0.167 HD
ATOM     34  C   UNL A   1      43.453  28.496  30.862  1.00  0.00     0.074 A 
ATOM     35  C   UNL A   1      43.752  27.195  30.299  1.00  0.00     0.031 C 
ATOM     36  C   UNL A   1      44.246  29.151  31.746  1.00  0.00     0.031 A 
BRANCH  23  37
ATOM     37  C   UNL A   1      42.166  34.706  33.422  1.00  0.00    -0.014 A 
ATOM     38  C   UNL A   1      41.472  34.933  34.622  1.00  0.00     0.009 A 
ATOM     39  C   UNL A   1      42.973  35.730  32.899  1.00  0.00     0.009 A 
ATOM     40  C   UNL A   1      41.562  36.167  35.269  1.00  0.00     0.001 A 
ATOM     41  C   UNL A   1      43.074  36.957  33.559  1.00  0.00     0.001 A 
ATOM     42  C   UNL A   1      42.360  37.179  34.737  1.00  0.00     0.000 A 
ENDBRANCH  23  37
BRANCH  24  43
ATOM     43  C   UNL A   1      40.261  26.553  27.979  1.00  0.00    -0.014 A 
ATOM     44  C   UNL A   1      39.515  25.513  28.558  1.00  0.00     0.009 A 
ATOM     45  C   UNL A   1      40.771  26.381  26.684  1.00  0.00     0.009 A 
ATOM     46  C   UNL A   1      39.315  24.313  27.871  1.00  0.00     0.001 A 
ATOM     47  C   UNL A   1      40.542  25.193  25.987  1.00  0.00     0.001 A 
ATOM     48  C   UNL A   1      39.826  24.156  26.585  1.00  0.00     0.000 A 
ENDBRANCH  24  43
BRANCH  36  49
ATOM     49  C   UNL A   1      45.518  28.477  32.180  1.00  0.00    -0.014 A 
ATOM     50  C   UNL A   1      46.687  28.652  31.420  1.00  0.00     0.009 A 
ATOM     51  C   UNL A   1      45.543  27.598  33.274  1.00  0.00     0.009 A 
ATOM     52  C   UNL A   1      47.850  27.949  31.735  1.00  0.00     0.001 A 
ATOM     53  C   UNL A   1      46.718  26.922  33.608  1.00  0.00     0.001 A 
ATOM     54  C   UNL A   1      47.866  27.090  32.833  1.00  0.00     0.000 A 
ENDBRANCH  36  49
ENDBRANCH  10  11
ENDBRANCH   3   5
ENDBRANCH   2   3
ENDBRANCH   1   2
BRANCH   1  55
ATOM     55  C   UNL A   1      33.212  36.998  30.701  1.00  0.00     0.275 C 
BRANCH  55  56
ATOM     56  O   UNL A   1      32.908  35.958  31.640  1.00  0.00    -0.458 OA
BRANCH  56  57
ATOM     57  C   UNL A   1      33.467  36.114  32.871  1.00  0.00     0.342 C 
ATOM     58  O   UNL A   1      33.118  36.889  33.738  1.00  0.00    -0.246 OA
BRANCH  57  59
ATOM     59  C   UNL A   1      34.493  35.075  33.095  1.00  0.00     0.101 A 
ATOM     60  C   UNL A   1      35.835  35.458  32.968  1.00  0.00     0.020 A 
ATOM     61  C   UNL A   1      34.180  33.750  33.397  1.00  0.00     0.130 A 
ATOM     62  C   UNL A   1      36.857  34.535  33.213  1.00  0.00     0.010 A 
ATOM     63  C   UNL A   1      35.202  32.822  33.626  1.00  0.00     0.055 A 
ATOM     64  C   UNL A   1      36.548  33.213  33.558  1.00  0.00    -0.014 A 
BRANCH  61  65
ATOM     65  O   UNL A   1      32.876  33.343  33.448  1.00  0.00    -0.507 OA
ATOM     66  H   UNL A   1      32.447  33.045  32.669  1.00  0.00     0.293 HD
ENDBRANCH  61  65
BRANCH  64  67
ATOM     67  C   UNL A   1      37.616  32.217  33.793  1.00  0.00    -0.011 A 
ATOM     68  C   UNL A   1      38.781  32.521  34.602  1.00  0.00     0.027 A 
ATOM     69  C   UNL A   1      37.510  30.992  33.247  1.00  0.00     0.080 A 
ATOM     70  C   UNL A   1      39.723  31.596  34.820  1.00  0.00     0.095 A 
ATOM     71  C   UNL A   1      38.546  29.946  33.490  1.00  0.00     0.255 A 
ATOM     72  N   UNL A   1      39.615  30.328  34.283  1.00  0.00    -0.258 N 
ATOM     73  O   UNL A   1      38.381  28.833  33.000  1.00  0.00    -0.269 OA
BRANCH  72  74
ATOM     74  C   UNL A   1      40.619  29.333  34.556  1.00  0.00     0.451 C 
ATOM     75  F   UNL A   1      41.173  28.873  33.408  1.00  0.00    -0.185 F 
ATOM     76  F   UNL A   1      41.612  29.831  35.331  1.00  0.00    -0.185 F 
ENDBRANCH  72  74
ENDBRANCH  64  67
ENDBRANCH  57  59
ENDBRANCH  56  57
ENDBRANCH  55  56
ENDBRANCH   1  55
TORSDOF 14
ENDMDL
MODEL 2
REMARK VINA RESULT:      -9.1      5.529     11.364
REMARK SMILES O=C(OCCOC(=O)c1ccc(-c2ccn(C(F)F)c(=O)c2)cc1O)c1ccc(-c2c3nc(c(-c4ccccc4)c4ccc([nH]4)c(-c4ccccc4)c4nc(c(-c5ccccc5)c5ccc2[nH]5)C=C4)C=C3)cc1
REMARK SMILES IDX 4 1 3 2 2 3 1 4 26 5 27 6 73 7 28 8 72 9 29 10 30 11 31 12
REMARK SMILES IDX 66 13 32 14 71 15 65 16 67 17 33 18 70 19 64 20 63 21 34 23
REMARK SMILES IDX 56 24 41 25 55 26 42 27 45 28 54 29 68 30 43 31 44 32 53 34
REMARK SMILES IDX 69 35 46 36 35 37 36 38 40 39 37 40 39 41 38 42 57 43 58 44
REMARK SMILES IDX 62 45 59 46 61 47 60 48 47 49 48 50 52 51 49 52 51 53 50 54
REMARK SMILES IDX 5 55 6 56 7 57 8 58 9 59 10 60 24 61 11 62 23 63 12 64 25 65
REMARK SMILES IDX 13 67 14 68 22 69 15 70 20 71 16 72 21 73 17 74 18 75 19 76
REMARK H PARENT 67 22 45 33 25 66
REMARK Flexibility Score: inf
ROOT
ATOM      1  C   UNL A   1      43.409  21.109  25.530  1.00  0.00     0.275 C 
ENDROOT
BRANCH   1   2
ATOM      2  O   UNL A   1      43.018  22.355  24.924  1.00  0.00    -0.458 OA
BRANCH   2   3
ATOM      3  C   UNL A   1      43.614  23.569  24.984  1.00  0.00     0.338 C 
ATOM      4  O   UNL A   1      44.582  23.796  24.260  1.00  0.00    -0.246 OA
BRANCH   3   5
ATOM      5  C   UNL A   1      43.262  24.603  26.004  1.00  0.00     0.060 A 
ATOM      6  C   UNL A   1      42.353  24.202  26.997  1.00  0.00     0.016 A 
ATOM      7  C   UNL A   1      43.777  25.899  26.076  1.00  0.00     0.016 A 
ATOM      8  C   UNL A   1      41.883  25.106  27.952  1.00  0.00     0.010 A 
ATOM      9  C   UNL A   1      43.313  26.807  27.038  1.00  0.00     0.010 A 
ATOM     10  C   UNL A   1      42.341  26.429  27.965  1.00  0.00    -0.014 A 
BRANCH  10  11
ATOM     11  C   UNL A   1      41.909  27.351  29.041  1.00  0.00     0.031 A 
ATOM     12  C   UNL A   1      40.715  28.247  28.893  1.00  0.00     0.074 A 
ATOM     13  C   UNL A   1      42.620  27.370  30.182  1.00  0.00     0.049 A 
ATOM     14  N   UNL A   1      40.054  28.886  29.825  1.00  0.00    -0.248 NA
ATOM     15  C   UNL A   1      40.178  28.447  27.540  1.00  0.00     0.031 C 
ATOM     16  C   UNL A   1      43.824  26.575  30.429  1.00  0.00     0.029 A 
ATOM     17  N   UNL A   1      42.433  28.071  31.344  1.00  0.00    -0.354 N 
ATOM     18  C   UNL A   1      38.979  29.488  29.187  1.00  0.00     0.074 A 
ATOM     19  C   UNL A   1      39.107  29.198  27.777  1.00  0.00     0.031 C 
ATOM     20  C   UNL A   1      44.257  26.817  31.675  1.00  0.00     0.029 A 
ATOM     21  C   UNL A   1      43.376  27.796  32.302  1.00  0.00     0.049 A 
ATOM     22  H   UNL A   1      41.696  28.709  31.477  1.00  0.00     0.167 HD
ATOM     23  C   UNL A   1      37.977  30.211  29.737  1.00  0.00     0.031 A 
ATOM     24  C   UNL A   1      43.514  28.271  33.554  1.00  0.00     0.031 A 
ATOM     25  C   UNL A   1      37.956  30.640  31.111  1.00  0.00     0.049 A 
ATOM     26  C   UNL A   1      42.472  29.206  34.096  1.00  0.00     0.074 A 
ATOM     27  C   UNL A   1      37.001  31.405  31.758  1.00  0.00     0.029 A 
ATOM     28  N   UNL A   1      38.969  30.404  32.027  1.00  0.00    -0.354 N 
ATOM     29  N   UNL A   1      41.371  29.632  33.524  1.00  0.00    -0.248 NA
ATOM     30  C   UNL A   1      42.678  29.709  35.459  1.00  0.00     0.031 C 
ATOM     31  C   UNL A   1      37.487  31.722  33.029  1.00  0.00     0.029 A 
ATOM     32  C   UNL A   1      38.700  31.074  33.208  1.00  0.00     0.049 A 
ATOM     33  H   UNL A   1      39.763  29.845  31.862  1.00  0.00     0.167 HD
ATOM     34  C   UNL A   1      40.731  30.419  34.472  1.00  0.00     0.074 A 
ATOM     35  C   UNL A   1      41.569  30.412  35.654  1.00  0.00     0.031 C 
ATOM     36  C   UNL A   1      39.548  31.073  34.373  1.00  0.00     0.031 A 
BRANCH  23  37
ATOM     37  C   UNL A   1      36.820  30.613  28.865  1.00  0.00    -0.014 A 
ATOM     38  C   UNL A   1      36.665  31.949  28.463  1.00  0.00     0.009 A 
ATOM     39  C   UNL A   1      35.801  29.692  28.572  1.00  0.00     0.009 A 
ATOM     40  C   UNL A   1      35.504  32.361  27.805  1.00  0.00     0.001 A 
ATOM     41  C   UNL A   1      34.648  30.104  27.898  1.00  0.00     0.001 A 
ATOM     42  C   UNL A   1      34.496  31.439  27.526  1.00  0.00     0.000 A 
ENDBRANCH  23  37
BRANCH  24  43
ATOM     43  C   UNL A   1      44.664  27.812  34.374  1.00  0.00    -0.014 A 
ATOM     44  C   UNL A   1      45.824  28.599  34.476  1.00  0.00     0.009 A 
ATOM     45  C   UNL A   1      44.646  26.551  34.987  1.00  0.00     0.009 A 
ATOM     46  C   UNL A   1      46.952  28.119  35.145  1.00  0.00     0.001 A 
ATOM     47  C   UNL A   1      45.764  26.087  35.683  1.00  0.00     0.001 A 
ATOM     48  C   UNL A   1      46.920  26.865  35.751  1.00  0.00     0.000 A 
ENDBRANCH  24  43
BRANCH  36  49
ATOM     49  C   UNL A   1      39.066  31.837  35.575  1.00  0.00    -0.014 A 
ATOM     50  C   UNL A   1      38.202  31.213  36.490  1.00  0.00     0.009 A 
ATOM     51  C   UNL A   1      39.381  33.193  35.754  1.00  0.00     0.009 A 
ATOM     52  C   UNL A   1      37.650  31.933  37.549  1.00  0.00     0.001 A 
ATOM     53  C   UNL A   1      38.855  33.902  36.836  1.00  0.00     0.001 A 
ATOM     54  C   UNL A   1      37.982  33.275  37.725  1.00  0.00     0.000 A 
ENDBRANCH  36  49
ENDBRANCH  10  11
ENDBRANCH   3   5
ENDBRANCH   2   3
ENDBRANCH   1   2
BRANCH   1  55
ATOM     55  C   UNL A   1      42.267  20.325  26.174  1.00  0.00     0.275 C 
BRANCH  55  56
ATOM     56  O   UNL A   1      40.973  20.748  25.725  1.00  0.00    -0.458 OA
BRANCH  56  57
ATOM     57  C   UNL A   1      40.174  21.277  26.693  1.00  0.00     0.342 C 
ATOM     58  O   UNL A   1      40.443  21.405  27.870  1.00  0.00    -0.246 OA
BRANCH  57  59
ATOM     59  C   UNL A   1      38.952  21.842  26.087  1.00  0.00     0.101 A 
ATOM     60  C   UNL A   1      38.646  23.177  26.379  1.00  0.00     0.020 A 
ATOM     61  C   UNL A   1      38.097  21.102  25.270  1.00  0.00     0.130 A 
ATOM     62  C   UNL A   1      37.530  23.789  25.800  1.00  0.00     0.010 A 
ATOM     63  C   UNL A   1      36.970  21.709  24.703  1.00  0.00     0.055 A 
ATOM     64  C   UNL A   1      36.691  23.062  24.945  1.00  0.00    -0.014 A 
BRANCH  61  65
ATOM     65  O   UNL A   1      38.338  19.777  25.037  1.00  0.00    -0.507 OA
ATOM     66  H   UNL A   1      39.133  19.512  24.617  1.00  0.00     0.293 HD
ENDBRANCH  61  65
BRANCH  64  67
ATOM     67  C   UNL A   1      35.490  23.684  24.346  1.00  0.00    -0.011 A 
ATOM     68  C   UNL A   1      34.844  24.835  24.948  1.00  0.00     0.027 A 
ATOM     69  C   UNL A   1      34.979  23.177  23.210  1.00  0.00     0.080 A 
ATOM     70  C   UNL A   1      33.773  25.395  24.376  1.00  0.00     0.095 A 
ATOM     71  C   UNL A   1      33.792  23.797  22.553  1.00  0.00     0.255 A 
ATOM     72  N   UNL A   1      33.251  24.898  23.198  1.00  0.00    -0.258 N 
ATOM     73  O   UNL A   1      33.390  23.319  21.498  1.00  0.00    -0.269 OA
BRANCH  72  74
ATOM     74  C   UNL A   1      32.119  25.534  22.575  1.00  0.00     0.451 C 
ATOM     75  F   UNL A   1      30.963  24.916  22.920  1.00  0.00    -0.185 F 
ATOM     76  F   UNL A   1      32.023  26.836  22.934  1.00  0.00    -0.185 F 
ENDBRANCH  72  74
ENDBRANCH  64  67
ENDBRANCH  57  59
ENDBRANCH  56  57
ENDBRANCH  55  56
ENDBRANCH   1  55
TORSDOF 14
ENDMDL
MODEL 3
REMARK VINA RESULT:      -8.6      4.095      6.510
REMARK SMILES O=C(OCCOC(=O)c1ccc(-c2ccn(C(F)F)c(=O)c2)cc1O)c1ccc(-c2c3nc(c(-c4ccccc4)c4ccc([nH]4)c(-c4ccccc4)c4nc(c(-c5ccccc5)c5ccc2[nH]5)C=C4)C=C3)cc1
REMARK SMILES IDX 4 1 3 2 2 3 1 4 26 5 27 6 73 7 28 8 72 9 29 10 30 11 31 12
REMARK SMILES IDX 66 13 32 14 71 15 65 16 67 17 33 18 70 19 64 20 63 21 34 23
REMARK SMILES IDX 56 24 41 25 55 26 42 27 45 28 54 29 68 30 43 31 44 32 53 34
REMARK SMILES IDX 69 35 46 36 35 37 36 38 40 39 37 40 39 41 38 42 57 43 58 44
REMARK SMILES IDX 62 45 59 46 61 47 60 48 47 49 48 50 52 51 49 52 51 53 50 54
REMARK SMILES IDX 5 55 6 56 7 57 8 58 9 59 10 60 24 61 11 62 23 63 12 64 25 65
REMARK SMILES IDX 13 67 14 68 22 69 15 70 20 71 16 72 21 73 17 74 18 75 19 76
REMARK H PARENT 67 22 45 33 25 66
REMARK Flexibility Score: inf
ROOT
ATOM      1  C   UNL A   1      32.448  32.921  26.888  1.00  0.00     0.275 C 
ENDROOT
BRANCH   1   2
ATOM      2  O   UNL A   1      32.145  33.938  27.861  1.00  0.00    -0.458 OA
BRANCH   2   3
ATOM      3  C   UNL A   1      32.979  34.640  28.664  1.00  0.00     0.338 C 
ATOM      4  O   UNL A   1      32.716  35.814  28.919  1.00  0.00    -0.246 OA
BRANCH   3   5
ATOM      5  C   UNL A   1      34.297  34.115  29.134  1.00  0.00     0.060 A 
ATOM      6  C   UNL A   1      34.253  33.233  30.227  1.00  0.00     0.016 A 
ATOM      7  C   UNL A   1      35.543  34.391  28.568  1.00  0.00     0.016 A 
ATOM      8  C   UNL A   1      35.426  32.745  30.808  1.00  0.00     0.010 A 
ATOM      9  C   UNL A   1      36.722  33.898  29.144  1.00  0.00     0.010 A 
ATOM     10  C   UNL A   1      36.677  33.096  30.286  1.00  0.00    -0.014 A 
BRANCH  10  11
ATOM     11  C   UNL A   1      37.909  32.496  30.850  1.00  0.00     0.031 A 
ATOM     12  C   UNL A   1      38.586  33.058  32.064  1.00  0.00     0.074 A 
ATOM     13  C   UNL A   1      38.419  31.410  30.243  1.00  0.00     0.049 A 
ATOM     14  N   UNL A   1      39.485  32.495  32.831  1.00  0.00    -0.248 NA
ATOM     15  C   UNL A   1      38.208  34.413  32.489  1.00  0.00     0.031 C 
ATOM     16  C   UNL A   1      37.873  30.796  29.032  1.00  0.00     0.029 A 
ATOM     17  N   UNL A   1      39.499  30.629  30.561  1.00  0.00    -0.354 N 
ATOM     18  C   UNL A   1      39.712  33.384  33.871  1.00  0.00     0.074 A 
ATOM     19  C   UNL A   1      38.911  34.558  33.608  1.00  0.00     0.031 C 
ATOM     20  C   UNL A   1      38.608  29.719  28.720  1.00  0.00     0.029 A 
ATOM     21  C   UNL A   1      39.686  29.582  29.694  1.00  0.00     0.049 A 
ATOM     22  H   UNL A   1      40.083  30.803  31.334  1.00  0.00     0.167 HD
ATOM     23  C   UNL A   1      40.516  33.225  34.948  1.00  0.00     0.031 A 
ATOM     24  C   UNL A   1      40.616  28.609  29.688  1.00  0.00     0.031 A 
ATOM     25  C   UNL A   1      41.440  32.133  35.108  1.00  0.00     0.049 A 
ATOM     26  C   UNL A   1      41.608  28.544  30.812  1.00  0.00     0.074 A 
ATOM     27  C   UNL A   1      42.322  31.899  36.148  1.00  0.00     0.029 A 
ATOM     28  N   UNL A   1      41.651  31.135  34.169  1.00  0.00    -0.354 N 
ATOM     29  N   UNL A   1      41.698  29.306  31.876  1.00  0.00    -0.248 NA
ATOM     30  C   UNL A   1      42.612  27.475  30.749  1.00  0.00     0.031 C 
ATOM     31  C   UNL A   1      43.140  30.825  35.789  1.00  0.00     0.029 A 
ATOM     32  C   UNL A   1      42.703  30.330  34.570  1.00  0.00     0.049 A 
ATOM     33  H   UNL A   1      41.132  31.017  33.341  1.00  0.00     0.167 HD
ATOM     34  C   UNL A   1      42.739  28.783  32.631  1.00  0.00     0.074 A 
ATOM     35  C   UNL A   1      43.252  27.642  31.900  1.00  0.00     0.031 C 
ATOM     36  C   UNL A   1      43.215  29.205  33.827  1.00  0.00     0.031 A 
BRANCH  23  37
ATOM     37  C   UNL A   1      40.462  34.257  36.040  1.00  0.00    -0.014 A 
ATOM     38  C   UNL A   1      39.526  34.142  37.081  1.00  0.00     0.009 A 
ATOM     39  C   UNL A   1      41.238  35.425  35.950  1.00  0.00     0.009 A 
ATOM     40  C   UNL A   1      39.352  35.183  37.994  1.00  0.00     0.001 A 
ATOM     41  C   UNL A   1      41.073  36.457  36.877  1.00  0.00     0.001 A 
ATOM     42  C   UNL A   1      40.122  36.340  37.891  1.00  0.00     0.000 A 
ENDBRANCH  23  37
BRANCH  24  43
ATOM     43  C   UNL A   1      40.596  27.604  28.595  1.00  0.00    -0.014 A 
ATOM     44  C   UNL A   1      41.246  27.864  27.376  1.00  0.00     0.009 A 
ATOM     45  C   UNL A   1      39.857  26.419  28.728  1.00  0.00     0.009 A 
ATOM     46  C   UNL A   1      41.130  26.976  26.304  1.00  0.00     0.001 A 
ATOM     47  C   UNL A   1      39.770  25.518  27.665  1.00  0.00     0.001 A 
ATOM     48  C   UNL A   1      40.394  25.802  26.451  1.00  0.00     0.000 A 
ENDBRANCH  24  43
BRANCH  36  49
ATOM     49  C   UNL A   1      44.346  28.431  34.445  1.00  0.00    -0.014 A 
ATOM     50  C   UNL A   1      45.673  28.794  34.155  1.00  0.00     0.009 A 
ATOM     51  C   UNL A   1      44.110  27.292  35.229  1.00  0.00     0.009 A 
ATOM     52  C   UNL A   1      46.738  28.024  34.622  1.00  0.00     0.001 A 
ATOM     53  C   UNL A   1      45.179  26.543  35.725  1.00  0.00     0.001 A 
ATOM     54  C   UNL A   1      46.490  26.903  35.412  1.00  0.00     0.000 A 
ENDBRANCH  36  49
ENDBRANCH  10  11
ENDBRANCH   3   5
ENDBRANCH   2   3
ENDBRANCH   1   2
BRANCH   1  55
ATOM     55  C   UNL A   1      31.316  31.930  26.625  1.00  0.00     0.275 C 
BRANCH  55  56
ATOM     56  O   UNL A   1      31.764  30.569  26.569  1.00  0.00    -0.458 OA
BRANCH  56  57
ATOM     57  C   UNL A   1      31.385  29.885  25.454  1.00  0.00     0.342 C 
ATOM     58  O   UNL A   1      30.659  30.284  24.566  1.00  0.00    -0.246 OA
BRANCH  57  59
ATOM     59  C   UNL A   1      32.117  28.605  25.373  1.00  0.00     0.101 A 
ATOM     60  C   UNL A   1      31.758  27.600  26.279  1.00  0.00     0.020 A 
ATOM     61  C   UNL A   1      33.148  28.377  24.462  1.00  0.00     0.130 A 
ATOM     62  C   UNL A   1      32.379  26.347  26.225  1.00  0.00     0.010 A 
ATOM     63  C   UNL A   1      33.782  27.130  24.419  1.00  0.00     0.055 A 
ATOM     64  C   UNL A   1      33.387  26.099  25.284  1.00  0.00    -0.014 A 
BRANCH  61  65
ATOM     65  O   UNL A   1      33.564  29.374  23.623  1.00  0.00    -0.507 OA
ATOM     66  H   UNL A   1      34.428  29.351  23.261  1.00  0.00     0.293 HD
ENDBRANCH  61  65
BRANCH  64  67
ATOM     67  C   UNL A   1      34.074  24.790  25.231  1.00  0.00    -0.011 A 
ATOM     68  C   UNL A   1      34.934  24.421  24.122  1.00  0.00     0.027 A 
ATOM     69  C   UNL A   1      33.906  23.913  26.238  1.00  0.00     0.080 A 
ATOM     70  C   UNL A   1      35.563  23.242  24.108  1.00  0.00     0.095 A 
ATOM     71  C   UNL A   1      34.610  22.598  26.242  1.00  0.00     0.255 A 
ATOM     72  N   UNL A   1      35.416  22.342  25.145  1.00  0.00    -0.258 N 
ATOM     73  O   UNL A   1      34.452  21.852  27.203  1.00  0.00    -0.269 OA
BRANCH  72  74
ATOM     74  C   UNL A   1      36.129  21.090  25.132  1.00  0.00     0.451 C 
ATOM     75  F   UNL A   1      35.343  20.087  24.672  1.00  0.00    -0.185 F 
ATOM     76  F   UNL A   1      37.230  21.156  24.345  1.00  0.00    -0.185 F 
ENDBRANCH  72  74
ENDBRANCH  64  67
ENDBRANCH  57  59
ENDBRANCH  56  57
ENDBRANCH  55  56
ENDBRANCH   1  55
TORSDOF 14
ENDMDL
