MODEL 1
REMARK VINA RESULT:     -11.0      0.000      0.000
REMARK SMILES O=C(OCCOC(=O)c1cccc(N[C@H]2CCCC[C@@H]2O)c1)c1ccc(-c2c3nc(c(-c4ccccc4)c4ccc([nH]4)c(-c4ccccc4)c4nc(c(-c5ccccc5)c5ccc2[nH]5)C=C4)C=C3)cc1
REMARK SMILES IDX 5 1 4 2 3 3 2 4 1 5 23 6 24 7 70 8 25 9 69 10 26 11 27 12
REMARK SMILES IDX 28 13 63 14 29 15 68 16 62 17 64 18 30 19 67 20 61 21 60 22
REMARK SMILES IDX 31 24 53 25 38 26 52 27 39 28 42 29 51 30 65 31 40 32 41 33
REMARK SMILES IDX 50 35 66 36 43 37 32 38 33 39 37 40 34 41 36 42 35 43 54 44
REMARK SMILES IDX 55 45 59 46 56 47 58 48 57 49 44 50 45 51 49 52 46 53 48 54
REMARK SMILES IDX 47 55 6 56 7 57 8 58 9 59 10 60 22 61 11 62 13 63 12 64
REMARK SMILES IDX 14 65 15 67 16 68 20 69 17 70 19 71 18 72 21 73
REMARK H PARENT 64 23 42 34 14 66 21 74
REMARK Flexibility Score: inf
ROOT
ATOM      1  C   UNL A   1      32.353  30.862  26.486  1.00  0.00     0.275 C 
ENDROOT
BRANCH   1   2
ATOM      2  C   UNL A   1      31.501  31.996  27.066  1.00  0.00     0.275 C 
BRANCH   2   3
ATOM      3  O   UNL A   1      32.124  33.294  27.054  1.00  0.00    -0.458 OA
BRANCH   3   4
ATOM      4  C   UNL A   1      32.829  33.921  28.025  1.00  0.00     0.338 C 
ATOM      5  O   UNL A   1      32.526  35.072  28.334  1.00  0.00    -0.246 OA
BRANCH   4   6
ATOM      6  C   UNL A   1      34.068  33.346  28.636  1.00  0.00     0.060 A 
ATOM      7  C   UNL A   1      34.118  32.548  29.779  1.00  0.00     0.016 A 
ATOM      8  C   UNL A   1      35.284  33.661  27.999  1.00  0.00     0.016 A 
ATOM      9  C   UNL A   1      35.325  32.009  30.228  1.00  0.00     0.010 A 
ATOM     10  C   UNL A   1      36.495  33.121  28.440  1.00  0.00     0.010 A 
ATOM     11  C   UNL A   1      36.520  32.289  29.563  1.00  0.00    -0.014 A 
BRANCH  11  12
ATOM     12  C   UNL A   1      37.795  31.829  30.151  1.00  0.00     0.031 A 
ATOM     13  C   UNL A   1      38.337  30.498  29.724  1.00  0.00     0.074 A 
ATOM     14  C   UNL A   1      38.495  32.622  30.984  1.00  0.00     0.049 A 
ATOM     15  N   UNL A   1      39.453  29.912  30.072  1.00  0.00    -0.248 NA
ATOM     16  C   UNL A   1      37.543  29.747  28.735  1.00  0.00     0.031 C 
ATOM     17  C   UNL A   1      38.109  33.970  31.401  1.00  0.00     0.029 A 
ATOM     18  N   UNL A   1      39.667  32.393  31.662  1.00  0.00    -0.354 N 
ATOM     19  C   UNL A   1      39.520  28.758  29.304  1.00  0.00     0.074 A 
ATOM     20  C   UNL A   1      38.304  28.684  28.527  1.00  0.00     0.031 C 
ATOM     21  C   UNL A   1      38.975  34.413  32.330  1.00  0.00     0.029 A 
ATOM     22  C   UNL A   1      39.973  33.377  32.570  1.00  0.00     0.049 A 
ATOM     23  H   UNL A   1      40.232  31.601  31.512  1.00  0.00     0.167 HD
ATOM     24  C   UNL A   1      40.532  27.864  29.222  1.00  0.00     0.031 A 
ATOM     25  C   UNL A   1      40.911  33.396  33.534  1.00  0.00     0.031 A 
ATOM     26  C   UNL A   1      41.707  27.916  30.046  1.00  0.00     0.049 A 
ATOM     27  C   UNL A   1      41.892  32.265  33.604  1.00  0.00     0.074 A 
ATOM     28  C   UNL A   1      42.802  27.073  30.051  1.00  0.00     0.029 A 
ATOM     29  N   UNL A   1      41.920  28.861  31.039  1.00  0.00    -0.354 N 
ATOM     30  N   UNL A   1      41.965  31.193  32.855  1.00  0.00    -0.248 NA
ATOM     31  C   UNL A   1      42.942  32.369  34.624  1.00  0.00     0.031 C 
ATOM     32  C   UNL A   1      43.654  27.478  31.085  1.00  0.00     0.029 A 
ATOM     33  C   UNL A   1      43.117  28.606  31.684  1.00  0.00     0.049 A 
ATOM     34  H   UNL A   1      41.311  29.605  31.253  1.00  0.00     0.167 HD
ATOM     35  C   UNL A   1      43.103  30.521  33.270  1.00  0.00     0.074 A 
ATOM     36  C   UNL A   1      43.673  31.296  34.357  1.00  0.00     0.031 C 
ATOM     37  C   UNL A   1      43.650  29.384  32.773  1.00  0.00     0.031 A 
BRANCH  24  38
ATOM     38  C   UNL A   1      40.390  26.768  28.207  1.00  0.00    -0.014 A 
ATOM     39  C   UNL A   1      40.980  26.885  26.937  1.00  0.00     0.009 A 
ATOM     40  C   UNL A   1      39.663  25.608  28.513  1.00  0.00     0.009 A 
ATOM     41  C   UNL A   1      40.814  25.880  25.982  1.00  0.00     0.001 A 
ATOM     42  C   UNL A   1      39.519  24.594  27.565  1.00  0.00     0.001 A 
ATOM     43  C   UNL A   1      40.086  24.734  26.297  1.00  0.00     0.000 A 
ENDBRANCH  24  38
BRANCH  25  44
ATOM     44  C   UNL A   1      40.929  34.478  34.549  1.00  0.00    -0.014 A 
ATOM     45  C   UNL A   1      41.769  35.590  34.418  1.00  0.00     0.009 A 
ATOM     46  C   UNL A   1      40.123  34.366  35.693  1.00  0.00     0.009 A 
ATOM     47  C   UNL A   1      41.809  36.564  35.419  1.00  0.00     0.001 A 
ATOM     48  C   UNL A   1      40.145  35.352  36.681  1.00  0.00     0.001 A 
ATOM     49  C   UNL A   1      40.995  36.447  36.546  1.00  0.00     0.000 A 
ENDBRANCH  25  44
BRANCH  37  50
ATOM     50  C   UNL A   1      44.964  28.961  33.359  1.00  0.00    -0.014 A 
ATOM     51  C   UNL A   1      45.033  28.060  34.430  1.00  0.00     0.009 A 
ATOM     52  C   UNL A   1      46.151  29.472  32.812  1.00  0.00     0.009 A 
ATOM     53  C   UNL A   1      46.272  27.705  34.966  1.00  0.00     0.001 A 
ATOM     54  C   UNL A   1      47.388  29.093  33.331  1.00  0.00     0.001 A 
ATOM     55  C   UNL A   1      47.446  28.219  34.414  1.00  0.00     0.000 A 
ENDBRANCH  37  50
ENDBRANCH  11  12
ENDBRANCH   4   6
ENDBRANCH   3   4
ENDBRANCH   2   3
ENDBRANCH   1   2
BRANCH   1  56
ATOM     56  O   UNL A   1      32.671  29.841  27.443  1.00  0.00    -0.458 OA
BRANCH  56  57
ATOM     57  C   UNL A   1      31.997  28.675  27.262  1.00  0.00     0.338 C 
ATOM     58  O   UNL A   1      31.148  28.204  28.003  1.00  0.00    -0.246 OA
BRANCH  57  59
ATOM     59  C   UNL A   1      32.304  28.111  25.935  1.00  0.00     0.062 A 
ATOM     60  C   UNL A   1      33.616  27.700  25.707  1.00  0.00     0.016 A 
ATOM     61  C   UNL A   1      31.336  27.986  24.927  1.00  0.00     0.041 A 
ATOM     62  C   UNL A   1      33.952  27.143  24.481  1.00  0.00     0.003 A 
ATOM     63  C   UNL A   1      31.664  27.449  23.667  1.00  0.00     0.035 A 
ATOM     64  C   UNL A   1      32.985  27.030  23.476  1.00  0.00     0.026 A 
BRANCH  63  65
ATOM     65  N   UNL A   1      30.692  27.390  22.689  1.00  0.00    -0.380 N 
ATOM     66  H   UNL A   1      30.765  26.624  22.077  1.00  0.00     0.160 HD
BRANCH  65  67
ATOM     67  C   UNL A   1      29.566  28.294  22.420  1.00  0.00     0.107 C 
ATOM     68  C   UNL A   1      28.416  28.054  23.409  1.00  0.00     0.027 C 
ATOM     69  C   UNL A   1      29.935  29.797  22.283  1.00  0.00     0.136 C 
ATOM     70  C   UNL A   1      27.213  28.950  23.122  1.00  0.00     0.002 C 
ATOM     71  C   UNL A   1      28.689  30.632  21.979  1.00  0.00     0.034 C 
ATOM     72  C   UNL A   1      27.611  30.420  23.031  1.00  0.00     0.003 C 
BRANCH  69  73
ATOM     73  O   UNL A   1      30.880  30.070  21.255  1.00  0.00    -0.391 OA
ATOM     74  H   UNL A   1      30.776  30.987  20.956  1.00  0.00     0.211 HD
ENDBRANCH  69  73
ENDBRANCH  65  67
ENDBRANCH  63  65
ENDBRANCH  57  59
ENDBRANCH  56  57
ENDBRANCH   1  56
TORSDOF 14
ENDMDL
MODEL 2
REMARK VINA RESULT:     -11.0      4.548      9.206
REMARK SMILES O=C(OCCOC(=O)c1cccc(N[C@H]2CCCC[C@@H]2O)c1)c1ccc(-c2c3nc(c(-c4ccccc4)c4ccc([nH]4)c(-c4ccccc4)c4nc(c(-c5ccccc5)c5ccc2[nH]5)C=C4)C=C3)cc1
REMARK SMILES IDX 5 1 4 2 3 3 2 4 1 5 23 6 24 7 70 8 25 9 69 10 26 11 27 12
REMARK SMILES IDX 28 13 63 14 29 15 68 16 62 17 64 18 30 19 67 20 61 21 60 22
REMARK SMILES IDX 31 24 53 25 38 26 52 27 39 28 42 29 51 30 65 31 40 32 41 33
REMARK SMILES IDX 50 35 66 36 43 37 32 38 33 39 37 40 34 41 36 42 35 43 54 44
REMARK SMILES IDX 55 45 59 46 56 47 58 48 57 49 44 50 45 51 49 52 46 53 48 54
REMARK SMILES IDX 47 55 6 56 7 57 8 58 9 59 10 60 22 61 11 62 13 63 12 64
REMARK SMILES IDX 14 65 15 67 16 68 20 69 17 70 19 71 18 72 21 73
REMARK H PARENT 64 23 42 34 14 66 21 74
REMARK Flexibility Score: inf
ROOT
ATOM      1  C   UNL A   1      42.736  20.699  25.999  1.00  0.00     0.275 C 
ENDROOT
BRANCH   1   2
ATOM      2  C   UNL A   1      43.870  21.444  25.287  1.00  0.00     0.275 C 
BRANCH   2   3
ATOM      3  O   UNL A   1      43.505  22.718  24.724  1.00  0.00    -0.458 OA
BRANCH   3   4
ATOM      4  C   UNL A   1      43.956  23.958  25.032  1.00  0.00     0.338 C 
ATOM      5  O   UNL A   1      44.932  24.403  24.431  1.00  0.00    -0.246 OA
BRANCH   4   6
ATOM      6  C   UNL A   1      43.429  24.757  26.182  1.00  0.00     0.060 A 
ATOM      7  C   UNL A   1      42.586  24.281  27.186  1.00  0.00     0.016 A 
ATOM      8  C   UNL A   1      43.815  26.110  26.232  1.00  0.00     0.016 A 
ATOM      9  C   UNL A   1      42.204  25.098  28.252  1.00  0.00     0.010 A 
ATOM     10  C   UNL A   1      43.441  26.932  27.298  1.00  0.00     0.010 A 
ATOM     11  C   UNL A   1      42.629  26.426  28.317  1.00  0.00    -0.014 A 
BRANCH  11  12
ATOM     12  C   UNL A   1      42.084  27.303  29.374  1.00  0.00     0.031 A 
ATOM     13  C   UNL A   1      42.755  27.302  30.716  1.00  0.00     0.074 A 
ATOM     14  C   UNL A   1      41.066  28.145  29.115  1.00  0.00     0.049 A 
ATOM     15  N   UNL A   1      42.480  28.016  31.776  1.00  0.00    -0.248 NA
ATOM     16  C   UNL A   1      43.922  26.414  30.872  1.00  0.00     0.031 C 
ATOM     17  C   UNL A   1      40.394  28.296  27.824  1.00  0.00     0.029 A 
ATOM     18  N   UNL A   1      40.392  29.012  29.938  1.00  0.00    -0.354 N 
ATOM     19  C   UNL A   1      43.471  27.708  32.698  1.00  0.00     0.074 A 
ATOM     20  C   UNL A   1      44.309  26.690  32.107  1.00  0.00     0.031 C 
ATOM     21  C   UNL A   1      39.348  29.130  27.962  1.00  0.00     0.029 A 
ATOM     22  C   UNL A   1      39.281  29.568  29.351  1.00  0.00     0.049 A 
ATOM     23  H   UNL A   1      40.676  29.215  30.858  1.00  0.00     0.167 HD
ATOM     24  C   UNL A   1      43.686  28.262  33.912  1.00  0.00     0.031 A 
ATOM     25  C   UNL A   1      38.286  30.287  29.902  1.00  0.00     0.031 A 
ATOM     26  C   UNL A   1      42.809  29.228  34.513  1.00  0.00     0.049 A 
ATOM     27  C   UNL A   1      38.405  30.694  31.340  1.00  0.00     0.074 A 
ATOM     28  C   UNL A   1      42.925  29.866  35.733  1.00  0.00     0.029 A 
ATOM     29  N   UNL A   1      41.628  29.672  33.935  1.00  0.00    -0.354 N 
ATOM     30  N   UNL A   1      39.360  30.422  32.195  1.00  0.00    -0.248 NA
ATOM     31  C   UNL A   1      37.333  31.542  31.873  1.00  0.00     0.031 C 
ATOM     32  C   UNL A   1      41.784  30.657  35.917  1.00  0.00     0.029 A 
ATOM     33  C   UNL A   1      40.989  30.555  34.786  1.00  0.00     0.049 A 
ATOM     34  H   UNL A   1      41.295  29.400  33.049  1.00  0.00     0.167 HD
ATOM     35  C   UNL A   1      39.037  31.112  33.352  1.00  0.00     0.074 A 
ATOM     36  C   UNL A   1      37.782  31.794  33.095  1.00  0.00     0.031 C 
ATOM     37  C   UNL A   1      39.734  31.205  34.511  1.00  0.00     0.031 A 
BRANCH  24  38
ATOM     38  C   UNL A   1      44.917  27.823  34.652  1.00  0.00    -0.014 A 
ATOM     39  C   UNL A   1      46.122  28.535  34.525  1.00  0.00     0.009 A 
ATOM     40  C   UNL A   1      44.880  26.692  35.479  1.00  0.00     0.009 A 
ATOM     41  C   UNL A   1      47.274  28.101  35.184  1.00  0.00     0.001 A 
ATOM     42  C   UNL A   1      46.027  26.275  36.156  1.00  0.00     0.001 A 
ATOM     43  C   UNL A   1      47.226  26.973  36.001  1.00  0.00     0.000 A 
ENDBRANCH  24  38
BRANCH  25  44
ATOM     44  C   UNL A   1      37.066  30.608  29.123  1.00  0.00    -0.014 A 
ATOM     45  C   UNL A   1      36.119  29.625  28.809  1.00  0.00     0.009 A 
ATOM     46  C   UNL A   1      36.874  31.914  28.645  1.00  0.00     0.009 A 
ATOM     47  C   UNL A   1      35.009  29.943  28.021  1.00  0.00     0.001 A 
ATOM     48  C   UNL A   1      35.752  32.236  27.880  1.00  0.00     0.001 A 
ATOM     49  C   UNL A   1      34.824  31.247  27.562  1.00  0.00     0.000 A 
ENDBRANCH  25  44
BRANCH  37  50
ATOM     50  C   UNL A   1      39.182  32.133  35.552  1.00  0.00    -0.014 A 
ATOM     51  C   UNL A   1      39.516  33.493  35.575  1.00  0.00     0.009 A 
ATOM     52  C   UNL A   1      38.300  31.625  36.518  1.00  0.00     0.009 A 
ATOM     53  C   UNL A   1      39.002  34.323  36.573  1.00  0.00     0.001 A 
ATOM     54  C   UNL A   1      37.765  32.463  37.495  1.00  0.00     0.001 A 
ATOM     55  C   UNL A   1      38.125  33.808  37.528  1.00  0.00     0.000 A 
ENDBRANCH  37  50
ENDBRANCH  11  12
ENDBRANCH   4   6
ENDBRANCH   3   4
ENDBRANCH   2   3
ENDBRANCH   1   2
BRANCH   1  56
ATOM     56  O   UNL A   1      41.430  21.183  25.652  1.00  0.00    -0.458 OA
BRANCH  56  57
ATOM     57  C   UNL A   1      40.567  21.260  26.698  1.00  0.00     0.338 C 
ATOM     58  O   UNL A   1      40.773  20.882  27.841  1.00  0.00    -0.246 OA
BRANCH  57  59
ATOM     59  C   UNL A   1      39.371  22.034  26.316  1.00  0.00     0.062 A 
ATOM     60  C   UNL A   1      39.296  23.351  26.768  1.00  0.00     0.016 A 
ATOM     61  C   UNL A   1      38.340  21.492  25.534  1.00  0.00     0.041 A 
ATOM     62  C   UNL A   1      38.201  24.129  26.419  1.00  0.00     0.003 A 
ATOM     63  C   UNL A   1      37.208  22.258  25.193  1.00  0.00     0.035 A 
ATOM     64  C   UNL A   1      37.171  23.580  25.648  1.00  0.00     0.026 A 
BRANCH  63  65
ATOM     65  N   UNL A   1      36.195  21.669  24.465  1.00  0.00    -0.380 N 
ATOM     66  H   UNL A   1      36.470  20.896  23.920  1.00  0.00     0.160 HD
BRANCH  65  67
ATOM     67  C   UNL A   1      34.771  22.016  24.374  1.00  0.00     0.107 C 
ATOM     68  C   UNL A   1      34.493  22.895  23.147  1.00  0.00     0.027 C 
ATOM     69  C   UNL A   1      33.785  20.822  24.493  1.00  0.00     0.136 C 
ATOM     70  C   UNL A   1      33.025  23.309  23.055  1.00  0.00     0.002 C 
ATOM     71  C   UNL A   1      32.336  21.309  24.410  1.00  0.00     0.034 C 
ATOM     72  C   UNL A   1      32.091  22.106  23.137  1.00  0.00     0.003 C 
BRANCH  69  73
ATOM     73  O   UNL A   1      33.907  20.085  25.703  1.00  0.00    -0.391 OA
ATOM     74  H   UNL A   1      33.846  20.691  26.458  1.00  0.00     0.211 HD
ENDBRANCH  69  73
ENDBRANCH  65  67
ENDBRANCH  63  65
ENDBRANCH  57  59
ENDBRANCH  56  57
ENDBRANCH   1  56
TORSDOF 14
ENDMDL
MODEL 3
REMARK VINA RESULT:     -11.0      5.762      9.552
REMARK SMILES O=C(OCCOC(=O)c1cccc(N[C@H]2CCCC[C@@H]2O)c1)c1ccc(-c2c3nc(c(-c4ccccc4)c4ccc([nH]4)c(-c4ccccc4)c4nc(c(-c5ccccc5)c5ccc2[nH]5)C=C4)C=C3)cc1
REMARK SMILES IDX 5 1 4 2 3 3 2 4 1 5 23 6 24 7 70 8 25 9 69 10 26 11 27 12
REMARK SMILES IDX 28 13 63 14 29 15 68 16 62 17 64 18 30 19 67 20 61 21 60 22
REMARK SMILES IDX 31 24 53 25 38 26 52 27 39 28 42 29 51 30 65 31 40 32 41 33
REMARK SMILES IDX 50 35 66 36 43 37 32 38 33 39 37 40 34 41 36 42 35 43 54 44
REMARK SMILES IDX 55 45 59 46 56 47 58 48 57 49 44 50 45 51 49 52 46 53 48 54
REMARK SMILES IDX 47 55 6 56 7 57 8 58 9 59 10 60 22 61 11 62 13 63 12 64
REMARK SMILES IDX 14 65 15 67 16 68 20 69 17 70 19 71 18 72 21 73
REMARK H PARENT 64 23 42 34 14 66 21 74
REMARK Flexibility Score: inf
ROOT
ATOM      1  C   UNL A   1      38.588  21.171  25.507  1.00  0.00     0.275 C 
ENDROOT
BRANCH   1   2
ATOM      2  C   UNL A   1      38.880  19.728  25.079  1.00  0.00     0.275 C 
BRANCH   2   3
ATOM      3  O   UNL A   1      39.922  19.070  25.823  1.00  0.00    -0.458 OA
BRANCH   3   4
ATOM      4  C   UNL A   1      41.216  19.431  25.999  1.00  0.00     0.338 C 
ATOM      5  O   UNL A   1      42.095  18.582  25.865  1.00  0.00    -0.246 OA
BRANCH   4   6
ATOM      6  C   UNL A   1      41.626  20.776  26.509  1.00  0.00     0.060 A 
ATOM      7  C   UNL A   1      41.540  21.206  27.834  1.00  0.00     0.016 A 
ATOM      8  C   UNL A   1      42.125  21.682  25.553  1.00  0.00     0.016 A 
ATOM      9  C   UNL A   1      42.013  22.464  28.214  1.00  0.00     0.010 A 
ATOM     10  C   UNL A   1      42.604  22.941  25.928  1.00  0.00     0.010 A 
ATOM     11  C   UNL A   1      42.549  23.338  27.267  1.00  0.00    -0.014 A 
BRANCH  11  12
ATOM     12  C   UNL A   1      42.897  24.714  27.676  1.00  0.00     0.031 A 
ATOM     13  C   UNL A   1      44.347  25.062  27.844  1.00  0.00     0.074 A 
ATOM     14  C   UNL A   1      41.944  25.656  27.811  1.00  0.00     0.049 A 
ATOM     15  N   UNL A   1      44.888  26.210  28.154  1.00  0.00    -0.248 NA
ATOM     16  C   UNL A   1      45.320  23.985  27.582  1.00  0.00     0.031 C 
ATOM     17  C   UNL A   1      40.512  25.455  27.587  1.00  0.00     0.029 A 
ATOM     18  N   UNL A   1      42.033  26.967  28.205  1.00  0.00    -0.354 N 
ATOM     19  C   UNL A   1      46.259  26.009  28.066  1.00  0.00     0.074 A 
ATOM     20  C   UNL A   1      46.472  24.616  27.748  1.00  0.00     0.031 C 
ATOM     21  C   UNL A   1      39.848  26.572  27.934  1.00  0.00     0.029 A 
ATOM     22  C   UNL A   1      40.810  27.561  28.403  1.00  0.00     0.049 A 
ATOM     23  H   UNL A   1      42.889  27.436  28.333  1.00  0.00     0.167 HD
ATOM     24  C   UNL A   1      47.249  26.921  28.193  1.00  0.00     0.031 A 
ATOM     25  C   UNL A   1      40.510  28.743  28.972  1.00  0.00     0.031 A 
ATOM     26  C   UNL A   1      47.027  28.289  28.570  1.00  0.00     0.049 A 
ATOM     27  C   UNL A   1      41.631  29.663  29.351  1.00  0.00     0.074 A 
ATOM     28  C   UNL A   1      47.947  29.308  28.725  1.00  0.00     0.029 A 
ATOM     29  N   UNL A   1      45.782  28.818  28.881  1.00  0.00    -0.354 N 
ATOM     30  N   UNL A   1      42.923  29.476  29.236  1.00  0.00    -0.248 NA
ATOM     31  C   UNL A   1      41.251  30.972  29.896  1.00  0.00     0.031 C 
ATOM     32  C   UNL A   1      47.265  30.441  29.182  1.00  0.00     0.029 A 
ATOM     33  C   UNL A   1      45.913  30.144  29.256  1.00  0.00     0.049 A 
ATOM     34  H   UNL A   1      44.931  28.324  28.841  1.00  0.00     0.167 HD
ATOM     35  C   UNL A   1      43.512  30.663  29.639  1.00  0.00     0.074 A 
ATOM     36  C   UNL A   1      42.435  31.554  30.025  1.00  0.00     0.031 C 
ATOM     37  C   UNL A   1      44.825  31.000  29.651  1.00  0.00     0.031 A 
BRANCH  24  38
ATOM     38  C   UNL A   1      48.648  26.449  27.921  1.00  0.00    -0.014 A 
ATOM     39  C   UNL A   1      49.168  26.462  26.616  1.00  0.00     0.009 A 
ATOM     40  C   UNL A   1      49.455  25.985  28.969  1.00  0.00     0.009 A 
ATOM     41  C   UNL A   1      50.456  25.986  26.361  1.00  0.00     0.001 A 
ATOM     42  C   UNL A   1      50.751  25.533  28.715  1.00  0.00     0.001 A 
ATOM     43  C   UNL A   1      51.248  25.525  27.411  1.00  0.00     0.000 A 
ENDBRANCH  24  38
BRANCH  25  44
ATOM     44  C   UNL A   1      39.103  29.096  29.281  1.00  0.00    -0.014 A 
ATOM     45  C   UNL A   1      38.308  29.798  28.367  1.00  0.00     0.009 A 
ATOM     46  C   UNL A   1      38.567  28.766  30.536  1.00  0.00     0.009 A 
ATOM     47  C   UNL A   1      37.005  30.171  28.710  1.00  0.00     0.001 A 
ATOM     48  C   UNL A   1      37.257  29.116  30.866  1.00  0.00     0.001 A 
ATOM     49  C   UNL A   1      36.479  29.826  29.955  1.00  0.00     0.000 A 
ENDBRANCH  25  44
BRANCH  37  50
ATOM     50  C   UNL A   1      45.150  32.414  30.031  1.00  0.00    -0.014 A 
ATOM     51  C   UNL A   1      45.449  32.769  31.353  1.00  0.00     0.009 A 
ATOM     52  C   UNL A   1      45.165  33.402  29.034  1.00  0.00     0.009 A 
ATOM     53  C   UNL A   1      45.724  34.099  31.676  1.00  0.00     0.001 A 
ATOM     54  C   UNL A   1      45.470  34.724  29.354  1.00  0.00     0.001 A 
ATOM     55  C   UNL A   1      45.738  35.072  30.676  1.00  0.00     0.000 A 
ENDBRANCH  37  50
ENDBRANCH  11  12
ENDBRANCH   4   6
ENDBRANCH   3   4
ENDBRANCH   2   3
ENDBRANCH   1   2
BRANCH   1  56
ATOM     56  O   UNL A   1      37.350  21.679  24.990  1.00  0.00    -0.458 OA
BRANCH  56  57
ATOM     57  C   UNL A   1      36.816  22.695  25.717  1.00  0.00     0.338 C 
ATOM     58  O   UNL A   1      37.366  23.744  26.014  1.00  0.00    -0.246 OA
BRANCH  57  59
ATOM     59  C   UNL A   1      35.385  22.442  25.971  1.00  0.00     0.062 A 
ATOM     60  C   UNL A   1      34.579  23.552  26.222  1.00  0.00     0.016 A 
ATOM     61  C   UNL A   1      34.836  21.151  25.971  1.00  0.00     0.041 A 
ATOM     62  C   UNL A   1      33.222  23.369  26.447  1.00  0.00     0.003 A 
ATOM     63  C   UNL A   1      33.466  20.944  26.225  1.00  0.00     0.035 A 
ATOM     64  C   UNL A   1      32.682  22.079  26.455  1.00  0.00     0.026 A 
BRANCH  63  65
ATOM     65  N   UNL A   1      32.979  19.655  26.262  1.00  0.00    -0.380 N 
ATOM     66  H   UNL A   1      32.738  19.327  27.159  1.00  0.00     0.160 HD
BRANCH  65  67
ATOM     67  C   UNL A   1      32.763  18.693  25.173  1.00  0.00     0.107 C 
ATOM     68  C   UNL A   1      32.590  19.412  23.827  1.00  0.00     0.027 C 
ATOM     69  C   UNL A   1      33.785  17.526  25.102  1.00  0.00     0.136 C 
ATOM     70  C   UNL A   1      32.319  18.437  22.684  1.00  0.00     0.002 C 
ATOM     71  C   UNL A   1      33.444  16.580  23.947  1.00  0.00     0.034 C 
ATOM     72  C   UNL A   1      33.364  17.328  22.625  1.00  0.00     0.003 C 
BRANCH  69  73
ATOM     73  O   UNL A   1      33.846  16.735  26.283  1.00  0.00    -0.391 OA
ATOM     74  H   UNL A   1      33.641  17.288  27.053  1.00  0.00     0.211 HD
ENDBRANCH  69  73
ENDBRANCH  65  67
ENDBRANCH  63  65
ENDBRANCH  57  59
ENDBRANCH  56  57
ENDBRANCH   1  56
TORSDOF 14
ENDMDL
