MODEL 1
REMARK VINA RESULT:     -10.8      0.000      0.000
REMARK SMILES C[C@H](C(=O)OCCOC(=O)c1ccc(-c2c3nc(c(-c4ccccc4)c4ccc([nH]4)c(-c4ccccc4)c4nc(c(-c5ccccc5)c5ccc2[nH]5)C=C4)C=C3)cc1)c1ccc2c(c1)OCCO2
REMARK SMILES IDX 7 1 6 2 5 3 3 4 4 5 2 6 1 7 59 8 60 9 64 10 61 11 63 12
REMARK SMILES IDX 62 13 65 14 68 15 66 16 67 17 8 18 9 19 10 20 11 21 12 22
REMARK SMILES IDX 58 23 13 24 57 25 14 26 15 27 16 28 51 29 17 30 56 31 50 32
REMARK SMILES IDX 52 33 18 34 55 35 49 36 48 37 19 39 41 40 26 41 40 42 27 43
REMARK SMILES IDX 30 44 39 45 53 46 28 47 29 48 38 50 54 51 31 52 20 53 21 54
REMARK SMILES IDX 25 55 22 56 24 57 23 58 42 59 43 60 47 61 44 62 46 63 45 64
REMARK SMILES IDX 32 65 33 66 37 67 34 68 36 69 35 70
REMARK H PARENT 52 38 30 49
REMARK Flexibility Score: inf
ROOT
ATOM      1  C   UNL A   1      31.677  29.852  25.619  1.00  0.00     0.275 C 
ENDROOT
BRANCH   1   2
ATOM      2  C   UNL A   1      31.451  28.577  26.431  1.00  0.00     0.274 C 
BRANCH   2   3
ATOM      3  O   UNL A   1      31.953  27.456  25.681  1.00  0.00    -0.462 OA
BRANCH   3   4
ATOM      4  C   UNL A   1      31.077  26.427  25.538  1.00  0.00     0.313 C 
ATOM      5  O   UNL A   1      30.575  25.799  26.465  1.00  0.00    -0.252 OA
BRANCH   4   6
ATOM      6  C   UNL A   1      30.732  26.155  24.086  1.00  0.00     0.126 C 
ATOM      7  C   UNL A   1      30.650  24.656  23.773  1.00  0.00     0.025 C 
BRANCH   6   8
ATOM      8  C   UNL A   1      29.609  26.991  23.500  1.00  0.00    -0.030 A 
ATOM      9  C   UNL A   1      28.263  26.822  23.876  1.00  0.00     0.009 A 
ATOM     10  C   UNL A   1      29.959  28.129  22.754  1.00  0.00     0.055 A 
ATOM     11  C   UNL A   1      27.322  27.823  23.622  1.00  0.00     0.051 A 
ATOM     12  C   UNL A   1      29.049  29.158  22.585  1.00  0.00     0.161 A 
ATOM     13  C   UNL A   1      27.745  29.017  23.055  1.00  0.00     0.161 A 
ATOM     14  O   UNL A   1      29.553  30.325  22.085  1.00  0.00    -0.486 OA
ATOM     15  O   UNL A   1      26.903  30.100  23.113  1.00  0.00    -0.486 OA
ATOM     16  C   UNL A   1      28.793  31.481  22.461  1.00  0.00     0.271 C 
ATOM     17  C   UNL A   1      27.718  31.213  23.511  1.00  0.00     0.271 C 
ENDBRANCH   6   8
ENDBRANCH   4   6
ENDBRANCH   3   4
ENDBRANCH   2   3
ENDBRANCH   1   2
BRANCH   1  18
ATOM     18  O   UNL A   1      33.005  30.352  25.885  1.00  0.00    -0.458 OA
BRANCH  18  19
ATOM     19  C   UNL A   1      33.094  31.284  26.865  1.00  0.00     0.338 C 
ATOM     20  O   UNL A   1      32.263  32.139  27.123  1.00  0.00    -0.246 OA
BRANCH  19  21
ATOM     21  C   UNL A   1      34.338  31.101  27.660  1.00  0.00     0.060 A 
ATOM     22  C   UNL A   1      35.192  32.166  27.974  1.00  0.00     0.016 A 
ATOM     23  C   UNL A   1      34.709  29.803  28.022  1.00  0.00     0.016 A 
ATOM     24  C   UNL A   1      36.428  31.926  28.582  1.00  0.00     0.010 A 
ATOM     25  C   UNL A   1      35.903  29.578  28.716  1.00  0.00     0.010 A 
ATOM     26  C   UNL A   1      36.788  30.634  28.992  1.00  0.00    -0.014 A 
BRANCH  26  27
ATOM     27  C   UNL A   1      38.057  30.363  29.732  1.00  0.00     0.031 A 
ATOM     28  C   UNL A   1      39.140  29.516  29.112  1.00  0.00     0.074 A 
ATOM     29  C   UNL A   1      38.221  30.812  30.993  1.00  0.00     0.049 A 
ATOM     30  N   UNL A   1      40.170  28.941  29.683  1.00  0.00    -0.248 NA
ATOM     31  C   UNL A   1      39.041  29.270  27.666  1.00  0.00     0.031 C 
ATOM     32  C   UNL A   1      37.289  31.675  31.722  1.00  0.00     0.029 A 
ATOM     33  N   UNL A   1      39.235  30.587  31.893  1.00  0.00    -0.354 N 
ATOM     34  C   UNL A   1      40.803  28.213  28.682  1.00  0.00     0.074 A 
ATOM     35  C   UNL A   1      40.046  28.428  27.465  1.00  0.00     0.031 C 
ATOM     36  C   UNL A   1      37.785  31.927  32.942  1.00  0.00     0.029 A 
ATOM     37  C   UNL A   1      39.016  31.168  33.120  1.00  0.00     0.049 A 
ATOM     38  H   UNL A   1      40.040  30.063  31.681  1.00  0.00     0.167 HD
ATOM     39  C   UNL A   1      41.903  27.427  28.770  1.00  0.00     0.031 A 
ATOM     40  C   UNL A   1      39.689  31.061  34.281  1.00  0.00     0.031 A 
ATOM     41  C   UNL A   1      42.684  27.245  29.967  1.00  0.00     0.049 A 
ATOM     42  C   UNL A   1      40.881  30.155  34.368  1.00  0.00     0.074 A 
ATOM     43  C   UNL A   1      43.830  26.488  30.144  1.00  0.00     0.029 A 
ATOM     44  N   UNL A   1      42.406  27.839  31.188  1.00  0.00    -0.354 N 
ATOM     45  N   UNL A   1      41.431  29.424  33.430  1.00  0.00    -0.248 NA
ATOM     46  C   UNL A   1      41.529  30.042  35.682  1.00  0.00     0.031 C 
ATOM     47  C   UNL A   1      44.225  26.594  31.482  1.00  0.00     0.029 A 
ATOM     48  C   UNL A   1      43.350  27.453  32.126  1.00  0.00     0.049 A 
ATOM     49  H   UNL A   1      41.650  28.443  31.364  1.00  0.00     0.167 HD
ATOM     50  C   UNL A   1      42.496  28.773  34.037  1.00  0.00     0.074 A 
ATOM     51  C   UNL A   1      42.526  29.209  35.417  1.00  0.00     0.031 C 
ATOM     52  C   UNL A   1      43.368  27.888  33.497  1.00  0.00     0.031 A 
BRANCH  39  53
ATOM     53  C   UNL A   1      42.315  26.659  27.544  1.00  0.00    -0.014 A 
ATOM     54  C   UNL A   1      43.273  27.157  26.650  1.00  0.00     0.009 A 
ATOM     55  C   UNL A   1      41.766  25.386  27.314  1.00  0.00     0.009 A 
ATOM     56  C   UNL A   1      43.654  26.406  25.535  1.00  0.00     0.001 A 
ATOM     57  C   UNL A   1      42.167  24.627  26.213  1.00  0.00     0.001 A 
ATOM     58  C   UNL A   1      43.106  25.141  25.320  1.00  0.00     0.000 A 
ENDBRANCH  39  53
BRANCH  40  59
ATOM     59  C   UNL A   1      39.207  31.795  35.479  1.00  0.00    -0.014 A 
ATOM     60  C   UNL A   1      39.681  33.084  35.761  1.00  0.00     0.009 A 
ATOM     61  C   UNL A   1      38.258  31.216  36.337  1.00  0.00     0.009 A 
ATOM     62  C   UNL A   1      39.220  33.777  36.882  1.00  0.00     0.001 A 
ATOM     63  C   UNL A   1      37.778  31.922  37.441  1.00  0.00     0.001 A 
ATOM     64  C   UNL A   1      38.263  33.199  37.716  1.00  0.00     0.000 A 
ENDBRANCH  40  59
BRANCH  52  65
ATOM     65  C   UNL A   1      44.446  27.361  34.397  1.00  0.00    -0.014 A 
ATOM     66  C   UNL A   1      44.268  26.176  35.128  1.00  0.00     0.009 A 
ATOM     67  C   UNL A   1      45.664  28.052  34.501  1.00  0.00     0.009 A 
ATOM     68  C   UNL A   1      45.278  25.712  35.972  1.00  0.00     0.001 A 
ATOM     69  C   UNL A   1      46.680  27.572  35.328  1.00  0.00     0.001 A 
ATOM     70  C   UNL A   1      46.483  26.407  36.070  1.00  0.00     0.000 A 
ENDBRANCH  52  65
ENDBRANCH  26  27
ENDBRANCH  19  21
ENDBRANCH  18  19
ENDBRANCH   1  18
TORSDOF 12
ENDMDL
MODEL 2
REMARK VINA RESULT:     -10.5      3.980      7.562
REMARK SMILES C[C@H](C(=O)OCCOC(=O)c1ccc(-c2c3nc(c(-c4ccccc4)c4ccc([nH]4)c(-c4ccccc4)c4nc(c(-c5ccccc5)c5ccc2[nH]5)C=C4)C=C3)cc1)c1ccc2c(c1)OCCO2
REMARK SMILES IDX 7 1 6 2 5 3 3 4 4 5 2 6 1 7 59 8 60 9 64 10 61 11 63 12
REMARK SMILES IDX 62 13 65 14 68 15 66 16 67 17 8 18 9 19 10 20 11 21 12 22
REMARK SMILES IDX 58 23 13 24 57 25 14 26 15 27 16 28 51 29 17 30 56 31 50 32
REMARK SMILES IDX 52 33 18 34 55 35 49 36 48 37 19 39 41 40 26 41 40 42 27 43
REMARK SMILES IDX 30 44 39 45 53 46 28 47 29 48 38 50 54 51 31 52 20 53 21 54
REMARK SMILES IDX 25 55 22 56 24 57 23 58 42 59 43 60 47 61 44 62 46 63 45 64
REMARK SMILES IDX 32 65 33 66 37 67 34 68 36 69 35 70
REMARK H PARENT 52 38 30 49
REMARK Flexibility Score: inf
ROOT
ATOM      1  C   UNL A   1      32.796  30.546  27.197  1.00  0.00     0.275 C 
ENDROOT
BRANCH   1   2
ATOM      2  C   UNL A   1      31.883  29.455  26.635  1.00  0.00     0.274 C 
BRANCH   2   3
ATOM      3  O   UNL A   1      31.865  29.563  25.200  1.00  0.00    -0.462 OA
BRANCH   3   4
ATOM      4  C   UNL A   1      31.886  28.376  24.538  1.00  0.00     0.313 C 
ATOM      5  O   UNL A   1      32.902  27.809  24.146  1.00  0.00    -0.252 OA
BRANCH   4   6
ATOM      6  C   UNL A   1      30.502  27.778  24.371  1.00  0.00     0.126 C 
ATOM      7  C   UNL A   1      29.766  28.335  23.147  1.00  0.00     0.025 C 
BRANCH   6   8
ATOM      8  C   UNL A   1      30.400  26.274  24.547  1.00  0.00    -0.030 A 
ATOM      9  C   UNL A   1      30.372  25.384  23.457  1.00  0.00     0.009 A 
ATOM     10  C   UNL A   1      30.593  25.749  25.836  1.00  0.00     0.055 A 
ATOM     11  C   UNL A   1      30.655  24.028  23.637  1.00  0.00     0.051 A 
ATOM     12  C   UNL A   1      30.964  24.426  26.000  1.00  0.00     0.161 A 
ATOM     13  C   UNL A   1      31.033  23.580  24.896  1.00  0.00     0.161 A 
ATOM     14  O   UNL A   1      31.389  24.076  27.251  1.00  0.00    -0.486 OA
ATOM     15  O   UNL A   1      31.621  22.345  24.997  1.00  0.00    -0.486 OA
ATOM     16  C   UNL A   1      32.279  22.953  27.256  1.00  0.00     0.271 C 
ATOM     17  C   UNL A   1      32.747  22.515  25.871  1.00  0.00     0.271 C 
ENDBRANCH   6   8
ENDBRANCH   4   6
ENDBRANCH   3   4
ENDBRANCH   2   3
ENDBRANCH   1   2
BRANCH   1  18
ATOM     18  O   UNL A   1      34.067  29.963  27.550  1.00  0.00    -0.458 OA
BRANCH  18  19
ATOM     19  C   UNL A   1      34.836  30.699  28.389  1.00  0.00     0.338 C 
ATOM     20  O   UNL A   1      34.489  31.702  28.990  1.00  0.00    -0.246 OA
BRANCH  19  21
ATOM     21  C   UNL A   1      36.184  30.089  28.546  1.00  0.00     0.060 A 
ATOM     22  C   UNL A   1      36.625  29.546  29.759  1.00  0.00     0.016 A 
ATOM     23  C   UNL A   1      37.069  30.147  27.466  1.00  0.00     0.016 A 
ATOM     24  C   UNL A   1      37.952  29.129  29.907  1.00  0.00     0.010 A 
ATOM     25  C   UNL A   1      38.367  29.641  27.589  1.00  0.00     0.010 A 
ATOM     26  C   UNL A   1      38.834  29.140  28.816  1.00  0.00    -0.014 A 
BRANCH  26  27
ATOM     27  C   UNL A   1      40.226  28.609  28.918  1.00  0.00     0.031 A 
ATOM     28  C   UNL A   1      41.374  29.527  29.252  1.00  0.00     0.074 A 
ATOM     29  C   UNL A   1      40.485  27.314  28.642  1.00  0.00     0.049 A 
ATOM     30  N   UNL A   1      42.662  29.327  29.115  1.00  0.00    -0.248 NA
ATOM     31  C   UNL A   1      41.028  30.849  29.795  1.00  0.00     0.031 C 
ATOM     32  C   UNL A   1      39.486  26.287  28.341  1.00  0.00     0.029 A 
ATOM     33  N   UNL A   1      41.682  26.644  28.556  1.00  0.00    -0.354 N 
ATOM     34  C   UNL A   1      43.275  30.517  29.490  1.00  0.00     0.074 A 
ATOM     35  C   UNL A   1      42.218  31.431  29.871  1.00  0.00     0.031 C 
ATOM     36  C   UNL A   1      40.106  25.117  28.130  1.00  0.00     0.029 A 
ATOM     37  C   UNL A   1      41.547  25.329  28.183  1.00  0.00     0.049 A 
ATOM     38  H   UNL A   1      42.552  27.065  28.744  1.00  0.00     0.167 HD
ATOM     39  C   UNL A   1      44.594  30.826  29.502  1.00  0.00     0.031 A 
ATOM     40  C   UNL A   1      42.469  24.402  27.858  1.00  0.00     0.031 A 
ATOM     41  C   UNL A   1      45.652  29.907  29.165  1.00  0.00     0.049 A 
ATOM     42  C   UNL A   1      43.921  24.776  27.839  1.00  0.00     0.074 A 
ATOM     43  C   UNL A   1      47.019  30.123  29.174  1.00  0.00     0.029 A 
ATOM     44  N   UNL A   1      45.460  28.592  28.773  1.00  0.00    -0.354 N 
ATOM     45  N   UNL A   1      44.481  25.922  28.136  1.00  0.00    -0.248 NA
ATOM     46  C   UNL A   1      44.865  23.731  27.417  1.00  0.00     0.031 C 
ATOM     47  C   UNL A   1      47.654  28.951  28.751  1.00  0.00     0.029 A 
ATOM     48  C   UNL A   1      46.682  27.990  28.523  1.00  0.00     0.049 A 
ATOM     49  H   UNL A   1      44.584  28.151  28.683  1.00  0.00     0.167 HD
ATOM     50  C   UNL A   1      45.844  25.734  27.947  1.00  0.00     0.074 A 
ATOM     51  C   UNL A   1      46.027  24.360  27.528  1.00  0.00     0.031 C 
ATOM     52  C   UNL A   1      46.852  26.626  28.102  1.00  0.00     0.031 A 
BRANCH  39  53
ATOM     53  C   UNL A   1      44.979  32.237  29.852  1.00  0.00    -0.014 A 
ATOM     54  C   UNL A   1      45.274  32.615  31.170  1.00  0.00     0.009 A 
ATOM     55  C   UNL A   1      45.103  33.190  28.827  1.00  0.00     0.009 A 
ATOM     56  C   UNL A   1      45.656  33.928  31.457  1.00  0.00     0.001 A 
ATOM     57  C   UNL A   1      45.509  34.494  29.114  1.00  0.00     0.001 A 
ATOM     58  C   UNL A   1      45.778  34.864  30.430  1.00  0.00     0.000 A 
ENDBRANCH  39  53
BRANCH  40  59
ATOM     59  C   UNL A   1      42.032  23.039  27.463  1.00  0.00    -0.014 A 
ATOM     60  C   UNL A   1      41.836  22.047  28.434  1.00  0.00     0.009 A 
ATOM     61  C   UNL A   1      41.794  22.728  26.115  1.00  0.00     0.009 A 
ATOM     62  C   UNL A   1      41.417  20.767  28.062  1.00  0.00     0.001 A 
ATOM     63  C   UNL A   1      41.346  21.457  25.749  1.00  0.00     0.001 A 
ATOM     64  C   UNL A   1      41.164  20.477  26.722  1.00  0.00     0.000 A 
ENDBRANCH  40  59
BRANCH  52  65
ATOM     65  C   UNL A   1      48.244  26.127  27.849  1.00  0.00    -0.014 A 
ATOM     66  C   UNL A   1      49.028  25.600  28.889  1.00  0.00     0.009 A 
ATOM     67  C   UNL A   1      48.772  26.169  26.550  1.00  0.00     0.009 A 
ATOM     68  C   UNL A   1      50.326  25.156  28.635  1.00  0.00     0.001 A 
ATOM     69  C   UNL A   1      50.063  25.702  26.296  1.00  0.00     0.001 A 
ATOM     70  C   UNL A   1      50.842  25.204  27.340  1.00  0.00     0.000 A 
ENDBRANCH  52  65
ENDBRANCH  26  27
ENDBRANCH  19  21
ENDBRANCH  18  19
ENDBRANCH   1  18
TORSDOF 12
ENDMDL
MODEL 3
REMARK VINA RESULT:     -10.5      3.814      7.002
REMARK SMILES C[C@H](C(=O)OCCOC(=O)c1ccc(-c2c3nc(c(-c4ccccc4)c4ccc([nH]4)c(-c4ccccc4)c4nc(c(-c5ccccc5)c5ccc2[nH]5)C=C4)C=C3)cc1)c1ccc2c(c1)OCCO2
REMARK SMILES IDX 7 1 6 2 5 3 3 4 4 5 2 6 1 7 59 8 60 9 64 10 61 11 63 12
REMARK SMILES IDX 62 13 65 14 68 15 66 16 67 17 8 18 9 19 10 20 11 21 12 22
REMARK SMILES IDX 58 23 13 24 57 25 14 26 15 27 16 28 51 29 17 30 56 31 50 32
REMARK SMILES IDX 52 33 18 34 55 35 49 36 48 37 19 39 41 40 26 41 40 42 27 43
REMARK SMILES IDX 30 44 39 45 53 46 28 47 29 48 38 50 54 51 31 52 20 53 21 54
REMARK SMILES IDX 25 55 22 56 24 57 23 58 42 59 43 60 47 61 44 62 46 63 45 64
REMARK SMILES IDX 32 65 33 66 37 67 34 68 36 69 35 70
REMARK H PARENT 52 38 30 49
REMARK Flexibility Score: inf
ROOT
ATOM      1  C   UNL A   1      32.663  30.155  27.204  1.00  0.00     0.275 C 
ENDROOT
BRANCH   1   2
ATOM      2  C   UNL A   1      32.092  29.919  25.805  1.00  0.00     0.274 C 
BRANCH   2   3
ATOM      3  O   UNL A   1      32.783  28.808  25.206  1.00  0.00    -0.462 OA
BRANCH   3   4
ATOM      4  C   UNL A   1      32.045  27.672  25.090  1.00  0.00     0.313 C 
ATOM      5  O   UNL A   1      31.659  26.987  26.033  1.00  0.00    -0.252 OA
BRANCH   4   6
ATOM      6  C   UNL A   1      31.692  27.353  23.651  1.00  0.00     0.126 C 
ATOM      7  C   UNL A   1      31.910  25.874  23.307  1.00  0.00     0.025 C 
BRANCH   6   8
ATOM      8  C   UNL A   1      30.390  27.941  23.137  1.00  0.00    -0.030 A 
ATOM      9  C   UNL A   1      29.131  27.428  23.501  1.00  0.00     0.009 A 
ATOM     10  C   UNL A   1      30.445  29.185  22.486  1.00  0.00     0.055 A 
ATOM     11  C   UNL A   1      27.974  28.193  23.332  1.00  0.00     0.051 A 
ATOM     12  C   UNL A   1      29.313  29.978  22.404  1.00  0.00     0.161 A 
ATOM     13  C   UNL A   1      28.091  29.495  22.863  1.00  0.00     0.161 A 
ATOM     14  O   UNL A   1      29.516  31.267  22.000  1.00  0.00    -0.486 OA
ATOM     15  O   UNL A   1      27.018  30.338  23.011  1.00  0.00    -0.486 OA
ATOM     16  C   UNL A   1      28.512  32.175  22.470  1.00  0.00     0.271 C 
ATOM     17  C   UNL A   1      27.554  31.577  23.497  1.00  0.00     0.271 C 
ENDBRANCH   6   8
ENDBRANCH   4   6
ENDBRANCH   3   4
ENDBRANCH   2   3
ENDBRANCH   1   2
BRANCH   1  18
ATOM     18  O   UNL A   1      34.096  29.995  27.163  1.00  0.00    -0.458 OA
BRANCH  18  19
ATOM     19  C   UNL A   1      34.788  30.667  28.116  1.00  0.00     0.338 C 
ATOM     20  O   UNL A   1      34.379  31.612  28.770  1.00  0.00    -0.246 OA
BRANCH  19  21
ATOM     21  C   UNL A   1      36.130  30.060  28.324  1.00  0.00     0.060 A 
ATOM     22  C   UNL A   1      36.540  29.552  29.562  1.00  0.00     0.016 A 
ATOM     23  C   UNL A   1      37.041  30.087  27.265  1.00  0.00     0.016 A 
ATOM     24  C   UNL A   1      37.862  29.138  29.755  1.00  0.00     0.010 A 
ATOM     25  C   UNL A   1      38.336  29.584  27.435  1.00  0.00     0.010 A 
ATOM     26  C   UNL A   1      38.771  29.117  28.687  1.00  0.00    -0.014 A 
BRANCH  26  27
ATOM     27  C   UNL A   1      40.159  28.588  28.839  1.00  0.00     0.031 A 
ATOM     28  C   UNL A   1      41.293  29.507  29.218  1.00  0.00     0.074 A 
ATOM     29  C   UNL A   1      40.430  27.295  28.568  1.00  0.00     0.049 A 
ATOM     30  N   UNL A   1      42.585  29.309  29.128  1.00  0.00    -0.248 NA
ATOM     31  C   UNL A   1      40.924  30.826  29.753  1.00  0.00     0.031 C 
ATOM     32  C   UNL A   1      39.445  26.267  28.226  1.00  0.00     0.029 A 
ATOM     33  N   UNL A   1      41.631  26.627  28.524  1.00  0.00    -0.354 N 
ATOM     34  C   UNL A   1      43.181  30.499  29.530  1.00  0.00     0.074 A 
ATOM     35  C   UNL A   1      42.109  31.410  29.875  1.00  0.00     0.031 C 
ATOM     36  C   UNL A   1      40.075  25.099  28.035  1.00  0.00     0.029 A 
ATOM     37  C   UNL A   1      41.512  25.312  28.142  1.00  0.00     0.049 A 
ATOM     38  H   UNL A   1      42.492  27.048  28.746  1.00  0.00     0.167 HD
ATOM     39  C   UNL A   1      44.499  30.810  29.592  1.00  0.00     0.031 A 
ATOM     40  C   UNL A   1      42.447  24.389  27.848  1.00  0.00     0.031 A 
ATOM     41  C   UNL A   1      45.570  29.894  29.291  1.00  0.00     0.049 A 
ATOM     42  C   UNL A   1      43.898  24.765  27.885  1.00  0.00     0.074 A 
ATOM     43  C   UNL A   1      46.935  30.113  29.353  1.00  0.00     0.029 A 
ATOM     44  N   UNL A   1      45.395  28.580  28.888  1.00  0.00    -0.354 N 
ATOM     45  N   UNL A   1      44.445  25.910  28.206  1.00  0.00    -0.248 NA
ATOM     46  C   UNL A   1      44.859  23.722  27.494  1.00  0.00     0.031 C 
ATOM     47  C   UNL A   1      47.587  28.942  28.949  1.00  0.00     0.029 A 
ATOM     48  C   UNL A   1      46.627  27.981  28.681  1.00  0.00     0.049 A 
ATOM     49  H   UNL A   1      44.524  28.138  28.764  1.00  0.00     0.167 HD
ATOM     50  C   UNL A   1      45.814  25.726  28.067  1.00  0.00     0.074 A 
ATOM     51  C   UNL A   1      46.015  24.354  27.651  1.00  0.00     0.031 C 
ATOM     52  C   UNL A   1      46.815  26.618  28.263  1.00  0.00     0.031 A 
BRANCH  39  53
ATOM     53  C   UNL A   1      44.868  32.220  29.961  1.00  0.00    -0.014 A 
ATOM     54  C   UNL A   1      45.096  32.598  31.292  1.00  0.00     0.009 A 
ATOM     55  C   UNL A   1      45.044  33.173  28.943  1.00  0.00     0.009 A 
ATOM     56  C   UNL A   1      45.466  33.911  31.598  1.00  0.00     0.001 A 
ATOM     57  C   UNL A   1      45.438  34.477  29.251  1.00  0.00     0.001 A 
ATOM     58  C   UNL A   1      45.641  34.846  30.579  1.00  0.00     0.000 A 
ENDBRANCH  39  53
BRANCH  40  59
ATOM     59  C   UNL A   1      42.028  23.026  27.432  1.00  0.00    -0.014 A 
ATOM     60  C   UNL A   1      41.753  22.043  28.394  1.00  0.00     0.009 A 
ATOM     61  C   UNL A   1      41.884  22.707  26.072  1.00  0.00     0.009 A 
ATOM     62  C   UNL A   1      41.351  20.765  28.001  1.00  0.00     0.001 A 
ATOM     63  C   UNL A   1      41.453  21.437  25.685  1.00  0.00     0.001 A 
ATOM     64  C   UNL A   1      41.192  20.465  26.649  1.00  0.00     0.000 A 
ENDBRANCH  40  59
BRANCH  52  65
ATOM     65  C   UNL A   1      48.216  26.123  28.060  1.00  0.00    -0.014 A 
ATOM     66  C   UNL A   1      48.968  25.612  29.130  1.00  0.00     0.009 A 
ATOM     67  C   UNL A   1      48.785  26.151  26.777  1.00  0.00     0.009 A 
ATOM     68  C   UNL A   1      50.276  25.171  28.923  1.00  0.00     0.001 A 
ATOM     69  C   UNL A   1      50.084  25.687  26.570  1.00  0.00     0.001 A 
ATOM     70  C   UNL A   1      50.832  25.205  27.644  1.00  0.00     0.000 A 
ENDBRANCH  52  65
ENDBRANCH  26  27
ENDBRANCH  19  21
ENDBRANCH  18  19
ENDBRANCH   1  18
TORSDOF 12
ENDMDL
