MODEL 1
REMARK VINA RESULT:     -10.7      0.000      0.000
REMARK SMILES O=C(OCCOC(=O)c1cccnc1SCC(=O)c1ccccc1Cl)c1ccc(-c2c3nc(c(-c4ccccc4)c4ccc([nH]4)c(-c4ccccc4)c4nc(c(-c5ccccc5)c5ccc2[nH]5)C=C4)C=C3)cc1
REMARK SMILES IDX 5 1 4 2 3 3 2 4 1 5 26 6 27 7 73 8 28 9 72 10 29 11 30 12
REMARK SMILES IDX 31 13 66 14 32 15 71 16 65 17 67 18 33 19 70 20 64 21 63 22
REMARK SMILES IDX 34 24 56 25 41 26 55 27 42 28 45 29 54 30 68 31 43 32 44 33
REMARK SMILES IDX 53 35 69 36 46 37 35 38 36 39 40 40 37 41 39 42 38 43 57 44
REMARK SMILES IDX 58 45 62 46 59 47 61 48 60 49 47 50 48 51 52 52 49 53 51 54
REMARK SMILES IDX 50 55 6 56 7 57 8 58 9 59 10 60 14 61 11 62 13 63 12 64
REMARK SMILES IDX 15 65 16 66 17 67 18 68 19 69 20 70 24 71 21 72 23 73 25 74
REMARK SMILES IDX 22 75
REMARK H PARENT 67 23 45 34
REMARK Flexibility Score: inf
ROOT
ATOM      1  C   UNL A   1      42.378  19.106  26.547  1.00  0.00     0.275 C 
ENDROOT
BRANCH   1   2
ATOM      2  C   UNL A   1      43.489  18.581  25.627  1.00  0.00     0.275 C 
BRANCH   2   3
ATOM      3  O   UNL A   1      43.626  19.413  24.468  1.00  0.00    -0.458 OA
BRANCH   3   4
ATOM      4  C   UNL A   1      44.898  19.793  24.208  1.00  0.00     0.338 C 
ATOM      5  O   UNL A   1      45.796  19.071  23.791  1.00  0.00    -0.246 OA
BRANCH   4   6
ATOM      6  C   UNL A   1      45.074  21.171  24.734  1.00  0.00     0.060 A 
ATOM      7  C   UNL A   1      44.838  22.286  23.919  1.00  0.00     0.016 A 
ATOM      8  C   UNL A   1      45.287  21.350  26.102  1.00  0.00     0.016 A 
ATOM      9  C   UNL A   1      44.783  23.558  24.470  1.00  0.00     0.010 A 
ATOM     10  C   UNL A   1      45.124  22.608  26.675  1.00  0.00     0.010 A 
ATOM     11  C   UNL A   1      44.918  23.722  25.852  1.00  0.00    -0.014 A 
BRANCH  11  12
ATOM     12  C   UNL A   1      45.079  25.084  26.387  1.00  0.00     0.031 A 
ATOM     13  C   UNL A   1      46.473  25.639  26.427  1.00  0.00     0.074 A 
ATOM     14  C   UNL A   1      44.010  25.821  26.738  1.00  0.00     0.049 A 
ATOM     15  N   UNL A   1      46.868  26.848  26.720  1.00  0.00    -0.248 NA
ATOM     16  C   UNL A   1      47.569  24.719  26.067  1.00  0.00     0.031 C 
ATOM     17  C   UNL A   1      42.616  25.378  26.687  1.00  0.00     0.029 A 
ATOM     18  N   UNL A   1      43.932  27.105  27.209  1.00  0.00    -0.354 N 
ATOM     19  C   UNL A   1      48.244  26.835  26.541  1.00  0.00     0.074 A 
ATOM     20  C   UNL A   1      48.633  25.487  26.210  1.00  0.00     0.031 C 
ATOM     21  C   UNL A   1      41.824  26.358  27.158  1.00  0.00     0.029 A 
ATOM     22  C   UNL A   1      42.655  27.499  27.524  1.00  0.00     0.049 A 
ATOM     23  H   UNL A   1      44.717  27.689  27.311  1.00  0.00     0.167 HD
ATOM     24  C   UNL A   1      49.106  27.873  26.594  1.00  0.00     0.031 A 
ATOM     25  C   UNL A   1      42.220  28.659  28.051  1.00  0.00     0.031 A 
ATOM     26  C   UNL A   1      48.702  29.204  26.935  1.00  0.00     0.049 A 
ATOM     27  C   UNL A   1      43.219  29.769  28.235  1.00  0.00     0.074 A 
ATOM     28  C   UNL A   1      49.465  30.353  26.987  1.00  0.00     0.029 A 
ATOM     29  N   UNL A   1      47.410  29.550  27.302  1.00  0.00    -0.354 N 
ATOM     30  N   UNL A   1      44.501  29.775  27.954  1.00  0.00    -0.248 NA
ATOM     31  C   UNL A   1      42.711  31.041  28.762  1.00  0.00     0.031 C 
ATOM     32  C   UNL A   1      48.643  31.388  27.444  1.00  0.00     0.029 A 
ATOM     33  C   UNL A   1      47.360  30.890  27.628  1.00  0.00     0.049 A 
ATOM     34  H   UNL A   1      46.644  28.933  27.326  1.00  0.00     0.167 HD
ATOM     35  C   UNL A   1      44.945  31.061  28.225  1.00  0.00     0.074 A 
ATOM     36  C   UNL A   1      43.793  31.806  28.696  1.00  0.00     0.031 C 
ATOM     37  C   UNL A   1      46.186  31.588  28.085  1.00  0.00     0.031 A 
BRANCH  24  38
ATOM     38  C   UNL A   1      50.543  27.578  26.283  1.00  0.00    -0.014 A 
ATOM     39  C   UNL A   1      51.451  27.244  27.303  1.00  0.00     0.009 A 
ATOM     40  C   UNL A   1      51.008  27.682  24.966  1.00  0.00     0.009 A 
ATOM     41  C   UNL A   1      52.804  27.060  27.015  1.00  0.00     0.001 A 
ATOM     42  C   UNL A   1      52.358  27.473  24.676  1.00  0.00     0.001 A 
ATOM     43  C   UNL A   1      53.255  27.174  25.700  1.00  0.00     0.000 A 
ENDBRANCH  24  38
BRANCH  25  44
ATOM     44  C   UNL A   1      40.794  28.824  28.439  1.00  0.00    -0.014 A 
ATOM     45  C   UNL A   1      40.347  28.523  29.734  1.00  0.00     0.009 A 
ATOM     46  C   UNL A   1      39.857  29.269  27.490  1.00  0.00     0.009 A 
ATOM     47  C   UNL A   1      38.991  28.631  30.060  1.00  0.00     0.001 A 
ATOM     48  C   UNL A   1      38.507  29.400  27.824  1.00  0.00     0.001 A 
ATOM     49  C   UNL A   1      38.074  29.071  29.106  1.00  0.00     0.000 A 
ENDBRANCH  25  44
BRANCH  37  50
ATOM     50  C   UNL A   1      46.350  33.040  28.415  1.00  0.00    -0.014 A 
ATOM     51  C   UNL A   1      46.747  33.449  29.696  1.00  0.00     0.009 A 
ATOM     52  C   UNL A   1      46.185  34.000  27.404  1.00  0.00     0.009 A 
ATOM     53  C   UNL A   1      46.961  34.802  29.963  1.00  0.00     0.001 A 
ATOM     54  C   UNL A   1      46.428  35.347  27.668  1.00  0.00     0.001 A 
ATOM     55  C   UNL A   1      46.811  35.746  28.948  1.00  0.00     0.000 A 
ENDBRANCH  37  50
ENDBRANCH  11  12
ENDBRANCH   4   6
ENDBRANCH   3   4
ENDBRANCH   2   3
ENDBRANCH   1   2
BRANCH   1  56
ATOM     56  O   UNL A   1      41.655  20.201  25.951  1.00  0.00    -0.458 OA
BRANCH  56  57
ATOM     57  C   UNL A   1      40.311  20.081  26.006  1.00  0.00     0.341 C 
ATOM     58  O   UNL A   1      39.659  19.081  25.738  1.00  0.00    -0.246 OA
BRANCH  57  59
ATOM     59  C   UNL A   1      39.653  21.384  26.197  1.00  0.00     0.092 A 
ATOM     60  C   UNL A   1      40.338  22.241  27.079  1.00  0.00     0.020 A 
ATOM     61  C   UNL A   1      38.452  21.818  25.637  1.00  0.00     0.111 A 
ATOM     62  C   UNL A   1      39.805  23.474  27.422  1.00  0.00     0.021 A 
ATOM     63  N   UNL A   1      37.939  23.044  25.966  1.00  0.00    -0.249 NA
ATOM     64  C   UNL A   1      38.607  23.828  26.845  1.00  0.00     0.112 A 
BRANCH  61  65
ATOM     65  S   UNL A   1      37.264  20.857  24.728  1.00  0.00    -0.097 SA
BRANCH  65  66
ATOM     66  C   UNL A   1      35.628  21.581  24.884  1.00  0.00     0.157 C 
BRANCH  66  67
ATOM     67  C   UNL A   1      34.564  20.656  25.387  1.00  0.00     0.174 C 
ATOM     68  O   UNL A   1      34.004  20.854  26.466  1.00  0.00    -0.293 OA
BRANCH  67  69
ATOM     69  C   UNL A   1      34.031  19.588  24.499  1.00  0.00     0.037 A 
ATOM     70  C   UNL A   1      34.690  18.349  24.603  1.00  0.00     0.013 A 
ATOM     71  C   UNL A   1      32.932  19.701  23.637  1.00  0.00     0.051 A 
ATOM     72  C   UNL A   1      34.219  17.229  23.921  1.00  0.00     0.001 A 
ATOM     73  C   UNL A   1      32.454  18.566  22.972  1.00  0.00     0.021 A 
ATOM     74  Cl  UNL A   1      32.126  21.175  23.248  1.00  0.00    -0.084 Cl
ATOM     75  C   UNL A   1      33.087  17.333  23.124  1.00  0.00     0.002 A 
ENDBRANCH  67  69
ENDBRANCH  66  67
ENDBRANCH  65  66
ENDBRANCH  61  65
ENDBRANCH  57  59
ENDBRANCH  56  57
ENDBRANCH   1  56
TORSDOF 15
ENDMDL
MODEL 2
REMARK VINA RESULT:     -10.6      7.594     12.344
REMARK SMILES O=C(OCCOC(=O)c1cccnc1SCC(=O)c1ccccc1Cl)c1ccc(-c2c3nc(c(-c4ccccc4)c4ccc([nH]4)c(-c4ccccc4)c4nc(c(-c5ccccc5)c5ccc2[nH]5)C=C4)C=C3)cc1
REMARK SMILES IDX 5 1 4 2 3 3 2 4 1 5 26 6 27 7 73 8 28 9 72 10 29 11 30 12
REMARK SMILES IDX 31 13 66 14 32 15 71 16 65 17 67 18 33 19 70 20 64 21 63 22
REMARK SMILES IDX 34 24 56 25 41 26 55 27 42 28 45 29 54 30 68 31 43 32 44 33
REMARK SMILES IDX 53 35 69 36 46 37 35 38 36 39 40 40 37 41 39 42 38 43 57 44
REMARK SMILES IDX 58 45 62 46 59 47 61 48 60 49 47 50 48 51 52 52 49 53 51 54
REMARK SMILES IDX 50 55 6 56 7 57 8 58 9 59 10 60 14 61 11 62 13 63 12 64
REMARK SMILES IDX 15 65 16 66 17 67 18 68 19 69 20 70 24 71 21 72 23 73 25 74
REMARK SMILES IDX 22 75
REMARK H PARENT 67 23 45 34
REMARK Flexibility Score: inf
ROOT
ATOM      1  C   UNL A   1      33.645  35.491  28.851  1.00  0.00     0.275 C 
ENDROOT
BRANCH   1   2
ATOM      2  C   UNL A   1      32.899  36.240  29.964  1.00  0.00     0.275 C 
BRANCH   2   3
ATOM      3  O   UNL A   1      32.528  35.345  31.020  1.00  0.00    -0.458 OA
BRANCH   3   4
ATOM      4  C   UNL A   1      32.818  35.803  32.260  1.00  0.00     0.338 C 
ATOM      5  O   UNL A   1      32.317  36.779  32.804  1.00  0.00    -0.246 OA
BRANCH   4   6
ATOM      6  C   UNL A   1      34.009  35.061  32.748  1.00  0.00     0.060 A 
ATOM      7  C   UNL A   1      33.886  33.758  33.249  1.00  0.00     0.016 A 
ATOM      8  C   UNL A   1      35.278  35.596  32.524  1.00  0.00     0.016 A 
ATOM      9  C   UNL A   1      35.017  32.992  33.491  1.00  0.00     0.010 A 
ATOM     10  C   UNL A   1      36.408  34.795  32.659  1.00  0.00     0.010 A 
ATOM     11  C   UNL A   1      36.281  33.505  33.189  1.00  0.00    -0.014 A 
BRANCH  11  12
ATOM     12  C   UNL A   1      37.469  32.771  33.655  1.00  0.00     0.031 A 
ATOM     13  C   UNL A   1      37.996  31.688  32.760  1.00  0.00     0.074 A 
ATOM     14  C   UNL A   1      38.099  33.123  34.790  1.00  0.00     0.049 A 
ATOM     15  N   UNL A   1      39.095  30.992  32.870  1.00  0.00    -0.248 NA
ATOM     16  C   UNL A   1      37.191  31.357  31.568  1.00  0.00     0.031 C 
ATOM     17  C   UNL A   1      37.685  34.194  35.698  1.00  0.00     0.029 A 
ATOM     18  N   UNL A   1      39.227  32.613  35.375  1.00  0.00    -0.354 N 
ATOM     19  C   UNL A   1      39.124  30.178  31.746  1.00  0.00     0.074 A 
ATOM     20  C   UNL A   1      37.899  30.388  31.017  1.00  0.00     0.031 C 
ATOM     21  C   UNL A   1      38.519  34.228  36.752  1.00  0.00     0.029 A 
ATOM     22  C   UNL A   1      39.534  33.194  36.581  1.00  0.00     0.049 A 
ATOM     23  H   UNL A   1      39.768  31.897  34.970  1.00  0.00     0.167 HD
ATOM     24  C   UNL A   1      40.116  29.363  31.328  1.00  0.00     0.031 A 
ATOM     25  C   UNL A   1      40.529  32.912  37.442  1.00  0.00     0.031 A 
ATOM     26  C   UNL A   1      41.323  29.159  32.071  1.00  0.00     0.049 A 
ATOM     27  C   UNL A   1      41.558  31.897  37.023  1.00  0.00     0.074 A 
ATOM     28  C   UNL A   1      42.423  28.392  31.743  1.00  0.00     0.029 A 
ATOM     29  N   UNL A   1      41.569  29.723  33.314  1.00  0.00    -0.354 N 
ATOM     30  N   UNL A   1      41.631  31.216  35.904  1.00  0.00    -0.248 NA
ATOM     31  C   UNL A   1      42.662  31.644  37.957  1.00  0.00     0.031 C 
ATOM     32  C   UNL A   1      43.314  28.447  32.819  1.00  0.00     0.029 A 
ATOM     33  C   UNL A   1      42.788  29.286  33.792  1.00  0.00     0.049 A 
ATOM     34  H   UNL A   1      40.966  30.342  33.785  1.00  0.00     0.167 HD
ATOM     35  C   UNL A   1      42.811  30.488  35.977  1.00  0.00     0.074 A 
ATOM     36  C   UNL A   1      43.418  30.811  37.254  1.00  0.00     0.031 C 
ATOM     37  C   UNL A   1      43.354  29.642  35.068  1.00  0.00     0.031 A 
BRANCH  24  38
ATOM     38  C   UNL A   1      39.904  28.650  30.025  1.00  0.00    -0.014 A 
ATOM     39  C   UNL A   1      39.382  27.346  29.990  1.00  0.00     0.009 A 
ATOM     40  C   UNL A   1      40.274  29.268  28.823  1.00  0.00     0.009 A 
ATOM     41  C   UNL A   1      39.275  26.659  28.779  1.00  0.00     0.001 A 
ATOM     42  C   UNL A   1      40.141  28.588  27.611  1.00  0.00     0.001 A 
ATOM     43  C   UNL A   1      39.654  27.283  27.591  1.00  0.00     0.000 A 
ENDBRANCH  24  38
BRANCH  25  44
ATOM     44  C   UNL A   1      40.596  33.586  38.767  1.00  0.00    -0.014 A 
ATOM     45  C   UNL A   1      39.913  33.079  39.882  1.00  0.00     0.009 A 
ATOM     46  C   UNL A   1      41.337  34.771  38.912  1.00  0.00     0.009 A 
ATOM     47  C   UNL A   1      39.943  33.760  41.103  1.00  0.00     0.001 A 
ATOM     48  C   UNL A   1      41.387  35.437  40.139  1.00  0.00     0.001 A 
ATOM     49  C   UNL A   1      40.681  34.937  41.231  1.00  0.00     0.000 A 
ENDBRANCH  25  44
BRANCH  37  50
ATOM     50  C   UNL A   1      44.679  29.035  35.412  1.00  0.00    -0.014 A 
ATOM     51  C   UNL A   1      44.760  27.791  36.053  1.00  0.00     0.009 A 
ATOM     52  C   UNL A   1      45.859  29.681  35.009  1.00  0.00     0.009 A 
ATOM     53  C   UNL A   1      46.004  27.211  36.301  1.00  0.00     0.001 A 
ATOM     54  C   UNL A   1      47.098  29.085  35.234  1.00  0.00     0.001 A 
ATOM     55  C   UNL A   1      47.169  27.854  35.883  1.00  0.00     0.000 A 
ENDBRANCH  37  50
ENDBRANCH  11  12
ENDBRANCH   4   6
ENDBRANCH   3   4
ENDBRANCH   2   3
ENDBRANCH   1   2
BRANCH   1  56
ATOM     56  O   UNL A   1      33.666  34.068  29.077  1.00  0.00    -0.458 OA
BRANCH  56  57
ATOM     57  C   UNL A   1      33.270  33.326  28.021  1.00  0.00     0.341 C 
ATOM     58  O   UNL A   1      32.263  33.500  27.348  1.00  0.00    -0.246 OA
BRANCH  57  59
ATOM     59  C   UNL A   1      34.064  32.095  27.888  1.00  0.00     0.092 A 
ATOM     60  C   UNL A   1      35.436  32.274  28.149  1.00  0.00     0.020 A 
ATOM     61  C   UNL A   1      33.613  30.829  27.514  1.00  0.00     0.111 A 
ATOM     62  C   UNL A   1      36.329  31.225  27.990  1.00  0.00     0.021 A 
ATOM     63  N   UNL A   1      34.496  29.793  27.375  1.00  0.00    -0.249 NA
ATOM     64  C   UNL A   1      35.814  30.010  27.600  1.00  0.00     0.112 A 
BRANCH  61  65
ATOM     65  S   UNL A   1      32.013  30.390  26.872  1.00  0.00    -0.097 SA
BRANCH  65  66
ATOM     66  C   UNL A   1      31.783  28.610  26.942  1.00  0.00     0.157 C 
BRANCH  66  67
ATOM     67  C   UNL A   1      32.152  27.869  25.695  1.00  0.00     0.174 C 
ATOM     68  O   UNL A   1      32.327  28.461  24.628  1.00  0.00    -0.293 OA
BRANCH  67  69
ATOM     69  C   UNL A   1      32.502  26.425  25.768  1.00  0.00     0.037 A 
ATOM     70  C   UNL A   1      33.868  26.137  25.587  1.00  0.00     0.013 A 
ATOM     71  C   UNL A   1      31.619  25.373  26.044  1.00  0.00     0.051 A 
ATOM     72  C   UNL A   1      34.354  24.843  25.750  1.00  0.00     0.001 A 
ATOM     73  C   UNL A   1      32.120  24.079  26.227  1.00  0.00     0.021 A 
ATOM     74  Cl  UNL A   1      29.902  25.513  26.113  1.00  0.00    -0.084 Cl
ATOM     75  C   UNL A   1      33.482  23.817  26.094  1.00  0.00     0.002 A 
ENDBRANCH  67  69
ENDBRANCH  66  67
ENDBRANCH  65  66
ENDBRANCH  61  65
ENDBRANCH  57  59
ENDBRANCH  56  57
ENDBRANCH   1  56
TORSDOF 15
ENDMDL
MODEL 3
REMARK VINA RESULT:     -10.5      4.493      9.270
REMARK SMILES O=C(OCCOC(=O)c1cccnc1SCC(=O)c1ccccc1Cl)c1ccc(-c2c3nc(c(-c4ccccc4)c4ccc([nH]4)c(-c4ccccc4)c4nc(c(-c5ccccc5)c5ccc2[nH]5)C=C4)C=C3)cc1
REMARK SMILES IDX 5 1 4 2 3 3 2 4 1 5 26 6 27 7 73 8 28 9 72 10 29 11 30 12
REMARK SMILES IDX 31 13 66 14 32 15 71 16 65 17 67 18 33 19 70 20 64 21 63 22
REMARK SMILES IDX 34 24 56 25 41 26 55 27 42 28 45 29 54 30 68 31 43 32 44 33
REMARK SMILES IDX 53 35 69 36 46 37 35 38 36 39 40 40 37 41 39 42 38 43 57 44
REMARK SMILES IDX 58 45 62 46 59 47 61 48 60 49 47 50 48 51 52 52 49 53 51 54
REMARK SMILES IDX 50 55 6 56 7 57 8 58 9 59 10 60 14 61 11 62 13 63 12 64
REMARK SMILES IDX 15 65 16 66 17 67 18 68 19 69 20 70 24 71 21 72 23 73 25 74
REMARK SMILES IDX 22 75
REMARK H PARENT 67 23 45 34
REMARK Flexibility Score: inf
ROOT
ATOM      1  C   UNL A   1      31.921  29.276  26.088  1.00  0.00     0.275 C 
ENDROOT
BRANCH   1   2
ATOM      2  C   UNL A   1      32.486  30.356  27.020  1.00  0.00     0.275 C 
BRANCH   2   3
ATOM      3  O   UNL A   1      33.899  30.192  27.193  1.00  0.00    -0.458 OA
BRANCH   3   4
ATOM      4  C   UNL A   1      34.448  31.037  28.096  1.00  0.00     0.338 C 
ATOM      5  O   UNL A   1      33.985  32.116  28.448  1.00  0.00    -0.246 OA
BRANCH   4   6
ATOM      6  C   UNL A   1      35.813  30.542  28.408  1.00  0.00     0.060 A 
ATOM      7  C   UNL A   1      36.100  29.964  29.652  1.00  0.00     0.016 A 
ATOM      8  C   UNL A   1      36.758  30.477  27.384  1.00  0.00     0.016 A 
ATOM      9  C   UNL A   1      37.302  29.304  29.857  1.00  0.00     0.010 A 
ATOM     10  C   UNL A   1      37.916  29.722  27.548  1.00  0.00     0.010 A 
ATOM     11  C   UNL A   1      38.211  29.174  28.803  1.00  0.00    -0.014 A 
BRANCH  11  12
ATOM     12  C   UNL A   1      39.563  28.670  29.097  1.00  0.00     0.031 A 
ATOM     13  C   UNL A   1      40.479  29.584  29.856  1.00  0.00     0.074 A 
ATOM     14  C   UNL A   1      39.919  27.414  28.774  1.00  0.00     0.049 A 
ATOM     15  N   UNL A   1      41.660  29.336  30.355  1.00  0.00    -0.248 NA
ATOM     16  C   UNL A   1      39.997  30.956  30.108  1.00  0.00     0.031 C 
ATOM     17  C   UNL A   1      39.076  26.441  28.078  1.00  0.00     0.029 A 
ATOM     18  N   UNL A   1      41.091  26.740  28.992  1.00  0.00    -0.354 N 
ATOM     19  C   UNL A   1      42.033  30.503  31.007  1.00  0.00     0.074 A 
ATOM     20  C   UNL A   1      41.010  31.490  30.765  1.00  0.00     0.031 C 
ATOM     21  C   UNL A   1      39.777  25.310  27.881  1.00  0.00     0.029 A 
ATOM     22  C   UNL A   1      41.108  25.477  28.453  1.00  0.00     0.049 A 
ATOM     23  H   UNL A   1      41.850  27.124  29.487  1.00  0.00     0.167 HD
ATOM     24  C   UNL A   1      43.112  30.718  31.789  1.00  0.00     0.031 A 
ATOM     25  C   UNL A   1      42.098  24.565  28.433  1.00  0.00     0.031 A 
ATOM     26  C   UNL A   1      44.123  29.729  32.010  1.00  0.00     0.049 A 
ATOM     27  C   UNL A   1      43.357  24.873  29.198  1.00  0.00     0.074 A 
ATOM     28  C   UNL A   1      45.246  29.802  32.810  1.00  0.00     0.029 A 
ATOM     29  N   UNL A   1      44.131  28.483  31.402  1.00  0.00    -0.354 N 
ATOM     30  N   UNL A   1      43.648  25.940  29.903  1.00  0.00    -0.248 NA
ATOM     31  C   UNL A   1      44.402  23.842  29.203  1.00  0.00     0.031 C 
ATOM     32  C   UNL A   1      45.967  28.617  32.639  1.00  0.00     0.029 A 
ATOM     33  C   UNL A   1      45.266  27.789  31.772  1.00  0.00     0.049 A 
ATOM     34  H   UNL A   1      43.432  28.143  30.797  1.00  0.00     0.167 HD
ATOM     35  C   UNL A   1      44.888  25.692  30.476  1.00  0.00     0.074 A 
ATOM     36  C   UNL A   1      45.293  24.373  30.030  1.00  0.00     0.031 C 
ATOM     37  C   UNL A   1      45.622  26.473  31.307  1.00  0.00     0.031 A 
BRANCH  24  38
ATOM     38  C   UNL A   1      43.226  32.069  32.431  1.00  0.00    -0.014 A 
ATOM     39  C   UNL A   1      43.925  33.113  31.802  1.00  0.00     0.009 A 
ATOM     40  C   UNL A   1      42.672  32.288  33.699  1.00  0.00     0.009 A 
ATOM     41  C   UNL A   1      44.103  34.337  32.450  1.00  0.00     0.001 A 
ATOM     42  C   UNL A   1      42.828  33.521  34.334  1.00  0.00     0.001 A 
ATOM     43  C   UNL A   1      43.552  34.539  33.715  1.00  0.00     0.000 A 
ENDBRANCH  24  38
BRANCH  25  44
ATOM     44  C   UNL A   1      41.942  23.297  27.671  1.00  0.00    -0.014 A 
ATOM     45  C   UNL A   1      41.341  22.167  28.244  1.00  0.00     0.009 A 
ATOM     46  C   UNL A   1      42.424  23.208  26.354  1.00  0.00     0.009 A 
ATOM     47  C   UNL A   1      41.256  20.968  27.529  1.00  0.00     0.001 A 
ATOM     48  C   UNL A   1      42.316  22.017  25.632  1.00  0.00     0.001 A 
ATOM     49  C   UNL A   1      41.742  20.895  26.224  1.00  0.00     0.000 A 
ENDBRANCH  25  44
BRANCH  37  50
ATOM     50  C   UNL A   1      46.915  25.907  31.807  1.00  0.00    -0.014 A 
ATOM     51  C   UNL A   1      48.101  26.061  31.077  1.00  0.00     0.009 A 
ATOM     52  C   UNL A   1      46.955  25.287  33.066  1.00  0.00     0.009 A 
ATOM     53  C   UNL A   1      49.307  25.587  31.594  1.00  0.00     0.001 A 
ATOM     54  C   UNL A   1      48.166  24.841  33.591  1.00  0.00     0.001 A 
ATOM     55  C   UNL A   1      49.339  24.987  32.852  1.00  0.00     0.000 A 
ENDBRANCH  37  50
ENDBRANCH  11  12
ENDBRANCH   4   6
ENDBRANCH   3   4
ENDBRANCH   2   3
ENDBRANCH   1   2
BRANCH   1  56
ATOM     56  O   UNL A   1      32.122  27.949  26.613  1.00  0.00    -0.458 OA
BRANCH  56  57
ATOM     57  C   UNL A   1      31.338  27.000  26.057  1.00  0.00     0.341 C 
ATOM     58  O   UNL A   1      30.612  26.216  26.652  1.00  0.00    -0.246 OA
BRANCH  57  59
ATOM     59  C   UNL A   1      31.625  26.826  24.624  1.00  0.00     0.092 A 
ATOM     60  C   UNL A   1      30.584  27.258  23.780  1.00  0.00     0.020 A 
ATOM     61  C   UNL A   1      32.766  26.268  24.048  1.00  0.00     0.111 A 
ATOM     62  C   UNL A   1      30.671  27.089  22.407  1.00  0.00     0.021 A 
ATOM     63  N   UNL A   1      32.854  26.119  22.691  1.00  0.00    -0.249 NA
ATOM     64  C   UNL A   1      31.819  26.514  21.912  1.00  0.00     0.112 A 
BRANCH  61  65
ATOM     65  S   UNL A   1      34.088  25.406  24.868  1.00  0.00    -0.097 SA
BRANCH  65  66
ATOM     66  C   UNL A   1      33.493  23.850  25.539  1.00  0.00     0.157 C 
BRANCH  66  67
ATOM     67  C   UNL A   1      34.429  23.161  26.482  1.00  0.00     0.174 C 
ATOM     68  O   UNL A   1      34.104  22.929  27.648  1.00  0.00    -0.293 OA
BRANCH  67  69
ATOM     69  C   UNL A   1      35.696  22.572  25.971  1.00  0.00     0.037 A 
ATOM     70  C   UNL A   1      36.846  23.348  26.205  1.00  0.00     0.013 A 
ATOM     71  C   UNL A   1      35.835  21.327  25.344  1.00  0.00     0.051 A 
ATOM     72  C   UNL A   1      38.113  22.864  25.889  1.00  0.00     0.001 A 
ATOM     73  C   UNL A   1      37.113  20.839  25.050  1.00  0.00     0.021 A 
ATOM     74  Cl  UNL A   1      34.529  20.331  24.818  1.00  0.00    -0.084 Cl
ATOM     75  C   UNL A   1      38.247  21.598  25.332  1.00  0.00     0.002 A 
ENDBRANCH  67  69
ENDBRANCH  66  67
ENDBRANCH  65  66
ENDBRANCH  61  65
ENDBRANCH  57  59
ENDBRANCH  56  57
ENDBRANCH   1  56
TORSDOF 15
ENDMDL
