MODEL 1
REMARK VINA RESULT:     -10.3      0.000      0.000
REMARK SMILES CC[C@H](C(=O)OCCOC(=O)c1ccc(-c2c3nc(c(-c4ccccc4)c4ccc([nH]4)c(-c4ccccc4)c4nc(c(-c5ccccc5)c5ccc2[nH]5)C=C4)C=C3)cc1)N1C(=O)/C(=C\c2cccs2)SC1=S
REMARK SMILES IDX 7 1 6 2 4 3 5 4 3 5 2 6 1 7 60 8 61 9 71 10 62 11 63 12
REMARK SMILES IDX 70 13 72 14 64 15 65 16 66 17 69 18 67 19 68 20 8 21 9 22
REMARK SMILES IDX 10 23 11 24 12 25 13 26 59 27 14 28 58 29 15 30 16 31 17 32
REMARK SMILES IDX 52 33 18 34 57 35 51 36 53 37 19 38 56 39 50 40 49 41 20 43
REMARK SMILES IDX 42 44 27 45 41 46 28 47 31 48 40 49 54 50 29 51 30 52 39 54
REMARK SMILES IDX 55 55 32 56 21 57 22 58 26 59 23 60 25 61 24 62 43 63 44 64
REMARK SMILES IDX 48 65 45 66 47 67 46 68 33 69 34 70 38 71 35 72 37 73 36 74
REMARK H PARENT 53 42 31 53
REMARK Flexibility Score: inf
ROOT
ATOM      1  C   UNL A   1      33.372  29.478  25.931  1.00  0.00     0.274 C 
ENDROOT
BRANCH   1   2
ATOM      2  O   UNL A   1      32.651  28.226  25.923  1.00  0.00    -0.461 OA
BRANCH   2   3
ATOM      3  C   UNL A   1      33.159  27.270  25.098  1.00  0.00     0.329 C 
ATOM      4  O   UNL A   1      34.020  26.466  25.434  1.00  0.00    -0.250 OA
BRANCH   3   5
ATOM      5  C   UNL A   1      32.534  27.320  23.688  1.00  0.00     0.201 C 
BRANCH   5   6
ATOM      6  C   UNL A   1      33.287  26.213  22.893  1.00  0.00     0.034 C 
ATOM      7  C   UNL A   1      32.840  25.992  21.437  1.00  0.00     0.007 C 
ENDBRANCH   5   6
BRANCH   5   8
ATOM      8  N   UNL A   1      31.040  27.234  23.726  1.00  0.00    -0.278 N 
ATOM      9  C   UNL A   1      30.231  28.353  23.632  1.00  0.00     0.267 C 
ATOM     10  C   UNL A   1      30.349  26.121  24.173  1.00  0.00     0.149 C 
ATOM     11  O   UNL A   1      30.590  29.510  23.795  1.00  0.00    -0.268 OA
ATOM     12  C   UNL A   1      28.799  27.975  23.474  1.00  0.00     0.081 C 
ATOM     13  S   UNL A   1      28.615  26.323  23.904  1.00  0.00    -0.054 SA
ATOM     14  S   UNL A   1      30.950  24.748  24.902  1.00  0.00    -0.052 S 
ATOM     15  C   UNL A   1      27.787  28.772  23.098  1.00  0.00     0.040 C 
BRANCH  15  16
ATOM     16  C   UNL A   1      27.984  30.147  22.796  1.00  0.00     0.028 A 
ATOM     17  C   UNL A   1      27.867  31.260  23.612  1.00  0.00     0.020 A 
ATOM     18  S   UNL A   1      28.391  30.609  21.189  1.00  0.00    -0.144 S 
ATOM     19  C   UNL A   1      27.993  32.484  22.893  1.00  0.00     0.012 A 
ATOM     20  C   UNL A   1      28.255  32.271  21.558  1.00  0.00     0.065 A 
ENDBRANCH  15  16
ENDBRANCH   5   8
ENDBRANCH   3   5
ENDBRANCH   2   3
ENDBRANCH   1   2
BRANCH   1  21
ATOM     21  C   UNL A   1      33.506  30.079  27.333  1.00  0.00     0.275 C 
BRANCH  21  22
ATOM     22  O   UNL A   1      34.676  30.910  27.408  1.00  0.00    -0.458 OA
BRANCH  22  23
ATOM     23  C   UNL A   1      35.196  31.103  28.638  1.00  0.00     0.338 C 
ATOM     24  O   UNL A   1      34.666  31.672  29.582  1.00  0.00    -0.246 OA
BRANCH  23  25
ATOM     25  C   UNL A   1      36.566  30.553  28.700  1.00  0.00     0.060 A 
ATOM     26  C   UNL A   1      37.283  30.233  27.545  1.00  0.00     0.016 A 
ATOM     27  C   UNL A   1      37.119  30.289  29.952  1.00  0.00     0.016 A 
ATOM     28  C   UNL A   1      38.534  29.629  27.628  1.00  0.00     0.010 A 
ATOM     29  C   UNL A   1      38.403  29.747  30.039  1.00  0.00     0.010 A 
ATOM     30  C   UNL A   1      39.116  29.406  28.878  1.00  0.00    -0.014 A 
BRANCH  30  31
ATOM     31  C   UNL A   1      40.478  28.837  28.986  1.00  0.00     0.031 A 
ATOM     32  C   UNL A   1      41.634  29.721  29.344  1.00  0.00     0.074 A 
ATOM     33  C   UNL A   1      40.676  27.530  28.731  1.00  0.00     0.049 A 
ATOM     34  N   UNL A   1      42.915  29.474  29.265  1.00  0.00    -0.248 NA
ATOM     35  C   UNL A   1      41.305  31.063  29.854  1.00  0.00     0.031 C 
ATOM     36  C   UNL A   1      39.625  26.550  28.449  1.00  0.00     0.029 A 
ATOM     37  N   UNL A   1      41.838  26.804  28.656  1.00  0.00    -0.354 N 
ATOM     38  C   UNL A   1      43.549  30.640  29.676  1.00  0.00     0.074 A 
ATOM     39  C   UNL A   1      42.510  31.595  30.004  1.00  0.00     0.031 C 
ATOM     40  C   UNL A   1      40.189  25.349  28.245  1.00  0.00     0.029 A 
ATOM     41  C   UNL A   1      41.638  25.496  28.289  1.00  0.00     0.049 A 
ATOM     42  H   UNL A   1      42.726  27.183  28.846  1.00  0.00     0.167 HD
ATOM     43  C   UNL A   1      44.877  30.890  29.756  1.00  0.00     0.031 A 
ATOM     44  C   UNL A   1      42.522  24.537  27.960  1.00  0.00     0.031 A 
ATOM     45  C   UNL A   1      45.898  29.931  29.424  1.00  0.00     0.049 A 
ATOM     46  C   UNL A   1      43.983  24.874  27.936  1.00  0.00     0.074 A 
ATOM     47  C   UNL A   1      47.273  30.081  29.472  1.00  0.00     0.029 A 
ATOM     48  N   UNL A   1      45.650  28.642  28.979  1.00  0.00    -0.354 N 
ATOM     49  N   UNL A   1      44.575  25.995  28.270  1.00  0.00    -0.248 NA
ATOM     50  C   UNL A   1      44.894  23.826  27.457  1.00  0.00     0.031 C 
ATOM     51  C   UNL A   1      47.856  28.897  29.008  1.00  0.00     0.029 A 
ATOM     52  C   UNL A   1      46.845  27.994  28.716  1.00  0.00     0.049 A 
ATOM     53  H   UNL A   1      44.756  28.245  28.867  1.00  0.00     0.167 HD
ATOM     54  C   UNL A   1      45.928  25.788  28.047  1.00  0.00     0.074 A 
ATOM     55  C   UNL A   1      46.071  24.427  27.566  1.00  0.00     0.031 C 
ATOM     56  C   UNL A   1      46.960  26.647  28.220  1.00  0.00     0.031 A 
BRANCH  43  57
ATOM     57  C   UNL A   1      45.295  32.273  30.166  1.00  0.00    -0.014 A 
ATOM     58  C   UNL A   1      45.475  33.295  29.223  1.00  0.00     0.009 A 
ATOM     59  C   UNL A   1      45.491  32.560  31.526  1.00  0.00     0.009 A 
ATOM     60  C   UNL A   1      45.875  34.570  29.630  1.00  0.00     0.001 A 
ATOM     61  C   UNL A   1      45.869  33.841  31.933  1.00  0.00     0.001 A 
ATOM     62  C   UNL A   1      46.068  34.842  30.985  1.00  0.00     0.000 A 
ENDBRANCH  43  57
BRANCH  44  63
ATOM     63  C   UNL A   1      42.034  23.194  27.553  1.00  0.00    -0.014 A 
ATOM     64  C   UNL A   1      41.835  22.191  28.511  1.00  0.00     0.009 A 
ATOM     65  C   UNL A   1      41.736  22.921  26.208  1.00  0.00     0.009 A 
ATOM     66  C   UNL A   1      41.348  20.937  28.129  1.00  0.00     0.001 A 
ATOM     67  C   UNL A   1      41.224  21.677  25.834  1.00  0.00     0.001 A 
ATOM     68  C   UNL A   1      41.035  20.686  26.794  1.00  0.00     0.000 A 
ENDBRANCH  44  63
BRANCH  56  69
ATOM     69  C   UNL A   1      48.332  26.134  27.897  1.00  0.00    -0.014 A 
ATOM     70  C   UNL A   1      48.886  26.315  26.621  1.00  0.00     0.009 A 
ATOM     71  C   UNL A   1      49.089  25.491  28.888  1.00  0.00     0.009 A 
ATOM     72  C   UNL A   1      50.168  25.841  26.338  1.00  0.00     0.001 A 
ATOM     73  C   UNL A   1      50.378  25.037  28.608  1.00  0.00     0.001 A 
ATOM     74  C   UNL A   1      50.913  25.207  27.332  1.00  0.00     0.000 A 
ENDBRANCH  56  69
ENDBRANCH  30  31
ENDBRANCH  23  25
ENDBRANCH  22  23
ENDBRANCH  21  22
ENDBRANCH   1  21
TORSDOF 14
ENDMDL
MODEL 2
REMARK VINA RESULT:     -10.3      1.855      3.916
REMARK SMILES CC[C@H](C(=O)OCCOC(=O)c1ccc(-c2c3nc(c(-c4ccccc4)c4ccc([nH]4)c(-c4ccccc4)c4nc(c(-c5ccccc5)c5ccc2[nH]5)C=C4)C=C3)cc1)N1C(=O)/C(=C\c2cccs2)SC1=S
REMARK SMILES IDX 7 1 6 2 4 3 5 4 3 5 2 6 1 7 60 8 61 9 71 10 62 11 63 12
REMARK SMILES IDX 70 13 72 14 64 15 65 16 66 17 69 18 67 19 68 20 8 21 9 22
REMARK SMILES IDX 10 23 11 24 12 25 13 26 59 27 14 28 58 29 15 30 16 31 17 32
REMARK SMILES IDX 52 33 18 34 57 35 51 36 53 37 19 38 56 39 50 40 49 41 20 43
REMARK SMILES IDX 42 44 27 45 41 46 28 47 31 48 40 49 54 50 29 51 30 52 39 54
REMARK SMILES IDX 55 55 32 56 21 57 22 58 26 59 23 60 25 61 24 62 43 63 44 64
REMARK SMILES IDX 48 65 45 66 47 67 46 68 33 69 34 70 38 71 35 72 37 73 36 74
REMARK H PARENT 53 42 31 53
REMARK Flexibility Score: inf
ROOT
ATOM      1  C   UNL A   1      31.908  29.098  26.456  1.00  0.00     0.274 C 
ENDROOT
BRANCH   1   2
ATOM      2  O   UNL A   1      32.703  28.475  25.422  1.00  0.00    -0.461 OA
BRANCH   2   3
ATOM      3  C   UNL A   1      32.028  28.155  24.284  1.00  0.00     0.329 C 
ATOM      4  O   UNL A   1      31.171  28.868  23.776  1.00  0.00    -0.250 OA
BRANCH   3   5
ATOM      5  C   UNL A   1      32.457  26.788  23.714  1.00  0.00     0.201 C 
BRANCH   5   6
ATOM      6  C   UNL A   1      33.827  27.068  23.029  1.00  0.00     0.034 C 
ATOM      7  C   UNL A   1      33.968  28.420  22.309  1.00  0.00     0.007 C 
ENDBRANCH   5   6
BRANCH   5   8
ATOM      8  N   UNL A   1      32.421  25.704  24.747  1.00  0.00    -0.278 N 
ATOM      9  C   UNL A   1      33.433  24.769  24.874  1.00  0.00     0.267 C 
ATOM     10  C   UNL A   1      31.274  25.336  25.429  1.00  0.00     0.149 C 
ATOM     11  O   UNL A   1      34.288  24.524  24.036  1.00  0.00    -0.268 OA
ATOM     12  C   UNL A   1      33.262  23.949  26.105  1.00  0.00     0.081 C 
ATOM     13  S   UNL A   1      31.658  24.153  26.684  1.00  0.00    -0.054 SA
ATOM     14  S   UNL A   1      29.707  25.841  25.176  1.00  0.00    -0.052 S 
ATOM     15  C   UNL A   1      34.170  23.144  26.677  1.00  0.00     0.040 C 
BRANCH  15  16
ATOM     16  C   UNL A   1      35.473  22.973  26.131  1.00  0.00     0.028 A 
ATOM     17  C   UNL A   1      36.587  23.790  26.225  1.00  0.00     0.020 A 
ATOM     18  S   UNL A   1      35.804  21.598  25.153  1.00  0.00    -0.144 S 
ATOM     19  C   UNL A   1      37.664  23.346  25.402  1.00  0.00     0.012 A 
ATOM     20  C   UNL A   1      37.359  22.176  24.745  1.00  0.00     0.065 A 
ENDBRANCH  15  16
ENDBRANCH   5   8
ENDBRANCH   3   5
ENDBRANCH   2   3
ENDBRANCH   1   2
BRANCH   1  21
ATOM     21  C   UNL A   1      32.663  30.197  27.207  1.00  0.00     0.275 C 
BRANCH  21  22
ATOM     22  O   UNL A   1      33.956  29.721  27.617  1.00  0.00    -0.458 OA
BRANCH  22  23
ATOM     23  C   UNL A   1      34.742  30.604  28.267  1.00  0.00     0.338 C 
ATOM     24  O   UNL A   1      34.435  31.728  28.639  1.00  0.00    -0.246 OA
BRANCH  23  25
ATOM     25  C   UNL A   1      36.095  30.041  28.449  1.00  0.00     0.060 A 
ATOM     26  C   UNL A   1      36.509  29.502  29.670  1.00  0.00     0.016 A 
ATOM     27  C   UNL A   1      36.994  30.116  27.388  1.00  0.00     0.016 A 
ATOM     28  C   UNL A   1      37.816  29.064  29.847  1.00  0.00     0.010 A 
ATOM     29  C   UNL A   1      38.287  29.613  27.541  1.00  0.00     0.010 A 
ATOM     30  C   UNL A   1      38.710  29.090  28.774  1.00  0.00    -0.014 A 
BRANCH  30  31
ATOM     31  C   UNL A   1      40.083  28.555  28.920  1.00  0.00     0.031 A 
ATOM     32  C   UNL A   1      41.203  29.465  29.324  1.00  0.00     0.074 A 
ATOM     33  C   UNL A   1      40.323  27.256  28.659  1.00  0.00     0.049 A 
ATOM     34  N   UNL A   1      42.492  29.252  29.284  1.00  0.00    -0.248 NA
ATOM     35  C   UNL A   1      40.822  30.792  29.836  1.00  0.00     0.031 C 
ATOM     36  C   UNL A   1      39.307  26.252  28.334  1.00  0.00     0.029 A 
ATOM     37  N   UNL A   1      41.505  26.561  28.615  1.00  0.00    -0.354 N 
ATOM     38  C   UNL A   1      43.081  30.430  29.726  1.00  0.00     0.074 A 
ATOM     39  C   UNL A   1      42.008  31.354  30.030  1.00  0.00     0.031 C 
ATOM     40  C   UNL A   1      39.909  25.069  28.137  1.00  0.00     0.029 A 
ATOM     41  C   UNL A   1      41.352  25.252  28.229  1.00  0.00     0.049 A 
ATOM     42  H   UNL A   1      42.376  26.961  28.837  1.00  0.00     0.167 HD
ATOM     43  C   UNL A   1      44.398  30.713  29.852  1.00  0.00     0.031 A 
ATOM     44  C   UNL A   1      42.270  24.320  27.920  1.00  0.00     0.031 A 
ATOM     45  C   UNL A   1      45.455  29.784  29.543  1.00  0.00     0.049 A 
ATOM     46  C   UNL A   1      43.722  24.695  27.946  1.00  0.00     0.074 A 
ATOM     47  C   UNL A   1      46.823  29.969  29.638  1.00  0.00     0.029 A 
ATOM     48  N   UNL A   1      45.256  28.494  29.078  1.00  0.00    -0.354 N 
ATOM     49  N   UNL A   1      44.273  25.827  28.310  1.00  0.00    -0.248 NA
ATOM     50  C   UNL A   1      44.675  23.676  27.487  1.00  0.00     0.031 C 
ATOM     51  C   UNL A   1      47.452  28.806  29.181  1.00  0.00     0.029 A 
ATOM     52  C   UNL A   1      46.475  27.880  28.848  1.00  0.00     0.049 A 
ATOM     53  H   UNL A   1      44.376  28.075  28.934  1.00  0.00     0.167 HD
ATOM     54  C   UNL A   1      45.638  25.658  28.129  1.00  0.00     0.074 A 
ATOM     55  C   UNL A   1      45.832  24.307  27.640  1.00  0.00     0.031 C 
ATOM     56  C   UNL A   1      46.641  26.542  28.344  1.00  0.00     0.031 A 
BRANCH  43  57
ATOM     57  C   UNL A   1      44.767  32.102  30.288  1.00  0.00    -0.014 A 
ATOM     58  C   UNL A   1      44.955  32.420  31.642  1.00  0.00     0.009 A 
ATOM     59  C   UNL A   1      44.949  33.104  29.322  1.00  0.00     0.009 A 
ATOM     60  C   UNL A   1      45.287  33.723  32.021  1.00  0.00     0.001 A 
ATOM     61  C   UNL A   1      45.303  34.400  29.702  1.00  0.00     0.001 A 
ATOM     62  C   UNL A   1      45.464  34.710  31.051  1.00  0.00     0.000 A 
ENDBRANCH  43  57
BRANCH  44  63
ATOM     63  C   UNL A   1      41.831  22.970  27.484  1.00  0.00    -0.014 A 
ATOM     64  C   UNL A   1      41.673  21.938  28.420  1.00  0.00     0.009 A 
ATOM     65  C   UNL A   1      41.538  22.715  26.135  1.00  0.00     0.009 A 
ATOM     66  C   UNL A   1      41.232  20.676  28.013  1.00  0.00     0.001 A 
ATOM     67  C   UNL A   1      41.071  21.462  25.735  1.00  0.00     0.001 A 
ATOM     68  C   UNL A   1      40.923  20.443  26.673  1.00  0.00     0.000 A 
ENDBRANCH  44  63
BRANCH  56  69
ATOM     69  C   UNL A   1      48.036  26.068  28.060  1.00  0.00    -0.014 A 
ATOM     70  C   UNL A   1      48.574  26.149  26.767  1.00  0.00     0.009 A 
ATOM     71  C   UNL A   1      48.828  25.565  29.103  1.00  0.00     0.009 A 
ATOM     72  C   UNL A   1      49.877  25.713  26.520  1.00  0.00     0.001 A 
ATOM     73  C   UNL A   1      50.137  25.150  28.857  1.00  0.00     0.001 A 
ATOM     74  C   UNL A   1      50.658  25.218  27.565  1.00  0.00     0.000 A 
ENDBRANCH  56  69
ENDBRANCH  30  31
ENDBRANCH  23  25
ENDBRANCH  22  23
ENDBRANCH  21  22
ENDBRANCH   1  21
TORSDOF 14
ENDMDL
MODEL 3
REMARK VINA RESULT:     -10.2      3.360      7.939
REMARK SMILES CC[C@H](C(=O)OCCOC(=O)c1ccc(-c2c3nc(c(-c4ccccc4)c4ccc([nH]4)c(-c4ccccc4)c4nc(c(-c5ccccc5)c5ccc2[nH]5)C=C4)C=C3)cc1)N1C(=O)/C(=C\c2cccs2)SC1=S
REMARK SMILES IDX 7 1 6 2 4 3 5 4 3 5 2 6 1 7 60 8 61 9 71 10 62 11 63 12
REMARK SMILES IDX 70 13 72 14 64 15 65 16 66 17 69 18 67 19 68 20 8 21 9 22
REMARK SMILES IDX 10 23 11 24 12 25 13 26 59 27 14 28 58 29 15 30 16 31 17 32
REMARK SMILES IDX 52 33 18 34 57 35 51 36 53 37 19 38 56 39 50 40 49 41 20 43
REMARK SMILES IDX 42 44 27 45 41 46 28 47 31 48 40 49 54 50 29 51 30 52 39 54
REMARK SMILES IDX 55 55 32 56 21 57 22 58 26 59 23 60 25 61 24 62 43 63 44 64
REMARK SMILES IDX 48 65 45 66 47 67 46 68 33 69 34 70 38 71 35 72 37 73 36 74
REMARK H PARENT 53 42 31 53
REMARK Flexibility Score: inf
ROOT
ATOM      1  C   UNL A   1      35.403  22.971  25.596  1.00  0.00     0.274 C 
ENDROOT
BRANCH   1   2
ATOM      2  O   UNL A   1      35.429  24.101  24.694  1.00  0.00    -0.461 OA
BRANCH   2   3
ATOM      3  C   UNL A   1      34.812  23.902  23.498  1.00  0.00     0.329 C 
ATOM      4  O   UNL A   1      35.064  22.968  22.746  1.00  0.00    -0.250 OA
BRANCH   3   5
ATOM      5  C   UNL A   1      33.765  24.993  23.190  1.00  0.00     0.201 C 
BRANCH   5   6
ATOM      6  C   UNL A   1      33.108  24.532  21.856  1.00  0.00     0.034 C 
ATOM      7  C   UNL A   1      32.641  25.646  20.903  1.00  0.00     0.007 C 
ENDBRANCH   5   6
BRANCH   5   8
ATOM      8  N   UNL A   1      32.850  25.244  24.348  1.00  0.00    -0.278 N 
ATOM      9  C   UNL A   1      33.035  26.301  25.222  1.00  0.00     0.267 C 
ATOM     10  C   UNL A   1      31.964  24.301  24.841  1.00  0.00     0.149 C 
ATOM     11  O   UNL A   1      34.060  26.954  25.347  1.00  0.00    -0.268 OA
ATOM     12  C   UNL A   1      31.873  26.453  26.142  1.00  0.00     0.081 C 
ATOM     13  S   UNL A   1      30.935  25.015  26.088  1.00  0.00    -0.054 SA
ATOM     14  S   UNL A   1      31.816  22.695  24.422  1.00  0.00    -0.052 S 
ATOM     15  C   UNL A   1      31.591  27.505  26.927  1.00  0.00     0.040 C 
BRANCH  15  16
ATOM     16  C   UNL A   1      32.427  28.655  26.970  1.00  0.00     0.028 A 
ATOM     17  C   UNL A   1      33.588  28.880  27.690  1.00  0.00     0.020 A 
ATOM     18  S   UNL A   1      31.992  30.048  26.060  1.00  0.00    -0.144 S 
ATOM     19  C   UNL A   1      34.046  30.227  27.585  1.00  0.00     0.012 A 
ATOM     20  C   UNL A   1      33.252  30.975  26.746  1.00  0.00     0.065 A 
ENDBRANCH  15  16
ENDBRANCH   5   8
ENDBRANCH   3   5
ENDBRANCH   2   3
ENDBRANCH   1   2
BRANCH   1  21
ATOM     21  C   UNL A   1      36.748  22.246  25.680  1.00  0.00     0.275 C 
BRANCH  21  22
ATOM     22  O   UNL A   1      37.827  23.171  25.460  1.00  0.00    -0.458 OA
BRANCH  22  23
ATOM     23  C   UNL A   1      38.911  23.025  26.249  1.00  0.00     0.338 C 
ATOM     24  O   UNL A   1      39.502  21.985  26.504  1.00  0.00    -0.246 OA
BRANCH  23  25
ATOM     25  C   UNL A   1      39.296  24.328  26.828  1.00  0.00     0.060 A 
ATOM     26  C   UNL A   1      40.039  25.264  26.103  1.00  0.00     0.016 A 
ATOM     27  C   UNL A   1      38.961  24.591  28.154  1.00  0.00     0.016 A 
ATOM     28  C   UNL A   1      40.472  26.444  26.699  1.00  0.00     0.010 A 
ATOM     29  C   UNL A   1      39.333  25.805  28.733  1.00  0.00     0.010 A 
ATOM     30  C   UNL A   1      40.097  26.737  28.012  1.00  0.00    -0.014 A 
BRANCH  30  31
ATOM     31  C   UNL A   1      40.481  28.023  28.638  1.00  0.00     0.031 A 
ATOM     32  C   UNL A   1      41.846  28.190  29.232  1.00  0.00     0.074 A 
ATOM     33  C   UNL A   1      39.586  29.028  28.697  1.00  0.00     0.049 A 
ATOM     34  N   UNL A   1      42.293  29.135  30.016  1.00  0.00    -0.248 NA
ATOM     35  C   UNL A   1      42.840  27.154  28.903  1.00  0.00     0.031 C 
ATOM     36  C   UNL A   1      38.254  29.018  28.089  1.00  0.00     0.029 A 
ATOM     37  N   UNL A   1      39.663  30.252  29.312  1.00  0.00    -0.354 N 
ATOM     38  C   UNL A   1      43.606  28.791  30.310  1.00  0.00     0.074 A 
ATOM     39  C   UNL A   1      43.885  27.549  29.618  1.00  0.00     0.031 C 
ATOM     40  C   UNL A   1      37.645  30.184  28.350  1.00  0.00     0.029 A 
ATOM     41  C   UNL A   1      38.503  30.980  29.219  1.00  0.00     0.049 A 
ATOM     42  H   UNL A   1      40.469  30.575  29.775  1.00  0.00     0.167 HD
ATOM     43  C   UNL A   1      44.490  29.447  31.097  1.00  0.00     0.031 A 
ATOM     44  C   UNL A   1      38.143  32.130  29.816  1.00  0.00     0.031 A 
ATOM     45  C   UNL A   1      44.199  30.680  31.781  1.00  0.00     0.049 A 
ATOM     46  C   UNL A   1      39.093  32.774  30.782  1.00  0.00     0.074 A 
ATOM     47  C   UNL A   1      45.023  31.429  32.602  1.00  0.00     0.029 A 
ATOM     48  N   UNL A   1      42.982  31.342  31.722  1.00  0.00    -0.354 N 
ATOM     49  N   UNL A   1      40.312  32.414  31.101  1.00  0.00    -0.248 NA
ATOM     50  C   UNL A   1      38.604  33.962  31.495  1.00  0.00     0.031 C 
ATOM     51  C   UNL A   1      44.288  32.519  33.080  1.00  0.00     0.029 A 
ATOM     52  C   UNL A   1      43.021  32.474  32.518  1.00  0.00     0.049 A 
ATOM     53  H   UNL A   1      42.206  31.051  31.191  1.00  0.00     0.167 HD
ATOM     54  C   UNL A   1      40.740  33.332  32.048  1.00  0.00     0.074 A 
ATOM     55  C   UNL A   1      39.657  34.276  32.238  1.00  0.00     0.031 C 
ATOM     56  C   UNL A   1      41.923  33.387  32.705  1.00  0.00     0.031 A 
BRANCH  43  57
ATOM     57  C   UNL A   1      45.835  28.810  31.304  1.00  0.00    -0.014 A 
ATOM     58  C   UNL A   1      46.059  27.889  32.338  1.00  0.00     0.009 A 
ATOM     59  C   UNL A   1      46.890  29.125  30.433  1.00  0.00     0.009 A 
ATOM     60  C   UNL A   1      47.322  27.320  32.515  1.00  0.00     0.001 A 
ATOM     61  C   UNL A   1      48.145  28.538  30.598  1.00  0.00     0.001 A 
ATOM     62  C   UNL A   1      48.363  27.642  31.644  1.00  0.00     0.000 A 
ENDBRANCH  43  57
BRANCH  44  63
ATOM     63  C   UNL A   1      36.791  32.695  29.573  1.00  0.00    -0.014 A 
ATOM     64  C   UNL A   1      36.535  33.454  28.423  1.00  0.00     0.009 A 
ATOM     65  C   UNL A   1      35.742  32.450  30.474  1.00  0.00     0.009 A 
ATOM     66  C   UNL A   1      35.255  33.960  28.181  1.00  0.00     0.001 A 
ATOM     67  C   UNL A   1      34.458  32.934  30.217  1.00  0.00     0.001 A 
ATOM     68  C   UNL A   1      34.217  33.692  29.073  1.00  0.00     0.000 A 
ENDBRANCH  44  63
BRANCH  56  69
ATOM     69  C   UNL A   1      42.106  34.512  33.681  1.00  0.00    -0.014 A 
ATOM     70  C   UNL A   1      42.612  35.752  33.264  1.00  0.00     0.009 A 
ATOM     71  C   UNL A   1      41.739  34.338  35.024  1.00  0.00     0.009 A 
ATOM     72  C   UNL A   1      42.766  36.793  34.181  1.00  0.00     0.001 A 
ATOM     73  C   UNL A   1      41.874  35.386  35.934  1.00  0.00     0.001 A 
ATOM     74  C   UNL A   1      42.394  36.610  35.513  1.00  0.00     0.000 A 
ENDBRANCH  56  69
ENDBRANCH  30  31
ENDBRANCH  23  25
ENDBRANCH  22  23
ENDBRANCH  21  22
ENDBRANCH   1  21
TORSDOF 14
ENDMDL
