MODEL 1
REMARK VINA RESULT:     -10.9      0.000      0.000
REMARK SMILES COc1cc(Nc2cn[nH]c(=O)n2)c(C(=O)OCCOC(=O)c2ccc(-c3c4nc(c(-c5ccccc5)c5ccc([nH]5)c(-c5ccccc5)c5nc(c(-c6ccccc6)c6ccc3[nH]6)C=C5)C=C4)cc2)cc1OC
REMARK SMILES IDX 18 1 17 2 15 3 16 4 14 5 3 6 4 7 72 8 5 9 71 10 2 11 1 12
REMARK SMILES IDX 73 13 74 14 6 15 7 17 8 18 13 19 9 20 11 21 10 22 12 23
REMARK SMILES IDX 19 25 20 26 21 27 22 28 23 29 24 30 70 31 25 32 69 33 26 34
REMARK SMILES IDX 27 35 28 36 63 37 29 38 68 39 62 40 64 41 30 42 67 43 61 44
REMARK SMILES IDX 60 45 31 47 53 48 38 49 52 50 39 51 42 52 51 53 65 54 40 55
REMARK SMILES IDX 41 56 50 58 66 59 43 60 32 61 33 62 37 63 34 64 36 65 35 66
REMARK SMILES IDX 54 67 55 68 59 69 56 70 58 71 57 72 44 73 45 74 49 75 46 76
REMARK SMILES IDX 48 77 47 78
REMARK H PARENT 6 16 10 24 64 46 42 57
REMARK Flexibility Score: inf
ROOT
ATOM      1  C   UNL A   1      35.794  20.732  25.003  1.00  0.00     0.275 C 
ENDROOT
BRANCH   1   2
ATOM      2  O   UNL A   1      35.727  21.747  26.029  1.00  0.00    -0.458 OA
BRANCH   2   3
ATOM      3  C   UNL A   1      34.522  21.905  26.629  1.00  0.00     0.340 C 
ATOM      4  O   UNL A   1      34.193  21.457  27.713  1.00  0.00    -0.246 OA
BRANCH   3   5
ATOM      5  C   UNL A   1      33.606  22.692  25.772  1.00  0.00     0.087 A 
ATOM      6  C   UNL A   1      32.211  24.142  23.832  1.00  0.00     0.162 A 
ATOM      7  C   UNL A   1      31.842  22.825  24.135  1.00  0.00     0.077 A 
ATOM      8  C   UNL A   1      33.233  24.769  24.553  1.00  0.00     0.161 A 
ATOM      9  C   UNL A   1      32.492  22.101  25.146  1.00  0.00     0.058 A 
ATOM     10  C   UNL A   1      33.951  24.021  25.493  1.00  0.00     0.068 A 
BRANCH   6  11
ATOM     11  O   UNL A   1      31.485  24.820  22.890  1.00  0.00    -0.493 OA
ATOM     12  C   UNL A   1      30.360  25.492  23.460  1.00  0.00     0.278 C 
ENDBRANCH   6  11
BRANCH   8  13
ATOM     13  O   UNL A   1      33.679  26.057  24.454  1.00  0.00    -0.493 OA
ATOM     14  C   UNL A   1      33.736  26.842  25.637  1.00  0.00     0.278 C 
ENDBRANCH   8  13
BRANCH   9  15
ATOM     15  N   UNL A   1      31.979  20.855  25.561  1.00  0.00    -0.338 N 
ATOM     16  H   UNL A   1      31.360  20.861  26.328  1.00  0.00     0.168 HD
BRANCH  15  17
ATOM     17  C   UNL A   1      32.263  19.631  24.996  1.00  0.00     0.156 A 
ATOM     18  C   UNL A   1      32.312  19.587  23.488  1.00  0.00     0.180 A 
ATOM     19  N   UNL A   1      32.453  18.544  25.676  1.00  0.00    -0.173 NA
ATOM     20  N   UNL A   1      32.464  18.485  22.837  1.00  0.00    -0.176 NA
ATOM     21  C   UNL A   1      32.598  17.358  25.000  1.00  0.00     0.363 A 
ATOM     22  N   UNL A   1      32.576  17.377  23.619  1.00  0.00    -0.227 N 
ATOM     23  O   UNL A   1      32.733  16.285  25.584  1.00  0.00    -0.244 OA
ATOM     24  H   UNL A   1      32.647  16.509  23.159  1.00  0.00     0.195 HD
ENDBRANCH  15  17
ENDBRANCH   9  15
ENDBRANCH   3   5
ENDBRANCH   2   3
ENDBRANCH   1   2
BRANCH   1  25
ATOM     25  C   UNL A   1      37.137  20.000  25.015  1.00  0.00     0.275 C 
BRANCH  25  26
ATOM     26  O   UNL A   1      38.235  20.930  24.968  1.00  0.00    -0.458 OA
BRANCH  26  27
ATOM     27  C   UNL A   1      39.234  20.689  25.839  1.00  0.00     0.338 C 
ATOM     28  O   UNL A   1      39.913  19.680  25.946  1.00  0.00    -0.246 OA
BRANCH  27  29
ATOM     29  C   UNL A   1      39.557  21.896  26.611  1.00  0.00     0.060 A 
ATOM     30  C   UNL A   1      38.963  23.083  26.208  1.00  0.00     0.016 A 
ATOM     31  C   UNL A   1      40.638  21.919  27.490  1.00  0.00     0.016 A 
ATOM     32  C   UNL A   1      39.558  24.293  26.542  1.00  0.00     0.010 A 
ATOM     33  C   UNL A   1      41.145  23.151  27.935  1.00  0.00     0.010 A 
ATOM     34  C   UNL A   1      40.663  24.361  27.405  1.00  0.00    -0.014 A 
BRANCH  34  35
ATOM     35  C   UNL A   1      41.338  25.679  27.660  1.00  0.00     0.031 A 
ATOM     36  C   UNL A   1      40.731  26.702  28.602  1.00  0.00     0.074 A 
ATOM     37  C   UNL A   1      42.553  25.947  27.135  1.00  0.00     0.049 A 
ATOM     38  N   UNL A   1      41.094  27.945  28.818  1.00  0.00    -0.248 NA
ATOM     39  C   UNL A   1      39.562  26.286  29.395  1.00  0.00     0.031 C 
ATOM     40  C   UNL A   1      43.326  25.054  26.268  1.00  0.00     0.029 A 
ATOM     41  N   UNL A   1      43.379  27.037  27.291  1.00  0.00    -0.354 N 
ATOM     42  C   UNL A   1      40.163  28.468  29.712  1.00  0.00     0.074 A 
ATOM     43  C   UNL A   1      39.225  27.410  30.008  1.00  0.00     0.031 C 
ATOM     44  C   UNL A   1      44.544  25.573  26.069  1.00  0.00     0.029 A 
ATOM     45  C   UNL A   1      44.588  26.906  26.650  1.00  0.00     0.049 A 
ATOM     46  H   UNL A   1      43.128  27.833  27.813  1.00  0.00     0.167 HD
ATOM     47  C   UNL A   1      40.089  29.718  30.231  1.00  0.00     0.031 A 
ATOM     48  C   UNL A   1      45.604  27.774  26.478  1.00  0.00     0.031 A 
ATOM     49  C   UNL A   1      41.053  30.760  29.994  1.00  0.00     0.049 A 
ATOM     50  C   UNL A   1      45.470  29.170  27.005  1.00  0.00     0.074 A 
ATOM     51  C   UNL A   1      41.047  32.064  30.463  1.00  0.00     0.029 A 
ATOM     52  N   UNL A   1      42.208  30.611  29.246  1.00  0.00    -0.354 N 
ATOM     53  N   UNL A   1      44.513  29.689  27.731  1.00  0.00    -0.248 NA
ATOM     54  C   UNL A   1      46.538  30.114  26.644  1.00  0.00     0.031 C 
ATOM     55  C   UNL A   1      42.180  32.716  29.963  1.00  0.00     0.029 A 
ATOM     56  C   UNL A   1      42.914  31.803  29.226  1.00  0.00     0.049 A 
ATOM     57  H   UNL A   1      42.486  29.781  28.795  1.00  0.00     0.167 HD
ATOM     58  C   UNL A   1      44.855  31.022  27.906  1.00  0.00     0.074 A 
ATOM     59  C   UNL A   1      46.125  31.223  27.240  1.00  0.00     0.031 C 
ATOM     60  C   UNL A   1      44.167  31.997  28.549  1.00  0.00     0.031 A 
BRANCH  47  61
ATOM     61  C   UNL A   1      38.885  30.057  31.067  1.00  0.00    -0.014 A 
ATOM     62  C   UNL A   1      38.894  29.946  32.465  1.00  0.00     0.009 A 
ATOM     63  C   UNL A   1      37.733  30.552  30.433  1.00  0.00     0.009 A 
ATOM     64  C   UNL A   1      37.764  30.302  33.208  1.00  0.00     0.001 A 
ATOM     65  C   UNL A   1      36.615  30.930  31.178  1.00  0.00     0.001 A 
ATOM     66  C   UNL A   1      36.630  30.799  32.565  1.00  0.00     0.000 A 
ENDBRANCH  47  61
BRANCH  48  67
ATOM     67  C   UNL A   1      46.789  27.373  25.673  1.00  0.00    -0.014 A 
ATOM     68  C   UNL A   1      46.900  27.739  24.325  1.00  0.00     0.009 A 
ATOM     69  C   UNL A   1      47.827  26.631  26.263  1.00  0.00     0.009 A 
ATOM     70  C   UNL A   1      48.026  27.367  23.584  1.00  0.00     0.001 A 
ATOM     71  C   UNL A   1      48.967  26.295  25.532  1.00  0.00     0.001 A 
ATOM     72  C   UNL A   1      49.062  26.657  24.191  1.00  0.00     0.000 A 
ENDBRANCH  48  67
BRANCH  60  73
ATOM     73  C   UNL A   1      44.786  33.362  28.571  1.00  0.00    -0.014 A 
ATOM     74  C   UNL A   1      45.735  33.710  29.545  1.00  0.00     0.009 A 
ATOM     75  C   UNL A   1      44.429  34.307  27.597  1.00  0.00     0.009 A 
ATOM     76  C   UNL A   1      46.288  34.991  29.563  1.00  0.00     0.001 A 
ATOM     77  C   UNL A   1      45.002  35.579  27.604  1.00  0.00     0.001 A 
ATOM     78  C   UNL A   1      45.924  35.923  28.592  1.00  0.00     0.000 A 
ENDBRANCH  60  73
ENDBRANCH  34  35
ENDBRANCH  27  29
ENDBRANCH  26  27
ENDBRANCH  25  26
ENDBRANCH   1  25
TORSDOF 15
ENDMDL
MODEL 2
REMARK VINA RESULT:     -10.8      0.497      5.996
REMARK SMILES COc1cc(Nc2cn[nH]c(=O)n2)c(C(=O)OCCOC(=O)c2ccc(-c3c4nc(c(-c5ccccc5)c5ccc([nH]5)c(-c5ccccc5)c5nc(c(-c6ccccc6)c6ccc3[nH]6)C=C5)C=C4)cc2)cc1OC
REMARK SMILES IDX 18 1 17 2 15 3 16 4 14 5 3 6 4 7 72 8 5 9 71 10 2 11 1 12
REMARK SMILES IDX 73 13 74 14 6 15 7 17 8 18 13 19 9 20 11 21 10 22 12 23
REMARK SMILES IDX 19 25 20 26 21 27 22 28 23 29 24 30 70 31 25 32 69 33 26 34
REMARK SMILES IDX 27 35 28 36 63 37 29 38 68 39 62 40 64 41 30 42 67 43 61 44
REMARK SMILES IDX 60 45 31 47 53 48 38 49 52 50 39 51 42 52 51 53 65 54 40 55
REMARK SMILES IDX 41 56 50 58 66 59 43 60 32 61 33 62 37 63 34 64 36 65 35 66
REMARK SMILES IDX 54 67 55 68 59 69 56 70 58 71 57 72 44 73 45 74 49 75 46 76
REMARK SMILES IDX 48 77 47 78
REMARK H PARENT 6 16 10 24 64 46 42 57
REMARK Flexibility Score: inf
ROOT
ATOM      1  C   UNL A   1      36.120  20.439  24.999  1.00  0.00     0.275 C 
ENDROOT
BRANCH   1   2
ATOM      2  O   UNL A   1      35.995  21.667  25.749  1.00  0.00    -0.458 OA
BRANCH   2   3
ATOM      3  C   UNL A   1      34.821  21.848  26.400  1.00  0.00     0.340 C 
ATOM      4  O   UNL A   1      34.534  21.413  27.502  1.00  0.00    -0.246 OA
BRANCH   3   5
ATOM      5  C   UNL A   1      33.878  22.641  25.579  1.00  0.00     0.087 A 
ATOM      6  C   UNL A   1      32.406  24.074  23.684  1.00  0.00     0.162 A 
ATOM      7  C   UNL A   1      32.006  22.788  24.069  1.00  0.00     0.077 A 
ATOM      8  C   UNL A   1      33.505  24.682  24.301  1.00  0.00     0.161 A 
ATOM      9  C   UNL A   1      32.697  22.077  25.060  1.00  0.00     0.058 A 
ATOM     10  C   UNL A   1      34.258  23.940  25.219  1.00  0.00     0.068 A 
BRANCH   6  11
ATOM     11  O   UNL A   1      31.643  24.746  22.768  1.00  0.00    -0.493 OA
ATOM     12  C   UNL A   1      30.404  25.192  23.324  1.00  0.00     0.278 C 
ENDBRANCH   6  11
BRANCH   8  13
ATOM     13  O   UNL A   1      33.996  25.944  24.115  1.00  0.00    -0.493 OA
ATOM     14  C   UNL A   1      33.485  26.991  24.927  1.00  0.00     0.278 C 
ENDBRANCH   8  13
BRANCH   9  15
ATOM     15  N   UNL A   1      32.163  20.873  25.565  1.00  0.00    -0.338 N 
ATOM     16  H   UNL A   1      31.600  20.938  26.371  1.00  0.00     0.168 HD
BRANCH  15  17
ATOM     17  C   UNL A   1      32.357  19.615  25.036  1.00  0.00     0.156 A 
ATOM     18  C   UNL A   1      32.380  19.520  23.531  1.00  0.00     0.180 A 
ATOM     19  N   UNL A   1      32.483  18.540  25.750  1.00  0.00    -0.173 NA
ATOM     20  N   UNL A   1      32.449  18.390  22.914  1.00  0.00    -0.176 NA
ATOM     21  C   UNL A   1      32.539  17.326  25.111  1.00  0.00     0.363 A 
ATOM     22  N   UNL A   1      32.497  17.302  23.731  1.00  0.00    -0.227 N 
ATOM     23  O   UNL A   1      32.609  16.265  25.728  1.00  0.00    -0.244 OA
ATOM     24  H   UNL A   1      32.503  16.417  23.299  1.00  0.00     0.195 HD
ENDBRANCH  15  17
ENDBRANCH   9  15
ENDBRANCH   3   5
ENDBRANCH   2   3
ENDBRANCH   1   2
BRANCH   1  25
ATOM     25  C   UNL A   1      37.562  19.933  24.972  1.00  0.00     0.275 C 
BRANCH  25  26
ATOM     26  O   UNL A   1      38.495  21.016  25.153  1.00  0.00    -0.458 OA
BRANCH  26  27
ATOM     27  C   UNL A   1      39.473  20.791  26.051  1.00  0.00     0.338 C 
ATOM     28  O   UNL A   1      40.148  19.782  26.194  1.00  0.00    -0.246 OA
BRANCH  27  29
ATOM     29  C   UNL A   1      39.781  22.012  26.805  1.00  0.00     0.060 A 
ATOM     30  C   UNL A   1      39.077  23.159  26.468  1.00  0.00     0.016 A 
ATOM     31  C   UNL A   1      40.931  22.103  27.588  1.00  0.00     0.016 A 
ATOM     32  C   UNL A   1      39.618  24.405  26.762  1.00  0.00     0.010 A 
ATOM     33  C   UNL A   1      41.392  23.364  28.000  1.00  0.00     0.010 A 
ATOM     34  C   UNL A   1      40.787  24.542  27.528  1.00  0.00    -0.014 A 
BRANCH  34  35
ATOM     35  C   UNL A   1      41.392  25.901  27.737  1.00  0.00     0.031 A 
ATOM     36  C   UNL A   1      42.659  26.315  27.013  1.00  0.00     0.074 A 
ATOM     37  C   UNL A   1      40.769  26.826  28.499  1.00  0.00     0.049 A 
ATOM     38  N   UNL A   1      43.401  27.384  27.190  1.00  0.00    -0.248 NA
ATOM     39  C   UNL A   1      43.168  25.415  25.964  1.00  0.00     0.031 C 
ATOM     40  C   UNL A   1      39.504  26.634  29.212  1.00  0.00     0.029 A 
ATOM     41  N   UNL A   1      41.093  28.136  28.767  1.00  0.00    -0.354 N 
ATOM     42  C   UNL A   1      44.487  27.246  26.330  1.00  0.00     0.074 A 
ATOM     43  C   UNL A   1      44.307  25.999  25.622  1.00  0.00     0.031 C 
ATOM     44  C   UNL A   1      39.105  27.803  29.731  1.00  0.00     0.029 A 
ATOM     45  C   UNL A   1      40.157  28.788  29.534  1.00  0.00     0.049 A 
ATOM     46  H   UNL A   1      41.917  28.566  28.440  1.00  0.00     0.167 HD
ATOM     47  C   UNL A   1      45.545  28.075  26.151  1.00  0.00     0.031 A 
ATOM     48  C   UNL A   1      40.157  30.017  30.085  1.00  0.00     0.031 A 
ATOM     49  C   UNL A   1      45.703  29.349  26.803  1.00  0.00     0.049 A 
ATOM     50  C   UNL A   1      41.364  30.890  29.930  1.00  0.00     0.074 A 
ATOM     51  C   UNL A   1      46.753  30.247  26.698  1.00  0.00     0.029 A 
ATOM     52  N   UNL A   1      44.776  29.918  27.658  1.00  0.00    -0.354 N 
ATOM     53  N   UNL A   1      42.446  30.681  29.223  1.00  0.00    -0.248 NA
ATOM     54  C   UNL A   1      41.369  32.148  30.689  1.00  0.00     0.031 C 
ATOM     55  C   UNL A   1      46.478  31.342  27.523  1.00  0.00     0.029 A 
ATOM     56  C   UNL A   1      45.236  31.148  28.101  1.00  0.00     0.049 A 
ATOM     57  H   UNL A   1      43.917  29.509  27.914  1.00  0.00     0.167 HD
ATOM     58  C   UNL A   1      43.266  31.775  29.460  1.00  0.00     0.074 A 
ATOM     59  C   UNL A   1      42.543  32.661  30.348  1.00  0.00     0.031 C 
ATOM     60  C   UNL A   1      44.516  32.014  28.995  1.00  0.00     0.031 A 
BRANCH  47  61
ATOM     61  C   UNL A   1      46.657  27.606  25.254  1.00  0.00    -0.014 A 
ATOM     62  C   UNL A   1      46.793  28.062  23.936  1.00  0.00     0.009 A 
ATOM     63  C   UNL A   1      47.622  26.724  25.771  1.00  0.00     0.009 A 
ATOM     64  C   UNL A   1      47.860  27.625  23.145  1.00  0.00     0.001 A 
ATOM     65  C   UNL A   1      48.701  26.310  24.988  1.00  0.00     0.001 A 
ATOM     66  C   UNL A   1      48.815  26.756  23.673  1.00  0.00     0.000 A 
ENDBRANCH  47  61
BRANCH  48  67
ATOM     67  C   UNL A   1      39.012  30.445  30.934  1.00  0.00    -0.014 A 
ATOM     68  C   UNL A   1      38.968  30.126  32.298  1.00  0.00     0.009 A 
ATOM     69  C   UNL A   1      37.960  31.193  30.378  1.00  0.00     0.009 A 
ATOM     70  C   UNL A   1      37.893  30.546  33.087  1.00  0.00     0.001 A 
ATOM     71  C   UNL A   1      36.908  31.645  31.175  1.00  0.00     0.001 A 
ATOM     72  C   UNL A   1      36.872  31.314  32.527  1.00  0.00     0.000 A 
ENDBRANCH  48  67
BRANCH  60  73
ATOM     73  C   UNL A   1      45.168  33.292  29.429  1.00  0.00    -0.014 A 
ATOM     74  C   UNL A   1      44.866  34.509  28.799  1.00  0.00     0.009 A 
ATOM     75  C   UNL A   1      46.085  33.282  30.492  1.00  0.00     0.009 A 
ATOM     76  C   UNL A   1      45.496  35.687  29.203  1.00  0.00     0.001 A 
ATOM     77  C   UNL A   1      46.695  34.466  30.909  1.00  0.00     0.001 A 
ATOM     78  C   UNL A   1      46.407  35.665  30.259  1.00  0.00     0.000 A 
ENDBRANCH  60  73
ENDBRANCH  34  35
ENDBRANCH  27  29
ENDBRANCH  26  27
ENDBRANCH  25  26
ENDBRANCH   1  25
TORSDOF 15
ENDMDL
MODEL 3
REMARK VINA RESULT:     -10.8      4.270      9.261
REMARK SMILES COc1cc(Nc2cn[nH]c(=O)n2)c(C(=O)OCCOC(=O)c2ccc(-c3c4nc(c(-c5ccccc5)c5ccc([nH]5)c(-c5ccccc5)c5nc(c(-c6ccccc6)c6ccc3[nH]6)C=C5)C=C4)cc2)cc1OC
REMARK SMILES IDX 18 1 17 2 15 3 16 4 14 5 3 6 4 7 72 8 5 9 71 10 2 11 1 12
REMARK SMILES IDX 73 13 74 14 6 15 7 17 8 18 13 19 9 20 11 21 10 22 12 23
REMARK SMILES IDX 19 25 20 26 21 27 22 28 23 29 24 30 70 31 25 32 69 33 26 34
REMARK SMILES IDX 27 35 28 36 63 37 29 38 68 39 62 40 64 41 30 42 67 43 61 44
REMARK SMILES IDX 60 45 31 47 53 48 38 49 52 50 39 51 42 52 51 53 65 54 40 55
REMARK SMILES IDX 41 56 50 58 66 59 43 60 32 61 33 62 37 63 34 64 36 65 35 66
REMARK SMILES IDX 54 67 55 68 59 69 56 70 58 71 57 72 44 73 45 74 49 75 46 76
REMARK SMILES IDX 48 77 47 78
REMARK H PARENT 6 16 10 24 64 46 42 57
REMARK Flexibility Score: inf
ROOT
ATOM      1  C   UNL A   1      31.881  29.272  25.187  1.00  0.00     0.275 C 
ENDROOT
BRANCH   1   2
ATOM      2  O   UNL A   1      32.314  28.213  26.070  1.00  0.00    -0.458 OA
BRANCH   2   3
ATOM      3  C   UNL A   1      31.513  27.122  26.123  1.00  0.00     0.340 C 
ATOM      4  O   UNL A   1      30.660  26.894  26.964  1.00  0.00    -0.246 OA
BRANCH   3   5
ATOM      5  C   UNL A   1      31.820  26.187  25.016  1.00  0.00     0.087 A 
ATOM      6  C   UNL A   1      32.432  24.098  23.263  1.00  0.00     0.162 A 
ATOM      7  C   UNL A   1      31.124  24.591  23.350  1.00  0.00     0.077 A 
ATOM      8  C   UNL A   1      33.460  24.699  24.000  1.00  0.00     0.161 A 
ATOM      9  C   UNL A   1      30.808  25.677  24.180  1.00  0.00     0.058 A 
ATOM     10  C   UNL A   1      33.134  25.716  24.904  1.00  0.00     0.068 A 
BRANCH   6  11
ATOM     11  O   UNL A   1      32.690  23.089  22.375  1.00  0.00    -0.493 OA
ATOM     12  C   UNL A   1      32.526  21.798  22.967  1.00  0.00     0.278 C 
ENDBRANCH   6  11
BRANCH   8  13
ATOM     13  O   UNL A   1      34.795  24.409  23.991  1.00  0.00    -0.493 OA
ATOM     14  C   UNL A   1      35.453  24.230  25.237  1.00  0.00     0.278 C 
ENDBRANCH   8  13
BRANCH   9  15
ATOM     15  N   UNL A   1      29.534  26.275  24.103  1.00  0.00    -0.338 N 
ATOM     16  H   UNL A   1      28.808  25.846  24.613  1.00  0.00     0.168 HD
BRANCH  15  17
ATOM     17  C   UNL A   1      29.210  27.404  23.382  1.00  0.00     0.156 A 
ATOM     18  C   UNL A   1      30.270  27.923  22.442  1.00  0.00     0.180 A 
ATOM     19  N   UNL A   1      28.085  28.038  23.495  1.00  0.00    -0.173 NA
ATOM     20  N   UNL A   1      30.130  29.027  21.790  1.00  0.00    -0.176 NA
ATOM     21  C   UNL A   1      27.926  29.225  22.823  1.00  0.00     0.363 A 
ATOM     22  N   UNL A   1      28.957  29.676  22.023  1.00  0.00    -0.227 N 
ATOM     23  O   UNL A   1      26.904  29.902  22.924  1.00  0.00    -0.244 OA
ATOM     24  H   UNL A   1      28.831  30.547  21.580  1.00  0.00     0.195 HD
ENDBRANCH  15  17
ENDBRANCH   9  15
ENDBRANCH   3   5
ENDBRANCH   2   3
ENDBRANCH   1   2
BRANCH   1  25
ATOM     25  C   UNL A   1      31.729  30.601  25.926  1.00  0.00     0.275 C 
BRANCH  25  26
ATOM     26  O   UNL A   1      32.472  30.598  27.159  1.00  0.00    -0.458 OA
BRANCH  26  27
ATOM     27  C   UNL A   1      33.227  31.691  27.382  1.00  0.00     0.338 C 
ATOM     28  O   UNL A   1      32.857  32.848  27.511  1.00  0.00    -0.246 OA
BRANCH  27  29
ATOM     29  C   UNL A   1      34.626  31.319  27.623  1.00  0.00     0.060 A 
ATOM     30  C   UNL A   1      34.910  29.968  27.750  1.00  0.00     0.016 A 
ATOM     31  C   UNL A   1      35.565  32.271  28.021  1.00  0.00     0.016 A 
ATOM     32  C   UNL A   1      36.051  29.570  28.436  1.00  0.00     0.010 A 
ATOM     33  C   UNL A   1      36.780  31.852  28.585  1.00  0.00     0.010 A 
ATOM     34  C   UNL A   1      37.011  30.496  28.875  1.00  0.00    -0.014 A 
BRANCH  34  35
ATOM     35  C   UNL A   1      38.179  30.034  29.699  1.00  0.00     0.031 A 
ATOM     36  C   UNL A   1      39.322  29.257  29.074  1.00  0.00     0.074 A 
ATOM     37  C   UNL A   1      38.290  30.384  30.999  1.00  0.00     0.049 A 
ATOM     38  N   UNL A   1      40.327  28.650  29.660  1.00  0.00    -0.248 NA
ATOM     39  C   UNL A   1      39.337  29.134  27.607  1.00  0.00     0.031 C 
ATOM     40  C   UNL A   1      37.328  31.192  31.752  1.00  0.00     0.029 A 
ATOM     41  N   UNL A   1      39.291  30.144  31.912  1.00  0.00    -0.354 N 
ATOM     42  C   UNL A   1      41.045  28.024  28.644  1.00  0.00     0.074 A 
ATOM     43  C   UNL A   1      40.371  28.331  27.403  1.00  0.00     0.031 C 
ATOM     44  C   UNL A   1      37.834  31.476  32.959  1.00  0.00     0.029 A 
ATOM     45  C   UNL A   1      39.077  30.739  33.132  1.00  0.00     0.049 A 
ATOM     46  H   UNL A   1      40.085  29.598  31.710  1.00  0.00     0.167 HD
ATOM     47  C   UNL A   1      42.158  27.255  28.735  1.00  0.00     0.031 A 
ATOM     48  C   UNL A   1      39.753  30.658  34.295  1.00  0.00     0.031 A 
ATOM     49  C   UNL A   1      42.874  26.995  29.955  1.00  0.00     0.049 A 
ATOM     50  C   UNL A   1      40.941  29.750  34.388  1.00  0.00     0.074 A 
ATOM     51  C   UNL A   1      44.001  26.210  30.145  1.00  0.00     0.029 A 
ATOM     52  N   UNL A   1      42.553  27.535  31.189  1.00  0.00    -0.354 N 
ATOM     53  N   UNL A   1      41.523  29.054  33.444  1.00  0.00    -0.248 NA
ATOM     54  C   UNL A   1      41.536  29.580  35.722  1.00  0.00     0.031 C 
ATOM     55  C   UNL A   1      44.335  26.243  31.503  1.00  0.00     0.029 A 
ATOM     56  C   UNL A   1      43.448  27.088  32.147  1.00  0.00     0.049 A 
ATOM     57  H   UNL A   1      41.799  28.145  31.360  1.00  0.00     0.167 HD
ATOM     58  C   UNL A   1      42.545  28.355  34.070  1.00  0.00     0.074 A 
ATOM     59  C   UNL A   1      42.526  28.737  35.466  1.00  0.00     0.031 C 
ATOM     60  C   UNL A   1      43.412  27.462  33.535  1.00  0.00     0.031 A 
BRANCH  47  61
ATOM     61  C   UNL A   1      42.644  26.580  27.481  1.00  0.00    -0.014 A 
ATOM     62  C   UNL A   1      43.612  27.162  26.650  1.00  0.00     0.009 A 
ATOM     63  C   UNL A   1      42.154  25.302  27.162  1.00  0.00     0.009 A 
ATOM     64  C   UNL A   1      44.061  26.486  25.511  1.00  0.00     0.001 A 
ATOM     65  C   UNL A   1      42.623  24.619  26.039  1.00  0.00     0.001 A 
ATOM     66  C   UNL A   1      43.571  25.215  25.211  1.00  0.00     0.000 A 
ENDBRANCH  47  61
BRANCH  48  67
ATOM     67  C   UNL A   1      39.247  31.378  35.495  1.00  0.00    -0.014 A 
ATOM     68  C   UNL A   1      38.230  30.829  36.288  1.00  0.00     0.009 A 
ATOM     69  C   UNL A   1      39.798  32.618  35.860  1.00  0.00     0.009 A 
ATOM     70  C   UNL A   1      37.774  31.509  37.420  1.00  0.00     0.001 A 
ATOM     71  C   UNL A   1      39.369  33.276  37.012  1.00  0.00     0.001 A 
ATOM     72  C   UNL A   1      38.352  32.725  37.787  1.00  0.00     0.000 A 
ENDBRANCH  48  67
BRANCH  60  73
ATOM     73  C   UNL A   1      44.417  26.852  34.464  1.00  0.00    -0.014 A 
ATOM     74  C   UNL A   1      45.649  27.478  34.709  1.00  0.00     0.009 A 
ATOM     75  C   UNL A   1      44.123  25.644  35.116  1.00  0.00     0.009 A 
ATOM     76  C   UNL A   1      46.582  26.888  35.563  1.00  0.00     0.001 A 
ATOM     77  C   UNL A   1      45.049  25.069  35.988  1.00  0.00     0.001 A 
ATOM     78  C   UNL A   1      46.280  25.686  36.204  1.00  0.00     0.000 A 
ENDBRANCH  60  73
ENDBRANCH  34  35
ENDBRANCH  27  29
ENDBRANCH  26  27
ENDBRANCH  25  26
ENDBRANCH   1  25
TORSDOF 15
ENDMDL
