MODEL 1
REMARK VINA RESULT:     -12.1      0.000      0.000
REMARK SMILES O=C(OCCOC(=O)c1nc(NC[C@H]2c3ccccc3CSc3ccccc32)c2ccccc2n1)c1ccc(-c2c3nc(c(-c4ccccc4)c4ccc([nH]4)c(-c4ccccc4)c4nc(c(-c5ccccc5)c5ccc2[nH]5)C=C4)C=C3)cc1
REMARK SMILES IDX 5 1 4 2 3 3 2 4 1 5 36 6 37 7 83 8 38 9 82 10 39 11 40 12
REMARK SMILES IDX 41 13 76 14 42 15 81 16 75 17 77 18 43 19 80 20 74 21 73 22
REMARK SMILES IDX 44 24 66 25 51 26 65 27 52 28 55 29 64 30 78 31 53 32 54 33
REMARK SMILES IDX 63 35 79 36 56 37 45 38 46 39 50 40 47 41 49 42 48 43 67 44
REMARK SMILES IDX 68 45 72 46 69 47 71 48 70 49 57 50 58 51 62 52 59 53 61 54
REMARK SMILES IDX 60 55 6 56 7 57 8 58 9 59 10 60 35 61 11 62 34 63 29 64
REMARK SMILES IDX 33 65 30 66 32 67 31 68 12 69 13 71 14 72 15 73 28 74 16 75
REMARK SMILES IDX 20 76 23 77 27 78 17 79 19 80 21 81 22 82 24 83 26 84 18 85
REMARK SMILES IDX 25 86
REMARK H PARENT 77 23 55 34 12 70
REMARK Flexibility Score: inf
ROOT
ATOM      1  C   UNL A   1      33.170  32.025  27.559  1.00  0.00     0.275 C 
ENDROOT
BRANCH   1   2
ATOM      2  C   UNL A   1      32.132  33.158  27.603  1.00  0.00     0.275 C 
BRANCH   2   3
ATOM      3  O   UNL A   1      32.579  34.525  27.609  1.00  0.00    -0.458 OA
BRANCH   3   4
ATOM      4  C   UNL A   1      33.011  35.176  28.709  1.00  0.00     0.338 C 
ATOM      5  O   UNL A   1      32.417  36.170  29.103  1.00  0.00    -0.246 OA
BRANCH   4   6
ATOM      6  C   UNL A   1      34.178  34.627  29.472  1.00  0.00     0.060 A 
ATOM      7  C   UNL A   1      35.411  34.603  28.813  1.00  0.00     0.016 A 
ATOM      8  C   UNL A   1      34.108  34.075  30.753  1.00  0.00     0.016 A 
ATOM      9  C   UNL A   1      36.490  33.892  29.340  1.00  0.00     0.010 A 
ATOM     10  C   UNL A   1      35.188  33.361  31.285  1.00  0.00     0.010 A 
ATOM     11  C   UNL A   1      36.373  33.219  30.559  1.00  0.00    -0.014 A 
BRANCH  11  12
ATOM     12  C   UNL A   1      37.536  32.501  31.127  1.00  0.00     0.031 A 
ATOM     13  C   UNL A   1      37.972  31.150  30.622  1.00  0.00     0.074 A 
ATOM     14  C   UNL A   1      38.191  33.097  32.141  1.00  0.00     0.049 A 
ATOM     15  N   UNL A   1      39.072  30.496  30.902  1.00  0.00    -0.248 NA
ATOM     16  C   UNL A   1      37.096  30.446  29.671  1.00  0.00     0.031 C 
ATOM     17  C   UNL A   1      37.835  34.393  32.728  1.00  0.00     0.029 A 
ATOM     18  N   UNL A   1      39.260  32.676  32.885  1.00  0.00    -0.354 N 
ATOM     19  C   UNL A   1      39.082  29.382  30.068  1.00  0.00     0.074 A 
ATOM     20  C   UNL A   1      37.823  29.374  29.363  1.00  0.00     0.031 C 
ATOM     21  C   UNL A   1      38.630  34.629  33.780  1.00  0.00     0.029 A 
ATOM     22  C   UNL A   1      39.522  33.491  33.958  1.00  0.00     0.049 A 
ATOM     23  H   UNL A   1      39.785  31.872  32.674  1.00  0.00     0.167 HD
ATOM     24  C   UNL A   1      40.094  28.501  29.881  1.00  0.00     0.031 A 
ATOM     25  C   UNL A   1      40.349  33.309  35.005  1.00  0.00     0.031 A 
ATOM     26  C   UNL A   1      41.256  28.458  30.727  1.00  0.00     0.049 A 
ATOM     27  C   UNL A   1      41.245  32.108  34.997  1.00  0.00     0.074 A 
ATOM     28  C   UNL A   1      42.339  27.603  30.652  1.00  0.00     0.029 A 
ATOM     29  N   UNL A   1      41.420  29.232  31.862  1.00  0.00    -0.354 N 
ATOM     30  N   UNL A   1      41.402  31.216  34.047  1.00  0.00    -0.248 NA
ATOM     31  C   UNL A   1      42.085  31.883  36.179  1.00  0.00     0.031 C 
ATOM     32  C   UNL A   1      43.098  27.782  31.809  1.00  0.00     0.029 A 
ATOM     33  C   UNL A   1      42.520  28.790  32.568  1.00  0.00     0.049 A 
ATOM     34  H   UNL A   1      40.842  29.984  32.125  1.00  0.00     0.167 HD
ATOM     35  C   UNL A   1      42.379  30.343  34.500  1.00  0.00     0.074 A 
ATOM     36  C   UNL A   1      42.775  30.809  35.814  1.00  0.00     0.031 C 
ATOM     37  C   UNL A   1      42.902  29.262  33.875  1.00  0.00     0.031 A 
BRANCH  24  38
ATOM     38  C   UNL A   1      40.052  27.511  28.747  1.00  0.00    -0.014 A 
ATOM     39  C   UNL A   1      39.602  26.200  28.936  1.00  0.00     0.009 A 
ATOM     40  C   UNL A   1      40.678  27.831  27.529  1.00  0.00     0.009 A 
ATOM     41  C   UNL A   1      39.748  25.249  27.916  1.00  0.00     0.001 A 
ATOM     42  C   UNL A   1      40.787  26.897  26.498  1.00  0.00     0.001 A 
ATOM     43  C   UNL A   1      40.325  25.600  26.694  1.00  0.00     0.000 A 
ENDBRANCH  24  38
BRANCH  25  44
ATOM     44  C   UNL A   1      40.284  34.263  36.143  1.00  0.00    -0.014 A 
ATOM     45  C   UNL A   1      39.359  34.044  37.182  1.00  0.00     0.009 A 
ATOM     46  C   UNL A   1      41.069  35.421  36.175  1.00  0.00     0.009 A 
ATOM     47  C   UNL A   1      39.192  34.981  38.203  1.00  0.00     0.001 A 
ATOM     48  C   UNL A   1      40.924  36.343  37.217  1.00  0.00     0.001 A 
ATOM     49  C   UNL A   1      39.978  36.129  38.221  1.00  0.00     0.000 A 
ENDBRANCH  25  44
BRANCH  37  50
ATOM     50  C   UNL A   1      43.962  28.476  34.585  1.00  0.00    -0.014 A 
ATOM     51  C   UNL A   1      45.306  28.864  34.474  1.00  0.00     0.009 A 
ATOM     52  C   UNL A   1      43.646  27.263  35.213  1.00  0.00     0.009 A 
ATOM     53  C   UNL A   1      46.321  28.028  34.935  1.00  0.00     0.001 A 
ATOM     54  C   UNL A   1      44.663  26.444  35.705  1.00  0.00     0.001 A 
ATOM     55  C   UNL A   1      45.999  26.819  35.549  1.00  0.00     0.000 A 
ENDBRANCH  37  50
ENDBRANCH  11  12
ENDBRANCH   4   6
ENDBRANCH   3   4
ENDBRANCH   2   3
ENDBRANCH   1   2
BRANCH   1  56
ATOM     56  O   UNL A   1      32.785  30.872  26.792  1.00  0.00    -0.456 OA
BRANCH  56  57
ATOM     57  C   UNL A   1      33.705  29.857  26.729  1.00  0.00     0.376 C 
ATOM     58  O   UNL A   1      34.830  29.882  27.209  1.00  0.00    -0.242 OA
BRANCH  57  59
ATOM     59  C   UNL A   1      33.115  28.681  26.014  1.00  0.00     0.241 A 
ATOM     60  N   UNL A   1      33.719  27.491  26.200  1.00  0.00    -0.204 NA
ATOM     61  N   UNL A   1      31.978  28.894  25.327  1.00  0.00    -0.222 NA
ATOM     62  C   UNL A   1      33.048  26.409  25.777  1.00  0.00     0.138 A 
ATOM     63  C   UNL A   1      31.391  27.807  24.821  1.00  0.00     0.077 A 
ATOM     64  C   UNL A   1      31.839  26.504  25.069  1.00  0.00     0.043 A 
ATOM     65  C   UNL A   1      30.266  27.968  24.033  1.00  0.00     0.029 A 
ATOM     66  C   UNL A   1      31.071  25.395  24.620  1.00  0.00     0.014 A 
ATOM     67  C   UNL A   1      29.533  26.872  23.572  1.00  0.00     0.002 A 
ATOM     68  C   UNL A   1      29.907  25.583  23.893  1.00  0.00     0.001 A 
BRANCH  62  69
ATOM     69  N   UNL A   1      33.539  25.162  26.121  1.00  0.00    -0.368 N 
ATOM     70  H   UNL A   1      32.953  24.546  26.618  1.00  0.00     0.162 HD
BRANCH  69  71
ATOM     71  C   UNL A   1      34.883  24.723  25.781  1.00  0.00     0.127 C 
BRANCH  71  72
ATOM     72  C   UNL A   1      34.866  23.215  25.317  1.00  0.00     0.070 C 
ATOM     73  C   UNL A   1      34.041  23.022  24.044  1.00  0.00    -0.035 A 
ATOM     74  C   UNL A   1      36.178  22.420  25.333  1.00  0.00    -0.025 A 
ATOM     75  C   UNL A   1      33.952  24.015  23.053  1.00  0.00     0.005 A 
ATOM     76  C   UNL A   1      33.305  21.829  23.871  1.00  0.00    -0.034 A 
ATOM     77  C   UNL A   1      36.237  21.006  25.216  1.00  0.00     0.011 A 
ATOM     78  C   UNL A   1      37.402  23.092  25.545  1.00  0.00     0.005 A 
ATOM     79  C   UNL A   1      33.104  23.861  21.955  1.00  0.00     0.000 A 
ATOM     80  C   UNL A   1      32.490  21.670  22.739  1.00  0.00     0.005 A 
ATOM     81  C   UNL A   1      33.380  20.720  24.887  1.00  0.00     0.110 C 
ATOM     82  S   UNL A   1      34.939  19.815  24.845  1.00  0.00    -0.121 SA
ATOM     83  C   UNL A   1      37.482  20.348  25.377  1.00  0.00     0.015 A 
ATOM     84  C   UNL A   1      38.618  22.417  25.689  1.00  0.00     0.000 A 
ATOM     85  C   UNL A   1      32.376  22.689  21.796  1.00  0.00     0.000 A 
ATOM     86  C   UNL A   1      38.659  21.041  25.626  1.00  0.00     0.001 A 
ENDBRANCH  71  72
ENDBRANCH  69  71
ENDBRANCH  62  69
ENDBRANCH  57  59
ENDBRANCH  56  57
ENDBRANCH   1  56
TORSDOF 14
ENDMDL
MODEL 2
REMARK VINA RESULT:     -12.0      0.340      5.635
REMARK SMILES O=C(OCCOC(=O)c1nc(NC[C@H]2c3ccccc3CSc3ccccc32)c2ccccc2n1)c1ccc(-c2c3nc(c(-c4ccccc4)c4ccc([nH]4)c(-c4ccccc4)c4nc(c(-c5ccccc5)c5ccc2[nH]5)C=C4)C=C3)cc1
REMARK SMILES IDX 5 1 4 2 3 3 2 4 1 5 36 6 37 7 83 8 38 9 82 10 39 11 40 12
REMARK SMILES IDX 41 13 76 14 42 15 81 16 75 17 77 18 43 19 80 20 74 21 73 22
REMARK SMILES IDX 44 24 66 25 51 26 65 27 52 28 55 29 64 30 78 31 53 32 54 33
REMARK SMILES IDX 63 35 79 36 56 37 45 38 46 39 50 40 47 41 49 42 48 43 67 44
REMARK SMILES IDX 68 45 72 46 69 47 71 48 70 49 57 50 58 51 62 52 59 53 61 54
REMARK SMILES IDX 60 55 6 56 7 57 8 58 9 59 10 60 35 61 11 62 34 63 29 64
REMARK SMILES IDX 33 65 30 66 32 67 31 68 12 69 13 71 14 72 15 73 28 74 16 75
REMARK SMILES IDX 20 76 23 77 27 78 17 79 19 80 21 81 22 82 24 83 26 84 18 85
REMARK SMILES IDX 25 86
REMARK H PARENT 77 23 55 34 12 70
REMARK Flexibility Score: inf
ROOT
ATOM      1  C   UNL A   1      33.372  32.001  27.751  1.00  0.00     0.275 C 
ENDROOT
BRANCH   1   2
ATOM      2  C   UNL A   1      32.706  33.294  27.256  1.00  0.00     0.275 C 
BRANCH   2   3
ATOM      3  O   UNL A   1      32.278  34.279  28.214  1.00  0.00    -0.458 OA
BRANCH   3   4
ATOM      4  C   UNL A   1      33.106  35.151  28.825  1.00  0.00     0.338 C 
ATOM      5  O   UNL A   1      32.874  36.352  28.770  1.00  0.00    -0.246 OA
BRANCH   4   6
ATOM      6  C   UNL A   1      34.263  34.628  29.618  1.00  0.00     0.060 A 
ATOM      7  C   UNL A   1      35.512  34.621  28.990  1.00  0.00     0.016 A 
ATOM      8  C   UNL A   1      34.172  34.082  30.901  1.00  0.00     0.016 A 
ATOM      9  C   UNL A   1      36.590  33.933  29.547  1.00  0.00     0.010 A 
ATOM     10  C   UNL A   1      35.251  33.390  31.464  1.00  0.00     0.010 A 
ATOM     11  C   UNL A   1      36.455  33.265  30.767  1.00  0.00    -0.014 A 
BRANCH  11  12
ATOM     12  C   UNL A   1      37.616  32.570  31.367  1.00  0.00     0.031 A 
ATOM     13  C   UNL A   1      38.397  33.155  32.516  1.00  0.00     0.074 A 
ATOM     14  C   UNL A   1      37.968  31.387  30.831  1.00  0.00     0.049 A 
ATOM     15  N   UNL A   1      39.314  32.575  33.251  1.00  0.00    -0.248 NA
ATOM     16  C   UNL A   1      38.113  34.542  32.917  1.00  0.00     0.031 C 
ATOM     17  C   UNL A   1      37.298  30.742  29.697  1.00  0.00     0.029 A 
ATOM     18  N   UNL A   1      38.999  30.538  31.135  1.00  0.00    -0.354 N 
ATOM     19  C   UNL A   1      39.613  33.471  34.273  1.00  0.00     0.074 A 
ATOM     20  C   UNL A   1      38.881  34.683  33.996  1.00  0.00     0.031 C 
ATOM     21  C   UNL A   1      37.973  29.635  29.362  1.00  0.00     0.029 A 
ATOM     22  C   UNL A   1      39.135  29.513  30.233  1.00  0.00     0.049 A 
ATOM     23  H   UNL A   1      39.583  30.653  31.919  1.00  0.00     0.167 HD
ATOM     24  C   UNL A   1      40.382  33.248  35.366  1.00  0.00     0.031 A 
ATOM     25  C   UNL A   1      40.123  28.611  30.087  1.00  0.00     0.031 A 
ATOM     26  C   UNL A   1      41.219  32.088  35.507  1.00  0.00     0.049 A 
ATOM     27  C   UNL A   1      41.215  28.587  31.114  1.00  0.00     0.074 A 
ATOM     28  C   UNL A   1      42.055  31.758  36.555  1.00  0.00     0.029 A 
ATOM     29  N   UNL A   1      41.401  31.137  34.518  1.00  0.00    -0.354 N 
ATOM     30  N   UNL A   1      41.311  29.291  32.217  1.00  0.00    -0.248 NA
ATOM     31  C   UNL A   1      42.324  27.650  30.900  1.00  0.00     0.031 C 
ATOM     32  C   UNL A   1      42.831  30.671  36.150  1.00  0.00     0.029 A 
ATOM     33  C   UNL A   1      42.431  30.290  34.876  1.00  0.00     0.049 A 
ATOM     34  H   UNL A   1      40.877  31.073  33.688  1.00  0.00     0.167 HD
ATOM     35  C   UNL A   1      42.470  28.863  32.844  1.00  0.00     0.074 A 
ATOM     36  C   UNL A   1      43.048  27.840  31.997  1.00  0.00     0.031 C 
ATOM     37  C   UNL A   1      42.997  29.277  34.022  1.00  0.00     0.031 A 
BRANCH  24  38
ATOM     38  C   UNL A   1      40.388  34.224  36.513  1.00  0.00    -0.014 A 
ATOM     39  C   UNL A   1      39.408  34.187  37.511  1.00  0.00     0.009 A 
ATOM     40  C   UNL A   1      41.255  35.331  36.472  1.00  0.00     0.009 A 
ATOM     41  C   UNL A   1      39.326  35.216  38.459  1.00  0.00     0.001 A 
ATOM     42  C   UNL A   1      41.201  36.336  37.440  1.00  0.00     0.001 A 
ATOM     43  C   UNL A   1      40.230  36.280  38.433  1.00  0.00     0.000 A 
ENDBRANCH  24  38
BRANCH  25  44
ATOM     44  C   UNL A   1      40.122  27.735  28.887  1.00  0.00    -0.014 A 
ATOM     45  C   UNL A   1      39.585  26.435  28.974  1.00  0.00     0.009 A 
ATOM     46  C   UNL A   1      40.712  28.138  27.684  1.00  0.00     0.009 A 
ATOM     47  C   UNL A   1      39.676  25.548  27.901  1.00  0.00     0.001 A 
ATOM     48  C   UNL A   1      40.772  27.258  26.598  1.00  0.00     0.001 A 
ATOM     49  C   UNL A   1      40.267  25.962  26.711  1.00  0.00     0.000 A 
ENDBRANCH  25  44
BRANCH  37  50
ATOM     50  C   UNL A   1      44.273  28.647  34.488  1.00  0.00    -0.014 A 
ATOM     51  C   UNL A   1      44.226  27.526  35.332  1.00  0.00     0.009 A 
ATOM     52  C   UNL A   1      45.506  29.265  34.236  1.00  0.00     0.009 A 
ATOM     53  C   UNL A   1      45.385  27.064  35.954  1.00  0.00     0.001 A 
ATOM     54  C   UNL A   1      46.668  28.779  34.832  1.00  0.00     0.001 A 
ATOM     55  C   UNL A   1      46.604  27.691  35.705  1.00  0.00     0.000 A 
ENDBRANCH  37  50
ENDBRANCH  11  12
ENDBRANCH   4   6
ENDBRANCH   3   4
ENDBRANCH   2   3
ENDBRANCH   1   2
BRANCH   1  56
ATOM     56  O   UNL A   1      32.883  30.791  27.149  1.00  0.00    -0.456 OA
BRANCH  56  57
ATOM     57  C   UNL A   1      33.826  29.839  26.859  1.00  0.00     0.376 C 
ATOM     58  O   UNL A   1      35.002  29.872  27.196  1.00  0.00    -0.242 OA
BRANCH  57  59
ATOM     59  C   UNL A   1      33.196  28.717  26.092  1.00  0.00     0.241 A 
ATOM     60  N   UNL A   1      33.755  27.499  26.230  1.00  0.00    -0.204 NA
ATOM     61  N   UNL A   1      32.071  29.001  25.412  1.00  0.00    -0.222 NA
ATOM     62  C   UNL A   1      33.047  26.461  25.759  1.00  0.00     0.138 A 
ATOM     63  C   UNL A   1      31.446  27.959  24.858  1.00  0.00     0.077 A 
ATOM     64  C   UNL A   1      31.845  26.631  25.052  1.00  0.00     0.043 A 
ATOM     65  C   UNL A   1      30.332  28.195  24.075  1.00  0.00     0.029 A 
ATOM     66  C   UNL A   1      31.038  25.571  24.554  1.00  0.00     0.014 A 
ATOM     67  C   UNL A   1      29.560  27.147  23.566  1.00  0.00     0.002 A 
ATOM     68  C   UNL A   1      29.885  25.833  23.833  1.00  0.00     0.001 A 
BRANCH  62  69
ATOM     69  N   UNL A   1      33.489  25.184  26.051  1.00  0.00    -0.368 N 
ATOM     70  H   UNL A   1      32.856  24.545  26.452  1.00  0.00     0.162 HD
BRANCH  69  71
ATOM     71  C   UNL A   1      34.851  24.743  25.792  1.00  0.00     0.127 C 
BRANCH  71  72
ATOM     72  C   UNL A   1      34.860  23.236  25.325  1.00  0.00     0.070 C 
ATOM     73  C   UNL A   1      34.049  23.034  24.045  1.00  0.00    -0.035 A 
ATOM     74  C   UNL A   1      36.184  22.460  25.350  1.00  0.00    -0.025 A 
ATOM     75  C   UNL A   1      33.953  24.028  23.055  1.00  0.00     0.005 A 
ATOM     76  C   UNL A   1      33.332  21.831  23.863  1.00  0.00    -0.034 A 
ATOM     77  C   UNL A   1      36.264  21.048  25.230  1.00  0.00     0.011 A 
ATOM     78  C   UNL A   1      37.395  23.150  25.574  1.00  0.00     0.005 A 
ATOM     79  C   UNL A   1      33.117  23.865  21.950  1.00  0.00     0.000 A 
ATOM     80  C   UNL A   1      32.529  21.663  22.723  1.00  0.00     0.005 A 
ATOM     81  C   UNL A   1      33.414  20.721  24.876  1.00  0.00     0.110 C 
ATOM     82  S   UNL A   1      34.987  19.839  24.845  1.00  0.00    -0.121 SA
ATOM     83  C   UNL A   1      37.517  20.408  25.400  1.00  0.00     0.015 A 
ATOM     84  C   UNL A   1      38.620  22.493  25.727  1.00  0.00     0.000 A 
ATOM     85  C   UNL A   1      32.407  22.682  21.782  1.00  0.00     0.000 A 
ATOM     86  C   UNL A   1      38.682  21.117  25.661  1.00  0.00     0.001 A 
ENDBRANCH  71  72
ENDBRANCH  69  71
ENDBRANCH  62  69
ENDBRANCH  57  59
ENDBRANCH  56  57
ENDBRANCH   1  56
TORSDOF 14
ENDMDL
MODEL 3
REMARK VINA RESULT:     -12.0      1.479      2.098
REMARK SMILES O=C(OCCOC(=O)c1nc(NC[C@H]2c3ccccc3CSc3ccccc32)c2ccccc2n1)c1ccc(-c2c3nc(c(-c4ccccc4)c4ccc([nH]4)c(-c4ccccc4)c4nc(c(-c5ccccc5)c5ccc2[nH]5)C=C4)C=C3)cc1
REMARK SMILES IDX 5 1 4 2 3 3 2 4 1 5 36 6 37 7 83 8 38 9 82 10 39 11 40 12
REMARK SMILES IDX 41 13 76 14 42 15 81 16 75 17 77 18 43 19 80 20 74 21 73 22
REMARK SMILES IDX 44 24 66 25 51 26 65 27 52 28 55 29 64 30 78 31 53 32 54 33
REMARK SMILES IDX 63 35 79 36 56 37 45 38 46 39 50 40 47 41 49 42 48 43 67 44
REMARK SMILES IDX 68 45 72 46 69 47 71 48 70 49 57 50 58 51 62 52 59 53 61 54
REMARK SMILES IDX 60 55 6 56 7 57 8 58 9 59 10 60 35 61 11 62 34 63 29 64
REMARK SMILES IDX 33 65 30 66 32 67 31 68 12 69 13 71 14 72 15 73 28 74 16 75
REMARK SMILES IDX 20 76 23 77 27 78 17 79 19 80 21 81 22 82 24 83 26 84 18 85
REMARK SMILES IDX 25 86
REMARK H PARENT 77 23 55 34 12 70
REMARK Flexibility Score: inf
ROOT
ATOM      1  C   UNL A   1      33.653  33.595  27.699  1.00  0.00     0.275 C 
ENDROOT
BRANCH   1   2
ATOM      2  C   UNL A   1      32.924  34.722  28.447  1.00  0.00     0.275 C 
BRANCH   2   3
ATOM      3  O   UNL A   1      32.764  34.635  29.875  1.00  0.00    -0.458 OA
BRANCH   3   4
ATOM      4  C   UNL A   1      33.750  34.882  30.762  1.00  0.00     0.338 C 
ATOM      5  O   UNL A   1      33.641  35.812  31.550  1.00  0.00    -0.246 OA
BRANCH   4   6
ATOM      6  C   UNL A   1      34.935  33.967  30.813  1.00  0.00     0.060 A 
ATOM      7  C   UNL A   1      34.920  32.963  31.785  1.00  0.00     0.016 A 
ATOM      8  C   UNL A   1      36.075  34.091  30.015  1.00  0.00     0.016 A 
ATOM      9  C   UNL A   1      36.071  32.228  32.073  1.00  0.00     0.010 A 
ATOM     10  C   UNL A   1      37.231  33.355  30.299  1.00  0.00     0.010 A 
ATOM     11  C   UNL A   1      37.255  32.453  31.366  1.00  0.00    -0.014 A 
BRANCH  11  12
ATOM     12  C   UNL A   1      38.459  31.641  31.652  1.00  0.00     0.031 A 
ATOM     13  C   UNL A   1      38.732  30.334  30.954  1.00  0.00     0.074 A 
ATOM     14  C   UNL A   1      39.307  32.108  32.588  1.00  0.00     0.049 A 
ATOM     15  N   UNL A   1      39.828  29.617  30.975  1.00  0.00    -0.248 NA
ATOM     16  C   UNL A   1      37.672  29.761  30.109  1.00  0.00     0.031 C 
ATOM     17  C   UNL A   1      39.124  33.349  33.347  1.00  0.00     0.029 A 
ATOM     18  N   UNL A   1      40.463  31.577  33.092  1.00  0.00    -0.354 N 
ATOM     19  C   UNL A   1      39.639  28.594  30.051  1.00  0.00     0.074 A 
ATOM     20  C   UNL A   1      38.279  28.701  29.579  1.00  0.00     0.031 C 
ATOM     21  C   UNL A   1      40.097  33.449  34.262  1.00  0.00     0.029 A 
ATOM     22  C   UNL A   1      40.946  32.269  34.174  1.00  0.00     0.049 A 
ATOM     23  H   UNL A   1      40.903  30.780  32.717  1.00  0.00     0.167 HD
ATOM     24  C   UNL A   1      40.557  27.701  29.608  1.00  0.00     0.031 A 
ATOM     25  C   UNL A   1      41.928  31.953  35.038  1.00  0.00     0.031 A 
ATOM     26  C   UNL A   1      41.842  27.532  30.231  1.00  0.00     0.049 A 
ATOM     27  C   UNL A   1      42.747  30.728  34.761  1.00  0.00     0.074 A 
ATOM     28  C   UNL A   1      42.850  26.653  29.888  1.00  0.00     0.029 A 
ATOM     29  N   UNL A   1      42.237  28.182  31.387  1.00  0.00    -0.354 N 
ATOM     30  N   UNL A   1      42.694  29.933  33.719  1.00  0.00    -0.248 NA
ATOM     31  C   UNL A   1      43.763  30.355  35.752  1.00  0.00     0.031 C 
ATOM     32  C   UNL A   1      43.804  26.687  30.906  1.00  0.00     0.029 A 
ATOM     33  C   UNL A   1      43.417  27.632  31.846  1.00  0.00     0.049 A 
ATOM     34  H   UNL A   1      41.751  28.922  31.817  1.00  0.00     0.167 HD
ATOM     35  C   UNL A   1      43.687  28.985  33.911  1.00  0.00     0.074 A 
ATOM     36  C   UNL A   1      44.325  29.301  35.173  1.00  0.00     0.031 C 
ATOM     37  C   UNL A   1      44.040  27.955  33.105  1.00  0.00     0.031 A 
BRANCH  24  38
ATOM     38  C   UNL A   1      40.271  26.834  28.412  1.00  0.00    -0.014 A 
ATOM     39  C   UNL A   1      39.615  25.605  28.537  1.00  0.00     0.009 A 
ATOM     40  C   UNL A   1      40.864  27.148  27.175  1.00  0.00     0.009 A 
ATOM     41  C   UNL A   1      39.528  24.735  27.442  1.00  0.00     0.001 A 
ATOM     42  C   UNL A   1      40.742  26.301  26.072  1.00  0.00     0.001 A 
ATOM     43  C   UNL A   1      40.077  25.089  26.208  1.00  0.00     0.000 A 
ENDBRANCH  24  38
BRANCH  25  44
ATOM     44  C   UNL A   1      42.108  32.788  36.255  1.00  0.00    -0.014 A 
ATOM     45  C   UNL A   1      43.076  33.812  36.259  1.00  0.00     0.009 A 
ATOM     46  C   UNL A   1      41.393  32.535  37.430  1.00  0.00     0.009 A 
ATOM     47  C   UNL A   1      43.350  34.534  37.421  1.00  0.00     0.001 A 
ATOM     48  C   UNL A   1      41.646  33.283  38.585  1.00  0.00     0.001 A 
ATOM     49  C   UNL A   1      42.632  34.271  38.583  1.00  0.00     0.000 A 
ENDBRANCH  25  44
BRANCH  37  50
ATOM     50  C   UNL A   1      45.162  27.065  33.542  1.00  0.00    -0.014 A 
ATOM     51  C   UNL A   1      46.474  27.347  33.128  1.00  0.00     0.009 A 
ATOM     52  C   UNL A   1      44.896  25.862  34.211  1.00  0.00     0.009 A 
ATOM     53  C   UNL A   1      47.492  26.417  33.333  1.00  0.00     0.001 A 
ATOM     54  C   UNL A   1      45.925  24.949  34.446  1.00  0.00     0.001 A 
ATOM     55  C   UNL A   1      47.216  25.220  33.991  1.00  0.00     0.000 A 
ENDBRANCH  37  50
ENDBRANCH  11  12
ENDBRANCH   4   6
ENDBRANCH   3   4
ENDBRANCH   2   3
ENDBRANCH   1   2
BRANCH   1  56
ATOM     56  O   UNL A   1      32.940  32.350  27.622  1.00  0.00    -0.456 OA
BRANCH  56  57
ATOM     57  C   UNL A   1      33.710  31.215  27.618  1.00  0.00     0.376 C 
ATOM     58  O   UNL A   1      34.717  31.033  28.289  1.00  0.00    -0.242 OA
BRANCH  57  59
ATOM     59  C   UNL A   1      33.114  30.200  26.691  1.00  0.00     0.241 A 
ATOM     60  N   UNL A   1      33.556  28.933  26.813  1.00  0.00    -0.204 NA
ATOM     61  N   UNL A   1      32.122  30.620  25.886  1.00  0.00    -0.222 NA
ATOM     62  C   UNL A   1      32.847  27.990  26.175  1.00  0.00     0.138 A 
ATOM     63  C   UNL A   1      31.506  29.671  25.177  1.00  0.00     0.077 A 
ATOM     64  C   UNL A   1      31.773  28.305  25.325  1.00  0.00     0.043 A 
ATOM     65  C   UNL A   1      30.535  30.048  24.268  1.00  0.00     0.029 A 
ATOM     66  C   UNL A   1      30.969  27.350  24.643  1.00  0.00     0.014 A 
ATOM     67  C   UNL A   1      29.769  29.104  23.582  1.00  0.00     0.002 A 
ATOM     68  C   UNL A   1      29.954  27.752  23.792  1.00  0.00     0.001 A 
BRANCH  62  69
ATOM     69  N   UNL A   1      33.147  26.665  26.429  1.00  0.00    -0.368 N 
ATOM     70  H   UNL A   1      32.520  26.135  26.974  1.00  0.00     0.162 HD
BRANCH  69  71
ATOM     71  C   UNL A   1      34.350  26.019  25.927  1.00  0.00     0.127 C 
BRANCH  71  72
ATOM     72  C   UNL A   1      33.974  24.736  25.089  1.00  0.00     0.070 C 
ATOM     73  C   UNL A   1      33.418  25.099  23.712  1.00  0.00    -0.035 A 
ATOM     74  C   UNL A   1      34.949  23.551  25.072  1.00  0.00    -0.025 A 
ATOM     75  C   UNL A   1      33.846  26.240  23.010  1.00  0.00     0.005 A 
ATOM     76  C   UNL A   1      32.409  24.295  23.139  1.00  0.00    -0.034 A 
ATOM     77  C   UNL A   1      34.599  22.258  24.600  1.00  0.00     0.011 A 
ATOM     78  C   UNL A   1      36.245  23.702  25.612  1.00  0.00     0.005 A 
ATOM     79  C   UNL A   1      33.244  26.613  21.808  1.00  0.00     0.000 A 
ATOM     80  C   UNL A   1      31.842  24.658  21.906  1.00  0.00     0.005 A 
ATOM     81  C   UNL A   1      31.927  23.049  23.833  1.00  0.00     0.110 C 
ATOM     82  S   UNL A   1      33.110  21.689  23.764  1.00  0.00    -0.121 SA
ATOM     83  C   UNL A   1      35.522  21.193  24.748  1.00  0.00     0.015 A 
ATOM     84  C   UNL A   1      37.140  22.635  25.736  1.00  0.00     0.000 A 
ATOM     85  C   UNL A   1      32.245  25.821  21.254  1.00  0.00     0.000 A 
ATOM     86  C   UNL A   1      36.773  21.371  25.323  1.00  0.00     0.001 A 
ENDBRANCH  71  72
ENDBRANCH  69  71
ENDBRANCH  62  69
ENDBRANCH  57  59
ENDBRANCH  56  57
ENDBRANCH   1  56
TORSDOF 14
ENDMDL
