MODEL 1
REMARK VINA RESULT:     -11.7      0.000      0.000
REMARK SMILES NC(=O)c1cc(NC(=O)/C=C\C(=O)OCCOC(=O)c2ccc(-c3c4nc(c(-c5ccccc5)c5ccc([nH]5)c(-c5ccccc5)c5nc(c(-c6ccccc6)c6ccc3[nH]6)C=C5)C=C4)cc2)ccc1N1CCOCC1
REMARK SMILES IDX 15 1 14 2 12 3 13 4 11 5 10 6 8 7 7 8 9 10 6 11 4 12 5 13
REMARK SMILES IDX 70 14 69 15 68 16 2 17 1 18 3 21 71 22 72 23 76 24 73 25
REMARK SMILES IDX 75 26 74 27 16 28 17 29 18 30 19 31 20 32 21 33 67 34 22 35
REMARK SMILES IDX 66 36 23 37 24 38 25 39 60 40 26 41 65 42 59 43 61 44 27 45
REMARK SMILES IDX 64 46 58 47 57 48 28 50 50 51 35 52 49 53 36 54 39 55 48 56
REMARK SMILES IDX 62 57 37 58 38 59 47 61 63 62 40 63 29 64 30 65 34 66 31 67
REMARK SMILES IDX 33 68 32 69 51 70 52 71 56 72 53 73 55 74 54 75 41 76 42 77
REMARK SMILES IDX 46 78 43 79 45 80 44 81
REMARK H PARENT 7 9 1 19 1 20 61 49 39 60
REMARK Flexibility Score: inf
ROOT
ATOM      1  C   UNL A   1      32.892  29.952  26.367  1.00  0.00     0.275 C 
ENDROOT
BRANCH   1   2
ATOM      2  O   UNL A   1      31.683  29.168  26.376  1.00  0.00    -0.459 OA
BRANCH   2   3
ATOM      3  C   UNL A   1      31.801  27.973  26.989  1.00  0.00     0.331 C 
ATOM      4  O   UNL A   1      31.272  27.656  28.043  1.00  0.00    -0.247 OA
BRANCH   3   5
ATOM      5  C   UNL A   1      32.623  27.011  26.258  1.00  0.00     0.099 C 
ATOM      6  C   UNL A   1      32.190  25.857  25.730  1.00  0.00     0.079 C 
BRANCH   6   7
ATOM      7  C   UNL A   1      30.885  25.184  25.919  1.00  0.00     0.248 C 
ATOM      8  N   UNL A   1      29.725  25.585  25.324  1.00  0.00    -0.322 N 
ATOM      9  H   UNL A   1      28.923  25.136  25.675  1.00  0.00     0.170 HD
ATOM     10  O   UNL A   1      30.855  24.227  26.695  1.00  0.00    -0.270 OA
BRANCH   8  11
ATOM     11  C   UNL A   1      29.454  26.516  24.311  1.00  0.00     0.042 A 
ATOM     12  C   UNL A   1      30.107  28.373  22.905  1.00  0.00     0.064 A 
ATOM     13  C   UNL A   1      30.436  27.194  23.605  1.00  0.00     0.042 A 
ATOM     14  C   UNL A   1      28.779  28.862  22.866  1.00  0.00     0.050 A 
ATOM     15  C   UNL A   1      27.790  28.016  23.394  1.00  0.00     0.029 A 
ATOM     16  C   UNL A   1      28.118  26.847  24.093  1.00  0.00     0.028 A 
BRANCH  12  17
ATOM     17  C   UNL A   1      31.295  29.165  22.508  1.00  0.00     0.250 C 
ATOM     18  N   UNL A   1      31.090  30.085  21.528  1.00  0.00    -0.366 N 
ATOM     19  H   UNL A   1      31.837  30.646  21.215  1.00  0.00     0.159 HD
ATOM     20  H   UNL A   1      30.196  30.190  21.132  1.00  0.00     0.159 HD
ATOM     21  O   UNL A   1      32.362  29.085  23.102  1.00  0.00    -0.269 OA
ENDBRANCH  12  17
BRANCH  14  22
ATOM     22  N   UNL A   1      28.447  30.142  22.442  1.00  0.00    -0.366 N 
ATOM     23  C   UNL A   1      27.777  30.349  21.149  1.00  0.00     0.145 C 
ATOM     24  C   UNL A   1      28.278  31.240  23.408  1.00  0.00     0.145 C 
ATOM     25  C   UNL A   1      28.142  31.736  20.589  1.00  0.00     0.181 C 
ATOM     26  C   UNL A   1      28.625  32.578  22.735  1.00  0.00     0.181 C 
ATOM     27  O   UNL A   1      27.862  32.783  21.536  1.00  0.00    -0.378 OA
ENDBRANCH  14  22
ENDBRANCH   8  11
ENDBRANCH   6   7
ENDBRANCH   3   5
ENDBRANCH   2   3
ENDBRANCH   1   2
BRANCH   1  28
ATOM     28  C   UNL A   1      33.017  31.037  27.449  1.00  0.00     0.275 C 
BRANCH  28  29
ATOM     29  O   UNL A   1      33.162  32.371  26.926  1.00  0.00    -0.458 OA
BRANCH  29  30
ATOM     30  C   UNL A   1      33.266  33.346  27.867  1.00  0.00     0.338 C 
ATOM     31  O   UNL A   1      32.410  34.152  28.179  1.00  0.00    -0.246 OA
BRANCH  30  32
ATOM     32  C   UNL A   1      34.537  33.192  28.613  1.00  0.00     0.060 A 
ATOM     33  C   UNL A   1      35.737  33.435  27.929  1.00  0.00     0.016 A 
ATOM     34  C   UNL A   1      34.560  32.787  29.947  1.00  0.00     0.016 A 
ATOM     35  C   UNL A   1      36.964  33.267  28.568  1.00  0.00     0.010 A 
ATOM     36  C   UNL A   1      35.790  32.604  30.588  1.00  0.00     0.010 A 
ATOM     37  C   UNL A   1      36.995  32.817  29.893  1.00  0.00    -0.014 A 
BRANCH  37  38
ATOM     38  C   UNL A   1      38.262  32.294  30.455  1.00  0.00     0.031 A 
ATOM     39  C   UNL A   1      38.780  31.006  29.877  1.00  0.00     0.074 A 
ATOM     40  C   UNL A   1      38.931  32.923  31.436  1.00  0.00     0.049 A 
ATOM     41  N   UNL A   1      39.816  30.294  30.233  1.00  0.00    -0.248 NA
ATOM     42  C   UNL A   1      38.013  30.440  28.753  1.00  0.00     0.031 C 
ATOM     43  C   UNL A   1      38.550  34.191  32.048  1.00  0.00     0.029 A 
ATOM     44  N   UNL A   1      40.078  32.566  32.100  1.00  0.00    -0.354 N 
ATOM     45  C   UNL A   1      39.813  29.190  29.390  1.00  0.00     0.074 A 
ATOM     46  C   UNL A   1      38.665  29.312  28.522  1.00  0.00     0.031 C 
ATOM     47  C   UNL A   1      39.446  34.513  32.997  1.00  0.00     0.029 A 
ATOM     48  C   UNL A   1      40.430  33.441  33.101  1.00  0.00     0.049 A 
ATOM     49  H   UNL A   1      40.598  31.759  31.882  1.00  0.00     0.167 HD
ATOM     50  C   UNL A   1      40.687  28.160  29.348  1.00  0.00     0.031 A 
ATOM     51  C   UNL A   1      41.413  33.364  34.020  1.00  0.00     0.031 A 
ATOM     52  C   UNL A   1      41.809  28.031  30.235  1.00  0.00     0.049 A 
ATOM     53  C   UNL A   1      42.327  32.167  34.002  1.00  0.00     0.074 A 
ATOM     54  C   UNL A   1      42.764  27.032  30.275  1.00  0.00     0.029 A 
ATOM     55  N   UNL A   1      42.115  28.925  31.250  1.00  0.00    -0.354 N 
ATOM     56  N   UNL A   1      42.335  31.143  33.181  1.00  0.00    -0.248 NA
ATOM     57  C   UNL A   1      43.372  32.117  35.035  1.00  0.00     0.031 C 
ATOM     58  C   UNL A   1      43.610  27.288  31.358  1.00  0.00     0.029 A 
ATOM     59  C   UNL A   1      43.226  28.484  31.944  1.00  0.00     0.049 A 
ATOM     60  H   UNL A   1      41.614  29.750  31.447  1.00  0.00     0.167 HD
ATOM     61  C   UNL A   1      43.402  30.347  33.577  1.00  0.00     0.074 A 
ATOM     62  C   UNL A   1      44.026  31.014  34.701  1.00  0.00     0.031 C 
ATOM     63  C   UNL A   1      43.830  29.169  33.058  1.00  0.00     0.031 A 
BRANCH  50  64
ATOM     64  C   UNL A   1      40.421  27.073  28.346  1.00  0.00    -0.014 A 
ATOM     65  C   UNL A   1      40.971  27.112  27.055  1.00  0.00     0.009 A 
ATOM     66  C   UNL A   1      39.606  25.989  28.706  1.00  0.00     0.009 A 
ATOM     67  C   UNL A   1      40.678  26.104  26.133  1.00  0.00     0.001 A 
ATOM     68  C   UNL A   1      39.341  24.967  27.793  1.00  0.00     0.001 A 
ATOM     69  C   UNL A   1      39.870  25.031  26.505  1.00  0.00     0.000 A 
ENDBRANCH  50  64
BRANCH  51  70
ATOM     70  C   UNL A   1      41.561  34.420  35.059  1.00  0.00    -0.014 A 
ATOM     71  C   UNL A   1      40.894  34.319  36.289  1.00  0.00     0.009 A 
ATOM     72  C   UNL A   1      42.348  35.557  34.812  1.00  0.00     0.009 A 
ATOM     73  C   UNL A   1      40.986  35.345  37.235  1.00  0.00     0.001 A 
ATOM     74  C   UNL A   1      42.467  36.564  35.772  1.00  0.00     0.001 A 
ATOM     75  C   UNL A   1      41.776  36.464  36.977  1.00  0.00     0.000 A 
ENDBRANCH  51  70
BRANCH  63  76
ATOM     76  C   UNL A   1      45.058  28.553  33.668  1.00  0.00    -0.014 A 
ATOM     77  C   UNL A   1      46.345  28.883  33.218  1.00  0.00     0.009 A 
ATOM     78  C   UNL A   1      44.919  27.671  34.751  1.00  0.00     0.009 A 
ATOM     79  C   UNL A   1      47.468  28.309  33.818  1.00  0.00     0.001 A 
ATOM     80  C   UNL A   1      46.043  27.128  35.371  1.00  0.00     0.001 A 
ATOM     81  C   UNL A   1      47.316  27.439  34.897  1.00  0.00     0.000 A 
ENDBRANCH  63  76
ENDBRANCH  37  38
ENDBRANCH  30  32
ENDBRANCH  29  30
ENDBRANCH  28  29
ENDBRANCH   1  28
TORSDOF 15
ENDMDL
MODEL 2
REMARK VINA RESULT:     -11.6      3.984      8.060
REMARK SMILES NC(=O)c1cc(NC(=O)/C=C\C(=O)OCCOC(=O)c2ccc(-c3c4nc(c(-c5ccccc5)c5ccc([nH]5)c(-c5ccccc5)c5nc(c(-c6ccccc6)c6ccc3[nH]6)C=C5)C=C4)cc2)ccc1N1CCOCC1
REMARK SMILES IDX 15 1 14 2 12 3 13 4 11 5 10 6 8 7 7 8 9 10 6 11 4 12 5 13
REMARK SMILES IDX 70 14 69 15 68 16 2 17 1 18 3 21 71 22 72 23 76 24 73 25
REMARK SMILES IDX 75 26 74 27 16 28 17 29 18 30 19 31 20 32 21 33 67 34 22 35
REMARK SMILES IDX 66 36 23 37 24 38 25 39 60 40 26 41 65 42 59 43 61 44 27 45
REMARK SMILES IDX 64 46 58 47 57 48 28 50 50 51 35 52 49 53 36 54 39 55 48 56
REMARK SMILES IDX 62 57 37 58 38 59 47 61 63 62 40 63 29 64 30 65 34 66 31 67
REMARK SMILES IDX 33 68 32 69 51 70 52 71 56 72 53 73 55 74 54 75 41 76 42 77
REMARK SMILES IDX 46 78 43 79 45 80 44 81
REMARK H PARENT 7 9 1 19 1 20 61 49 39 60
REMARK Flexibility Score: inf
ROOT
ATOM      1  C   UNL A   1      35.021  20.755  24.979  1.00  0.00     0.275 C 
ENDROOT
BRANCH   1   2
ATOM      2  O   UNL A   1      34.452  21.580  26.014  1.00  0.00    -0.459 OA
BRANCH   2   3
ATOM      3  C   UNL A   1      33.831  22.688  25.562  1.00  0.00     0.331 C 
ATOM      4  O   UNL A   1      34.267  23.827  25.624  1.00  0.00    -0.247 OA
BRANCH   3   5
ATOM      5  C   UNL A   1      32.541  22.426  24.927  1.00  0.00     0.099 C 
ATOM      6  C   UNL A   1      31.372  22.984  25.274  1.00  0.00     0.079 C 
BRANCH   6   7
ATOM      7  C   UNL A   1      31.056  23.808  26.464  1.00  0.00     0.248 C 
ATOM      8  N   UNL A   1      30.938  25.167  26.442  1.00  0.00    -0.322 N 
ATOM      9  H   UNL A   1      30.886  25.575  27.336  1.00  0.00     0.170 HD
ATOM     10  O   UNL A   1      30.934  23.217  27.539  1.00  0.00    -0.270 OA
BRANCH   8  11
ATOM     11  C   UNL A   1      30.879  26.095  25.393  1.00  0.00     0.042 A 
ATOM     12  C   UNL A   1      31.561  28.172  24.356  1.00  0.00     0.064 A 
ATOM     13  C   UNL A   1      31.860  27.045  25.149  1.00  0.00     0.042 A 
ATOM     14  C   UNL A   1      30.288  28.339  23.761  1.00  0.00     0.050 A 
ATOM     15  C   UNL A   1      29.415  27.242  23.844  1.00  0.00     0.029 A 
ATOM     16  C   UNL A   1      29.710  26.124  24.634  1.00  0.00     0.028 A 
BRANCH  12  17
ATOM     17  C   UNL A   1      32.569  29.252  24.476  1.00  0.00     0.250 C 
ATOM     18  N   UNL A   1      33.384  29.420  23.402  1.00  0.00    -0.366 N 
ATOM     19  H   UNL A   1      34.077  30.120  23.413  1.00  0.00     0.159 HD
ATOM     20  H   UNL A   1      33.281  28.842  22.611  1.00  0.00     0.159 HD
ATOM     21  O   UNL A   1      32.592  30.022  25.427  1.00  0.00    -0.269 OA
ENDBRANCH  12  17
BRANCH  14  22
ATOM     22  N   UNL A   1      29.848  29.539  23.217  1.00  0.00    -0.366 N 
ATOM     23  C   UNL A   1      29.617  30.708  24.080  1.00  0.00     0.145 C 
ATOM     24  C   UNL A   1      30.070  29.854  21.797  1.00  0.00     0.145 C 
ATOM     25  C   UNL A   1      28.529  31.606  23.460  1.00  0.00     0.181 C 
ATOM     26  C   UNL A   1      28.957  30.787  21.294  1.00  0.00     0.181 C 
ATOM     27  O   UNL A   1      28.846  31.967  22.104  1.00  0.00    -0.378 OA
ENDBRANCH  14  22
ENDBRANCH   8  11
ENDBRANCH   6   7
ENDBRANCH   3   5
ENDBRANCH   2   3
ENDBRANCH   1   2
BRANCH   1  28
ATOM     28  C   UNL A   1      36.546  20.563  25.012  1.00  0.00     0.275 C 
BRANCH  28  29
ATOM     29  O   UNL A   1      37.262  21.664  25.602  1.00  0.00    -0.458 OA
BRANCH  29  30
ATOM     30  C   UNL A   1      38.565  21.408  25.894  1.00  0.00     0.338 C 
ATOM     31  O   UNL A   1      39.202  20.422  25.577  1.00  0.00    -0.246 OA
BRANCH  30  32
ATOM     32  C   UNL A   1      39.184  22.599  26.523  1.00  0.00     0.060 A 
ATOM     33  C   UNL A   1      38.638  23.857  26.232  1.00  0.00     0.016 A 
ATOM     34  C   UNL A   1      40.297  22.493  27.356  1.00  0.00     0.016 A 
ATOM     35  C   UNL A   1      39.203  25.015  26.763  1.00  0.00     0.010 A 
ATOM     36  C   UNL A   1      40.875  23.654  27.879  1.00  0.00     0.010 A 
ATOM     37  C   UNL A   1      40.348  24.919  27.562  1.00  0.00    -0.014 A 
BRANCH  37  38
ATOM     38  C   UNL A   1      41.156  26.133  27.825  1.00  0.00     0.031 A 
ATOM     39  C   UNL A   1      40.528  27.193  28.685  1.00  0.00     0.074 A 
ATOM     40  C   UNL A   1      42.392  26.299  27.326  1.00  0.00     0.049 A 
ATOM     41  N   UNL A   1      40.979  28.376  29.007  1.00  0.00    -0.248 NA
ATOM     42  C   UNL A   1      39.201  26.878  29.246  1.00  0.00     0.031 C 
ATOM     43  C   UNL A   1      43.119  25.329  26.513  1.00  0.00     0.029 A 
ATOM     44  N   UNL A   1      43.255  27.362  27.424  1.00  0.00    -0.354 N 
ATOM     45  C   UNL A   1      39.986  28.950  29.791  1.00  0.00     0.074 A 
ATOM     46  C   UNL A   1      38.901  28.000  29.879  1.00  0.00     0.031 C 
ATOM     47  C   UNL A   1      44.320  25.836  26.187  1.00  0.00     0.029 A 
ATOM     48  C   UNL A   1      44.422  27.191  26.717  1.00  0.00     0.049 A 
ATOM     49  H   UNL A   1      43.057  28.169  27.951  1.00  0.00     0.167 HD
ATOM     50  C   UNL A   1      39.976  30.167  30.380  1.00  0.00     0.031 A 
ATOM     51  C   UNL A   1      45.438  28.048  26.493  1.00  0.00     0.031 A 
ATOM     52  C   UNL A   1      41.046  31.118  30.262  1.00  0.00     0.049 A 
ATOM     53  C   UNL A   1      45.369  29.426  27.096  1.00  0.00     0.074 A 
ATOM     54  C   UNL A   1      41.144  32.376  30.825  1.00  0.00     0.029 A 
ATOM     55  N   UNL A   1      42.197  30.916  29.516  1.00  0.00    -0.354 N 
ATOM     56  N   UNL A   1      44.439  29.949  27.861  1.00  0.00    -0.248 NA
ATOM     57  C   UNL A   1      46.490  30.332  26.809  1.00  0.00     0.031 C 
ATOM     58  C   UNL A   1      42.327  32.963  30.364  1.00  0.00     0.029 A 
ATOM     59  C   UNL A   1      42.999  32.041  29.577  1.00  0.00     0.049 A 
ATOM     60  H   UNL A   1      42.411  30.094  29.017  1.00  0.00     0.167 HD
ATOM     61  C   UNL A   1      44.879  31.229  28.173  1.00  0.00     0.074 A 
ATOM     62  C   UNL A   1      46.165  31.397  27.527  1.00  0.00     0.031 C 
ATOM     63  C   UNL A   1      44.276  32.182  28.926  1.00  0.00     0.031 A 
BRANCH  50  64
ATOM     64  C   UNL A   1      38.744  30.548  31.150  1.00  0.00    -0.014 A 
ATOM     65  C   UNL A   1      37.638  31.141  30.521  1.00  0.00     0.009 A 
ATOM     66  C   UNL A   1      38.692  30.305  32.531  1.00  0.00     0.009 A 
ATOM     67  C   UNL A   1      36.519  31.516  31.269  1.00  0.00     0.001 A 
ATOM     68  C   UNL A   1      37.560  30.651  33.270  1.00  0.00     0.001 A 
ATOM     69  C   UNL A   1      36.479  31.265  32.639  1.00  0.00     0.000 A 
ENDBRANCH  50  64
BRANCH  51  70
ATOM     70  C   UNL A   1      46.584  27.652  25.629  1.00  0.00    -0.014 A 
ATOM     71  C   UNL A   1      46.547  27.861  24.242  1.00  0.00     0.009 A 
ATOM     72  C   UNL A   1      47.714  27.029  26.185  1.00  0.00     0.009 A 
ATOM     73  C   UNL A   1      47.599  27.429  23.429  1.00  0.00     0.001 A 
ATOM     74  C   UNL A   1      48.779  26.629  25.375  1.00  0.00     0.001 A 
ATOM     75  C   UNL A   1      48.716  26.818  23.996  1.00  0.00     0.000 A 
ENDBRANCH  51  70
BRANCH  63  76
ATOM     76  C   UNL A   1      45.022  33.470  29.134  1.00  0.00    -0.014 A 
ATOM     77  C   UNL A   1      44.777  34.598  28.337  1.00  0.00     0.009 A 
ATOM     78  C   UNL A   1      45.947  33.567  30.186  1.00  0.00     0.009 A 
ATOM     79  C   UNL A   1      45.471  35.786  28.566  1.00  0.00     0.001 A 
ATOM     80  C   UNL A   1      46.612  34.766  30.436  1.00  0.00     0.001 A 
ATOM     81  C   UNL A   1      46.382  35.872  29.619  1.00  0.00     0.000 A 
ENDBRANCH  63  76
ENDBRANCH  37  38
ENDBRANCH  30  32
ENDBRANCH  29  30
ENDBRANCH  28  29
ENDBRANCH   1  28
TORSDOF 15
ENDMDL
MODEL 3
REMARK VINA RESULT:     -11.6      1.968      7.118
REMARK SMILES NC(=O)c1cc(NC(=O)/C=C\C(=O)OCCOC(=O)c2ccc(-c3c4nc(c(-c5ccccc5)c5ccc([nH]5)c(-c5ccccc5)c5nc(c(-c6ccccc6)c6ccc3[nH]6)C=C5)C=C4)cc2)ccc1N1CCOCC1
REMARK SMILES IDX 15 1 14 2 12 3 13 4 11 5 10 6 8 7 7 8 9 10 6 11 4 12 5 13
REMARK SMILES IDX 70 14 69 15 68 16 2 17 1 18 3 21 71 22 72 23 76 24 73 25
REMARK SMILES IDX 75 26 74 27 16 28 17 29 18 30 19 31 20 32 21 33 67 34 22 35
REMARK SMILES IDX 66 36 23 37 24 38 25 39 60 40 26 41 65 42 59 43 61 44 27 45
REMARK SMILES IDX 64 46 58 47 57 48 28 50 50 51 35 52 49 53 36 54 39 55 48 56
REMARK SMILES IDX 62 57 37 58 38 59 47 61 63 62 40 63 29 64 30 65 34 66 31 67
REMARK SMILES IDX 33 68 32 69 51 70 52 71 56 72 53 73 55 74 54 75 41 76 42 77
REMARK SMILES IDX 46 78 43 79 45 80 44 81
REMARK H PARENT 7 9 1 19 1 20 61 49 39 60
REMARK Flexibility Score: inf
ROOT
ATOM      1  C   UNL A   1      31.841  31.410  26.642  1.00  0.00     0.275 C 
ENDROOT
BRANCH   1   2
ATOM      2  O   UNL A   1      32.622  30.413  27.330  1.00  0.00    -0.459 OA
BRANCH   2   3
ATOM      3  C   UNL A   1      32.277  29.142  27.041  1.00  0.00     0.331 C 
ATOM      4  O   UNL A   1      31.407  28.493  27.601  1.00  0.00    -0.247 OA
BRANCH   3   5
ATOM      5  C   UNL A   1      33.030  28.562  25.931  1.00  0.00     0.099 C 
ATOM      6  C   UNL A   1      32.555  28.345  24.695  1.00  0.00     0.079 C 
BRANCH   6   7
ATOM      7  C   UNL A   1      31.159  28.432  24.210  1.00  0.00     0.248 C 
ATOM      8  N   UNL A   1      30.428  27.360  23.791  1.00  0.00    -0.322 N 
ATOM      9  H   UNL A   1      29.582  27.604  23.351  1.00  0.00     0.170 HD
ATOM     10  O   UNL A   1      30.655  29.556  24.152  1.00  0.00    -0.270 OA
BRANCH   8  11
ATOM     11  C   UNL A   1      30.649  25.977  23.862  1.00  0.00     0.042 A 
ATOM     12  C   UNL A   1      30.906  23.932  25.127  1.00  0.00     0.064 A 
ATOM     13  C   UNL A   1      30.311  25.199  24.958  1.00  0.00     0.042 A 
ATOM     14  C   UNL A   1      31.814  23.409  24.176  1.00  0.00     0.050 A 
ATOM     15  C   UNL A   1      31.938  24.130  22.976  1.00  0.00     0.029 A 
ATOM     16  C   UNL A   1      31.350  25.391  22.810  1.00  0.00     0.028 A 
BRANCH  12  17
ATOM     17  C   UNL A   1      30.728  23.383  26.493  1.00  0.00     0.250 C 
ATOM     18  N   UNL A   1      29.852  22.350  26.604  1.00  0.00    -0.366 N 
ATOM     19  H   UNL A   1      29.685  21.937  27.483  1.00  0.00     0.159 HD
ATOM     20  H   UNL A   1      29.383  22.015  25.806  1.00  0.00     0.159 HD
ATOM     21  O   UNL A   1      31.412  23.750  27.439  1.00  0.00    -0.269 OA
ENDBRANCH  12  17
BRANCH  14  22
ATOM     22  N   UNL A   1      32.635  22.316  24.419  1.00  0.00    -0.366 N 
ATOM     23  C   UNL A   1      32.332  21.009  23.819  1.00  0.00     0.145 C 
ATOM     24  C   UNL A   1      34.036  22.498  24.830  1.00  0.00     0.145 C 
ATOM     25  C   UNL A   1      32.870  19.883  24.723  1.00  0.00     0.181 C 
ATOM     26  C   UNL A   1      34.482  21.302  25.687  1.00  0.00     0.181 C 
ATOM     27  O   UNL A   1      34.269  20.054  25.010  1.00  0.00    -0.378 OA
ENDBRANCH  14  22
ENDBRANCH   8  11
ENDBRANCH   6   7
ENDBRANCH   3   5
ENDBRANCH   2   3
ENDBRANCH   1   2
BRANCH   1  28
ATOM     28  C   UNL A   1      31.810  32.813  27.270  1.00  0.00     0.275 C 
BRANCH  28  29
ATOM     29  O   UNL A   1      33.091  33.471  27.297  1.00  0.00    -0.458 OA
BRANCH  29  30
ATOM     30  C   UNL A   1      33.312  34.245  28.392  1.00  0.00     0.338 C 
ATOM     31  O   UNL A   1      32.628  35.173  28.779  1.00  0.00    -0.246 OA
BRANCH  30  32
ATOM     32  C   UNL A   1      34.438  33.690  29.181  1.00  0.00     0.060 A 
ATOM     33  C   UNL A   1      35.740  34.070  28.828  1.00  0.00     0.016 A 
ATOM     34  C   UNL A   1      34.228  32.791  30.226  1.00  0.00     0.016 A 
ATOM     35  C   UNL A   1      36.840  33.549  29.509  1.00  0.00     0.010 A 
ATOM     36  C   UNL A   1      35.329  32.255  30.902  1.00  0.00     0.010 A 
ATOM     37  C   UNL A   1      36.638  32.611  30.528  1.00  0.00    -0.014 A 
BRANCH  37  38
ATOM     38  C   UNL A   1      37.779  31.793  31.000  1.00  0.00     0.031 A 
ATOM     39  C   UNL A   1      38.345  32.132  32.351  1.00  0.00     0.074 A 
ATOM     40  C   UNL A   1      38.300  30.792  30.271  1.00  0.00     0.049 A 
ATOM     41  N   UNL A   1      39.382  31.631  32.966  1.00  0.00    -0.248 NA
ATOM     42  C   UNL A   1      37.650  33.194  33.102  1.00  0.00     0.031 C 
ATOM     43  C   UNL A   1      37.816  30.347  28.969  1.00  0.00     0.029 A 
ATOM     44  N   UNL A   1      39.371  29.972  30.524  1.00  0.00    -0.354 N 
ATOM     45  C   UNL A   1      39.474  32.328  34.164  1.00  0.00     0.074 A 
ATOM     46  C   UNL A   1      38.406  33.299  34.182  1.00  0.00     0.031 C 
ATOM     47  C   UNL A   1      38.581  29.331  28.534  1.00  0.00     0.029 A 
ATOM     48  C   UNL A   1      39.648  29.096  29.501  1.00  0.00     0.049 A 
ATOM     49  H   UNL A   1      39.891  30.007  31.359  1.00  0.00     0.167 HD
ATOM     50  C   UNL A   1      40.376  32.175  35.160  1.00  0.00     0.031 A 
ATOM     51  C   UNL A   1      40.670  28.231  29.348  1.00  0.00     0.031 A 
ATOM     52  C   UNL A   1      41.454  31.228  35.120  1.00  0.00     0.049 A 
ATOM     53  C   UNL A   1      41.706  28.134  30.437  1.00  0.00     0.074 A 
ATOM     54  C   UNL A   1      42.420  30.982  36.078  1.00  0.00     0.029 A 
ATOM     55  N   UNL A   1      41.714  30.378  34.056  1.00  0.00    -0.354 N 
ATOM     56  N   UNL A   1      41.768  28.777  31.579  1.00  0.00    -0.248 NA
ATOM     57  C   UNL A   1      42.813  27.192  30.217  1.00  0.00     0.031 C 
ATOM     58  C   UNL A   1      43.305  30.031  35.564  1.00  0.00     0.029 A 
ATOM     59  C   UNL A   1      42.846  29.630  34.319  1.00  0.00     0.049 A 
ATOM     60  H   UNL A   1      41.174  30.318  33.235  1.00  0.00     0.167 HD
ATOM     61  C   UNL A   1      42.896  28.292  32.228  1.00  0.00     0.074 A 
ATOM     62  C   UNL A   1      43.480  27.292  31.357  1.00  0.00     0.031 C 
ATOM     63  C   UNL A   1      43.406  28.639  33.435  1.00  0.00     0.031 A 
BRANCH  50  64
ATOM     64  C   UNL A   1      40.259  33.097  36.340  1.00  0.00    -0.014 A 
ATOM     65  C   UNL A   1      40.978  34.301  36.406  1.00  0.00     0.009 A 
ATOM     66  C   UNL A   1      39.411  32.753  37.403  1.00  0.00     0.009 A 
ATOM     67  C   UNL A   1      40.876  35.122  37.531  1.00  0.00     0.001 A 
ATOM     68  C   UNL A   1      39.286  33.591  38.512  1.00  0.00     0.001 A 
ATOM     69  C   UNL A   1      40.026  34.770  38.579  1.00  0.00     0.000 A 
ENDBRANCH  50  64
BRANCH  51  70
ATOM     70  C   UNL A   1      40.795  27.420  28.105  1.00  0.00    -0.014 A 
ATOM     71  C   UNL A   1      40.233  26.137  28.021  1.00  0.00     0.009 A 
ATOM     72  C   UNL A   1      41.509  27.914  27.000  1.00  0.00     0.009 A 
ATOM     73  C   UNL A   1      40.409  25.357  26.875  1.00  0.00     0.001 A 
ATOM     74  C   UNL A   1      41.655  27.147  25.843  1.00  0.00     0.001 A 
ATOM     75  C   UNL A   1      41.115  25.863  25.786  1.00  0.00     0.000 A 
ENDBRANCH  51  70
BRANCH  63  76
ATOM     76  C   UNL A   1      44.626  27.899  33.907  1.00  0.00    -0.014 A 
ATOM     77  C   UNL A   1      45.912  28.447  33.781  1.00  0.00     0.009 A 
ATOM     78  C   UNL A   1      44.474  26.655  34.539  1.00  0.00     0.009 A 
ATOM     79  C   UNL A   1      47.024  27.744  34.246  1.00  0.00     0.001 A 
ATOM     80  C   UNL A   1      45.584  25.972  35.035  1.00  0.00     0.001 A 
ATOM     81  C   UNL A   1      46.859  26.512  34.879  1.00  0.00     0.000 A 
ENDBRANCH  63  76
ENDBRANCH  37  38
ENDBRANCH  30  32
ENDBRANCH  29  30
ENDBRANCH  28  29
ENDBRANCH   1  28
TORSDOF 15
ENDMDL
