MODEL 1
REMARK VINA RESULT:     -12.2      0.000      0.000
REMARK SMILES C[C@]12C[C@@H](O)[C@@H]3[C@@H](CCC4=CC(=O)CC[C@]43C)[C@H]1CC[C@]2(O)C(=O)COC(=O)CCC(=O)OCCOC(=O)c1ccc(-c2c3nc(c(-c4ccccc4)c4ccc([nH]4)c(-c4ccccc4)c4nc(c(-c5ccccc5)c5ccc2[nH]5)C=C4)C=C3)cc1
REMARK SMILES IDX 31 1 32 2 30 3 29 4 27 5 28 6 26 7 25 8 23 9 24 10 21 11
REMARK SMILES IDX 17 12 16 13 15 14 10 15 6 16 14 17 11 18 9 19 7 20 4 21
REMARK SMILES IDX 12 22 8 23 18 24 3 25 13 26 2 27 19 28 1 29 20 30 5 31 22 33
REMARK SMILES IDX 33 35 34 36 35 37 36 38 37 39 38 40 39 41 40 42 86 43 41 44
REMARK SMILES IDX 85 45 42 46 43 47 44 48 79 49 45 50 84 51 78 52 80 53 46 54
REMARK SMILES IDX 83 55 77 56 76 57 47 59 69 60 54 61 68 62 55 63 58 64 67 65
REMARK SMILES IDX 81 66 56 67 57 68 66 70 82 71 59 72 48 73 49 74 53 75 50 76
REMARK SMILES IDX 52 77 51 78 70 79 71 80 75 81 72 82 74 83 73 84 60 85 61 86
REMARK SMILES IDX 65 87 62 88 64 89 63 90
REMARK H PARENT 5 32 22 34 80 58 58 69
REMARK Flexibility Score: inf
ROOT
ATOM      1  C   UNL A   1      41.816  19.868  26.362  1.00  0.00     0.306 C 
ATOM      2  O   UNL A   1      42.255  19.163  27.263  1.00  0.00    -0.252 OA
ENDROOT
BRANCH   1   3
ATOM      3  C   UNL A   1      40.356  20.303  26.319  1.00  0.00     0.134 C 
BRANCH   3   4
ATOM      4  C   UNL A   1      40.041  21.789  26.444  1.00  0.00     0.134 C 
BRANCH   4   5
ATOM      5  C   UNL A   1      38.630  22.139  26.034  1.00  0.00     0.306 C 
ATOM      6  O   UNL A   1      38.091  23.222  26.191  1.00  0.00    -0.252 OA
BRANCH   5   7
ATOM      7  O   UNL A   1      38.078  21.106  25.367  1.00  0.00    -0.458 OA
BRANCH   7   8
ATOM      8  C   UNL A   1      37.079  21.410  24.435  1.00  0.00     0.311 C 
BRANCH   8   9
ATOM      9  C   UNL A   1      35.648  21.083  24.772  1.00  0.00     0.202 C 
ATOM     10  O   UNL A   1      35.408  19.869  24.907  1.00  0.00    -0.293 OA
BRANCH   9  11
ATOM     11  C   UNL A   1      34.486  22.121  24.756  1.00  0.00     0.132 C 
ATOM     12  C   UNL A   1      31.218  28.004  25.286  1.00  0.00     0.016 C 
ATOM     13  C   UNL A   1      31.075  26.604  24.609  1.00  0.00    -0.005 C 
ATOM     14  C   UNL A   1      29.542  26.320  24.558  1.00  0.00     0.020 C 
ATOM     15  C   UNL A   1      31.456  26.555  23.128  1.00  0.00    -0.060 C 
ATOM     16  C   UNL A   1      31.925  25.561  25.437  1.00  0.00     0.031 C 
ATOM     17  C   UNL A   1      28.829  27.146  23.451  1.00  0.00     0.081 C 
ATOM     18  C   UNL A   1      31.072  27.528  22.284  1.00  0.00     0.047 C 
ATOM     19  C   UNL A   1      31.703  25.206  22.499  1.00  0.00     0.032 C 
ATOM     20  C   UNL A   1      31.813  24.152  24.840  1.00  0.00    -0.000 C 
ATOM     21  C   UNL A   1      33.447  25.868  25.736  1.00  0.00     0.119 C 
ATOM     22  C   UNL A   1      29.755  28.096  22.683  1.00  0.00     0.155 C 
ATOM     23  C   UNL A   1      32.348  24.183  23.405  1.00  0.00     0.009 C 
ATOM     24  C   UNL A   1      32.499  23.187  25.829  1.00  0.00     0.002 C 
ATOM     25  C   UNL A   1      34.500  24.709  25.608  1.00  0.00     0.042 C 
ATOM     26  O   UNL A   1      29.402  29.195  22.273  1.00  0.00    -0.295 OA
ATOM     27  C   UNL A   1      34.047  23.233  25.839  1.00  0.00     0.009 C 
ATOM     28  C   UNL A   1      32.165  21.728  25.608  1.00  0.00     0.008 C 
ATOM     29  C   UNL A   1      34.458  22.833  27.260  1.00  0.00     0.015 C 
ATOM     30  C   UNL A   1      33.203  21.226  24.631  1.00  0.00     0.044 C 
BRANCH  21  31
ATOM     31  O   UNL A   1      33.964  26.916  24.918  1.00  0.00    -0.393 OA
ATOM     32  H   UNL A   1      33.414  27.007  24.124  1.00  0.00     0.210 HD
ENDBRANCH  21  31
BRANCH  11  33
ATOM     33  O   UNL A   1      34.723  22.721  23.470  1.00  0.00    -0.381 OA
ATOM     34  H   UNL A   1      33.878  22.992  23.078  1.00  0.00     0.212 HD
ENDBRANCH  11  33
ENDBRANCH   9  11
ENDBRANCH   8   9
ENDBRANCH   7   8
ENDBRANCH   5   7
ENDBRANCH   4   5
ENDBRANCH   3   4
ENDBRANCH   1   3
BRANCH   1  35
ATOM     35  O   UNL A   1      42.546  20.288  25.299  1.00  0.00    -0.462 OA
BRANCH  35  36
ATOM     36  C   UNL A   1      43.992  20.211  25.356  1.00  0.00     0.274 C 
BRANCH  36  37
ATOM     37  C   UNL A   1      44.582  21.564  25.743  1.00  0.00     0.275 C 
BRANCH  37  38
ATOM     38  O   UNL A   1      43.641  22.585  25.411  1.00  0.00    -0.458 OA
BRANCH  38  39
ATOM     39  C   UNL A   1      44.199  23.802  25.230  1.00  0.00     0.338 C 
ATOM     40  O   UNL A   1      44.984  24.152  24.358  1.00  0.00    -0.246 OA
BRANCH  39  41
ATOM     41  C   UNL A   1      43.482  24.730  26.102  1.00  0.00     0.060 A 
ATOM     42  C   UNL A   1      43.798  26.091  26.017  1.00  0.00     0.016 A 
ATOM     43  C   UNL A   1      42.510  24.262  26.983  1.00  0.00     0.016 A 
ATOM     44  C   UNL A   1      43.164  26.999  26.847  1.00  0.00     0.010 A 
ATOM     45  C   UNL A   1      41.889  25.165  27.832  1.00  0.00     0.010 A 
ATOM     46  C   UNL A   1      42.250  26.523  27.790  1.00  0.00    -0.014 A 
BRANCH  46  47
ATOM     47  C   UNL A   1      41.825  27.404  28.885  1.00  0.00     0.031 A 
ATOM     48  C   UNL A   1      42.598  27.342  30.167  1.00  0.00     0.074 A 
ATOM     49  C   UNL A   1      40.771  28.218  28.726  1.00  0.00     0.049 A 
ATOM     50  N   UNL A   1      42.345  27.910  31.314  1.00  0.00    -0.248 NA
ATOM     51  C   UNL A   1      43.812  26.506  30.158  1.00  0.00     0.031 C 
ATOM     52  C   UNL A   1      40.001  28.373  27.492  1.00  0.00     0.029 A 
ATOM     53  N   UNL A   1      40.162  29.052  29.619  1.00  0.00    -0.354 N 
ATOM     54  C   UNL A   1      43.345  27.471  32.172  1.00  0.00     0.074 A 
ATOM     55  C   UNL A   1      44.196  26.576  31.422  1.00  0.00     0.031 C 
ATOM     56  C   UNL A   1      39.001  29.241  27.714  1.00  0.00     0.029 A 
ATOM     57  C   UNL A   1      39.040  29.658  29.113  1.00  0.00     0.049 A 
ATOM     58  H   UNL A   1      40.492  29.203  30.534  1.00  0.00     0.167 HD
ATOM     59  C   UNL A   1      43.524  27.786  33.474  1.00  0.00     0.031 A 
ATOM     60  C   UNL A   1      38.131  30.431  29.732  1.00  0.00     0.031 A 
ATOM     61  C   UNL A   1      42.655  28.676  34.193  1.00  0.00     0.049 A 
ATOM     62  C   UNL A   1      38.325  30.735  31.191  1.00  0.00     0.074 A 
ATOM     63  C   UNL A   1      42.745  29.100  35.505  1.00  0.00     0.029 A 
ATOM     64  N   UNL A   1      41.525  29.274  33.650  1.00  0.00    -0.354 N 
ATOM     65  N   UNL A   1      39.280  30.333  31.998  1.00  0.00    -0.248 NA
ATOM     66  C   UNL A   1      37.326  31.603  31.823  1.00  0.00     0.031 C 
ATOM     67  C   UNL A   1      41.634  29.907  35.773  1.00  0.00     0.029 A 
ATOM     68  C   UNL A   1      40.890  30.041  34.610  1.00  0.00     0.049 A 
ATOM     69  H   UNL A   1      41.222  29.169  32.720  1.00  0.00     0.167 HD
ATOM     70  C   UNL A   1      39.011  30.918  33.228  1.00  0.00     0.074 A 
ATOM     71  C   UNL A   1      37.811  31.714  33.052  1.00  0.00     0.031 C 
ATOM     72  C   UNL A   1      39.690  30.812  34.397  1.00  0.00     0.031 A 
BRANCH  59  73
ATOM     73  C   UNL A   1      44.657  27.114  34.198  1.00  0.00    -0.014 A 
ATOM     74  C   UNL A   1      45.941  27.681  34.256  1.00  0.00     0.009 A 
ATOM     75  C   UNL A   1      44.436  25.877  34.824  1.00  0.00     0.009 A 
ATOM     76  C   UNL A   1      46.988  27.003  34.886  1.00  0.00     0.001 A 
ATOM     77  C   UNL A   1      45.476  25.216  35.482  1.00  0.00     0.001 A 
ATOM     78  C   UNL A   1      46.753  25.774  35.501  1.00  0.00     0.000 A 
ENDBRANCH  59  73
BRANCH  60  79
ATOM     79  C   UNL A   1      36.961  30.938  28.974  1.00  0.00    -0.014 A 
ATOM     80  C   UNL A   1      35.905  30.082  28.628  1.00  0.00     0.009 A 
ATOM     81  C   UNL A   1      36.873  32.297  28.627  1.00  0.00     0.009 A 
ATOM     82  C   UNL A   1      34.795  30.572  27.937  1.00  0.00     0.001 A 
ATOM     83  C   UNL A   1      35.749  32.789  27.961  1.00  0.00     0.001 A 
ATOM     84  C   UNL A   1      34.714  31.925  27.611  1.00  0.00     0.000 A 
ENDBRANCH  60  79
BRANCH  72  85
ATOM     85  C   UNL A   1      39.166  31.604  35.561  1.00  0.00    -0.014 A 
ATOM     86  C   UNL A   1      39.526  32.946  35.752  1.00  0.00     0.009 A 
ATOM     87  C   UNL A   1      38.259  31.007  36.451  1.00  0.00     0.009 A 
ATOM     88  C   UNL A   1      39.015  33.664  36.834  1.00  0.00     0.001 A 
ATOM     89  C   UNL A   1      37.724  31.736  37.511  1.00  0.00     0.001 A 
ATOM     90  C   UNL A   1      38.111  33.061  37.708  1.00  0.00     0.000 A 
ENDBRANCH  72  85
ENDBRANCH  46  47
ENDBRANCH  39  41
ENDBRANCH  38  39
ENDBRANCH  37  38
ENDBRANCH  36  37
ENDBRANCH  35  36
ENDBRANCH   1  35
TORSDOF 19
ENDMDL
MODEL 2
REMARK VINA RESULT:     -12.0      3.981      9.846
REMARK SMILES C[C@]12C[C@@H](O)[C@@H]3[C@@H](CCC4=CC(=O)CC[C@]43C)[C@H]1CC[C@]2(O)C(=O)COC(=O)CCC(=O)OCCOC(=O)c1ccc(-c2c3nc(c(-c4ccccc4)c4ccc([nH]4)c(-c4ccccc4)c4nc(c(-c5ccccc5)c5ccc2[nH]5)C=C4)C=C3)cc1
REMARK SMILES IDX 31 1 32 2 30 3 29 4 27 5 28 6 26 7 25 8 23 9 24 10 21 11
REMARK SMILES IDX 17 12 16 13 15 14 10 15 6 16 14 17 11 18 9 19 7 20 4 21
REMARK SMILES IDX 12 22 8 23 18 24 3 25 13 26 2 27 19 28 1 29 20 30 5 31 22 33
REMARK SMILES IDX 33 35 34 36 35 37 36 38 37 39 38 40 39 41 40 42 86 43 41 44
REMARK SMILES IDX 85 45 42 46 43 47 44 48 79 49 45 50 84 51 78 52 80 53 46 54
REMARK SMILES IDX 83 55 77 56 76 57 47 59 69 60 54 61 68 62 55 63 58 64 67 65
REMARK SMILES IDX 81 66 56 67 57 68 66 70 82 71 59 72 48 73 49 74 53 75 50 76
REMARK SMILES IDX 52 77 51 78 70 79 71 80 75 81 72 82 74 83 73 84 60 85 61 86
REMARK SMILES IDX 65 87 62 88 64 89 63 90
REMARK H PARENT 5 32 22 34 80 58 58 69
REMARK Flexibility Score: inf
ROOT
ATOM      1  C   UNL A   1      33.656  34.166  29.053  1.00  0.00     0.306 C 
ATOM      2  O   UNL A   1      32.707  34.629  28.430  1.00  0.00    -0.252 OA
ENDROOT
BRANCH   1   3
ATOM      3  C   UNL A   1      34.169  32.752  28.803  1.00  0.00     0.134 C 
BRANCH   3   4
ATOM      4  C   UNL A   1      33.561  31.956  27.654  1.00  0.00     0.134 C 
BRANCH   4   5
ATOM      5  C   UNL A   1      34.231  30.622  27.428  1.00  0.00     0.306 C 
ATOM      6  O   UNL A   1      35.382  30.344  27.722  1.00  0.00    -0.252 OA
BRANCH   5   7
ATOM      7  O   UNL A   1      33.336  29.737  26.946  1.00  0.00    -0.458 OA
BRANCH   7   8
ATOM      8  C   UNL A   1      32.118  30.250  26.483  1.00  0.00     0.311 C 
BRANCH   8   9
ATOM      9  C   UNL A   1      31.513  29.667  25.234  1.00  0.00     0.202 C 
ATOM     10  O   UNL A   1      30.645  30.378  24.692  1.00  0.00    -0.293 OA
BRANCH   9  11
ATOM     11  C   UNL A   1      31.763  28.210  24.737  1.00  0.00     0.132 C 
ATOM     12  C   UNL A   1      34.687  22.173  23.982  1.00  0.00     0.016 C 
ATOM     13  C   UNL A   1      33.298  22.868  23.817  1.00  0.00    -0.005 C 
ATOM     14  C   UNL A   1      32.600  22.129  22.633  1.00  0.00     0.020 C 
ATOM     15  C   UNL A   1      32.311  22.631  24.962  1.00  0.00    -0.060 C 
ATOM     16  C   UNL A   1      33.536  24.414  23.599  1.00  0.00     0.031 C 
ATOM     17  C   UNL A   1      32.071  20.728  23.045  1.00  0.00     0.081 C 
ATOM     18  C   UNL A   1      32.167  21.410  25.508  1.00  0.00     0.047 C 
ATOM     19  C   UNL A   1      31.112  23.540  25.071  1.00  0.00     0.032 C 
ATOM     20  C   UNL A   1      32.209  25.161  23.406  1.00  0.00    -0.000 C 
ATOM     21  C   UNL A   1      34.424  25.213  24.635  1.00  0.00     0.119 C 
ATOM     22  C   UNL A   1      32.384  20.341  24.495  1.00  0.00     0.155 C 
ATOM     23  C   UNL A   1      31.354  24.975  24.663  1.00  0.00     0.009 C 
ATOM     24  C   UNL A   1      32.560  26.606  22.998  1.00  0.00     0.002 C 
ATOM     25  C   UNL A   1      33.961  26.642  25.097  1.00  0.00     0.042 C 
ATOM     26  O   UNL A   1      32.642  19.196  24.846  1.00  0.00    -0.295 OA
ATOM     27  C   UNL A   1      33.087  27.512  24.139  1.00  0.00     0.009 C 
ATOM     28  C   UNL A   1      31.407  27.382  22.402  1.00  0.00     0.008 C 
ATOM     29  C   UNL A   1      34.009  28.529  23.459  1.00  0.00     0.015 C 
ATOM     30  C   UNL A   1      30.721  28.040  23.577  1.00  0.00     0.044 C 
BRANCH  21  31
ATOM     31  O   UNL A   1      34.630  24.491  25.848  1.00  0.00    -0.393 OA
ATOM     32  H   UNL A   1      35.532  24.134  25.863  1.00  0.00     0.210 HD
ENDBRANCH  21  31
BRANCH  11  33
ATOM     33  O   UNL A   1      31.267  27.485  25.877  1.00  0.00    -0.381 OA
ATOM     34  H   UNL A   1      31.711  26.624  25.930  1.00  0.00     0.212 HD
ENDBRANCH  11  33
ENDBRANCH   9  11
ENDBRANCH   8   9
ENDBRANCH   7   8
ENDBRANCH   5   7
ENDBRANCH   4   5
ENDBRANCH   3   4
ENDBRANCH   1   3
BRANCH   1  35
ATOM     35  O   UNL A   1      34.308  34.820  30.045  1.00  0.00    -0.462 OA
BRANCH  35  36
ATOM     36  C   UNL A   1      33.840  34.686  31.411  1.00  0.00     0.274 C 
BRANCH  36  37
ATOM     37  C   UNL A   1      34.991  34.890  32.390  1.00  0.00     0.275 C 
BRANCH  37  38
ATOM     38  O   UNL A   1      36.095  34.086  31.970  1.00  0.00    -0.458 OA
BRANCH  38  39
ATOM     39  C   UNL A   1      36.235  32.943  32.676  1.00  0.00     0.338 C 
ATOM     40  O   UNL A   1      35.547  32.539  33.606  1.00  0.00    -0.246 OA
BRANCH  39  41
ATOM     41  C   UNL A   1      37.193  32.112  31.950  1.00  0.00     0.060 A 
ATOM     42  C   UNL A   1      38.069  31.313  32.695  1.00  0.00     0.016 A 
ATOM     43  C   UNL A   1      37.219  32.117  30.558  1.00  0.00     0.016 A 
ATOM     44  C   UNL A   1      39.012  30.536  32.047  1.00  0.00     0.010 A 
ATOM     45  C   UNL A   1      38.178  31.357  29.906  1.00  0.00     0.010 A 
ATOM     46  C   UNL A   1      39.098  30.603  30.655  1.00  0.00    -0.014 A 
BRANCH  46  47
ATOM     47  C   UNL A   1      40.284  30.060  29.981  1.00  0.00     0.031 A 
ATOM     48  C   UNL A   1      41.455  30.975  29.789  1.00  0.00     0.074 A 
ATOM     49  C   UNL A   1      40.292  28.791  29.550  1.00  0.00     0.049 A 
ATOM     50  N   UNL A   1      42.554  30.782  29.114  1.00  0.00    -0.248 NA
ATOM     51  C   UNL A   1      41.362  32.299  30.432  1.00  0.00     0.031 C 
ATOM     52  C   UNL A   1      39.212  27.823  29.746  1.00  0.00     0.029 A 
ATOM     53  N   UNL A   1      41.241  28.109  28.841  1.00  0.00    -0.354 N 
ATOM     54  C   UNL A   1      43.265  31.971  29.217  1.00  0.00     0.074 A 
ATOM     55  C   UNL A   1      42.468  32.885  30.002  1.00  0.00     0.031 C 
ATOM     56  C   UNL A   1      39.554  26.670  29.149  1.00  0.00     0.029 A 
ATOM     57  C   UNL A   1      40.848  26.841  28.495  1.00  0.00     0.049 A 
ATOM     58  H   UNL A   1      42.117  28.489  28.602  1.00  0.00     0.167 HD
ATOM     59  C   UNL A   1      44.474  32.268  28.692  1.00  0.00     0.031 A 
ATOM     60  C   UNL A   1      41.458  25.942  27.703  1.00  0.00     0.031 A 
ATOM     61  C   UNL A   1      45.240  31.337  27.910  1.00  0.00     0.049 A 
ATOM     62  C   UNL A   1      42.783  26.307  27.094  1.00  0.00     0.074 A 
ATOM     63  C   UNL A   1      46.491  31.504  27.347  1.00  0.00     0.029 A 
ATOM     64  N   UNL A   1      44.813  30.058  27.576  1.00  0.00    -0.354 N 
ATOM     65  N   UNL A   1      43.463  27.425  27.206  1.00  0.00    -0.248 NA
ATOM     66  C   UNL A   1      43.428  25.288  26.259  1.00  0.00     0.031 C 
ATOM     67  C   UNL A   1      46.794  30.346  26.621  1.00  0.00     0.029 A 
ATOM     68  C   UNL A   1      45.763  29.433  26.789  1.00  0.00     0.049 A 
ATOM     69  H   UNL A   1      43.961  29.655  27.859  1.00  0.00     0.167 HD
ATOM     70  C   UNL A   1      44.628  27.237  26.475  1.00  0.00     0.074 A 
ATOM     71  C   UNL A   1      44.566  25.890  25.939  1.00  0.00     0.031 C 
ATOM     72  C   UNL A   1      45.658  28.094  26.266  1.00  0.00     0.031 A 
BRANCH  59  73
ATOM     73  C   UNL A   1      44.994  33.663  28.898  1.00  0.00    -0.014 A 
ATOM     74  C   UNL A   1      44.707  34.702  27.998  1.00  0.00     0.009 A 
ATOM     75  C   UNL A   1      45.801  33.938  30.014  1.00  0.00     0.009 A 
ATOM     76  C   UNL A   1      45.255  35.974  28.186  1.00  0.00     0.001 A 
ATOM     77  C   UNL A   1      46.320  35.218  30.218  1.00  0.00     0.001 A 
ATOM     78  C   UNL A   1      46.057  36.231  29.297  1.00  0.00     0.000 A 
ENDBRANCH  59  73
BRANCH  60  79
ATOM     79  C   UNL A   1      40.805  24.637  27.436  1.00  0.00    -0.014 A 
ATOM     80  C   UNL A   1      39.689  24.554  26.592  1.00  0.00     0.009 A 
ATOM     81  C   UNL A   1      41.322  23.455  27.995  1.00  0.00     0.009 A 
ATOM     82  C   UNL A   1      39.095  23.318  26.324  1.00  0.00     0.001 A 
ATOM     83  C   UNL A   1      40.743  22.219  27.702  1.00  0.00     0.001 A 
ATOM     84  C   UNL A   1      39.626  22.152  26.872  1.00  0.00     0.000 A 
ENDBRANCH  60  79
BRANCH  72  85
ATOM     85  C   UNL A   1      46.811  27.582  25.449  1.00  0.00    -0.014 A 
ATOM     86  C   UNL A   1      47.805  26.772  26.018  1.00  0.00     0.009 A 
ATOM     87  C   UNL A   1      46.872  27.878  24.079  1.00  0.00     0.009 A 
ATOM     88  C   UNL A   1      48.859  26.299  25.235  1.00  0.00     0.001 A 
ATOM     89  C   UNL A   1      47.907  27.377  23.292  1.00  0.00     0.001 A 
ATOM     90  C   UNL A   1      48.906  26.596  23.873  1.00  0.00     0.000 A 
ENDBRANCH  72  85
ENDBRANCH  46  47
ENDBRANCH  39  41
ENDBRANCH  38  39
ENDBRANCH  37  38
ENDBRANCH  36  37
ENDBRANCH  35  36
ENDBRANCH   1  35
TORSDOF 19
ENDMDL
MODEL 3
REMARK VINA RESULT:     -12.0      1.149      5.762
REMARK SMILES C[C@]12C[C@@H](O)[C@@H]3[C@@H](CCC4=CC(=O)CC[C@]43C)[C@H]1CC[C@]2(O)C(=O)COC(=O)CCC(=O)OCCOC(=O)c1ccc(-c2c3nc(c(-c4ccccc4)c4ccc([nH]4)c(-c4ccccc4)c4nc(c(-c5ccccc5)c5ccc2[nH]5)C=C4)C=C3)cc1
REMARK SMILES IDX 31 1 32 2 30 3 29 4 27 5 28 6 26 7 25 8 23 9 24 10 21 11
REMARK SMILES IDX 17 12 16 13 15 14 10 15 6 16 14 17 11 18 9 19 7 20 4 21
REMARK SMILES IDX 12 22 8 23 18 24 3 25 13 26 2 27 19 28 1 29 20 30 5 31 22 33
REMARK SMILES IDX 33 35 34 36 35 37 36 38 37 39 38 40 39 41 40 42 86 43 41 44
REMARK SMILES IDX 85 45 42 46 43 47 44 48 79 49 45 50 84 51 78 52 80 53 46 54
REMARK SMILES IDX 83 55 77 56 76 57 47 59 69 60 54 61 68 62 55 63 58 64 67 65
REMARK SMILES IDX 81 66 56 67 57 68 66 70 82 71 59 72 48 73 49 74 53 75 50 76
REMARK SMILES IDX 52 77 51 78 70 79 71 80 75 81 72 82 74 83 73 84 60 85 61 86
REMARK SMILES IDX 65 87 62 88 64 89 63 90
REMARK H PARENT 5 32 22 34 80 58 58 69
REMARK Flexibility Score: inf
ROOT
ATOM      1  C   UNL A   1      42.716  19.361  25.728  1.00  0.00     0.306 C 
ATOM      2  O   UNL A   1      42.959  18.162  25.662  1.00  0.00    -0.252 OA
ENDROOT
BRANCH   1   3
ATOM      3  C   UNL A   1      41.633  19.913  26.650  1.00  0.00     0.134 C 
BRANCH   3   4
ATOM      4  C   UNL A   1      40.217  20.044  26.102  1.00  0.00     0.134 C 
BRANCH   4   5
ATOM      5  C   UNL A   1      39.697  21.461  26.119  1.00  0.00     0.306 C 
ATOM      6  O   UNL A   1      40.238  22.412  26.659  1.00  0.00    -0.252 OA
BRANCH   5   7
ATOM      7  O   UNL A   1      38.589  21.551  25.355  1.00  0.00    -0.458 OA
BRANCH   7   8
ATOM      8  C   UNL A   1      37.570  22.398  25.808  1.00  0.00     0.311 C 
BRANCH   8   9
ATOM      9  C   UNL A   1      36.139  22.025  25.525  1.00  0.00     0.202 C 
ATOM     10  O   UNL A   1      35.888  20.809  25.618  1.00  0.00    -0.293 OA
BRANCH   9  11
ATOM     11  C   UNL A   1      35.073  23.010  24.956  1.00  0.00     0.132 C 
ATOM     12  C   UNL A   1      29.451  26.718  24.508  1.00  0.00     0.016 C 
ATOM     13  C   UNL A   1      30.898  26.650  23.925  1.00  0.00    -0.005 C 
ATOM     14  C   UNL A   1      30.788  27.200  22.468  1.00  0.00     0.020 C 
ATOM     15  C   UNL A   1      31.900  27.620  24.553  1.00  0.00    -0.060 C 
ATOM     16  C   UNL A   1      31.414  25.161  24.044  1.00  0.00     0.031 C 
ATOM     17  C   UNL A   1      30.636  28.746  22.435  1.00  0.00     0.081 C 
ATOM     18  C   UNL A   1      31.557  28.894  24.816  1.00  0.00     0.047 C 
ATOM     19  C   UNL A   1      33.371  27.376  24.325  1.00  0.00     0.032 C 
ATOM     20  C   UNL A   1      32.828  25.014  23.467  1.00  0.00    -0.000 C 
ATOM     21  C   UNL A   1      31.358  24.435  25.448  1.00  0.00     0.119 C 
ATOM     22  C   UNL A   1      30.573  29.400  23.820  1.00  0.00     0.155 C 
ATOM     23  C   UNL A   1      33.777  25.921  24.256  1.00  0.00     0.009 C 
ATOM     24  C   UNL A   1      33.151  23.506  23.442  1.00  0.00     0.002 C 
ATOM     25  C   UNL A   1      32.576  23.551  25.900  1.00  0.00     0.042 C 
ATOM     26  O   UNL A   1      29.884  30.381  24.071  1.00  0.00    -0.295 OA
ATOM     27  C   UNL A   1      33.473  22.871  24.818  1.00  0.00     0.009 C 
ATOM     28  C   UNL A   1      34.328  23.135  22.570  1.00  0.00     0.008 C 
ATOM     29  C   UNL A   1      33.038  21.406  24.703  1.00  0.00     0.015 C 
ATOM     30  C   UNL A   1      35.537  23.226  23.473  1.00  0.00     0.044 C 
BRANCH  21  31
ATOM     31  O   UNL A   1      31.154  25.346  26.527  1.00  0.00    -0.393 OA
ATOM     32  H   UNL A   1      31.410  24.922  27.361  1.00  0.00     0.210 HD
ENDBRANCH  21  31
BRANCH  11  33
ATOM     33  O   UNL A   1      35.426  24.192  25.697  1.00  0.00    -0.381 OA
ATOM     34  H   UNL A   1      36.077  23.963  26.379  1.00  0.00     0.212 HD
ENDBRANCH  11  33
ENDBRANCH   9  11
ENDBRANCH   8   9
ENDBRANCH   7   8
ENDBRANCH   5   7
ENDBRANCH   4   5
ENDBRANCH   3   4
ENDBRANCH   1   3
BRANCH   1  35
ATOM     35  O   UNL A   1      43.326  20.306  24.971  1.00  0.00    -0.462 OA
BRANCH  35  36
ATOM     36  C   UNL A   1      43.555  21.624  25.529  1.00  0.00     0.274 C 
BRANCH  36  37
ATOM     37  C   UNL A   1      44.225  22.528  24.499  1.00  0.00     0.275 C 
BRANCH  37  38
ATOM     38  O   UNL A   1      43.646  23.830  24.588  1.00  0.00    -0.458 OA
BRANCH  38  39
ATOM     39  C   UNL A   1      44.439  24.737  25.201  1.00  0.00     0.338 C 
ATOM     40  O   UNL A   1      45.554  25.116  24.865  1.00  0.00    -0.246 OA
BRANCH  39  41
ATOM     41  C   UNL A   1      43.614  25.414  26.200  1.00  0.00     0.060 A 
ATOM     42  C   UNL A   1      43.636  26.813  26.233  1.00  0.00     0.016 A 
ATOM     43  C   UNL A   1      42.828  24.676  27.082  1.00  0.00     0.016 A 
ATOM     44  C   UNL A   1      42.894  27.490  27.184  1.00  0.00     0.010 A 
ATOM     45  C   UNL A   1      42.101  25.351  28.051  1.00  0.00     0.010 A 
ATOM     46  C   UNL A   1      42.171  26.753  28.125  1.00  0.00    -0.014 A 
BRANCH  46  47
ATOM     47  C   UNL A   1      41.658  27.426  29.324  1.00  0.00     0.031 A 
ATOM     48  C   UNL A   1      40.322  28.098  29.228  1.00  0.00     0.074 A 
ATOM     49  C   UNL A   1      42.382  27.438  30.452  1.00  0.00     0.049 A 
ATOM     50  N   UNL A   1      39.718  28.866  30.092  1.00  0.00    -0.248 NA
ATOM     51  C   UNL A   1      39.577  27.891  27.973  1.00  0.00     0.031 C 
ATOM     52  C   UNL A   1      43.666  26.762  30.640  1.00  0.00     0.029 A 
ATOM     53  N   UNL A   1      42.142  28.058  31.645  1.00  0.00    -0.354 N 
ATOM     54  C   UNL A   1      38.541  29.265  29.472  1.00  0.00     0.074 A 
ATOM     55  C   UNL A   1      38.523  28.672  28.154  1.00  0.00     0.031 C 
ATOM     56  C   UNL A   1      44.113  27.023  31.879  1.00  0.00     0.029 A 
ATOM     57  C   UNL A   1      43.170  27.918  32.543  1.00  0.00     0.049 A 
ATOM     58  H   UNL A   1      41.316  28.556  31.842  1.00  0.00     0.167 HD
ATOM     59  C   UNL A   1      37.568  30.064  29.964  1.00  0.00     0.031 A 
ATOM     60  C   UNL A   1      43.337  28.489  33.749  1.00  0.00     0.031 A 
ATOM     61  C   UNL A   1      37.618  30.644  31.278  1.00  0.00     0.049 A 
ATOM     62  C   UNL A   1      42.263  29.408  34.261  1.00  0.00     0.074 A 
ATOM     63  C   UNL A   1      36.685  31.445  31.906  1.00  0.00     0.029 A 
ATOM     64  N   UNL A   1      38.676  30.482  32.164  1.00  0.00    -0.354 N 
ATOM     65  N   UNL A   1      41.142  29.771  33.681  1.00  0.00    -0.248 NA
ATOM     66  C   UNL A   1      42.472  29.988  35.592  1.00  0.00     0.031 C 
ATOM     67  C   UNL A   1      37.206  31.819  33.150  1.00  0.00     0.029 A 
ATOM     68  C   UNL A   1      38.432  31.195  33.324  1.00  0.00     0.049 A 
ATOM     69  H   UNL A   1      39.480  29.941  31.992  1.00  0.00     0.167 HD
ATOM     70  C   UNL A   1      40.498  30.604  34.586  1.00  0.00     0.074 A 
ATOM     71  C   UNL A   1      41.350  30.677  35.758  1.00  0.00     0.031 C 
ATOM     72  C   UNL A   1      39.312  31.250  34.465  1.00  0.00     0.031 A 
BRANCH  59  73
ATOM     73  C   UNL A   1      36.420  30.396  29.053  1.00  0.00    -0.014 A 
ATOM     74  C   UNL A   1      35.572  29.403  28.535  1.00  0.00     0.009 A 
ATOM     75  C   UNL A   1      36.191  31.734  28.695  1.00  0.00     0.009 A 
ATOM     76  C   UNL A   1      34.550  29.738  27.643  1.00  0.00     0.001 A 
ATOM     77  C   UNL A   1      35.148  32.071  27.829  1.00  0.00     0.001 A 
ATOM     78  C   UNL A   1      34.337  31.071  27.295  1.00  0.00     0.000 A 
ENDBRANCH  59  73
BRANCH  60  79
ATOM     79  C   UNL A   1      44.573  28.217  34.524  1.00  0.00    -0.014 A 
ATOM     80  C   UNL A   1      45.696  29.045  34.395  1.00  0.00     0.009 A 
ATOM     81  C   UNL A   1      44.620  27.147  35.434  1.00  0.00     0.009 A 
ATOM     82  C   UNL A   1      46.847  28.799  35.147  1.00  0.00     0.001 A 
ATOM     83  C   UNL A   1      45.762  26.920  36.205  1.00  0.00     0.001 A 
ATOM     84  C   UNL A   1      46.877  27.743  36.056  1.00  0.00     0.000 A 
ENDBRANCH  60  79
BRANCH  72  85
ATOM     85  C   UNL A   1      38.857  32.060  35.646  1.00  0.00    -0.014 A 
ATOM     86  C   UNL A   1      38.131  31.477  36.695  1.00  0.00     0.009 A 
ATOM     87  C   UNL A   1      39.204  33.418  35.727  1.00  0.00     0.009 A 
ATOM     88  C   UNL A   1      37.731  32.248  37.787  1.00  0.00     0.001 A 
ATOM     89  C   UNL A   1      38.833  34.178  36.834  1.00  0.00     0.001 A 
ATOM     90  C   UNL A   1      38.087  33.595  37.859  1.00  0.00     0.000 A 
ENDBRANCH  72  85
ENDBRANCH  46  47
ENDBRANCH  39  41
ENDBRANCH  38  39
ENDBRANCH  37  38
ENDBRANCH  36  37
ENDBRANCH  35  36
ENDBRANCH   1  35
TORSDOF 19
ENDMDL
