MODEL 1
REMARK VINA RESULT:     -11.0      0.000      0.000
REMARK SMILES CCc1c(Cl)ccc2c1C=C(C(=O)OCCOC(=O)c1ccc(-c3c4nc(c(-c5ccccc5)c5ccc([nH]5)c(-c5ccccc5)c5nc(c(-c6ccccc6)c6ccc3[nH]6)C=C5)C=C4)cc1)[C@@H](C(F)(F)F)O2
REMARK SMILES IDX 16 1 15 2 14 3 12 4 13 5 11 6 3 7 4 8 9 9 5 10 6 11 8 12
REMARK SMILES IDX 10 13 7 14 73 15 68 16 2 17 1 18 69 19 70 20 71 21 72 22
REMARK SMILES IDX 17 23 18 24 19 25 20 26 21 27 67 28 22 29 66 30 23 31 24 32
REMARK SMILES IDX 25 33 60 34 26 35 65 36 59 37 61 38 27 39 64 40 58 41 57 42
REMARK SMILES IDX 28 44 50 45 35 46 49 47 36 48 39 49 48 50 62 51 37 52 38 53
REMARK SMILES IDX 47 55 63 56 40 57 29 58 30 59 34 60 31 61 33 62 32 63 51 64
REMARK SMILES IDX 52 65 56 66 53 67 55 68 54 69 41 70 42 71 46 72 43 73 45 74
REMARK SMILES IDX 44 75
REMARK H PARENT 61 43 39 54
REMARK Flexibility Score: inf
ROOT
ATOM      1  C   UNL A   1      36.220  20.930  24.839  1.00  0.00     0.275 C 
ENDROOT
BRANCH   1   2
ATOM      2  C   UNL A   1      34.791  21.465  24.729  1.00  0.00     0.275 C 
BRANCH   2   3
ATOM      3  O   UNL A   1      34.768  22.910  24.721  1.00  0.00    -0.459 OA
BRANCH   3   4
ATOM      4  C   UNL A   1      33.963  23.491  25.640  1.00  0.00     0.338 C 
ATOM      5  O   UNL A   1      33.808  23.143  26.799  1.00  0.00    -0.246 OA
BRANCH   4   6
ATOM      6  C   UNL A   1      33.288  24.671  25.059  1.00  0.00     0.087 C 
ATOM      7  C   UNL A   1      32.665  28.257  25.961  1.00  0.00    -0.019 A 
ATOM      8  C   UNL A   1      31.843  29.287  25.464  1.00  0.00     0.045 A 
ATOM      9  C   UNL A   1      32.635  27.004  25.259  1.00  0.00     0.022 A 
ATOM     10  Cl  UNL A   1      31.669  30.848  26.184  1.00  0.00    -0.084 Cl
ATOM     11  C   UNL A   1      31.068  29.095  24.310  1.00  0.00     0.024 A 
ATOM     12  C   UNL A   1      31.872  26.842  24.093  1.00  0.00     0.128 A 
ATOM     13  C   UNL A   1      33.367  25.828  25.727  1.00  0.00     0.027 C 
ATOM     14  C   UNL A   1      31.095  27.889  23.620  1.00  0.00     0.048 A 
ATOM     15  O   UNL A   1      31.836  25.705  23.334  1.00  0.00    -0.475 OA
ATOM     16  C   UNL A   1      32.449  24.489  23.834  1.00  0.00     0.316 C 
BRANCH   7  17
ATOM     17  C   UNL A   1      33.587  28.363  27.174  1.00  0.00     0.034 C 
ATOM     18  C   UNL A   1      34.773  29.312  27.263  1.00  0.00     0.009 C 
ENDBRANCH   7  17
BRANCH  16  19
ATOM     19  C   UNL A   1      31.349  23.439  24.063  1.00  0.00     0.430 C 
ATOM     20  F   UNL A   1      30.935  23.428  25.352  1.00  0.00    -0.167 F 
ATOM     21  F   UNL A   1      30.253  23.693  23.308  1.00  0.00    -0.167 F 
ATOM     22  F   UNL A   1      31.767  22.189  23.758  1.00  0.00    -0.167 F 
ENDBRANCH  16  19
ENDBRANCH   4   6
ENDBRANCH   3   4
ENDBRANCH   2   3
ENDBRANCH   1   2
BRANCH   1  23
ATOM     23  O   UNL A   1      36.961  21.691  25.810  1.00  0.00    -0.458 OA
BRANCH  23  24
ATOM     24  C   UNL A   1      38.289  21.447  25.855  1.00  0.00     0.338 C 
ATOM     25  O   UNL A   1      38.889  20.485  25.413  1.00  0.00    -0.246 OA
BRANCH  24  26
ATOM     26  C   UNL A   1      38.968  22.604  26.455  1.00  0.00     0.060 A 
ATOM     27  C   UNL A   1      40.179  22.474  27.126  1.00  0.00     0.016 A 
ATOM     28  C   UNL A   1      38.439  23.866  26.217  1.00  0.00     0.016 A 
ATOM     29  C   UNL A   1      40.842  23.627  27.563  1.00  0.00     0.010 A 
ATOM     30  C   UNL A   1      39.161  25.011  26.532  1.00  0.00     0.010 A 
ATOM     31  C   UNL A   1      40.362  24.914  27.238  1.00  0.00    -0.014 A 
BRANCH  31  32
ATOM     32  C   UNL A   1      41.105  26.151  27.616  1.00  0.00     0.031 A 
ATOM     33  C   UNL A   1      42.459  26.466  27.019  1.00  0.00     0.074 A 
ATOM     34  C   UNL A   1      40.589  26.980  28.548  1.00  0.00     0.049 A 
ATOM     35  N   UNL A   1      43.235  27.501  27.238  1.00  0.00    -0.248 NA
ATOM     36  C   UNL A   1      43.042  25.478  26.095  1.00  0.00     0.031 C 
ATOM     37  C   UNL A   1      39.347  26.751  29.290  1.00  0.00     0.029 A 
ATOM     38  N   UNL A   1      41.033  28.194  29.016  1.00  0.00    -0.354 N 
ATOM     39  C   UNL A   1      44.399  27.265  26.513  1.00  0.00     0.074 A 
ATOM     40  C   UNL A   1      44.260  25.964  25.903  1.00  0.00     0.031 C 
ATOM     41  C   UNL A   1      39.083  27.826  30.047  1.00  0.00     0.029 A 
ATOM     42  C   UNL A   1      40.155  28.801  29.883  1.00  0.00     0.049 A 
ATOM     43  H   UNL A   1      41.896  28.589  28.755  1.00  0.00     0.167 HD
ATOM     44  C   UNL A   1      45.469  28.074  26.332  1.00  0.00     0.031 A 
ATOM     45  C   UNL A   1      40.188  30.018  30.460  1.00  0.00     0.031 A 
ATOM     46  C   UNL A   1      45.578  29.400  26.876  1.00  0.00     0.049 A 
ATOM     47  C   UNL A   1      41.340  30.940  30.172  1.00  0.00     0.074 A 
ATOM     48  C   UNL A   1      46.579  30.333  26.669  1.00  0.00     0.029 A 
ATOM     49  N   UNL A   1      44.647  29.988  27.714  1.00  0.00    -0.354 N 
ATOM     50  N   UNL A   1      42.390  30.732  29.415  1.00  0.00    -0.248 NA
ATOM     51  C   UNL A   1      41.307  32.267  30.804  1.00  0.00     0.031 C 
ATOM     52  C   UNL A   1      46.271  31.474  27.411  1.00  0.00     0.029 A 
ATOM     53  C   UNL A   1      45.052  31.272  28.036  1.00  0.00     0.049 A 
ATOM     54  H   UNL A   1      43.820  29.558  28.033  1.00  0.00     0.167 HD
ATOM     55  C   UNL A   1      43.132  31.905  29.466  1.00  0.00     0.074 A 
ATOM     56  C   UNL A   1      42.402  32.828  30.310  1.00  0.00     0.031 C 
ATOM     57  C   UNL A   1      44.314  32.185  28.868  1.00  0.00     0.031 A 
BRANCH  44  58
ATOM     58  C   UNL A   1      46.597  27.576  25.467  1.00  0.00    -0.014 A 
ATOM     59  C   UNL A   1      47.638  26.823  26.034  1.00  0.00     0.009 A 
ATOM     60  C   UNL A   1      46.679  27.928  24.111  1.00  0.00     0.009 A 
ATOM     61  C   UNL A   1      48.737  26.437  25.262  1.00  0.00     0.001 A 
ATOM     62  C   UNL A   1      47.761  27.513  23.332  1.00  0.00     0.001 A 
ATOM     63  C   UNL A   1      48.794  26.776  23.910  1.00  0.00     0.000 A 
ENDBRANCH  44  58
BRANCH  45  64
ATOM     64  C   UNL A   1      39.043  30.461  31.299  1.00  0.00    -0.014 A 
ATOM     65  C   UNL A   1      37.952  31.140  30.735  1.00  0.00     0.009 A 
ATOM     66  C   UNL A   1      39.066  30.250  32.687  1.00  0.00     0.009 A 
ATOM     67  C   UNL A   1      36.919  31.615  31.545  1.00  0.00     0.001 A 
ATOM     68  C   UNL A   1      38.018  30.702  33.491  1.00  0.00     0.001 A 
ATOM     69  C   UNL A   1      36.950  31.392  32.920  1.00  0.00     0.000 A 
ENDBRANCH  45  64
BRANCH  57  70
ATOM     70  C   UNL A   1      44.905  33.550  29.075  1.00  0.00    -0.014 A 
ATOM     71  C   UNL A   1      44.610  34.581  28.168  1.00  0.00     0.009 A 
ATOM     72  C   UNL A   1      45.845  33.781  30.090  1.00  0.00     0.009 A 
ATOM     73  C   UNL A   1      45.259  35.813  28.263  1.00  0.00     0.001 A 
ATOM     74  C   UNL A   1      46.473  35.023  30.198  1.00  0.00     0.001 A 
ATOM     75  C   UNL A   1      46.187  36.034  29.279  1.00  0.00     0.000 A 
ENDBRANCH  57  70
ENDBRANCH  31  32
ENDBRANCH  24  26
ENDBRANCH  23  24
ENDBRANCH   1  23
TORSDOF 13
ENDMDL
MODEL 2
REMARK VINA RESULT:     -11.0      1.518      2.083
REMARK SMILES CCc1c(Cl)ccc2c1C=C(C(=O)OCCOC(=O)c1ccc(-c3c4nc(c(-c5ccccc5)c5ccc([nH]5)c(-c5ccccc5)c5nc(c(-c6ccccc6)c6ccc3[nH]6)C=C5)C=C4)cc1)[C@@H](C(F)(F)F)O2
REMARK SMILES IDX 16 1 15 2 14 3 12 4 13 5 11 6 3 7 4 8 9 9 5 10 6 11 8 12
REMARK SMILES IDX 10 13 7 14 73 15 68 16 2 17 1 18 69 19 70 20 71 21 72 22
REMARK SMILES IDX 17 23 18 24 19 25 20 26 21 27 67 28 22 29 66 30 23 31 24 32
REMARK SMILES IDX 25 33 60 34 26 35 65 36 59 37 61 38 27 39 64 40 58 41 57 42
REMARK SMILES IDX 28 44 50 45 35 46 49 47 36 48 39 49 48 50 62 51 37 52 38 53
REMARK SMILES IDX 47 55 63 56 40 57 29 58 30 59 34 60 31 61 33 62 32 63 51 64
REMARK SMILES IDX 52 65 56 66 53 67 55 68 54 69 41 70 42 71 46 72 43 73 45 74
REMARK SMILES IDX 44 75
REMARK H PARENT 61 43 39 54
REMARK Flexibility Score: inf
ROOT
ATOM      1  C   UNL A   1      36.431  20.735  24.595  1.00  0.00     0.275 C 
ENDROOT
BRANCH   1   2
ATOM      2  C   UNL A   1      35.019  20.315  25.006  1.00  0.00     0.275 C 
BRANCH   2   3
ATOM      3  O   UNL A   1      34.021  21.187  24.431  1.00  0.00    -0.459 OA
BRANCH   3   4
ATOM      4  C   UNL A   1      32.778  21.084  24.953  1.00  0.00     0.338 C 
ATOM      5  O   UNL A   1      32.125  20.062  25.090  1.00  0.00    -0.246 OA
BRANCH   4   6
ATOM      6  C   UNL A   1      32.292  22.410  25.390  1.00  0.00     0.087 C 
ATOM      7  C   UNL A   1      31.599  25.769  23.874  1.00  0.00    -0.019 A 
ATOM      8  C   UNL A   1      31.327  27.057  24.375  1.00  0.00     0.045 A 
ATOM      9  C   UNL A   1      31.753  24.716  24.839  1.00  0.00     0.022 A 
ATOM     10  Cl  UNL A   1      31.171  28.481  23.409  1.00  0.00    -0.084 Cl
ATOM     11  C   UNL A   1      31.173  27.276  25.752  1.00  0.00     0.024 A 
ATOM     12  C   UNL A   1      31.571  24.951  26.210  1.00  0.00     0.128 A 
ATOM     13  C   UNL A   1      32.131  23.355  24.457  1.00  0.00     0.027 C 
ATOM     14  C   UNL A   1      31.277  26.230  26.662  1.00  0.00     0.048 A 
ATOM     15  O   UNL A   1      31.638  23.995  27.183  1.00  0.00    -0.475 OA
ATOM     16  C   UNL A   1      32.130  22.670  26.854  1.00  0.00     0.316 C 
BRANCH   7  17
ATOM     17  C   UNL A   1      31.737  25.399  22.399  1.00  0.00     0.034 C 
ATOM     18  C   UNL A   1      32.872  25.874  21.503  1.00  0.00     0.009 C 
ENDBRANCH   7  17
BRANCH  16  19
ATOM     19  C   UNL A   1      33.445  22.427  27.613  1.00  0.00     0.430 C 
ATOM     20  F   UNL A   1      33.392  22.928  28.869  1.00  0.00    -0.167 F 
ATOM     21  F   UNL A   1      33.713  21.105  27.736  1.00  0.00    -0.167 F 
ATOM     22  F   UNL A   1      34.503  22.997  26.991  1.00  0.00    -0.167 F 
ENDBRANCH  16  19
ENDBRANCH   4   6
ENDBRANCH   3   4
ENDBRANCH   2   3
ENDBRANCH   1   2
BRANCH   1  23
ATOM     23  O   UNL A   1      37.060  21.469  25.661  1.00  0.00    -0.458 OA
BRANCH  23  24
ATOM     24  C   UNL A   1      38.371  21.207  25.857  1.00  0.00     0.338 C 
ATOM     25  O   UNL A   1      38.992  20.209  25.540  1.00  0.00    -0.246 OA
BRANCH  24  26
ATOM     26  C   UNL A   1      39.012  22.389  26.452  1.00  0.00     0.060 A 
ATOM     27  C   UNL A   1      40.187  22.291  27.186  1.00  0.00     0.016 A 
ATOM     28  C   UNL A   1      38.487  23.638  26.145  1.00  0.00     0.016 A 
ATOM     29  C   UNL A   1      40.820  23.464  27.617  1.00  0.00     0.010 A 
ATOM     30  C   UNL A   1      39.184  24.799  26.457  1.00  0.00     0.010 A 
ATOM     31  C   UNL A   1      40.349  24.736  27.225  1.00  0.00    -0.014 A 
BRANCH  31  32
ATOM     32  C   UNL A   1      41.063  25.991  27.598  1.00  0.00     0.031 A 
ATOM     33  C   UNL A   1      42.415  26.328  27.008  1.00  0.00     0.074 A 
ATOM     34  C   UNL A   1      40.523  26.816  28.519  1.00  0.00     0.049 A 
ATOM     35  N   UNL A   1      43.167  27.381  27.223  1.00  0.00    -0.248 NA
ATOM     36  C   UNL A   1      43.024  25.346  26.096  1.00  0.00     0.031 C 
ATOM     37  C   UNL A   1      39.282  26.568  29.254  1.00  0.00     0.029 A 
ATOM     38  N   UNL A   1      40.939  28.042  28.980  1.00  0.00    -0.354 N 
ATOM     39  C   UNL A   1      44.341  27.164  26.508  1.00  0.00     0.074 A 
ATOM     40  C   UNL A   1      44.234  25.855  25.909  1.00  0.00     0.031 C 
ATOM     41  C   UNL A   1      38.989  27.643  30.001  1.00  0.00     0.029 A 
ATOM     42  C   UNL A   1      40.042  28.639  29.836  1.00  0.00     0.049 A 
ATOM     43  H   UNL A   1      41.795  28.453  28.722  1.00  0.00     0.167 HD
ATOM     44  C   UNL A   1      45.395  27.993  26.328  1.00  0.00     0.031 A 
ATOM     45  C   UNL A   1      40.047  29.861  30.403  1.00  0.00     0.031 A 
ATOM     46  C   UNL A   1      45.474  29.325  26.861  1.00  0.00     0.049 A 
ATOM     47  C   UNL A   1      41.181  30.804  30.116  1.00  0.00     0.074 A 
ATOM     48  C   UNL A   1      46.457  30.277  26.654  1.00  0.00     0.029 A 
ATOM     49  N   UNL A   1      44.524  29.901  27.689  1.00  0.00    -0.354 N 
ATOM     50  N   UNL A   1      42.241  30.611  29.368  1.00  0.00    -0.248 NA
ATOM     51  C   UNL A   1      41.116  32.135  30.737  1.00  0.00     0.031 C 
ATOM     52  C   UNL A   1      46.120  31.417  27.384  1.00  0.00     0.029 A 
ATOM     53  C   UNL A   1      44.901  31.195  28.003  1.00  0.00     0.049 A 
ATOM     54  H   UNL A   1      43.704  29.456  28.005  1.00  0.00     0.167 HD
ATOM     55  C   UNL A   1      42.958  31.800  29.414  1.00  0.00     0.074 A 
ATOM     56  C   UNL A   1      42.204  32.715  30.245  1.00  0.00     0.031 C 
ATOM     57  C   UNL A   1      44.138  32.099  28.822  1.00  0.00     0.031 A 
BRANCH  44  58
ATOM     58  C   UNL A   1      46.540  27.511  25.475  1.00  0.00    -0.014 A 
ATOM     59  C   UNL A   1      47.566  26.740  26.045  1.00  0.00     0.009 A 
ATOM     60  C   UNL A   1      46.651  27.896  24.130  1.00  0.00     0.009 A 
ATOM     61  C   UNL A   1      48.679  26.368  25.286  1.00  0.00     0.001 A 
ATOM     62  C   UNL A   1      47.748  27.496  23.364  1.00  0.00     0.001 A 
ATOM     63  C   UNL A   1      48.765  26.740  23.945  1.00  0.00     0.000 A 
ENDBRANCH  44  58
BRANCH  45  64
ATOM     64  C   UNL A   1      38.887  30.286  31.231  1.00  0.00    -0.014 A 
ATOM     65  C   UNL A   1      37.777  30.919  30.651  1.00  0.00     0.009 A 
ATOM     66  C   UNL A   1      38.914  30.107  32.623  1.00  0.00     0.009 A 
ATOM     67  C   UNL A   1      36.727  31.381  31.449  1.00  0.00     0.001 A 
ATOM     68  C   UNL A   1      37.850  30.544  33.415  1.00  0.00     0.001 A 
ATOM     69  C   UNL A   1      36.763  31.188  32.828  1.00  0.00     0.000 A 
ENDBRANCH  45  64
BRANCH  57  70
ATOM     70  C   UNL A   1      44.699  33.478  29.022  1.00  0.00    -0.014 A 
ATOM     71  C   UNL A   1      44.399  34.493  28.098  1.00  0.00     0.009 A 
ATOM     72  C   UNL A   1      45.618  33.739  30.049  1.00  0.00     0.009 A 
ATOM     73  C   UNL A   1      45.022  35.737  28.188  1.00  0.00     0.001 A 
ATOM     74  C   UNL A   1      46.220  34.995  30.152  1.00  0.00     0.001 A 
ATOM     75  C   UNL A   1      45.930  35.989  29.215  1.00  0.00     0.000 A 
ENDBRANCH  57  70
ENDBRANCH  31  32
ENDBRANCH  24  26
ENDBRANCH  23  24
ENDBRANCH   1  23
TORSDOF 13
ENDMDL
MODEL 3
REMARK VINA RESULT:     -11.0      3.796      8.610
REMARK SMILES CCc1c(Cl)ccc2c1C=C(C(=O)OCCOC(=O)c1ccc(-c3c4nc(c(-c5ccccc5)c5ccc([nH]5)c(-c5ccccc5)c5nc(c(-c6ccccc6)c6ccc3[nH]6)C=C5)C=C4)cc1)[C@@H](C(F)(F)F)O2
REMARK SMILES IDX 16 1 15 2 14 3 12 4 13 5 11 6 3 7 4 8 9 9 5 10 6 11 8 12
REMARK SMILES IDX 10 13 7 14 73 15 68 16 2 17 1 18 69 19 70 20 71 21 72 22
REMARK SMILES IDX 17 23 18 24 19 25 20 26 21 27 67 28 22 29 66 30 23 31 24 32
REMARK SMILES IDX 25 33 60 34 26 35 65 36 59 37 61 38 27 39 64 40 58 41 57 42
REMARK SMILES IDX 28 44 50 45 35 46 49 47 36 48 39 49 48 50 62 51 37 52 38 53
REMARK SMILES IDX 47 55 63 56 40 57 29 58 30 59 34 60 31 61 33 62 32 63 51 64
REMARK SMILES IDX 52 65 56 66 53 67 55 68 54 69 41 70 42 71 46 72 43 73 45 74
REMARK SMILES IDX 44 75
REMARK H PARENT 61 43 39 54
REMARK Flexibility Score: inf
ROOT
ATOM      1  C   UNL A   1      32.051  30.011  25.353  1.00  0.00     0.275 C 
ENDROOT
BRANCH   1   2
ATOM      2  C   UNL A   1      31.509  28.613  25.053  1.00  0.00     0.275 C 
BRANCH   2   3
ATOM      3  O   UNL A   1      32.459  27.588  25.419  1.00  0.00    -0.459 OA
BRANCH   3   4
ATOM      4  C   UNL A   1      33.068  26.955  24.391  1.00  0.00     0.338 C 
ATOM      5  O   UNL A   1      33.541  27.473  23.391  1.00  0.00    -0.246 OA
BRANCH   4   6
ATOM      6  C   UNL A   1      33.129  25.500  24.645  1.00  0.00     0.087 C 
ATOM      7  C   UNL A   1      35.736  22.823  24.941  1.00  0.00    -0.019 A 
ATOM      8  C   UNL A   1      35.726  21.414  24.986  1.00  0.00     0.045 A 
ATOM      9  C   UNL A   1      34.461  23.480  24.877  1.00  0.00     0.022 A 
ATOM     10  Cl  UNL A   1      37.135  20.415  24.998  1.00  0.00    -0.084 Cl
ATOM     11  C   UNL A   1      34.516  20.704  25.009  1.00  0.00     0.024 A 
ATOM     12  C   UNL A   1      33.263  22.752  24.927  1.00  0.00     0.128 A 
ATOM     13  C   UNL A   1      34.336  24.930  24.730  1.00  0.00     0.027 C 
ATOM     14  C   UNL A   1      33.294  21.367  24.997  1.00  0.00     0.048 A 
ATOM     15  O   UNL A   1      32.012  23.304  24.933  1.00  0.00    -0.475 OA
ATOM     16  C   UNL A   1      31.852  24.721  24.665  1.00  0.00     0.316 C 
BRANCH   7  17
ATOM     17  C   UNL A   1      36.983  23.703  24.962  1.00  0.00     0.034 C 
ATOM     18  C   UNL A   1      37.958  23.773  26.128  1.00  0.00     0.009 C 
ENDBRANCH   7  17
BRANCH  16  19
ATOM     19  C   UNL A   1      31.074  24.891  23.350  1.00  0.00     0.430 C 
ATOM     20  F   UNL A   1      31.908  24.964  22.287  1.00  0.00    -0.167 F 
ATOM     21  F   UNL A   1      30.247  23.842  23.121  1.00  0.00    -0.167 F 
ATOM     22  F   UNL A   1      30.314  26.010  23.350  1.00  0.00    -0.167 F 
ENDBRANCH  16  19
ENDBRANCH   4   6
ENDBRANCH   3   4
ENDBRANCH   2   3
ENDBRANCH   1   2
BRANCH   1  23
ATOM     23  O   UNL A   1      32.400  30.118  26.746  1.00  0.00    -0.458 OA
BRANCH  23  24
ATOM     24  C   UNL A   1      32.995  31.275  27.112  1.00  0.00     0.338 C 
ATOM     25  O   UNL A   1      32.518  32.396  27.112  1.00  0.00    -0.246 OA
BRANCH  24  26
ATOM     26  C   UNL A   1      34.338  30.979  27.630  1.00  0.00     0.060 A 
ATOM     27  C   UNL A   1      35.226  31.990  27.978  1.00  0.00     0.016 A 
ATOM     28  C   UNL A   1      34.655  29.654  27.900  1.00  0.00     0.016 A 
ATOM     29  C   UNL A   1      36.441  31.650  28.587  1.00  0.00     0.010 A 
ATOM     30  C   UNL A   1      35.796  29.328  28.622  1.00  0.00     0.010 A 
ATOM     31  C   UNL A   1      36.726  30.317  28.954  1.00  0.00    -0.014 A 
BRANCH  31  32
ATOM     32  C   UNL A   1      37.973  29.950  29.686  1.00  0.00     0.031 A 
ATOM     33  C   UNL A   1      38.180  30.349  31.131  1.00  0.00     0.074 A 
ATOM     34  C   UNL A   1      38.960  29.300  29.036  1.00  0.00     0.049 A 
ATOM     35  N   UNL A   1      39.204  30.106  31.913  1.00  0.00    -0.248 NA
ATOM     36  C   UNL A   1      37.130  31.160  31.770  1.00  0.00     0.031 C 
ATOM     37  C   UNL A   1      38.950  28.947  27.615  1.00  0.00     0.029 A 
ATOM     38  N   UNL A   1      40.157  28.798  29.490  1.00  0.00    -0.354 N 
ATOM     39  C   UNL A   1      38.934  30.762  33.110  1.00  0.00     0.074 A 
ATOM     40  C   UNL A   1      37.688  31.470  32.932  1.00  0.00     0.031 C 
ATOM     41  C   UNL A   1      40.036  28.212  27.335  1.00  0.00     0.029 A 
ATOM     42  C   UNL A   1      40.844  28.077  28.542  1.00  0.00     0.049 A 
ATOM     43  H   UNL A   1      40.489  28.943  30.405  1.00  0.00     0.167 HD
ATOM     44  C   UNL A   1      39.634  30.746  34.268  1.00  0.00     0.031 A 
ATOM     45  C   UNL A   1      41.981  27.360  28.635  1.00  0.00     0.031 A 
ATOM     46  C   UNL A   1      40.835  29.983  34.473  1.00  0.00     0.049 A 
ATOM     47  C   UNL A   1      42.695  27.277  29.955  1.00  0.00     0.074 A 
ATOM     48  C   UNL A   1      41.563  29.825  35.640  1.00  0.00     0.029 A 
ATOM     49  N   UNL A   1      41.472  29.236  33.497  1.00  0.00    -0.354 N 
ATOM     50  N   UNL A   1      42.378  27.836  31.098  1.00  0.00    -0.248 NA
ATOM     51  C   UNL A   1      43.913  26.455  30.004  1.00  0.00     0.031 C 
ATOM     52  C   UNL A   1      42.661  29.010  35.361  1.00  0.00     0.029 A 
ATOM     53  C   UNL A   1      42.587  28.617  34.034  1.00  0.00     0.049 A 
ATOM     54  H   UNL A   1      41.175  29.157  32.561  1.00  0.00     0.167 HD
ATOM     55  C   UNL A   1      43.345  27.420  32.003  1.00  0.00     0.074 A 
ATOM     56  C   UNL A   1      44.248  26.545  31.285  1.00  0.00     0.031 C 
ATOM     57  C   UNL A   1      43.471  27.741  33.313  1.00  0.00     0.031 A 
BRANCH  44  58
ATOM     58  C   UNL A   1      39.098  31.536  35.433  1.00  0.00    -0.014 A 
ATOM     59  C   UNL A   1      39.547  32.847  35.660  1.00  0.00     0.009 A 
ATOM     60  C   UNL A   1      38.219  30.953  36.359  1.00  0.00     0.009 A 
ATOM     61  C   UNL A   1      39.129  33.555  36.790  1.00  0.00     0.001 A 
ATOM     62  C   UNL A   1      37.776  31.673  37.470  1.00  0.00     0.001 A 
ATOM     63  C   UNL A   1      38.238  32.970  37.690  1.00  0.00     0.000 A 
ENDBRANCH  44  58
BRANCH  45  64
ATOM     64  C   UNL A   1      42.461  26.594  27.454  1.00  0.00    -0.014 A 
ATOM     65  C   UNL A   1      43.409  27.139  26.575  1.00  0.00     0.009 A 
ATOM     66  C   UNL A   1      41.926  25.327  27.173  1.00  0.00     0.009 A 
ATOM     67  C   UNL A   1      43.796  26.440  25.428  1.00  0.00     0.001 A 
ATOM     68  C   UNL A   1      42.335  24.619  26.042  1.00  0.00     0.001 A 
ATOM     69  C   UNL A   1      43.262  25.180  25.166  1.00  0.00     0.000 A 
ENDBRANCH  45  64
BRANCH  57  70
ATOM     70  C   UNL A   1      44.612  27.138  34.082  1.00  0.00    -0.014 A 
ATOM     71  C   UNL A   1      44.424  25.929  34.772  1.00  0.00     0.009 A 
ATOM     72  C   UNL A   1      45.827  27.824  34.224  1.00  0.00     0.009 A 
ATOM     73  C   UNL A   1      45.425  25.427  35.604  1.00  0.00     0.001 A 
ATOM     74  C   UNL A   1      46.836  27.306  35.037  1.00  0.00     0.001 A 
ATOM     75  C   UNL A   1      46.631  26.114  35.734  1.00  0.00     0.000 A 
ENDBRANCH  57  70
ENDBRANCH  31  32
ENDBRANCH  24  26
ENDBRANCH  23  24
ENDBRANCH   1  23
TORSDOF 13
ENDMDL
