MODEL 1
REMARK VINA RESULT:     -10.5      0.000      0.000
REMARK SMILES CCc1ccsc1-c1nnnn1C[C@H](CC(C)C)C(=O)OCCOC(=O)c1ccc(-c2c3nc(c(-c4ccccc4)c4ccc([nH]4)c(-c4ccccc4)c4nc(c(-c5ccccc5)c5ccc2[nH]5)C=C4)C=C3)cc1
REMARK SMILES IDX 22 1 21 2 19 3 20 4 14 5 13 6 12 7 8 8 9 9 10 10 11 11 7 12
REMARK SMILES IDX 3 13 4 14 5 15 6 16 2 17 1 18 15 19 16 20 17 21 18 22 23 23
REMARK SMILES IDX 24 24 25 25 26 26 27 27 28 28 74 29 29 30 73 31 30 32 31 33
REMARK SMILES IDX 32 34 67 35 33 36 72 37 66 38 68 39 34 40 71 41 65 42 64 43
REMARK SMILES IDX 35 45 57 46 42 47 56 48 43 49 46 50 55 51 69 52 44 53 45 54
REMARK SMILES IDX 54 56 70 57 47 58 36 59 37 60 41 61 38 62 40 63 39 64 58 65
REMARK SMILES IDX 59 66 63 67 60 68 62 69 61 70 48 71 49 72 53 73 50 74 52 75
REMARK SMILES IDX 51 76
REMARK H PARENT 68 44 46 55
REMARK Flexibility Score: inf
ROOT
ATOM      1  C   UNL A   1      32.572  30.204  26.532  1.00  0.00     0.274 C 
ENDROOT
BRANCH   1   2
ATOM      2  O   UNL A   1      33.462  29.360  25.777  1.00  0.00    -0.462 OA
BRANCH   2   3
ATOM      3  C   UNL A   1      33.068  28.087  25.577  1.00  0.00     0.310 C 
ATOM      4  O   UNL A   1      33.041  27.226  26.453  1.00  0.00    -0.252 OA
BRANCH   3   5
ATOM      5  C   UNL A   1      32.668  27.776  24.146  1.00  0.00     0.121 C 
BRANCH   5   6
ATOM      6  C   UNL A   1      33.898  27.261  23.400  1.00  0.00     0.164 C 
BRANCH   6   7
ATOM      7  N   UNL A   1      33.682  26.092  22.588  1.00  0.00    -0.224 N 
ATOM      8  C   UNL A   1      33.555  24.782  22.953  1.00  0.00     0.192 A 
ATOM      9  N   UNL A   1      33.378  24.071  21.857  1.00  0.00    -0.108 NA
ATOM     10  N   UNL A   1      33.245  24.977  20.839  1.00  0.00    -0.023 NA
ATOM     11  N   UNL A   1      33.335  26.216  21.297  1.00  0.00    -0.045 NA
BRANCH   8  12
ATOM     12  C   UNL A   1      33.436  24.268  24.276  1.00  0.00     0.077 A 
ATOM     13  C   UNL A   1      34.450  23.980  25.183  1.00  0.00    -0.026 A 
ATOM     14  C   UNL A   1      33.874  23.565  26.441  1.00  0.00     0.016 A 
ATOM     15  C   UNL A   1      32.499  23.558  26.438  1.00  0.00     0.066 A 
ATOM     16  S   UNL A   1      31.870  24.021  24.925  1.00  0.00    -0.140 S 
BRANCH  13  17
ATOM     17  C   UNL A   1      35.955  24.061  25.025  1.00  0.00     0.034 C 
ATOM     18  C   UNL A   1      36.654  23.050  24.131  1.00  0.00     0.009 C 
ENDBRANCH  13  17
ENDBRANCH   8  12
ENDBRANCH   6   7
ENDBRANCH   5   6
BRANCH   5  19
ATOM     19  C   UNL A   1      31.710  28.675  23.312  1.00  0.00     0.020 C 
BRANCH  19  20
ATOM     20  C   UNL A   1      30.214  28.885  23.650  1.00  0.00    -0.017 C 
ATOM     21  C   UNL A   1      29.527  30.098  23.034  1.00  0.00     0.007 C 
ATOM     22  C   UNL A   1      29.440  27.622  23.240  1.00  0.00     0.007 C 
ENDBRANCH  19  20
ENDBRANCH   5  19
ENDBRANCH   3   5
ENDBRANCH   2   3
ENDBRANCH   1   2
BRANCH   1  23
ATOM     23  C   UNL A   1      33.366  31.119  27.458  1.00  0.00     0.275 C 
BRANCH  23  24
ATOM     24  O   UNL A   1      34.777  31.013  27.222  1.00  0.00    -0.458 OA
BRANCH  24  25
ATOM     25  C   UNL A   1      35.525  31.892  27.920  1.00  0.00     0.338 C 
ATOM     26  O   UNL A   1      35.643  33.084  27.714  1.00  0.00    -0.246 OA
BRANCH  25  27
ATOM     27  C   UNL A   1      36.464  31.236  28.812  1.00  0.00     0.060 A 
ATOM     28  C   UNL A   1      37.611  31.983  29.124  1.00  0.00     0.016 A 
ATOM     29  C   UNL A   1      36.408  29.847  28.928  1.00  0.00     0.016 A 
ATOM     30  C   UNL A   1      38.785  31.310  29.338  1.00  0.00     0.010 A 
ATOM     31  C   UNL A   1      37.586  29.177  29.128  1.00  0.00     0.010 A 
ATOM     32  C   UNL A   1      38.763  29.918  29.254  1.00  0.00    -0.014 A 
BRANCH  32  33
ATOM     33  C   UNL A   1      40.016  29.229  29.434  1.00  0.00     0.031 A 
ATOM     34  C   UNL A   1      40.429  29.152  30.850  1.00  0.00     0.074 A 
ATOM     35  C   UNL A   1      40.632  28.594  28.424  1.00  0.00     0.049 A 
ATOM     36  N   UNL A   1      41.506  29.604  31.395  1.00  0.00    -0.248 NA
ATOM     37  C   UNL A   1      39.432  28.631  31.803  1.00  0.00     0.031 C 
ATOM     38  C   UNL A   1      40.127  28.355  27.069  1.00  0.00     0.029 A 
ATOM     39  N   UNL A   1      41.788  27.885  28.460  1.00  0.00    -0.354 N 
ATOM     40  C   UNL A   1      41.406  29.261  32.738  1.00  0.00     0.074 A 
ATOM     41  C   UNL A   1      40.047  28.844  32.962  1.00  0.00     0.031 C 
ATOM     42  C   UNL A   1      40.844  27.355  26.509  1.00  0.00     0.029 A 
ATOM     43  C   UNL A   1      41.914  26.980  27.419  1.00  0.00     0.049 A 
ATOM     44  H   UNL A   1      42.472  28.003  29.159  1.00  0.00     0.167 HD
ATOM     45  C   UNL A   1      42.509  29.069  33.508  1.00  0.00     0.031 A 
ATOM     46  C   UNL A   1      42.772  25.934  27.376  1.00  0.00     0.031 A 
ATOM     47  C   UNL A   1      43.674  29.701  32.949  1.00  0.00     0.049 A 
ATOM     48  C   UNL A   1      43.814  26.153  28.408  1.00  0.00     0.074 A 
ATOM     49  C   UNL A   1      44.004  30.997  32.607  1.00  0.00     0.029 A 
ATOM     50  N   UNL A   1      44.585  28.896  32.308  1.00  0.00    -0.354 N 
ATOM     51  N   UNL A   1      44.718  27.086  28.337  1.00  0.00    -0.248 NA
ATOM     52  C   UNL A   1      43.600  25.598  29.737  1.00  0.00     0.031 C 
ATOM     53  C   UNL A   1      44.797  30.880  31.429  1.00  0.00     0.029 A 
ATOM     54  C   UNL A   1      44.938  29.521  31.141  1.00  0.00     0.049 A 
ATOM     55  H   UNL A   1      44.922  28.029  32.629  1.00  0.00     0.167 HD
ATOM     56  C   UNL A   1      44.875  27.534  29.642  1.00  0.00     0.074 A 
ATOM     57  C   UNL A   1      44.257  26.503  30.470  1.00  0.00     0.031 C 
ATOM     58  C   UNL A   1      45.229  28.826  29.906  1.00  0.00     0.031 A 
BRANCH  45  59
ATOM     59  C   UNL A   1      42.589  27.944  34.509  1.00  0.00    -0.014 A 
ATOM     60  C   UNL A   1      42.916  26.658  34.051  1.00  0.00     0.009 A 
ATOM     61  C   UNL A   1      42.085  28.037  35.824  1.00  0.00     0.009 A 
ATOM     62  C   UNL A   1      42.677  25.525  34.840  1.00  0.00     0.001 A 
ATOM     63  C   UNL A   1      41.890  26.916  36.630  1.00  0.00     0.001 A 
ATOM     64  C   UNL A   1      42.158  25.655  36.125  1.00  0.00     0.000 A 
ENDBRANCH  45  59
BRANCH  46  65
ATOM     65  C   UNL A   1      42.584  24.630  26.708  1.00  0.00    -0.014 A 
ATOM     66  C   UNL A   1      43.241  24.346  25.503  1.00  0.00     0.009 A 
ATOM     67  C   UNL A   1      41.949  23.567  27.377  1.00  0.00     0.009 A 
ATOM     68  C   UNL A   1      43.287  23.039  25.002  1.00  0.00     0.001 A 
ATOM     69  C   UNL A   1      41.987  22.263  26.873  1.00  0.00     0.001 A 
ATOM     70  C   UNL A   1      42.669  21.997  25.692  1.00  0.00     0.000 A 
ENDBRANCH  46  65
BRANCH  58  71
ATOM     71  C   UNL A   1      45.689  29.679  28.747  1.00  0.00    -0.014 A 
ATOM     72  C   UNL A   1      44.796  30.366  27.907  1.00  0.00     0.009 A 
ATOM     73  C   UNL A   1      47.063  29.914  28.591  1.00  0.00     0.009 A 
ATOM     74  C   UNL A   1      45.265  31.233  26.915  1.00  0.00     0.001 A 
ATOM     75  C   UNL A   1      47.532  30.796  27.615  1.00  0.00     0.001 A 
ATOM     76  C   UNL A   1      46.634  31.450  26.773  1.00  0.00     0.000 A 
ENDBRANCH  58  71
ENDBRANCH  32  33
ENDBRANCH  25  27
ENDBRANCH  24  25
ENDBRANCH  23  24
ENDBRANCH   1  23
TORSDOF 17
ENDMDL
MODEL 2
REMARK VINA RESULT:     -10.3      1.566      2.311
REMARK SMILES CCc1ccsc1-c1nnnn1C[C@H](CC(C)C)C(=O)OCCOC(=O)c1ccc(-c2c3nc(c(-c4ccccc4)c4ccc([nH]4)c(-c4ccccc4)c4nc(c(-c5ccccc5)c5ccc2[nH]5)C=C4)C=C3)cc1
REMARK SMILES IDX 22 1 21 2 19 3 20 4 14 5 13 6 12 7 8 8 9 9 10 10 11 11 7 12
REMARK SMILES IDX 3 13 4 14 5 15 6 16 2 17 1 18 15 19 16 20 17 21 18 22 23 23
REMARK SMILES IDX 24 24 25 25 26 26 27 27 28 28 74 29 29 30 73 31 30 32 31 33
REMARK SMILES IDX 32 34 67 35 33 36 72 37 66 38 68 39 34 40 71 41 65 42 64 43
REMARK SMILES IDX 35 45 57 46 42 47 56 48 43 49 46 50 55 51 69 52 44 53 45 54
REMARK SMILES IDX 54 56 70 57 47 58 36 59 37 60 41 61 38 62 40 63 39 64 58 65
REMARK SMILES IDX 59 66 63 67 60 68 62 69 61 70 48 71 49 72 53 73 50 74 52 75
REMARK SMILES IDX 51 76
REMARK H PARENT 68 44 46 55
REMARK Flexibility Score: inf
ROOT
ATOM      1  C   UNL A   1      32.653  29.352  27.039  1.00  0.00     0.274 C 
ENDROOT
BRANCH   1   2
ATOM      2  O   UNL A   1      33.189  28.053  26.722  1.00  0.00    -0.462 OA
BRANCH   2   3
ATOM      3  C   UNL A   1      32.430  27.256  25.944  1.00  0.00     0.310 C 
ATOM      4  O   UNL A   1      31.446  27.639  25.315  1.00  0.00    -0.252 OA
BRANCH   3   5
ATOM      5  C   UNL A   1      32.875  25.805  25.917  1.00  0.00     0.121 C 
BRANCH   5   6
ATOM      6  C   UNL A   1      34.152  25.705  25.085  1.00  0.00     0.164 C 
BRANCH   6   7
ATOM      7  N   UNL A   1      33.995  25.123  23.778  1.00  0.00    -0.224 N 
ATOM      8  C   UNL A   1      34.403  23.910  23.303  1.00  0.00     0.192 A 
ATOM      9  N   UNL A   1      34.037  23.825  22.040  1.00  0.00    -0.108 NA
ATOM     10  N   UNL A   1      33.269  24.932  21.795  1.00  0.00    -0.023 NA
ATOM     11  N   UNL A   1      33.162  25.679  22.883  1.00  0.00    -0.045 NA
BRANCH   8  12
ATOM     12  C   UNL A   1      34.951  22.835  24.059  1.00  0.00     0.077 A 
ATOM     13  C   UNL A   1      34.338  21.644  24.436  1.00  0.00    -0.026 A 
ATOM     14  C   UNL A   1      35.290  20.800  25.117  1.00  0.00     0.016 A 
ATOM     15  C   UNL A   1      36.541  21.361  25.224  1.00  0.00     0.066 A 
ATOM     16  S   UNL A   1      36.594  22.917  24.537  1.00  0.00    -0.140 S 
BRANCH  13  17
ATOM     17  C   UNL A   1      32.916  21.166  24.217  1.00  0.00     0.034 C 
ATOM     18  C   UNL A   1      32.426  19.948  24.981  1.00  0.00     0.009 C 
ENDBRANCH  13  17
ENDBRANCH   8  12
ENDBRANCH   6   7
ENDBRANCH   5   6
BRANCH   5  19
ATOM     19  C   UNL A   1      31.887  24.612  25.769  1.00  0.00     0.020 C 
BRANCH  19  20
ATOM     20  C   UNL A   1      31.458  23.699  26.944  1.00  0.00    -0.017 C 
ATOM     21  C   UNL A   1      30.315  22.725  26.683  1.00  0.00     0.007 C 
ATOM     22  C   UNL A   1      32.685  22.901  27.413  1.00  0.00     0.007 C 
ENDBRANCH  19  20
ENDBRANCH   5  19
ENDBRANCH   3   5
ENDBRANCH   2   3
ENDBRANCH   1   2
BRANCH   1  23
ATOM     23  C   UNL A   1      33.761  30.398  27.038  1.00  0.00     0.275 C 
BRANCH  23  24
ATOM     24  O   UNL A   1      34.870  29.994  27.854  1.00  0.00    -0.458 OA
BRANCH  24  25
ATOM     25  C   UNL A   1      35.688  31.001  28.220  1.00  0.00     0.338 C 
ATOM     26  O   UNL A   1      35.745  32.116  27.737  1.00  0.00    -0.246 OA
BRANCH  25  27
ATOM     27  C   UNL A   1      36.762  30.557  29.090  1.00  0.00     0.060 A 
ATOM     28  C   UNL A   1      38.003  31.176  28.870  1.00  0.00     0.016 A 
ATOM     29  C   UNL A   1      36.632  29.321  29.724  1.00  0.00     0.016 A 
ATOM     30  C   UNL A   1      39.140  30.443  29.084  1.00  0.00     0.010 A 
ATOM     31  C   UNL A   1      37.770  28.586  29.924  1.00  0.00     0.010 A 
ATOM     32  C   UNL A   1      38.995  29.129  29.532  1.00  0.00    -0.014 A 
BRANCH  32  33
ATOM     33  C   UNL A   1      40.200  28.358  29.706  1.00  0.00     0.031 A 
ATOM     34  C   UNL A   1      40.679  28.353  31.104  1.00  0.00     0.074 A 
ATOM     35  C   UNL A   1      40.712  27.603  28.721  1.00  0.00     0.049 A 
ATOM     36  N   UNL A   1      41.815  28.756  31.562  1.00  0.00    -0.248 NA
ATOM     37  C   UNL A   1      39.697  27.985  32.139  1.00  0.00     0.031 C 
ATOM     38  C   UNL A   1      40.120  27.306  27.414  1.00  0.00     0.029 A 
ATOM     39  N   UNL A   1      41.811  26.809  28.758  1.00  0.00    -0.354 N 
ATOM     40  C   UNL A   1      41.759  28.523  32.930  1.00  0.00     0.074 A 
ATOM     41  C   UNL A   1      40.386  28.232  33.249  1.00  0.00     0.031 C 
ATOM     42  C   UNL A   1      40.728  26.213  26.900  1.00  0.00     0.029 A 
ATOM     43  C   UNL A   1      41.813  25.822  27.786  1.00  0.00     0.049 A 
ATOM     44  H   UNL A   1      42.537  26.923  29.414  1.00  0.00     0.167 HD
ATOM     45  C   UNL A   1      42.883  28.301  33.660  1.00  0.00     0.031 A 
ATOM     46  C   UNL A   1      42.586  24.710  27.785  1.00  0.00     0.031 A 
ATOM     47  C   UNL A   1      44.061  28.794  33.001  1.00  0.00     0.049 A 
ATOM     48  C   UNL A   1      43.694  24.922  28.747  1.00  0.00     0.074 A 
ATOM     49  C   UNL A   1      44.471  30.031  32.545  1.00  0.00     0.029 A 
ATOM     50  N   UNL A   1      44.875  27.874  32.382  1.00  0.00    -0.354 N 
ATOM     51  N   UNL A   1      44.662  25.772  28.562  1.00  0.00    -0.248 NA
ATOM     52  C   UNL A   1      43.508  24.485  30.124  1.00  0.00     0.031 C 
ATOM     53  C   UNL A   1      45.190  29.765  31.343  1.00  0.00     0.029 A 
ATOM     54  C   UNL A   1      45.212  28.381  31.155  1.00  0.00     0.049 A 
ATOM     55  H   UNL A   1      45.160  27.009  32.754  1.00  0.00     0.167 HD
ATOM     56  C   UNL A   1      44.920  26.300  29.819  1.00  0.00     0.074 A 
ATOM     57  C   UNL A   1      44.270  25.386  30.753  1.00  0.00     0.031 C 
ATOM     58  C   UNL A   1      45.385  27.576  29.965  1.00  0.00     0.031 A 
BRANCH  45  59
ATOM     59  C   UNL A   1      42.929  27.249  34.741  1.00  0.00    -0.014 A 
ATOM     60  C   UNL A   1      43.049  25.902  34.364  1.00  0.00     0.009 A 
ATOM     61  C   UNL A   1      42.579  27.501  36.084  1.00  0.00     0.009 A 
ATOM     62  C   UNL A   1      42.758  24.869  35.265  1.00  0.00     0.001 A 
ATOM     63  C   UNL A   1      42.335  26.475  36.998  1.00  0.00     0.001 A 
ATOM     64  C   UNL A   1      42.394  25.157  36.577  1.00  0.00     0.000 A 
ENDBRANCH  45  59
BRANCH  46  65
ATOM     65  C   UNL A   1      42.265  23.381  27.229  1.00  0.00    -0.014 A 
ATOM     66  C   UNL A   1      43.100  22.787  26.273  1.00  0.00     0.009 A 
ATOM     67  C   UNL A   1      41.264  22.581  27.815  1.00  0.00     0.009 A 
ATOM     68  C   UNL A   1      42.960  21.433  25.940  1.00  0.00     0.001 A 
ATOM     69  C   UNL A   1      41.119  21.233  27.476  1.00  0.00     0.001 A 
ATOM     70  C   UNL A   1      41.977  20.655  26.548  1.00  0.00     0.000 A 
ENDBRANCH  46  65
BRANCH  58  71
ATOM     71  C   UNL A   1      45.847  28.302  28.724  1.00  0.00    -0.014 A 
ATOM     72  C   UNL A   1      44.955  28.809  27.763  1.00  0.00     0.009 A 
ATOM     73  C   UNL A   1      47.209  28.612  28.596  1.00  0.00     0.009 A 
ATOM     74  C   UNL A   1      45.417  29.570  26.685  1.00  0.00     0.001 A 
ATOM     75  C   UNL A   1      47.668  29.391  27.532  1.00  0.00     0.001 A 
ATOM     76  C   UNL A   1      46.774  29.864  26.573  1.00  0.00     0.000 A 
ENDBRANCH  58  71
ENDBRANCH  32  33
ENDBRANCH  25  27
ENDBRANCH  24  25
ENDBRANCH  23  24
ENDBRANCH   1  23
TORSDOF 17
ENDMDL
MODEL 3
REMARK VINA RESULT:     -10.2      1.767      2.268
REMARK SMILES CCc1ccsc1-c1nnnn1C[C@H](CC(C)C)C(=O)OCCOC(=O)c1ccc(-c2c3nc(c(-c4ccccc4)c4ccc([nH]4)c(-c4ccccc4)c4nc(c(-c5ccccc5)c5ccc2[nH]5)C=C4)C=C3)cc1
REMARK SMILES IDX 22 1 21 2 19 3 20 4 14 5 13 6 12 7 8 8 9 9 10 10 11 11 7 12
REMARK SMILES IDX 3 13 4 14 5 15 6 16 2 17 1 18 15 19 16 20 17 21 18 22 23 23
REMARK SMILES IDX 24 24 25 25 26 26 27 27 28 28 74 29 29 30 73 31 30 32 31 33
REMARK SMILES IDX 32 34 67 35 33 36 72 37 66 38 68 39 34 40 71 41 65 42 64 43
REMARK SMILES IDX 35 45 57 46 42 47 56 48 43 49 46 50 55 51 69 52 44 53 45 54
REMARK SMILES IDX 54 56 70 57 47 58 36 59 37 60 41 61 38 62 40 63 39 64 58 65
REMARK SMILES IDX 59 66 63 67 60 68 62 69 61 70 48 71 49 72 53 73 50 74 52 75
REMARK SMILES IDX 51 76
REMARK H PARENT 68 44 46 55
REMARK Flexibility Score: inf
ROOT
ATOM      1  C   UNL A   1      34.059  29.150  26.923  1.00  0.00     0.274 C 
ENDROOT
BRANCH   1   2
ATOM      2  O   UNL A   1      32.698  29.088  26.454  1.00  0.00    -0.462 OA
BRANCH   2   3
ATOM      3  C   UNL A   1      31.968  28.027  26.851  1.00  0.00     0.310 C 
ATOM      4  O   UNL A   1      31.489  27.899  27.975  1.00  0.00    -0.252 OA
BRANCH   3   5
ATOM      5  C   UNL A   1      31.792  26.958  25.787  1.00  0.00     0.121 C 
BRANCH   5   6
ATOM      6  C   UNL A   1      32.861  25.888  25.995  1.00  0.00     0.164 C 
BRANCH   6   7
ATOM      7  N   UNL A   1      32.365  24.558  26.235  1.00  0.00    -0.224 N 
ATOM      8  C   UNL A   1      32.834  23.354  25.792  1.00  0.00     0.192 A 
ATOM      9  N   UNL A   1      32.044  22.412  26.269  1.00  0.00    -0.108 NA
ATOM     10  N   UNL A   1      31.185  23.041  27.129  1.00  0.00    -0.023 NA
ATOM     11  N   UNL A   1      31.440  24.339  27.184  1.00  0.00    -0.045 NA
BRANCH   8  12
ATOM     12  C   UNL A   1      34.057  23.111  25.104  1.00  0.00     0.077 A 
ATOM     13  C   UNL A   1      34.305  23.179  23.737  1.00  0.00    -0.026 A 
ATOM     14  C   UNL A   1      35.707  22.945  23.485  1.00  0.00     0.016 A 
ATOM     15  C   UNL A   1      36.439  22.719  24.627  1.00  0.00     0.066 A 
ATOM     16  S   UNL A   1      35.460  22.757  26.020  1.00  0.00    -0.140 S 
BRANCH  13  17
ATOM     17  C   UNL A   1      33.361  23.463  22.586  1.00  0.00     0.034 C 
ATOM     18  C   UNL A   1      33.203  24.895  22.104  1.00  0.00     0.009 C 
ENDBRANCH  13  17
ENDBRANCH   8  12
ENDBRANCH   6   7
ENDBRANCH   5   6
BRANCH   5  19
ATOM     19  C   UNL A   1      31.445  27.278  24.305  1.00  0.00     0.020 C 
BRANCH  19  20
ATOM     20  C   UNL A   1      30.256  28.169  23.871  1.00  0.00    -0.017 C 
ATOM     21  C   UNL A   1      30.499  29.139  22.720  1.00  0.00     0.007 C 
ATOM     22  C   UNL A   1      29.074  27.258  23.504  1.00  0.00     0.007 C 
ENDBRANCH  19  20
ENDBRANCH   5  19
ENDBRANCH   3   5
ENDBRANCH   2   3
ENDBRANCH   1   2
BRANCH   1  23
ATOM     23  C   UNL A   1      34.318  30.479  27.624  1.00  0.00     0.275 C 
BRANCH  23  24
ATOM     24  O   UNL A   1      35.717  30.790  27.664  1.00  0.00    -0.458 OA
BRANCH  24  25
ATOM     25  C   UNL A   1      36.091  31.539  28.721  1.00  0.00     0.338 C 
ATOM     26  O   UNL A   1      35.865  32.719  28.904  1.00  0.00    -0.246 OA
BRANCH  25  27
ATOM     27  C   UNL A   1      37.089  30.879  29.544  1.00  0.00     0.060 A 
ATOM     28  C   UNL A   1      38.361  31.473  29.530  1.00  0.00     0.016 A 
ATOM     29  C   UNL A   1      36.878  29.547  29.901  1.00  0.00     0.016 A 
ATOM     30  C   UNL A   1      39.458  30.662  29.657  1.00  0.00     0.010 A 
ATOM     31  C   UNL A   1      37.976  28.736  30.014  1.00  0.00     0.010 A 
ATOM     32  C   UNL A   1      39.241  29.292  29.816  1.00  0.00    -0.014 A 
BRANCH  32  33
ATOM     33  C   UNL A   1      40.406  28.448  29.900  1.00  0.00     0.031 A 
ATOM     34  C   UNL A   1      40.964  28.377  31.266  1.00  0.00     0.074 A 
ATOM     35  C   UNL A   1      40.815  27.692  28.869  1.00  0.00     0.049 A 
ATOM     36  N   UNL A   1      42.146  28.701  31.665  1.00  0.00    -0.248 NA
ATOM     37  C   UNL A   1      40.023  28.038  32.349  1.00  0.00     0.031 C 
ATOM     38  C   UNL A   1      40.131  27.466  27.592  1.00  0.00     0.029 A 
ATOM     39  N   UNL A   1      41.865  26.835  28.821  1.00  0.00    -0.354 N 
ATOM     40  C   UNL A   1      42.155  28.434  33.029  1.00  0.00     0.074 A 
ATOM     41  C   UNL A   1      40.788  28.215  33.421  1.00  0.00     0.031 C 
ATOM     42  C   UNL A   1      40.643  26.355  27.017  1.00  0.00     0.029 A 
ATOM     43  C   UNL A   1      41.753  25.877  27.827  1.00  0.00     0.049 A 
ATOM     44  H   UNL A   1      42.633  26.889  29.435  1.00  0.00     0.167 HD
ATOM     45  C   UNL A   1      43.305  28.127  33.686  1.00  0.00     0.031 A 
ATOM     46  C   UNL A   1      42.456  24.723  27.753  1.00  0.00     0.031 A 
ATOM     47  C   UNL A   1      44.470  28.570  32.969  1.00  0.00     0.049 A 
ATOM     48  C   UNL A   1      43.629  24.843  28.653  1.00  0.00     0.074 A 
ATOM     49  C   UNL A   1      44.926  29.793  32.520  1.00  0.00     0.029 A 
ATOM     50  N   UNL A   1      45.190  27.622  32.282  1.00  0.00    -0.354 N 
ATOM     51  N   UNL A   1      44.633  25.641  28.432  1.00  0.00    -0.248 NA
ATOM     52  C   UNL A   1      43.497  24.381  30.027  1.00  0.00     0.031 C 
ATOM     53  C   UNL A   1      45.557  29.519  31.271  1.00  0.00     0.029 A 
ATOM     54  C   UNL A   1      45.486  28.142  31.049  1.00  0.00     0.049 A 
ATOM     55  H   UNL A   1      45.445  26.731  32.615  1.00  0.00     0.167 HD
ATOM     56  C   UNL A   1      44.994  26.119  29.684  1.00  0.00     0.074 A 
ATOM     57  C   UNL A   1      44.346  25.218  30.632  1.00  0.00     0.031 C 
ATOM     58  C   UNL A   1      45.542  27.361  29.833  1.00  0.00     0.031 A 
BRANCH  45  59
ATOM     59  C   UNL A   1      43.351  27.045  34.736  1.00  0.00    -0.014 A 
ATOM     60  C   UNL A   1      43.239  25.707  34.329  1.00  0.00     0.009 A 
ATOM     61  C   UNL A   1      43.216  27.299  36.118  1.00  0.00     0.009 A 
ATOM     62  C   UNL A   1      42.932  24.693  35.246  1.00  0.00     0.001 A 
ATOM     63  C   UNL A   1      42.959  26.285  37.041  1.00  0.00     0.001 A 
ATOM     64  C   UNL A   1      42.785  24.985  36.599  1.00  0.00     0.000 A 
ENDBRANCH  45  59
BRANCH  46  65
ATOM     65  C   UNL A   1      42.025  23.430  27.186  1.00  0.00    -0.014 A 
ATOM     66  C   UNL A   1      42.851  22.732  26.294  1.00  0.00     0.009 A 
ATOM     67  C   UNL A   1      40.904  22.757  27.706  1.00  0.00     0.009 A 
ATOM     68  C   UNL A   1      42.582  21.398  25.961  1.00  0.00     0.001 A 
ATOM     69  C   UNL A   1      40.630  21.428  27.368  1.00  0.00     0.001 A 
ATOM     70  C   UNL A   1      41.478  20.744  26.505  1.00  0.00     0.000 A 
ENDBRANCH  46  65
BRANCH  58  71
ATOM     71  C   UNL A   1      45.973  28.093  28.584  1.00  0.00    -0.014 A 
ATOM     72  C   UNL A   1      47.278  28.013  28.068  1.00  0.00     0.009 A 
ATOM     73  C   UNL A   1      44.999  28.761  27.827  1.00  0.00     0.009 A 
ATOM     74  C   UNL A   1      47.608  28.616  26.850  1.00  0.00     0.001 A 
ATOM     75  C   UNL A   1      45.322  29.344  26.600  1.00  0.00     0.001 A 
ATOM     76  C   UNL A   1      46.627  29.278  26.115  1.00  0.00     0.000 A 
ENDBRANCH  58  71
ENDBRANCH  32  33
ENDBRANCH  25  27
ENDBRANCH  24  25
ENDBRANCH  23  24
ENDBRANCH   1  23
TORSDOF 17
ENDMDL
