MODEL 1
REMARK VINA RESULT:     -11.0      0.000      0.000
REMARK SMILES C[C@H]1CC([N@@H+]2[C@@H](C(=O)OCCOC(=O)c3ccc(-c4c5nc(c(-c6ccccc6)c6ccc([nH]6)c(-c6ccccc6)c6nc(c(-c7ccccc7)c7ccc4[nH]7)C=C6)C=C5)cc3)CC[C@@H]3CCCC[C@@H]32)C[C@H](C)C1
REMARK SMILES IDX 11 1 10 2 9 3 7 4 8 5 6 6 5 7 70 8 63 10 65 11 69 12 64 13
REMARK SMILES IDX 66 14 68 15 67 16 4 17 1 18 2 19 3 20 74 21 72 22 71 23
REMARK SMILES IDX 73 24 12 25 13 26 14 27 15 28 16 29 62 30 17 31 61 32 18 33
REMARK SMILES IDX 19 34 20 35 55 36 21 37 60 38 54 39 56 40 22 41 59 42 53 43
REMARK SMILES IDX 52 44 23 46 45 47 30 48 44 49 31 50 34 51 43 52 57 53 32 54
REMARK SMILES IDX 33 55 42 57 58 58 35 59 24 60 25 61 29 62 26 63 28 64 27 65
REMARK SMILES IDX 46 66 47 67 51 68 48 69 50 70 49 71 36 72 37 73 41 74 38 75
REMARK SMILES IDX 40 76 39 77
REMARK H PARENT 5 9 56 45 34 56
REMARK Flexibility Score: inf
ROOT
ATOM      1  C   UNL A   1      35.925  20.321  25.070  1.00  0.00     0.275 C 
ENDROOT
BRANCH   1   2
ATOM      2  C   UNL A   1      34.533  20.682  25.594  1.00  0.00     0.274 C 
BRANCH   2   3
ATOM      3  O   UNL A   1      34.578  21.502  26.783  1.00  0.00    -0.458 OA
BRANCH   3   4
ATOM      4  C   UNL A   1      33.403  22.126  27.085  1.00  0.00     0.365 C 
ATOM      5  O   UNL A   1      32.983  22.265  28.232  1.00  0.00    -0.245 OA
BRANCH   4   6
ATOM      6  C   UNL A   1      32.586  22.522  25.836  1.00  0.00     0.295 C 
ATOM      7  N   UNL A   1      33.133  23.693  25.039  1.00  0.00    -0.318 N 
ATOM      8  C   UNL A   1      33.198  24.877  25.979  1.00  0.00     0.188 C 
ATOM      9  H   UNL A   1      34.073  23.549  24.670  1.00  0.00     0.349 HD
ATOM     10  C   UNL A   1      31.087  22.633  26.230  1.00  0.00     0.078 C 
ATOM     11  C   UNL A   1      31.422  25.219  26.623  1.00  0.00     0.048 C 
ATOM     12  C   UNL A   1      34.306  26.385  25.406  1.00  0.00     0.065 C 
ATOM     13  C   UNL A   1      30.649  23.914  26.957  1.00  0.00     0.016 C 
ATOM     14  C   UNL A   1      30.474  26.790  25.948  1.00  0.00     0.010 C 
ATOM     15  C   UNL A   1      33.443  28.036  24.843  1.00  0.00     0.006 C 
ATOM     16  C   UNL A   1      31.522  28.274  25.208  1.00  0.00     0.001 C 
BRANCH   7  17
ATOM     17  C   UNL A   1      32.206  23.892  23.857  1.00  0.00     0.185 C 
ATOM     18  C   UNL A   1      36.166  23.376  23.045  1.00  0.00     0.008 C 
ATOM     19  C   UNL A   1      34.163  23.299  22.460  1.00  0.00    -0.008 C 
ATOM     20  C   UNL A   1      32.995  24.426  22.693  1.00  0.00     0.068 C 
ATOM     21  C   UNL A   1      33.269  22.530  21.293  1.00  0.00     0.007 C 
ATOM     22  C   UNL A   1      31.966  21.919  21.997  1.00  0.00    -0.008 C 
ATOM     23  C   UNL A   1      31.400  22.687  23.264  1.00  0.00     0.068 C 
ATOM     24  C   UNL A   1      32.149  20.443  22.383  1.00  0.00     0.008 C 
ENDBRANCH   7  17
ENDBRANCH   4   6
ENDBRANCH   3   4
ENDBRANCH   2   3
ENDBRANCH   1   2
BRANCH   1  25
ATOM     25  O   UNL A   1      36.817  21.442  25.198  1.00  0.00    -0.458 OA
BRANCH  25  26
ATOM     26  C   UNL A   1      38.092  21.157  25.558  1.00  0.00     0.338 C 
ATOM     27  O   UNL A   1      38.691  20.120  25.328  1.00  0.00    -0.246 OA
BRANCH  26  28
ATOM     28  C   UNL A   1      38.720  22.318  26.246  1.00  0.00     0.060 A 
ATOM     29  C   UNL A   1      38.201  23.602  26.138  1.00  0.00     0.016 A 
ATOM     30  C   UNL A   1      39.927  22.145  26.930  1.00  0.00     0.016 A 
ATOM     31  C   UNL A   1      38.947  24.699  26.588  1.00  0.00     0.010 A 
ATOM     32  C   UNL A   1      40.616  23.249  27.469  1.00  0.00     0.010 A 
ATOM     33  C   UNL A   1      40.177  24.566  27.252  1.00  0.00    -0.014 A 
BRANCH  33  34
ATOM     34  C   UNL A   1      41.015  25.765  27.638  1.00  0.00     0.031 A 
ATOM     35  C   UNL A   1      40.498  26.811  28.621  1.00  0.00     0.074 A 
ATOM     36  C   UNL A   1      42.280  25.945  27.190  1.00  0.00     0.049 A 
ATOM     37  N   UNL A   1      40.959  28.016  28.874  1.00  0.00    -0.248 NA
ATOM     38  C   UNL A   1      39.318  26.460  29.428  1.00  0.00     0.031 C 
ATOM     39  C   UNL A   1      43.036  25.032  26.333  1.00  0.00     0.029 A 
ATOM     40  N   UNL A   1      43.170  26.977  27.413  1.00  0.00    -0.354 N 
ATOM     41  C   UNL A   1      40.095  28.578  29.811  1.00  0.00     0.074 A 
ATOM     42  C   UNL A   1      39.090  27.579  30.100  1.00  0.00     0.031 C 
ATOM     43  C   UNL A   1      44.286  25.486  26.185  1.00  0.00     0.029 A 
ATOM     44  C   UNL A   1      44.370  26.820  26.761  1.00  0.00     0.049 A 
ATOM     45  H   UNL A   1      42.966  27.753  27.985  1.00  0.00     0.167 HD
ATOM     46  C   UNL A   1      40.115  29.812  30.372  1.00  0.00     0.031 A 
ATOM     47  C   UNL A   1      45.395  27.667  26.531  1.00  0.00     0.031 A 
ATOM     48  C   UNL A   1      41.121  30.815  30.132  1.00  0.00     0.049 A 
ATOM     49  C   UNL A   1      45.306  29.091  26.979  1.00  0.00     0.074 A 
ATOM     50  C   UNL A   1      41.212  32.092  30.664  1.00  0.00     0.029 A 
ATOM     51  N   UNL A   1      42.210  30.655  29.296  1.00  0.00    -0.354 N 
ATOM     52  N   UNL A   1      44.408  29.659  27.743  1.00  0.00    -0.248 NA
ATOM     53  C   UNL A   1      46.341  30.007  26.477  1.00  0.00     0.031 C 
ATOM     54  C   UNL A   1      42.322  32.729  30.095  1.00  0.00     0.029 A 
ATOM     55  C   UNL A   1      42.950  31.826  29.256  1.00  0.00     0.049 A 
ATOM     56  H   UNL A   1      42.428  29.831  28.803  1.00  0.00     0.167 HD
ATOM     57  C   UNL A   1      44.761  31.000  27.805  1.00  0.00     0.074 A 
ATOM     58  C   UNL A   1      45.968  31.158  27.022  1.00  0.00     0.031 C 
ATOM     59  C   UNL A   1      44.128  32.007  28.452  1.00  0.00     0.031 A 
BRANCH  46  60
ATOM     60  C   UNL A   1      38.958  30.198  31.255  1.00  0.00    -0.014 A 
ATOM     61  C   UNL A   1      38.999  30.042  32.648  1.00  0.00     0.009 A 
ATOM     62  C   UNL A   1      37.827  30.793  30.669  1.00  0.00     0.009 A 
ATOM     63  C   UNL A   1      37.917  30.451  33.433  1.00  0.00     0.001 A 
ATOM     64  C   UNL A   1      36.760  31.223  31.458  1.00  0.00     0.001 A 
ATOM     65  C   UNL A   1      36.803  31.045  32.839  1.00  0.00     0.000 A 
ENDBRANCH  46  60
BRANCH  47  66
ATOM     66  C   UNL A   1      46.527  27.216  25.676  1.00  0.00    -0.014 A 
ATOM     67  C   UNL A   1      46.630  27.624  24.341  1.00  0.00     0.009 A 
ATOM     68  C   UNL A   1      47.537  26.402  26.221  1.00  0.00     0.009 A 
ATOM     69  C   UNL A   1      47.734  27.242  23.574  1.00  0.00     0.001 A 
ATOM     70  C   UNL A   1      48.655  26.054  25.464  1.00  0.00     0.001 A 
ATOM     71  C   UNL A   1      48.752  26.473  24.141  1.00  0.00     0.000 A 
ENDBRANCH  47  66
BRANCH  59  72
ATOM     72  C   UNL A   1      44.728  33.377  28.342  1.00  0.00    -0.014 A 
ATOM     73  C   UNL A   1      45.727  33.799  29.233  1.00  0.00     0.009 A 
ATOM     74  C   UNL A   1      44.300  34.254  27.333  1.00  0.00     0.009 A 
ATOM     75  C   UNL A   1      46.265  35.084  29.134  1.00  0.00     0.001 A 
ATOM     76  C   UNL A   1      44.856  35.530  27.222  1.00  0.00     0.001 A 
ATOM     77  C   UNL A   1      45.832  35.946  28.128  1.00  0.00     0.000 A 
ENDBRANCH  59  72
ENDBRANCH  33  34
ENDBRANCH  26  28
ENDBRANCH  25  26
ENDBRANCH   1  25
TORSDOF 12
ENDMDL
MODEL 2
REMARK VINA RESULT:     -10.7      5.292     11.208
REMARK SMILES C[C@H]1CC([N@@H+]2[C@@H](C(=O)OCCOC(=O)c3ccc(-c4c5nc(c(-c6ccccc6)c6ccc([nH]6)c(-c6ccccc6)c6nc(c(-c7ccccc7)c7ccc4[nH]7)C=C6)C=C5)cc3)CC[C@@H]3CCCC[C@@H]32)C[C@H](C)C1
REMARK SMILES IDX 11 1 10 2 9 3 7 4 8 5 6 6 5 7 70 8 63 10 65 11 69 12 64 13
REMARK SMILES IDX 66 14 68 15 67 16 4 17 1 18 2 19 3 20 74 21 72 22 71 23
REMARK SMILES IDX 73 24 12 25 13 26 14 27 15 28 16 29 62 30 17 31 61 32 18 33
REMARK SMILES IDX 19 34 20 35 55 36 21 37 60 38 54 39 56 40 22 41 59 42 53 43
REMARK SMILES IDX 52 44 23 46 45 47 30 48 44 49 31 50 34 51 43 52 57 53 32 54
REMARK SMILES IDX 33 55 42 57 58 58 35 59 24 60 25 61 29 62 26 63 28 64 27 65
REMARK SMILES IDX 46 66 47 67 51 68 48 69 50 70 49 71 36 72 37 73 41 74 38 75
REMARK SMILES IDX 40 76 39 77
REMARK H PARENT 5 9 56 45 34 56
REMARK Flexibility Score: inf
ROOT
ATOM      1  C   UNL A   1      44.515  22.422  24.048  1.00  0.00     0.275 C 
ENDROOT
BRANCH   1   2
ATOM      2  C   UNL A   1      45.943  22.941  24.233  1.00  0.00     0.274 C 
BRANCH   2   3
ATOM      3  O   UNL A   1      45.985  24.287  24.755  1.00  0.00    -0.458 OA
BRANCH   3   4
ATOM      4  C   UNL A   1      46.896  24.480  25.752  1.00  0.00     0.365 C 
ATOM      5  O   UNL A   1      47.050  23.703  26.692  1.00  0.00    -0.245 OA
BRANCH   4   6
ATOM      6  C   UNL A   1      47.623  25.840  25.657  1.00  0.00     0.295 C 
ATOM      7  N   UNL A   1      48.117  26.412  26.974  1.00  0.00    -0.318 N 
ATOM      8  C   UNL A   1      46.909  26.562  27.874  1.00  0.00     0.188 C 
ATOM      9  H   UNL A   1      48.787  25.821  27.464  1.00  0.00     0.349 HD
ATOM     10  C   UNL A   1      46.765  26.808  24.795  1.00  0.00     0.078 C 
ATOM     11  C   UNL A   1      45.667  27.739  27.004  1.00  0.00     0.048 C 
ATOM     12  C   UNL A   1      47.269  26.803  29.782  1.00  0.00     0.065 C 
ATOM     13  C   UNL A   1      45.557  27.469  25.479  1.00  0.00     0.016 C 
ATOM     14  C   UNL A   1      45.453  29.550  27.710  1.00  0.00     0.010 C 
ATOM     15  C   UNL A   1      46.955  28.543  30.594  1.00  0.00     0.006 C 
ATOM     16  C   UNL A   1      45.951  29.897  29.576  1.00  0.00     0.001 C 
BRANCH   7  17
ATOM     17  C   UNL A   1      48.813  27.718  26.651  1.00  0.00     0.185 C 
ATOM     18  C   UNL A   1      50.528  25.352  29.490  1.00  0.00     0.008 C 
ATOM     19  C   UNL A   1      50.665  26.864  28.057  1.00  0.00    -0.008 C 
ATOM     20  C   UNL A   1      49.654  28.135  27.827  1.00  0.00     0.068 C 
ATOM     21  C   UNL A   1      51.860  27.577  27.156  1.00  0.00     0.007 C 
ATOM     22  C   UNL A   1      51.341  27.675  25.643  1.00  0.00    -0.008 C 
ATOM     23  C   UNL A   1      49.778  27.826  25.422  1.00  0.00     0.068 C 
ATOM     24  C   UNL A   1      51.828  26.499  24.782  1.00  0.00     0.008 C 
ENDBRANCH   7  17
ENDBRANCH   4   6
ENDBRANCH   3   4
ENDBRANCH   2   3
ENDBRANCH   1   2
BRANCH   1  25
ATOM     25  O   UNL A   1      43.562  23.404  24.485  1.00  0.00    -0.458 OA
BRANCH  25  26
ATOM     26  C   UNL A   1      42.631  22.983  25.376  1.00  0.00     0.338 C 
ATOM     27  O   UNL A   1      42.264  21.833  25.546  1.00  0.00    -0.246 OA
BRANCH  26  28
ATOM     28  C   UNL A   1      42.125  24.122  26.191  1.00  0.00     0.060 A 
ATOM     29  C   UNL A   1      42.459  25.438  25.899  1.00  0.00     0.016 A 
ATOM     30  C   UNL A   1      41.386  23.866  27.350  1.00  0.00     0.016 A 
ATOM     31  C   UNL A   1      42.175  26.454  26.820  1.00  0.00     0.010 A 
ATOM     32  C   UNL A   1      41.016  24.914  28.216  1.00  0.00     0.010 A 
ATOM     33  C   UNL A   1      41.461  26.230  28.009  1.00  0.00    -0.014 A 
BRANCH  33  34
ATOM     34  C   UNL A   1      41.253  27.319  29.038  1.00  0.00     0.031 A 
ATOM     35  C   UNL A   1      42.166  27.447  30.255  1.00  0.00     0.074 A 
ATOM     36  C   UNL A   1      40.297  28.269  28.910  1.00  0.00     0.049 A 
ATOM     37  N   UNL A   1      41.993  28.145  31.355  1.00  0.00    -0.248 NA
ATOM     38  C   UNL A   1      43.436  26.705  30.231  1.00  0.00     0.031 C 
ATOM     39  C   UNL A   1      39.375  28.427  27.786  1.00  0.00     0.029 A 
ATOM     40  N   UNL A   1      39.949  29.308  29.751  1.00  0.00    -0.354 N 
ATOM     41  C   UNL A   1      43.092  27.874  32.167  1.00  0.00     0.074 A 
ATOM     42  C   UNL A   1      43.939  26.964  31.429  1.00  0.00     0.031 C 
ATOM     43  C   UNL A   1      38.646  29.537  27.955  1.00  0.00     0.029 A 
ATOM     44  C   UNL A   1      38.896  30.061  29.290  1.00  0.00     0.049 A 
ATOM     45  H   UNL A   1      40.411  29.493  30.601  1.00  0.00     0.167 HD
ATOM     46  C   UNL A   1      43.372  28.321  33.417  1.00  0.00     0.031 A 
ATOM     47  C   UNL A   1      38.119  30.992  29.881  1.00  0.00     0.031 A 
ATOM     48  C   UNL A   1      42.567  29.254  34.163  1.00  0.00     0.049 A 
ATOM     49  C   UNL A   1      38.311  31.321  31.327  1.00  0.00     0.074 A 
ATOM     50  C   UNL A   1      42.785  29.757  35.436  1.00  0.00     0.029 A 
ATOM     51  N   UNL A   1      41.397  29.828  33.704  1.00  0.00    -0.354 N 
ATOM     52  N   UNL A   1      39.269  30.945  32.137  1.00  0.00    -0.248 NA
ATOM     53  C   UNL A   1      37.275  32.152  31.959  1.00  0.00     0.031 C 
ATOM     54  C   UNL A   1      41.707  30.585  35.774  1.00  0.00     0.029 A 
ATOM     55  C   UNL A   1      40.852  30.639  34.688  1.00  0.00     0.049 A 
ATOM     56  H   UNL A   1      41.007  29.683  32.812  1.00  0.00     0.167 HD
ATOM     57  C   UNL A   1      38.946  31.483  33.375  1.00  0.00     0.074 A 
ATOM     58  C   UNL A   1      37.718  32.231  33.207  1.00  0.00     0.031 C 
ATOM     59  C   UNL A   1      39.614  31.355  34.546  1.00  0.00     0.031 A 
BRANCH  46  60
ATOM     60  C   UNL A   1      44.574  27.741  34.113  1.00  0.00    -0.014 A 
ATOM     61  C   UNL A   1      44.518  26.522  34.805  1.00  0.00     0.009 A 
ATOM     62  C   UNL A   1      45.806  28.411  34.012  1.00  0.00     0.009 A 
ATOM     63  C   UNL A   1      45.668  26.001  35.404  1.00  0.00     0.001 A 
ATOM     64  C   UNL A   1      46.956  27.875  34.590  1.00  0.00     0.001 A 
ATOM     65  C   UNL A   1      46.885  26.674  35.292  1.00  0.00     0.000 A 
ENDBRANCH  46  60
BRANCH  47  66
ATOM     66  C   UNL A   1      36.963  31.553  29.129  1.00  0.00    -0.014 A 
ATOM     67  C   UNL A   1      35.799  30.802  28.930  1.00  0.00     0.009 A 
ATOM     68  C   UNL A   1      37.015  32.872  28.643  1.00  0.00     0.009 A 
ATOM     69  C   UNL A   1      34.701  31.368  28.277  1.00  0.00     0.001 A 
ATOM     70  C   UNL A   1      35.905  33.447  28.025  1.00  0.00     0.001 A 
ATOM     71  C   UNL A   1      34.750  32.694  27.842  1.00  0.00     0.000 A 
ENDBRANCH  47  66
BRANCH  59  72
ATOM     72  C   UNL A   1      39.030  32.040  35.746  1.00  0.00    -0.014 A 
ATOM     73  C   UNL A   1      39.343  33.378  36.033  1.00  0.00     0.009 A 
ATOM     74  C   UNL A   1      38.153  31.348  36.595  1.00  0.00     0.009 A 
ATOM     75  C   UNL A   1      38.810  34.001  37.164  1.00  0.00     0.001 A 
ATOM     76  C   UNL A   1      37.603  31.980  37.712  1.00  0.00     0.001 A 
ATOM     77  C   UNL A   1      37.939  33.303  38.000  1.00  0.00     0.000 A 
ENDBRANCH  59  72
ENDBRANCH  33  34
ENDBRANCH  26  28
ENDBRANCH  25  26
ENDBRANCH   1  25
TORSDOF 12
ENDMDL
MODEL 3
REMARK VINA RESULT:     -10.6      4.786      9.873
REMARK SMILES C[C@H]1CC([N@@H+]2[C@@H](C(=O)OCCOC(=O)c3ccc(-c4c5nc(c(-c6ccccc6)c6ccc([nH]6)c(-c6ccccc6)c6nc(c(-c7ccccc7)c7ccc4[nH]7)C=C6)C=C5)cc3)CC[C@@H]3CCCC[C@@H]32)C[C@H](C)C1
REMARK SMILES IDX 11 1 10 2 9 3 7 4 8 5 6 6 5 7 70 8 63 10 65 11 69 12 64 13
REMARK SMILES IDX 66 14 68 15 67 16 4 17 1 18 2 19 3 20 74 21 72 22 71 23
REMARK SMILES IDX 73 24 12 25 13 26 14 27 15 28 16 29 62 30 17 31 61 32 18 33
REMARK SMILES IDX 19 34 20 35 55 36 21 37 60 38 54 39 56 40 22 41 59 42 53 43
REMARK SMILES IDX 52 44 23 46 45 47 30 48 44 49 31 50 34 51 43 52 57 53 32 54
REMARK SMILES IDX 33 55 42 57 58 58 35 59 24 60 25 61 29 62 26 63 28 64 27 65
REMARK SMILES IDX 46 66 47 67 51 68 48 69 50 70 49 71 36 72 37 73 41 74 38 75
REMARK SMILES IDX 40 76 39 77
REMARK H PARENT 5 9 56 45 34 56
REMARK Flexibility Score: inf
ROOT
ATOM      1  C   UNL A   1      34.685  32.459  28.327  1.00  0.00     0.275 C 
ENDROOT
BRANCH   1   2
ATOM      2  C   UNL A   1      34.693  33.452  29.490  1.00  0.00     0.274 C 
BRANCH   2   3
ATOM      3  O   UNL A   1      36.017  33.934  29.806  1.00  0.00    -0.458 OA
BRANCH   3   4
ATOM      4  C   UNL A   1      36.388  33.760  31.108  1.00  0.00     0.365 C 
ATOM      5  O   UNL A   1      35.894  34.385  32.044  1.00  0.00    -0.245 OA
BRANCH   4   6
ATOM      6  C   UNL A   1      37.584  32.798  31.275  1.00  0.00     0.295 C 
ATOM      7  N   UNL A   1      38.447  33.034  32.502  1.00  0.00    -0.318 N 
ATOM      8  C   UNL A   1      38.966  34.453  32.414  1.00  0.00     0.188 C 
ATOM      9  H   UNL A   1      37.951  32.948  33.389  1.00  0.00     0.349 HD
ATOM     10  C   UNL A   1      38.357  32.718  29.929  1.00  0.00     0.078 C 
ATOM     11  C   UNL A   1      39.976  34.613  30.789  1.00  0.00     0.048 C 
ATOM     12  C   UNL A   1      39.692  35.218  34.063  1.00  0.00     0.065 C 
ATOM     13  C   UNL A   1      39.303  33.883  29.596  1.00  0.00     0.016 C 
ATOM     14  C   UNL A   1      41.923  34.729  30.913  1.00  0.00     0.010 C 
ATOM     15  C   UNL A   1      41.612  35.491  34.216  1.00  0.00     0.006 C 
ATOM     16  C   UNL A   1      42.724  35.337  32.598  1.00  0.00     0.001 C 
BRANCH   7  17
ATOM     17  C   UNL A   1      39.532  31.976  32.485  1.00  0.00     0.185 C 
ATOM     18  C   UNL A   1      37.852  32.855  36.092  1.00  0.00     0.008 C 
ATOM     19  C   UNL A   1      38.895  31.549  34.840  1.00  0.00    -0.008 C 
ATOM     20  C   UNL A   1      40.158  31.886  33.850  1.00  0.00     0.068 C 
ATOM     21  C   UNL A   1      39.201  29.920  34.770  1.00  0.00     0.007 C 
ATOM     22  C   UNL A   1      38.940  29.437  33.266  1.00  0.00    -0.008 C 
ATOM     23  C   UNL A   1      39.196  30.493  32.111  1.00  0.00     0.068 C 
ATOM     24  C   UNL A   1      37.529  28.860  33.074  1.00  0.00     0.008 C 
ENDBRANCH   7  17
ENDBRANCH   4   6
ENDBRANCH   3   4
ENDBRANCH   2   3
ENDBRANCH   1   2
BRANCH   1  25
ATOM     25  O   UNL A   1      34.445  31.125  28.806  1.00  0.00    -0.458 OA
BRANCH  25  26
ATOM     26  C   UNL A   1      34.901  30.115  28.025  1.00  0.00     0.338 C 
ATOM     27  O   UNL A   1      34.245  29.470  27.225  1.00  0.00    -0.246 OA
BRANCH  26  28
ATOM     28  C   UNL A   1      36.362  29.910  28.223  1.00  0.00     0.060 A 
ATOM     29  C   UNL A   1      37.283  30.183  27.220  1.00  0.00     0.016 A 
ATOM     30  C   UNL A   1      36.823  29.323  29.406  1.00  0.00     0.016 A 
ATOM     31  C   UNL A   1      38.610  29.750  27.349  1.00  0.00     0.010 A 
ATOM     32  C   UNL A   1      38.182  28.987  29.563  1.00  0.00     0.010 A 
ATOM     33  C   UNL A   1      39.100  29.129  28.510  1.00  0.00    -0.014 A 
BRANCH  33  34
ATOM     34  C   UNL A   1      40.507  28.578  28.592  1.00  0.00     0.031 A 
ATOM     35  C   UNL A   1      41.684  29.461  28.997  1.00  0.00     0.074 A 
ATOM     36  C   UNL A   1      40.792  27.273  28.374  1.00  0.00     0.049 A 
ATOM     37  N   UNL A   1      42.973  29.236  28.880  1.00  0.00    -0.248 NA
ATOM     38  C   UNL A   1      41.375  30.758  29.621  1.00  0.00     0.031 C 
ATOM     39  C   UNL A   1      39.829  26.211  28.082  1.00  0.00     0.029 A 
ATOM     40  N   UNL A   1      42.003  26.607  28.379  1.00  0.00    -0.354 N 
ATOM     41  C   UNL A   1      43.615  30.379  29.351  1.00  0.00     0.074 A 
ATOM     42  C   UNL A   1      42.578  31.292  29.776  1.00  0.00     0.031 C 
ATOM     43  C   UNL A   1      40.461  25.032  28.034  1.00  0.00     0.029 A 
ATOM     44  C   UNL A   1      41.896  25.268  28.086  1.00  0.00     0.049 A 
ATOM     45  H   UNL A   1      42.861  27.050  28.573  1.00  0.00     0.167 HD
ATOM     46  C   UNL A   1      44.940  30.660  29.413  1.00  0.00     0.031 A 
ATOM     47  C   UNL A   1      42.816  24.333  27.774  1.00  0.00     0.031 A 
ATOM     48  C   UNL A   1      45.997  29.759  29.031  1.00  0.00     0.049 A 
ATOM     49  C   UNL A   1      44.257  24.712  27.643  1.00  0.00     0.074 A 
ATOM     50  C   UNL A   1      47.367  29.970  29.066  1.00  0.00     0.029 A 
ATOM     51  N   UNL A   1      45.806  28.477  28.551  1.00  0.00    -0.354 N 
ATOM     52  N   UNL A   1      44.842  25.843  27.947  1.00  0.00    -0.248 NA
ATOM     53  C   UNL A   1      45.155  23.704  27.060  1.00  0.00     0.031 C 
ATOM     54  C   UNL A   1      48.002  28.838  28.540  1.00  0.00     0.029 A 
ATOM     55  C   UNL A   1      47.027  27.904  28.235  1.00  0.00     0.049 A 
ATOM     56  H   UNL A   1      44.931  28.037  28.448  1.00  0.00     0.167 HD
ATOM     57  C   UNL A   1      46.173  25.687  27.584  1.00  0.00     0.074 A 
ATOM     58  C   UNL A   1      46.316  24.346  27.059  1.00  0.00     0.031 C 
ATOM     59  C   UNL A   1      47.179  26.588  27.676  1.00  0.00     0.031 A 
BRANCH  46  60
ATOM     60  C   UNL A   1      45.342  32.047  29.840  1.00  0.00    -0.014 A 
ATOM     61  C   UNL A   1      45.409  33.115  28.933  1.00  0.00     0.009 A 
ATOM     62  C   UNL A   1      45.593  32.292  31.201  1.00  0.00     0.009 A 
ATOM     63  C   UNL A   1      45.748  34.395  29.380  1.00  0.00     0.001 A 
ATOM     64  C   UNL A   1      45.906  33.576  31.647  1.00  0.00     0.001 A 
ATOM     65  C   UNL A   1      45.991  34.625  30.735  1.00  0.00     0.000 A 
ENDBRANCH  46  60
BRANCH  47  66
ATOM     66  C   UNL A   1      42.360  22.969  27.391  1.00  0.00    -0.014 A 
ATOM     67  C   UNL A   1      42.298  21.937  28.336  1.00  0.00     0.009 A 
ATOM     68  C   UNL A   1      41.942  22.712  26.073  1.00  0.00     0.009 A 
ATOM     69  C   UNL A   1      41.807  20.681  27.972  1.00  0.00     0.001 A 
ATOM     70  C   UNL A   1      41.418  21.468  25.722  1.00  0.00     0.001 A 
ATOM     71  C   UNL A   1      41.352  20.454  26.672  1.00  0.00     0.000 A 
ENDBRANCH  47  66
BRANCH  59  72
ATOM     72  C   UNL A   1      48.533  26.155  27.196  1.00  0.00    -0.014 A 
ATOM     73  C   UNL A   1      48.970  26.469  25.899  1.00  0.00     0.009 A 
ATOM     74  C   UNL A   1      49.384  25.435  28.047  1.00  0.00     0.009 A 
ATOM     75  C   UNL A   1      50.224  26.044  25.455  1.00  0.00     0.001 A 
ATOM     76  C   UNL A   1      50.647  25.032  27.608  1.00  0.00     0.001 A 
ATOM     77  C   UNL A   1      51.062  25.329  26.310  1.00  0.00     0.000 A 
ENDBRANCH  59  72
ENDBRANCH  33  34
ENDBRANCH  26  28
ENDBRANCH  25  26
ENDBRANCH   1  25
TORSDOF 12
ENDMDL
