MODEL 1
REMARK VINA RESULT:     -10.8      0.000      0.000
REMARK SMILES Cc1c(CC(=O)N[C@@H](CCO)C(=O)OCCOC(=O)c2ccc(-c3c4nc(c(-c5ccccc5)c5ccc([nH]5)c(-c5ccccc5)c5nc(c(-c6ccccc6)c6ccc3[nH]6)C=C5)C=C4)cc2)cc(-c2ccc(S(C)(=O)=O)cc2)n1-c1ccc(F)cc1
REMARK SMILES IDX 14 1 12 2 13 3 8 4 7 5 5 6 6 7 4 9 3 10 1 11 2 12 80 13
REMARK SMILES IDX 68 14 69 15 81 16 82 17 87 18 83 19 86 20 84 21 85 22 70 23
REMARK SMILES IDX 71 24 79 25 72 26 78 27 73 28 74 29 75 30 76 31 77 32 9 33
REMARK SMILES IDX 10 34 11 35 15 37 16 38 17 39 18 40 19 41 20 42 21 43 67 44
REMARK SMILES IDX 22 45 66 46 23 47 24 48 25 49 60 50 26 51 65 52 59 53 61 54
REMARK SMILES IDX 27 55 64 56 58 57 57 58 28 60 50 61 35 62 49 63 36 64 39 65
REMARK SMILES IDX 48 66 62 67 37 68 38 69 47 71 63 72 40 73 29 74 30 75 34 76
REMARK SMILES IDX 31 77 33 78 32 79 51 80 52 81 56 82 53 83 55 84 54 85 41 86
REMARK SMILES IDX 42 87 46 88 43 89 45 90 44 91
REMARK H PARENT 7 8 11 36 61 59 39 70
REMARK Flexibility Score: inf
ROOT
ATOM      1  O   UNL A   1      35.625  20.738  24.708  1.00  0.00    -0.461 OA
ENDROOT
BRANCH   1   2
ATOM      2  C   UNL A   1      34.698  20.711  25.710  1.00  0.00     0.328 C 
ATOM      3  O   UNL A   1      34.765  21.380  26.734  1.00  0.00    -0.250 OA
BRANCH   2   4
ATOM      4  C   UNL A   1      33.486  19.818  25.365  1.00  0.00     0.194 C 
BRANCH   4   5
ATOM      5  N   UNL A   1      32.164  20.324  25.755  1.00  0.00    -0.342 N 
ATOM      6  C   UNL A   1      31.536  21.472  25.360  1.00  0.00     0.225 C 
ATOM      7  O   UNL A   1      30.428  21.714  25.843  1.00  0.00    -0.275 OA
ATOM      8  H   UNL A   1      31.661  19.760  26.386  1.00  0.00     0.164 HD
BRANCH   6   9
ATOM      9  C   UNL A   1      32.172  22.394  24.323  1.00  0.00     0.137 C 
BRANCH   9  10
ATOM     10  C   UNL A   1      31.880  23.852  24.551  1.00  0.00    -0.017 A 
ATOM     11  C   UNL A   1      33.633  24.448  26.363  1.00  0.00     0.065 C 
ATOM     12  C   UNL A   1      32.552  24.744  25.375  1.00  0.00     0.024 A 
ATOM     13  N   UNL A   1      31.997  26.010  25.194  1.00  0.00    -0.314 N 
ATOM     14  C   UNL A   1      30.834  24.583  23.924  1.00  0.00     0.033 A 
ATOM     15  C   UNL A   1      30.971  25.919  24.251  1.00  0.00     0.053 A 
BRANCH  13  16
ATOM     16  C   UNL A   1      32.408  27.209  25.839  1.00  0.00     0.046 A 
ATOM     17  C   UNL A   1      31.561  27.807  26.784  1.00  0.00     0.029 A 
ATOM     18  C   UNL A   1      33.609  27.829  25.472  1.00  0.00     0.029 A 
ATOM     19  C   UNL A   1      31.914  29.027  27.356  1.00  0.00     0.041 A 
ATOM     20  C   UNL A   1      33.949  29.057  26.041  1.00  0.00     0.041 A 
ATOM     21  C   UNL A   1      33.100  29.644  26.974  1.00  0.00     0.123 A 
ATOM     22  F   UNL A   1      33.423  30.829  27.505  1.00  0.00    -0.207 F 
ENDBRANCH  13  16
BRANCH  15  23
ATOM     23  C   UNL A   1      30.262  27.061  23.651  1.00  0.00    -0.001 A 
ATOM     24  C   UNL A   1      30.959  28.042  22.925  1.00  0.00     0.011 A 
ATOM     25  C   UNL A   1      28.873  27.179  23.785  1.00  0.00     0.011 A 
ATOM     26  C   UNL A   1      30.294  29.150  22.394  1.00  0.00     0.021 A 
ATOM     27  C   UNL A   1      28.198  28.282  23.255  1.00  0.00     0.021 A 
ATOM     28  C   UNL A   1      28.916  29.273  22.579  1.00  0.00     0.067 A 
BRANCH  28  29
ATOM     29  S   UNL A   1      28.065  30.682  21.909  1.00  0.00     0.175 S 
ATOM     30  C   UNL A   1      29.177  32.037  22.184  1.00  0.00     0.163 C 
ATOM     31  O   UNL A   1      27.966  30.466  20.469  1.00  0.00    -0.224 OA
ATOM     32  O   UNL A   1      26.887  30.913  22.708  1.00  0.00    -0.224 OA
ENDBRANCH  28  29
ENDBRANCH  15  23
ENDBRANCH   9  10
ENDBRANCH   6   9
ENDBRANCH   4   5
BRANCH   4  33
ATOM     33  C   UNL A   1      33.467  19.309  23.913  1.00  0.00     0.065 C 
BRANCH  33  34
ATOM     34  C   UNL A   1      32.738  17.990  23.688  1.00  0.00     0.159 C 
BRANCH  34  35
ATOM     35  O   UNL A   1      31.898  17.685  24.787  1.00  0.00    -0.396 OA
ATOM     36  H   UNL A   1      31.500  16.810  24.656  1.00  0.00     0.210 HD
ENDBRANCH  34  35
ENDBRANCH  33  34
ENDBRANCH   4  33
ENDBRANCH   2   4
ENDBRANCH   1   2
BRANCH   1  37
ATOM     37  C   UNL A   1      36.981  20.345  25.052  1.00  0.00     0.274 C 
BRANCH  37  38
ATOM     38  C   UNL A   1      37.971  21.538  24.906  1.00  0.00     0.275 C 
BRANCH  38  39
ATOM     39  O   UNL A   1      38.641  22.077  26.111  1.00  0.00    -0.458 OA
BRANCH  39  40
ATOM     40  C   UNL A   1      38.362  23.370  26.489  1.00  0.00     0.338 C 
ATOM     41  O   UNL A   1      37.290  23.913  26.251  1.00  0.00    -0.246 OA
BRANCH  40  42
ATOM     42  C   UNL A   1      39.486  24.103  27.263  1.00  0.00     0.060 A 
ATOM     43  C   UNL A   1      39.256  25.368  27.785  1.00  0.00     0.016 A 
ATOM     44  C   UNL A   1      40.847  23.717  27.302  1.00  0.00     0.016 A 
ATOM     45  C   UNL A   1      40.322  26.149  28.385  1.00  0.00     0.010 A 
ATOM     46  C   UNL A   1      41.949  24.557  27.862  1.00  0.00     0.010 A 
ATOM     47  C   UNL A   1      41.737  25.820  28.448  1.00  0.00    -0.014 A 
BRANCH  47  48
ATOM     48  C   UNL A   1      42.815  27.072  28.801  1.00  0.00     0.031 A 
ATOM     49  C   UNL A   1      43.987  26.298  29.290  1.00  0.00     0.074 A 
ATOM     50  C   UNL A   1      43.006  28.462  29.020  1.00  0.00     0.049 A 
ATOM     51  N   UNL A   1      43.792  25.529  30.322  1.00  0.00    -0.248 NA
ATOM     52  C   UNL A   1      45.197  26.004  28.528  1.00  0.00     0.031 C 
ATOM     53  C   UNL A   1      41.988  29.531  29.076  1.00  0.00     0.029 A 
ATOM     54  N   UNL A   1      44.183  29.289  29.274  1.00  0.00    -0.354 N 
ATOM     55  C   UNL A   1      44.961  24.849  30.531  1.00  0.00     0.074 A 
ATOM     56  C   UNL A   1      45.694  25.014  29.282  1.00  0.00     0.031 C 
ATOM     57  C   UNL A   1      42.537  30.784  29.159  1.00  0.00     0.029 A 
ATOM     58  C   UNL A   1      44.001  30.742  29.220  1.00  0.00     0.049 A 
ATOM     59  H   UNL A   1      45.061  28.890  29.472  1.00  0.00     0.167 HD
ATOM     60  C   UNL A   1      45.423  24.917  31.813  1.00  0.00     0.031 A 
ATOM     61  C   UNL A   1      44.904  31.823  29.305  1.00  0.00     0.031 A 
ATOM     62  C   UNL A   1      46.446  25.919  31.943  1.00  0.00     0.049 A 
ATOM     63  C   UNL A   1      45.994  31.350  30.161  1.00  0.00     0.074 A 
ATOM     64  C   UNL A   1      47.550  26.227  31.172  1.00  0.00     0.029 A 
ATOM     65  N   UNL A   1      46.152  27.041  32.684  1.00  0.00    -0.354 N 
ATOM     66  N   UNL A   1      45.869  31.360  31.452  1.00  0.00    -0.248 NA
ATOM     67  C   UNL A   1      47.320  31.017  29.662  1.00  0.00     0.031 C 
ATOM     68  C   UNL A   1      47.595  27.634  31.133  1.00  0.00     0.029 A 
ATOM     69  C   UNL A   1      46.812  28.136  32.163  1.00  0.00     0.049 A 
ATOM     70  H   UNL A   1      45.559  27.060  33.470  1.00  0.00     0.167 HD
ATOM     71  C   UNL A   1      46.842  30.501  31.852  1.00  0.00     0.074 A 
ATOM     72  C   UNL A   1      47.843  30.552  30.800  1.00  0.00     0.031 C 
ATOM     73  C   UNL A   1      46.415  29.452  32.599  1.00  0.00     0.031 A 
BRANCH  60  74
ATOM     74  C   UNL A   1      44.345  24.628  32.835  1.00  0.00    -0.014 A 
ATOM     75  C   UNL A   1      43.903  25.668  33.659  1.00  0.00     0.009 A 
ATOM     76  C   UNL A   1      43.940  23.312  33.155  1.00  0.00     0.009 A 
ATOM     77  C   UNL A   1      43.154  25.392  34.811  1.00  0.00     0.001 A 
ATOM     78  C   UNL A   1      43.236  23.033  34.327  1.00  0.00     0.001 A 
ATOM     79  C   UNL A   1      42.852  24.075  35.162  1.00  0.00     0.000 A 
ENDBRANCH  60  74
BRANCH  61  80
ATOM     80  C   UNL A   1      45.161  33.384  29.125  1.00  0.00    -0.014 A 
ATOM     81  C   UNL A   1      46.419  33.967  29.541  1.00  0.00     0.009 A 
ATOM     82  C   UNL A   1      44.476  34.176  28.193  1.00  0.00     0.009 A 
ATOM     83  C   UNL A   1      47.001  35.128  28.978  1.00  0.00     0.001 A 
ATOM     84  C   UNL A   1      45.043  35.375  27.651  1.00  0.00     0.001 A 
ATOM     85  C   UNL A   1      46.317  35.826  28.005  1.00  0.00     0.000 A 
ENDBRANCH  61  80
BRANCH  73  86
ATOM     86  C   UNL A   1      45.364  29.718  33.669  1.00  0.00    -0.014 A 
ATOM     87  C   UNL A   1      43.980  29.454  33.559  1.00  0.00     0.009 A 
ATOM     88  C   UNL A   1      45.801  30.301  34.867  1.00  0.00     0.009 A 
ATOM     89  C   UNL A   1      43.078  29.795  34.575  1.00  0.00     0.001 A 
ATOM     90  C   UNL A   1      44.910  30.596  35.904  1.00  0.00     0.001 A 
ATOM     91  C   UNL A   1      43.547  30.356  35.753  1.00  0.00     0.000 A 
ENDBRANCH  73  86
ENDBRANCH  47  48
ENDBRANCH  40  42
ENDBRANCH  39  40
ENDBRANCH  38  39
ENDBRANCH  37  38
ENDBRANCH   1  37
TORSDOF 20
ENDMDL
MODEL 2
REMARK VINA RESULT:     -10.8      2.662      4.832
REMARK SMILES Cc1c(CC(=O)N[C@@H](CCO)C(=O)OCCOC(=O)c2ccc(-c3c4nc(c(-c5ccccc5)c5ccc([nH]5)c(-c5ccccc5)c5nc(c(-c6ccccc6)c6ccc3[nH]6)C=C5)C=C4)cc2)cc(-c2ccc(S(C)(=O)=O)cc2)n1-c1ccc(F)cc1
REMARK SMILES IDX 14 1 12 2 13 3 8 4 7 5 5 6 6 7 4 9 3 10 1 11 2 12 80 13
REMARK SMILES IDX 68 14 69 15 81 16 82 17 87 18 83 19 86 20 84 21 85 22 70 23
REMARK SMILES IDX 71 24 79 25 72 26 78 27 73 28 74 29 75 30 76 31 77 32 9 33
REMARK SMILES IDX 10 34 11 35 15 37 16 38 17 39 18 40 19 41 20 42 21 43 67 44
REMARK SMILES IDX 22 45 66 46 23 47 24 48 25 49 60 50 26 51 65 52 59 53 61 54
REMARK SMILES IDX 27 55 64 56 58 57 57 58 28 60 50 61 35 62 49 63 36 64 39 65
REMARK SMILES IDX 48 66 62 67 37 68 38 69 47 71 63 72 40 73 29 74 30 75 34 76
REMARK SMILES IDX 31 77 33 78 32 79 51 80 52 81 56 82 53 83 55 84 54 85 41 86
REMARK SMILES IDX 42 87 46 88 43 89 45 90 44 91
REMARK H PARENT 7 8 11 36 61 59 39 70
REMARK Flexibility Score: inf
ROOT
ATOM      1  O   UNL A   1      35.500  20.367  24.468  1.00  0.00    -0.461 OA
ENDROOT
BRANCH   1   2
ATOM      2  C   UNL A   1      34.562  20.496  25.451  1.00  0.00     0.328 C 
ATOM      3  O   UNL A   1      34.689  21.207  26.441  1.00  0.00    -0.250 OA
BRANCH   2   4
ATOM      4  C   UNL A   1      33.263  19.725  25.128  1.00  0.00     0.194 C 
BRANCH   4   5
ATOM      5  N   UNL A   1      32.013  20.295  25.648  1.00  0.00    -0.342 N 
ATOM      6  C   UNL A   1      31.438  21.501  25.360  1.00  0.00     0.225 C 
ATOM      7  O   UNL A   1      30.390  21.789  25.943  1.00  0.00    -0.275 OA
ATOM      8  H   UNL A   1      31.524  19.733  26.290  1.00  0.00     0.164 HD
BRANCH   6   9
ATOM      9  C   UNL A   1      32.053  22.433  24.320  1.00  0.00     0.137 C 
BRANCH   9  10
ATOM     10  C   UNL A   1      31.792  23.891  24.585  1.00  0.00    -0.017 A 
ATOM     11  C   UNL A   1      33.585  24.415  26.380  1.00  0.00     0.065 C 
ATOM     12  C   UNL A   1      32.493  24.752  25.417  1.00  0.00     0.024 A 
ATOM     13  N   UNL A   1      31.958  26.031  25.273  1.00  0.00    -0.314 N 
ATOM     14  C   UNL A   1      30.749  24.654  23.992  1.00  0.00     0.033 A 
ATOM     15  C   UNL A   1      30.915  25.980  24.346  1.00  0.00     0.053 A 
BRANCH  13  16
ATOM     16  C   UNL A   1      32.402  27.208  25.938  1.00  0.00     0.046 A 
ATOM     17  C   UNL A   1      31.570  27.813  26.892  1.00  0.00     0.029 A 
ATOM     18  C   UNL A   1      33.619  27.801  25.580  1.00  0.00     0.029 A 
ATOM     19  C   UNL A   1      31.956  29.015  27.483  1.00  0.00     0.041 A 
ATOM     20  C   UNL A   1      33.992  29.010  26.170  1.00  0.00     0.041 A 
ATOM     21  C   UNL A   1      33.159  29.605  27.112  1.00  0.00     0.123 A 
ATOM     22  F   UNL A   1      33.514  30.772  27.661  1.00  0.00    -0.207 F 
ENDBRANCH  13  16
BRANCH  15  23
ATOM     23  C   UNL A   1      30.218  27.147  23.783  1.00  0.00    -0.001 A 
ATOM     24  C   UNL A   1      28.815  27.222  23.790  1.00  0.00     0.011 A 
ATOM     25  C   UNL A   1      30.949  28.213  23.242  1.00  0.00     0.011 A 
ATOM     26  C   UNL A   1      28.151  28.309  23.215  1.00  0.00     0.021 A 
ATOM     27  C   UNL A   1      30.294  29.306  22.667  1.00  0.00     0.021 A 
ATOM     28  C   UNL A   1      28.897  29.338  22.639  1.00  0.00     0.067 A 
BRANCH  28  29
ATOM     29  S   UNL A   1      28.058  30.722  21.904  1.00  0.00     0.175 S 
ATOM     30  C   UNL A   1      29.196  32.071  22.083  1.00  0.00     0.163 C 
ATOM     31  O   UNL A   1      27.930  30.426  20.481  1.00  0.00    -0.224 OA
ATOM     32  O   UNL A   1      26.898  31.018  22.708  1.00  0.00    -0.224 OA
ENDBRANCH  28  29
ENDBRANCH  15  23
ENDBRANCH   9  10
ENDBRANCH   6   9
ENDBRANCH   4   5
BRANCH   4  33
ATOM     33  C   UNL A   1      33.109  19.336  23.647  1.00  0.00     0.065 C 
BRANCH  33  34
ATOM     34  C   UNL A   1      32.712  17.889  23.386  1.00  0.00     0.159 C 
BRANCH  34  35
ATOM     35  O   UNL A   1      32.057  17.762  22.136  1.00  0.00    -0.396 OA
ATOM     36  H   UNL A   1      31.487  16.978  22.148  1.00  0.00     0.210 HD
ENDBRANCH  34  35
ENDBRANCH  33  34
ENDBRANCH   4  33
ENDBRANCH   2   4
ENDBRANCH   1   2
BRANCH   1  37
ATOM     37  C   UNL A   1      36.882  20.212  24.890  1.00  0.00     0.274 C 
BRANCH  37  38
ATOM     38  C   UNL A   1      37.611  21.586  24.957  1.00  0.00     0.275 C 
BRANCH  38  39
ATOM     39  O   UNL A   1      38.412  21.926  26.155  1.00  0.00    -0.458 OA
BRANCH  39  40
ATOM     40  C   UNL A   1      38.889  23.211  26.277  1.00  0.00     0.338 C 
ATOM     41  O   UNL A   1      38.224  24.195  25.978  1.00  0.00    -0.246 OA
BRANCH  40  42
ATOM     42  C   UNL A   1      40.325  23.346  26.842  1.00  0.00     0.060 A 
ATOM     43  C   UNL A   1      40.729  24.535  27.430  1.00  0.00     0.016 A 
ATOM     44  C   UNL A   1      41.389  22.441  26.613  1.00  0.00     0.016 A 
ATOM     45  C   UNL A   1      42.105  24.756  27.837  1.00  0.00     0.010 A 
ATOM     46  C   UNL A   1      42.815  22.704  26.975  1.00  0.00     0.010 A 
ATOM     47  C   UNL A   1      43.245  23.879  27.622  1.00  0.00    -0.014 A 
BRANCH  47  48
ATOM     48  C   UNL A   1      44.787  24.547  27.795  1.00  0.00     0.031 A 
ATOM     49  C   UNL A   1      44.714  25.052  29.192  1.00  0.00     0.074 A 
ATOM     50  C   UNL A   1      45.975  24.997  27.161  1.00  0.00     0.049 A 
ATOM     51  N   UNL A   1      43.783  25.922  29.453  1.00  0.00    -0.248 NA
ATOM     52  C   UNL A   1      45.295  24.406  30.366  1.00  0.00     0.031 C 
ATOM     53  C   UNL A   1      46.266  25.091  25.716  1.00  0.00     0.029 A 
ATOM     54  N   UNL A   1      47.247  25.516  27.658  1.00  0.00    -0.354 N 
ATOM     55  C   UNL A   1      43.839  26.167  30.798  1.00  0.00     0.074 A 
ATOM     56  C   UNL A   1      44.622  25.056  31.326  1.00  0.00     0.031 C 
ATOM     57  C   UNL A   1      47.568  25.430  25.456  1.00  0.00     0.029 A 
ATOM     58  C   UNL A   1      48.333  25.662  26.685  1.00  0.00     0.049 A 
ATOM     59  H   UNL A   1      47.371  25.757  28.604  1.00  0.00     0.167 HD
ATOM     60  C   UNL A   1      43.900  27.491  31.122  1.00  0.00     0.031 A 
ATOM     61  C   UNL A   1      49.692  26.021  26.814  1.00  0.00     0.031 A 
ATOM     62  C   UNL A   1      45.253  27.896  31.394  1.00  0.00     0.049 A 
ATOM     63  C   UNL A   1      49.745  26.921  27.968  1.00  0.00     0.074 A 
ATOM     64  C   UNL A   1      46.264  27.321  32.140  1.00  0.00     0.029 A 
ATOM     65  N   UNL A   1      45.854  28.758  30.505  1.00  0.00    -0.354 N 
ATOM     66  N   UNL A   1      49.433  28.173  27.841  1.00  0.00    -0.248 NA
ATOM     67  C   UNL A   1      50.308  26.543  29.256  1.00  0.00     0.031 C 
ATOM     68  C   UNL A   1      47.435  27.503  31.380  1.00  0.00     0.029 A 
ATOM     69  C   UNL A   1      47.208  28.494  30.436  1.00  0.00     0.049 A 
ATOM     70  H   UNL A   1      45.388  29.459  29.994  1.00  0.00     0.167 HD
ATOM     71  C   UNL A   1      49.199  28.553  29.124  1.00  0.00     0.074 A 
ATOM     72  C   UNL A   1      50.000  27.651  29.934  1.00  0.00     0.031 C 
ATOM     73  C   UNL A   1      47.968  29.074  29.356  1.00  0.00     0.031 A 
BRANCH  60  74
ATOM     74  C   UNL A   1      42.870  28.317  30.383  1.00  0.00    -0.014 A 
ATOM     75  C   UNL A   1      41.516  28.123  30.676  1.00  0.00     0.009 A 
ATOM     76  C   UNL A   1      43.197  29.095  29.249  1.00  0.00     0.009 A 
ATOM     77  C   UNL A   1      40.526  28.618  29.817  1.00  0.00     0.001 A 
ATOM     78  C   UNL A   1      42.213  29.546  28.368  1.00  0.00     0.001 A 
ATOM     79  C   UNL A   1      40.875  29.297  28.649  1.00  0.00     0.000 A 
ENDBRANCH  60  74
BRANCH  61  80
ATOM     80  C   UNL A   1      51.133  26.113  26.144  1.00  0.00    -0.014 A 
ATOM     81  C   UNL A   1      52.070  25.019  26.279  1.00  0.00     0.009 A 
ATOM     82  C   UNL A   1      51.426  26.951  25.059  1.00  0.00     0.009 A 
ATOM     83  C   UNL A   1      53.090  24.704  25.348  1.00  0.00     0.001 A 
ATOM     84  C   UNL A   1      52.484  26.659  24.137  1.00  0.00     0.001 A 
ATOM     85  C   UNL A   1      53.283  25.519  24.253  1.00  0.00     0.000 A 
ENDBRANCH  61  80
BRANCH  73  86
ATOM     86  C   UNL A   1      47.393  30.036  28.325  1.00  0.00    -0.014 A 
ATOM     87  C   UNL A   1      47.666  31.420  28.236  1.00  0.00     0.009 A 
ATOM     88  C   UNL A   1      46.491  29.511  27.389  1.00  0.00     0.009 A 
ATOM     89  C   UNL A   1      47.037  32.240  27.291  1.00  0.00     0.001 A 
ATOM     90  C   UNL A   1      45.900  30.317  26.411  1.00  0.00     0.001 A 
ATOM     91  C   UNL A   1      46.161  31.684  26.370  1.00  0.00     0.000 A 
ENDBRANCH  73  86
ENDBRANCH  47  48
ENDBRANCH  40  42
ENDBRANCH  39  40
ENDBRANCH  38  39
ENDBRANCH  37  38
ENDBRANCH   1  37
TORSDOF 20
ENDMDL
MODEL 3
REMARK VINA RESULT:     -10.6      4.969      9.286
REMARK SMILES Cc1c(CC(=O)N[C@@H](CCO)C(=O)OCCOC(=O)c2ccc(-c3c4nc(c(-c5ccccc5)c5ccc([nH]5)c(-c5ccccc5)c5nc(c(-c6ccccc6)c6ccc3[nH]6)C=C5)C=C4)cc2)cc(-c2ccc(S(C)(=O)=O)cc2)n1-c1ccc(F)cc1
REMARK SMILES IDX 14 1 12 2 13 3 8 4 7 5 5 6 6 7 4 9 3 10 1 11 2 12 80 13
REMARK SMILES IDX 68 14 69 15 81 16 82 17 87 18 83 19 86 20 84 21 85 22 70 23
REMARK SMILES IDX 71 24 79 25 72 26 78 27 73 28 74 29 75 30 76 31 77 32 9 33
REMARK SMILES IDX 10 34 11 35 15 37 16 38 17 39 18 40 19 41 20 42 21 43 67 44
REMARK SMILES IDX 22 45 66 46 23 47 24 48 25 49 60 50 26 51 65 52 59 53 61 54
REMARK SMILES IDX 27 55 64 56 58 57 57 58 28 60 50 61 35 62 49 63 36 64 39 65
REMARK SMILES IDX 48 66 62 67 37 68 38 69 47 71 63 72 40 73 29 74 30 75 34 76
REMARK SMILES IDX 31 77 33 78 32 79 51 80 52 81 56 82 53 83 55 84 54 85 41 86
REMARK SMILES IDX 42 87 46 88 43 89 45 90 44 91
REMARK H PARENT 7 8 11 36 61 59 39 70
REMARK Flexibility Score: inf
ROOT
ATOM      1  O   UNL A   1      34.025  33.916  32.022  1.00  0.00    -0.461 OA
ENDROOT
BRANCH   1   2
ATOM      2  C   UNL A   1      34.605  35.150  31.983  1.00  0.00     0.328 C 
ATOM      3  O   UNL A   1      35.723  35.404  32.417  1.00  0.00    -0.250 OA
BRANCH   2   4
ATOM      4  C   UNL A   1      33.739  36.184  31.230  1.00  0.00     0.194 C 
BRANCH   4   5
ATOM      5  N   UNL A   1      32.859  35.663  30.177  1.00  0.00    -0.342 N 
ATOM      6  C   UNL A   1      33.199  35.055  29.001  1.00  0.00     0.225 C 
ATOM      7  O   UNL A   1      32.286  34.720  28.244  1.00  0.00    -0.275 OA
ATOM      8  H   UNL A   1      31.893  35.764  30.340  1.00  0.00     0.164 HD
BRANCH   6   9
ATOM      9  C   UNL A   1      34.659  34.765  28.664  1.00  0.00     0.137 C 
BRANCH   9  10
ATOM     10  C   UNL A   1      34.957  33.303  28.473  1.00  0.00    -0.017 A 
ATOM     11  C   UNL A   1      37.112  33.030  29.885  1.00  0.00     0.065 C 
ATOM     12  C   UNL A   1      35.968  32.549  29.052  1.00  0.00     0.024 A 
ATOM     13  N   UNL A   1      35.800  31.221  28.666  1.00  0.00    -0.314 N 
ATOM     14  C   UNL A   1      34.213  32.419  27.644  1.00  0.00     0.033 A 
ATOM     15  C   UNL A   1      34.677  31.132  27.840  1.00  0.00     0.053 A 
BRANCH  13  16
ATOM     16  C   UNL A   1      36.615  30.122  29.054  1.00  0.00     0.046 A 
ATOM     17  C   UNL A   1      36.553  29.653  30.375  1.00  0.00     0.029 A 
ATOM     18  C   UNL A   1      37.529  29.570  28.148  1.00  0.00     0.029 A 
ATOM     19  C   UNL A   1      37.411  28.637  30.789  1.00  0.00     0.041 A 
ATOM     20  C   UNL A   1      38.393  28.560  28.575  1.00  0.00     0.041 A 
ATOM     21  C   UNL A   1      38.327  28.105  29.888  1.00  0.00     0.123 A 
ATOM     22  F   UNL A   1      39.168  27.147  30.296  1.00  0.00    -0.207 F 
ENDBRANCH  13  16
BRANCH  15  23
ATOM     23  C   UNL A   1      34.059  29.881  27.375  1.00  0.00    -0.001 A 
ATOM     24  C   UNL A   1      34.814  28.916  26.686  1.00  0.00     0.011 A 
ATOM     25  C   UNL A   1      32.704  29.627  27.626  1.00  0.00     0.011 A 
ATOM     26  C   UNL A   1      34.217  27.748  26.205  1.00  0.00     0.021 A 
ATOM     27  C   UNL A   1      32.099  28.460  27.150  1.00  0.00     0.021 A 
ATOM     28  C   UNL A   1      32.855  27.535  26.424  1.00  0.00     0.067 A 
BRANCH  28  29
ATOM     29  S   UNL A   1      32.091  26.053  25.810  1.00  0.00     0.175 S 
ATOM     30  C   UNL A   1      33.356  25.278  24.838  1.00  0.00     0.163 C 
ATOM     31  O   UNL A   1      31.829  25.205  26.969  1.00  0.00    -0.224 OA
ATOM     32  O   UNL A   1      31.027  26.438  24.916  1.00  0.00    -0.224 OA
ENDBRANCH  28  29
ENDBRANCH  15  23
ENDBRANCH   9  10
ENDBRANCH   6   9
ENDBRANCH   4   5
BRANCH   4  33
ATOM     33  C   UNL A   1      32.975  37.157  32.146  1.00  0.00     0.065 C 
BRANCH  33  34
ATOM     34  C   UNL A   1      32.017  36.510  33.138  1.00  0.00     0.159 C 
BRANCH  34  35
ATOM     35  O   UNL A   1      31.464  35.321  32.603  1.00  0.00    -0.396 OA
ATOM     36  H   UNL A   1      30.529  35.467  32.386  1.00  0.00     0.210 HD
ENDBRANCH  34  35
ENDBRANCH  33  34
ENDBRANCH   4  33
ENDBRANCH   2   4
ENDBRANCH   1   2
BRANCH   1  37
ATOM     37  C   UNL A   1      34.145  33.167  33.261  1.00  0.00     0.274 C 
BRANCH  37  38
ATOM     38  C   UNL A   1      35.595  32.640  33.467  1.00  0.00     0.275 C 
BRANCH  38  39
ATOM     39  O   UNL A   1      36.334  33.007  34.696  1.00  0.00    -0.458 OA
BRANCH  39  40
ATOM     40  C   UNL A   1      37.599  33.532  34.564  1.00  0.00     0.338 C 
ATOM     41  O   UNL A   1      37.848  34.715  34.760  1.00  0.00    -0.246 OA
BRANCH  40  42
ATOM     42  C   UNL A   1      38.708  32.526  34.168  1.00  0.00     0.060 A 
ATOM     43  C   UNL A   1      39.208  32.519  32.875  1.00  0.00     0.016 A 
ATOM     44  C   UNL A   1      39.125  31.414  34.939  1.00  0.00     0.016 A 
ATOM     45  C   UNL A   1      40.138  31.500  32.422  1.00  0.00     0.010 A 
ATOM     46  C   UNL A   1      40.030  30.333  34.443  1.00  0.00     0.010 A 
ATOM     47  C   UNL A   1      40.596  30.329  33.153  1.00  0.00    -0.014 A 
BRANCH  47  48
ATOM     48  C   UNL A   1      41.318  29.087  32.265  1.00  0.00     0.031 A 
ATOM     49  C   UNL A   1      41.869  28.247  33.362  1.00  0.00     0.074 A 
ATOM     50  C   UNL A   1      41.783  28.631  31.003  1.00  0.00     0.049 A 
ATOM     51  N   UNL A   1      42.718  28.816  34.166  1.00  0.00    -0.248 NA
ATOM     52  C   UNL A   1      41.284  27.008  33.866  1.00  0.00     0.031 C 
ATOM     53  C   UNL A   1      41.836  29.368  29.723  1.00  0.00     0.029 A 
ATOM     54  N   UNL A   1      42.359  27.372  30.536  1.00  0.00    -0.354 N 
ATOM     55  C   UNL A   1      43.011  27.901  35.140  1.00  0.00     0.074 A 
ATOM     56  C   UNL A   1      41.945  26.913  35.028  1.00  0.00     0.031 C 
ATOM     57  C   UNL A   1      42.207  28.575  28.668  1.00  0.00     0.029 A 
ATOM     58  C   UNL A   1      42.506  27.203  29.088  1.00  0.00     0.049 A 
ATOM     59  H   UNL A   1      42.637  26.668  31.166  1.00  0.00     0.167 HD
ATOM     60  C   UNL A   1      44.347  27.704  35.337  1.00  0.00     0.031 A 
ATOM     61  C   UNL A   1      42.912  26.113  28.289  1.00  0.00     0.031 A 
ATOM     62  C   UNL A   1      44.804  26.527  34.649  1.00  0.00     0.049 A 
ATOM     63  C   UNL A   1      43.853  25.356  29.118  1.00  0.00     0.074 A 
ATOM     64  C   UNL A   1      44.288  25.249  34.547  1.00  0.00     0.029 A 
ATOM     65  N   UNL A   1      45.653  26.700  33.579  1.00  0.00    -0.354 N 
ATOM     66  N   UNL A   1      45.090  25.733  29.221  1.00  0.00    -0.248 NA
ATOM     67  C   UNL A   1      43.538  24.068  29.718  1.00  0.00     0.031 C 
ATOM     68  C   UNL A   1      44.480  24.877  33.203  1.00  0.00     0.029 A 
ATOM     69  C   UNL A   1      45.430  25.715  32.637  1.00  0.00     0.049 A 
ATOM     70  H   UNL A   1      46.321  27.419  33.498  1.00  0.00     0.167 HD
ATOM     71  C   UNL A   1      45.506  25.083  30.338  1.00  0.00     0.074 A 
ATOM     72  C   UNL A   1      44.659  23.906  30.425  1.00  0.00     0.031 C 
ATOM     73  C   UNL A   1      45.996  25.881  31.321  1.00  0.00     0.031 A 
BRANCH  60  74
ATOM     74  C   UNL A   1      45.114  29.004  35.454  1.00  0.00    -0.014 A 
ATOM     75  C   UNL A   1      45.063  29.708  36.662  1.00  0.00     0.009 A 
ATOM     76  C   UNL A   1      45.677  29.653  34.332  1.00  0.00     0.009 A 
ATOM     77  C   UNL A   1      45.481  31.044  36.722  1.00  0.00     0.001 A 
ATOM     78  C   UNL A   1      46.048  30.997  34.381  1.00  0.00     0.001 A 
ATOM     79  C   UNL A   1      45.940  31.696  35.577  1.00  0.00     0.000 A 
ENDBRANCH  60  74
BRANCH  61  80
ATOM     80  C   UNL A   1      43.027  25.474  26.835  1.00  0.00    -0.014 A 
ATOM     81  C   UNL A   1      44.172  25.767  26.000  1.00  0.00     0.009 A 
ATOM     82  C   UNL A   1      42.360  24.301  26.454  1.00  0.00     0.009 A 
ATOM     83  C   UNL A   1      44.686  24.909  24.998  1.00  0.00     0.001 A 
ATOM     84  C   UNL A   1      42.854  23.450  25.412  1.00  0.00     0.001 A 
ATOM     85  C   UNL A   1      44.034  23.727  24.718  1.00  0.00     0.000 A 
ENDBRANCH  61  80
BRANCH  73  86
ATOM     86  C   UNL A   1      46.902  27.036  30.918  1.00  0.00    -0.014 A 
ATOM     87  C   UNL A   1      48.295  26.959  30.689  1.00  0.00     0.009 A 
ATOM     88  C   UNL A   1      46.311  28.300  30.782  1.00  0.00     0.009 A 
ATOM     89  C   UNL A   1      49.060  28.093  30.385  1.00  0.00     0.001 A 
ATOM     90  C   UNL A   1      47.062  29.425  30.428  1.00  0.00     0.001 A 
ATOM     91  C   UNL A   1      48.439  29.325  30.244  1.00  0.00     0.000 A 
ENDBRANCH  73  86
ENDBRANCH  47  48
ENDBRANCH  40  42
ENDBRANCH  39  40
ENDBRANCH  38  39
ENDBRANCH  37  38
ENDBRANCH   1  37
TORSDOF 20
ENDMDL
