MODEL 1
REMARK VINA RESULT:     -10.1      0.000      0.000
REMARK SMILES O=C(COc1ncc(C(F)(F)F)cc1Cl)OCCOC(=O)c1ccc(-c2c3nc(c(-c4ccccc4)c4ccc([nH]4)c(-c4ccccc4)c4nc(c(-c5ccccc5)c5ccc2[nH]5)C=C4)C=C3)cc1
REMARK SMILES IDX 17 1 16 2 2 3 1 4 3 5 4 6 5 7 6 8 14 9 7 10 13 11 15 12 8 13
REMARK SMILES IDX 9 14 10 15 11 16 12 17 18 18 19 19 20 20 21 21 22 22 23 23
REMARK SMILES IDX 69 24 24 25 68 26 25 27 26 28 27 29 62 30 28 31 67 32 61 33
REMARK SMILES IDX 63 34 29 35 66 36 60 37 59 38 30 40 52 41 37 42 51 43 38 44
REMARK SMILES IDX 41 45 50 46 64 47 39 48 40 49 49 51 65 52 42 53 31 54 32 55
REMARK SMILES IDX 36 56 33 57 35 58 34 59 53 60 54 61 58 62 55 63 57 64 56 65
REMARK SMILES IDX 43 66 44 67 48 68 45 69 47 70 46 71
REMARK H PARENT 63 39 41 50
REMARK Flexibility Score: inf
ROOT
ATOM      1  C   UNL A   1      44.458  21.361  25.270  1.00  0.00     0.274 C 
ENDROOT
BRANCH   1   2
ATOM      2  O   UNL A   1      43.613  20.318  24.739  1.00  0.00    -0.460 OA
BRANCH   2   3
ATOM      3  C   UNL A   1      43.351  19.157  25.389  1.00  0.00     0.344 C 
ATOM      4  O   UNL A   1      43.931  18.118  25.077  1.00  0.00    -0.248 OA
BRANCH   3   5
ATOM      5  C   UNL A   1      42.363  19.181  26.541  1.00  0.00     0.353 C 
BRANCH   5   6
ATOM      6  O   UNL A   1      41.031  19.188  26.040  1.00  0.00    -0.465 OA
BRANCH   6   7
ATOM      7  C   UNL A   1      40.493  20.439  26.201  1.00  0.00     0.233 A 
ATOM      8  N   UNL A   1      41.240  21.293  26.940  1.00  0.00    -0.220 NA
ATOM      9  C   UNL A   1      39.242  20.751  25.679  1.00  0.00     0.103 A 
ATOM     10  C   UNL A   1      40.713  22.519  27.166  1.00  0.00     0.128 A 
ATOM     11  C   UNL A   1      38.743  22.030  25.905  1.00  0.00     0.041 A 
ATOM     12  Cl  UNL A   1      38.300  19.624  24.787  1.00  0.00    -0.078 Cl
ATOM     13  C   UNL A   1      39.485  22.940  26.668  1.00  0.00     0.076 A 
BRANCH  13  14
ATOM     14  C   UNL A   1      38.972  24.306  27.003  1.00  0.00     0.417 C 
ATOM     15  F   UNL A   1      39.664  25.285  26.359  1.00  0.00    -0.166 F 
ATOM     16  F   UNL A   1      37.667  24.480  26.660  1.00  0.00    -0.166 F 
ATOM     17  F   UNL A   1      39.055  24.599  28.330  1.00  0.00    -0.166 F 
ENDBRANCH  13  14
ENDBRANCH   6   7
ENDBRANCH   5   6
ENDBRANCH   3   5
ENDBRANCH   2   3
ENDBRANCH   1   2
BRANCH   1  18
ATOM     18  C   UNL A   1      44.529  22.537  24.294  1.00  0.00     0.275 C 
BRANCH  18  19
ATOM     19  O   UNL A   1      43.809  23.663  24.830  1.00  0.00    -0.458 OA
BRANCH  19  20
ATOM     20  C   UNL A   1      44.563  24.737  25.178  1.00  0.00     0.338 C 
ATOM     21  O   UNL A   1      45.523  25.189  24.582  1.00  0.00    -0.246 OA
BRANCH  20  22
ATOM     22  C   UNL A   1      43.910  25.404  26.321  1.00  0.00     0.060 A 
ATOM     23  C   UNL A   1      44.064  26.788  26.469  1.00  0.00     0.016 A 
ATOM     24  C   UNL A   1      43.129  24.679  27.225  1.00  0.00     0.016 A 
ATOM     25  C   UNL A   1      43.425  27.453  27.518  1.00  0.00     0.010 A 
ATOM     26  C   UNL A   1      42.506  25.343  28.283  1.00  0.00     0.010 A 
ATOM     27  C   UNL A   1      42.653  26.731  28.439  1.00  0.00    -0.014 A 
BRANCH  27  28
ATOM     28  C   UNL A   1      42.047  27.397  29.614  1.00  0.00     0.031 A 
ATOM     29  C   UNL A   1      40.758  28.149  29.450  1.00  0.00     0.074 A 
ATOM     30  C   UNL A   1      42.673  27.381  30.805  1.00  0.00     0.049 A 
ATOM     31  N   UNL A   1      40.120  28.892  30.318  1.00  0.00    -0.248 NA
ATOM     32  C   UNL A   1      40.104  28.055  28.135  1.00  0.00     0.031 C 
ATOM     33  C   UNL A   1      43.915  26.667  31.101  1.00  0.00     0.029 A 
ATOM     34  N   UNL A   1      42.357  28.011  31.983  1.00  0.00    -0.354 N 
ATOM     35  C   UNL A   1      38.993  29.360  29.656  1.00  0.00     0.074 A 
ATOM     36  C   UNL A   1      39.041  28.829  28.310  1.00  0.00     0.031 C 
ATOM     37  C   UNL A   1      44.272  26.924  32.372  1.00  0.00     0.029 A 
ATOM     38  C   UNL A   1      43.303  27.844  32.965  1.00  0.00     0.049 A 
ATOM     39  H   UNL A   1      41.532  28.533  32.112  1.00  0.00     0.167 HD
ATOM     40  C   UNL A   1      38.008  30.159  30.127  1.00  0.00     0.031 A 
ATOM     41  C   UNL A   1      43.396  28.401  34.188  1.00  0.00     0.031 A 
ATOM     42  C   UNL A   1      37.965  30.701  31.457  1.00  0.00     0.049 A 
ATOM     43  C   UNL A   1      42.334  29.364  34.650  1.00  0.00     0.074 A 
ATOM     44  C   UNL A   1      36.980  31.486  32.034  1.00  0.00     0.029 A 
ATOM     45  N   UNL A   1      38.953  30.533  32.411  1.00  0.00    -0.354 N 
ATOM     46  N   UNL A   1      41.242  29.748  34.037  1.00  0.00    -0.248 NA
ATOM     47  C   UNL A   1      42.524  29.976  35.976  1.00  0.00     0.031 C 
ATOM     48  C   UNL A   1      37.404  31.842  33.318  1.00  0.00     0.029 A 
ATOM     49  C   UNL A   1      38.627  31.237  33.556  1.00  0.00     0.049 A 
ATOM     50  H   UNL A   1      39.768  29.992  32.291  1.00  0.00     0.167 HD
ATOM     51  C   UNL A   1      40.608  30.628  34.907  1.00  0.00     0.074 A 
ATOM     52  C   UNL A   1      41.426  30.707  36.098  1.00  0.00     0.031 C 
ATOM     53  C   UNL A   1      39.450  31.311  34.733  1.00  0.00     0.031 A 
BRANCH  40  54
ATOM     54  C   UNL A   1      36.903  30.530  29.183  1.00  0.00    -0.014 A 
ATOM     55  C   UNL A   1      35.878  29.622  28.876  1.00  0.00     0.009 A 
ATOM     56  C   UNL A   1      36.849  31.828  28.653  1.00  0.00     0.009 A 
ATOM     57  C   UNL A   1      34.828  30.004  28.040  1.00  0.00     0.001 A 
ATOM     58  C   UNL A   1      35.789  32.212  27.833  1.00  0.00     0.001 A 
ATOM     59  C   UNL A   1      34.781  31.300  27.524  1.00  0.00     0.000 A 
ENDBRANCH  40  54
BRANCH  41  60
ATOM     60  C   UNL A   1      44.566  28.115  35.058  1.00  0.00    -0.014 A 
ATOM     61  C   UNL A   1      44.572  26.999  35.909  1.00  0.00     0.009 A 
ATOM     62  C   UNL A   1      45.660  28.994  35.084  1.00  0.00     0.009 A 
ATOM     63  C   UNL A   1      45.632  26.790  36.793  1.00  0.00     0.001 A 
ATOM     64  C   UNL A   1      46.732  28.767  35.949  1.00  0.00     0.001 A 
ATOM     65  C   UNL A   1      46.711  27.672  36.811  1.00  0.00     0.000 A 
ENDBRANCH  41  60
BRANCH  53  66
ATOM     66  C   UNL A   1      38.990  32.191  35.860  1.00  0.00    -0.014 A 
ATOM     67  C   UNL A   1      38.136  31.699  36.859  1.00  0.00     0.009 A 
ATOM     68  C   UNL A   1      39.458  33.510  35.953  1.00  0.00     0.009 A 
ATOM     69  C   UNL A   1      37.742  32.520  37.918  1.00  0.00     0.001 A 
ATOM     70  C   UNL A   1      39.083  34.321  37.025  1.00  0.00     0.001 A 
ATOM     71  C   UNL A   1      38.220  33.826  38.002  1.00  0.00     0.000 A 
ENDBRANCH  53  66
ENDBRANCH  27  28
ENDBRANCH  20  22
ENDBRANCH  19  20
ENDBRANCH  18  19
ENDBRANCH   1  18
TORSDOF 14
ENDMDL
MODEL 2
REMARK VINA RESULT:      -9.7      4.154      7.588
REMARK SMILES O=C(COc1ncc(C(F)(F)F)cc1Cl)OCCOC(=O)c1ccc(-c2c3nc(c(-c4ccccc4)c4ccc([nH]4)c(-c4ccccc4)c4nc(c(-c5ccccc5)c5ccc2[nH]5)C=C4)C=C3)cc1
REMARK SMILES IDX 17 1 16 2 2 3 1 4 3 5 4 6 5 7 6 8 14 9 7 10 13 11 15 12 8 13
REMARK SMILES IDX 9 14 10 15 11 16 12 17 18 18 19 19 20 20 21 21 22 22 23 23
REMARK SMILES IDX 69 24 24 25 68 26 25 27 26 28 27 29 62 30 28 31 67 32 61 33
REMARK SMILES IDX 63 34 29 35 66 36 60 37 59 38 30 40 52 41 37 42 51 43 38 44
REMARK SMILES IDX 41 45 50 46 64 47 39 48 40 49 49 51 65 52 42 53 31 54 32 55
REMARK SMILES IDX 36 56 33 57 35 58 34 59 53 60 54 61 58 62 55 63 57 64 56 65
REMARK SMILES IDX 43 66 44 67 48 68 45 69 47 70 46 71
REMARK H PARENT 63 39 41 50
REMARK Flexibility Score: inf
ROOT
ATOM      1  C   UNL A   1      42.541  20.616  26.361  1.00  0.00     0.274 C 
ENDROOT
BRANCH   1   2
ATOM      2  O   UNL A   1      42.866  19.732  25.267  1.00  0.00    -0.460 OA
BRANCH   2   3
ATOM      3  C   UNL A   1      44.132  19.485  24.850  1.00  0.00     0.344 C 
ATOM      4  O   UNL A   1      44.461  18.362  24.471  1.00  0.00    -0.248 OA
BRANCH   3   5
ATOM      5  C   UNL A   1      45.119  20.637  24.816  1.00  0.00     0.353 C 
BRANCH   5   6
ATOM      6  O   UNL A   1      44.661  21.645  23.923  1.00  0.00    -0.465 OA
BRANCH   6   7
ATOM      7  C   UNL A   1      45.220  22.848  24.272  1.00  0.00     0.233 A 
ATOM      8  N   UNL A   1      46.562  22.924  24.111  1.00  0.00    -0.220 NA
ATOM      9  C   UNL A   1      44.441  23.869  24.806  1.00  0.00     0.103 A 
ATOM     10  C   UNL A   1      47.155  24.077  24.498  1.00  0.00     0.128 A 
ATOM     11  C   UNL A   1      45.079  25.052  25.167  1.00  0.00     0.041 A 
ATOM     12  Cl  UNL A   1      42.746  23.718  25.043  1.00  0.00    -0.078 Cl
ATOM     13  C   UNL A   1      46.466  25.167  25.017  1.00  0.00     0.076 A 
BRANCH  13  14
ATOM     14  C   UNL A   1      47.217  26.388  25.451  1.00  0.00     0.417 C 
ATOM     15  F   UNL A   1      48.431  26.485  24.842  1.00  0.00    -0.166 F 
ATOM     16  F   UNL A   1      46.559  27.543  25.165  1.00  0.00    -0.166 F 
ATOM     17  F   UNL A   1      47.465  26.418  26.789  1.00  0.00    -0.166 F 
ENDBRANCH  13  14
ENDBRANCH   6   7
ENDBRANCH   5   6
ENDBRANCH   3   5
ENDBRANCH   2   3
ENDBRANCH   1   2
BRANCH   1  18
ATOM     18  C   UNL A   1      41.219  20.198  27.008  1.00  0.00     0.275 C 
BRANCH  18  19
ATOM     19  O   UNL A   1      40.620  21.327  27.672  1.00  0.00    -0.458 OA
BRANCH  19  20
ATOM     20  C   UNL A   1      39.879  22.151  26.887  1.00  0.00     0.338 C 
ATOM     21  O   UNL A   1      38.992  21.836  26.116  1.00  0.00    -0.246 OA
BRANCH  20  22
ATOM     22  C   UNL A   1      40.197  23.544  27.258  1.00  0.00     0.060 A 
ATOM     23  C   UNL A   1      39.615  24.584  26.523  1.00  0.00     0.016 A 
ATOM     24  C   UNL A   1      41.038  23.826  28.337  1.00  0.00     0.016 A 
ATOM     25  C   UNL A   1      39.865  25.913  26.875  1.00  0.00     0.010 A 
ATOM     26  C   UNL A   1      41.300  25.154  28.677  1.00  0.00     0.010 A 
ATOM     27  C   UNL A   1      40.720  26.205  27.946  1.00  0.00    -0.014 A 
BRANCH  27  28
ATOM     28  C   UNL A   1      41.078  27.602  28.278  1.00  0.00     0.031 A 
ATOM     29  C   UNL A   1      42.522  28.016  28.263  1.00  0.00     0.074 A 
ATOM     30  C   UNL A   1      40.129  28.480  28.648  1.00  0.00     0.049 A 
ATOM     31  N   UNL A   1      43.059  29.151  28.628  1.00  0.00    -0.248 NA
ATOM     32  C   UNL A   1      43.487  27.016  27.778  1.00  0.00     0.031 C 
ATOM     33  C   UNL A   1      38.691  28.212  28.680  1.00  0.00     0.029 A 
ATOM     34  N   UNL A   1      40.240  29.773  29.096  1.00  0.00    -0.354 N 
ATOM     35  C   UNL A   1      44.424  29.005  28.422  1.00  0.00     0.074 A 
ATOM     36  C   UNL A   1      44.636  27.666  27.915  1.00  0.00     0.031 C 
ATOM     37  C   UNL A   1      38.056  29.299  29.152  1.00  0.00     0.029 A 
ATOM     38  C   UNL A   1      39.044  30.323  29.486  1.00  0.00     0.049 A 
ATOM     39  H   UNL A   1      41.096  30.259  29.134  1.00  0.00     0.167 HD
ATOM     40  C   UNL A   1      45.411  29.905  28.638  1.00  0.00     0.031 A 
ATOM     41  C   UNL A   1      38.781  31.504  30.081  1.00  0.00     0.031 A 
ATOM     42  C   UNL A   1      45.209  31.229  29.157  1.00  0.00     0.049 A 
ATOM     43  C   UNL A   1      39.912  32.446  30.398  1.00  0.00     0.074 A 
ATOM     44  C   UNL A   1      46.149  32.224  29.365  1.00  0.00     0.029 A 
ATOM     45  N   UNL A   1      43.988  31.738  29.566  1.00  0.00    -0.354 N 
ATOM     46  N   UNL A   1      41.191  32.320  30.141  1.00  0.00    -0.248 NA
ATOM     47  C   UNL A   1      39.560  33.694  31.095  1.00  0.00     0.031 C 
ATOM     48  C   UNL A   1      45.504  33.315  29.958  1.00  0.00     0.029 A 
ATOM     49  C   UNL A   1      44.157  33.015  30.071  1.00  0.00     0.049 A 
ATOM     50  H   UNL A   1      43.128  31.261  29.507  1.00  0.00     0.167 HD
ATOM     51  C   UNL A   1      41.791  33.477  30.626  1.00  0.00     0.074 A 
ATOM     52  C   UNL A   1      40.736  34.301  31.175  1.00  0.00     0.031 C 
ATOM     53  C   UNL A   1      43.100  33.824  30.617  1.00  0.00     0.031 A 
BRANCH  40  54
ATOM     54  C   UNL A   1      46.819  29.476  28.344  1.00  0.00    -0.014 A 
ATOM     55  C   UNL A   1      47.450  29.836  27.144  1.00  0.00     0.009 A 
ATOM     56  C   UNL A   1      47.544  28.764  29.312  1.00  0.00     0.009 A 
ATOM     57  C   UNL A   1      48.778  29.475  26.913  1.00  0.00     0.001 A 
ATOM     58  C   UNL A   1      48.877  28.421  29.086  1.00  0.00     0.001 A 
ATOM     59  C   UNL A   1      49.492  28.774  27.885  1.00  0.00     0.000 A 
ENDBRANCH  40  54
BRANCH  41  60
ATOM     60  C   UNL A   1      37.391  31.853  30.476  1.00  0.00    -0.014 A 
ATOM     61  C   UNL A   1      36.552  32.557  29.600  1.00  0.00     0.009 A 
ATOM     62  C   UNL A   1      36.920  31.536  31.759  1.00  0.00     0.009 A 
ATOM     63  C   UNL A   1      35.283  32.967  30.013  1.00  0.00     0.001 A 
ATOM     64  C   UNL A   1      35.639  31.922  32.160  1.00  0.00     0.001 A 
ATOM     65  C   UNL A   1      34.827  32.648  31.291  1.00  0.00     0.000 A 
ENDBRANCH  41  60
BRANCH  53  66
ATOM     66  C   UNL A   1      43.467  35.157  31.204  1.00  0.00    -0.014 A 
ATOM     67  C   UNL A   1      43.676  36.276  30.383  1.00  0.00     0.009 A 
ATOM     68  C   UNL A   1      43.550  35.309  32.597  1.00  0.00     0.009 A 
ATOM     69  C   UNL A   1      43.985  37.516  30.945  1.00  0.00     0.001 A 
ATOM     70  C   UNL A   1      43.835  36.554  33.157  1.00  0.00     0.001 A 
ATOM     71  C   UNL A   1      44.058  37.655  32.331  1.00  0.00     0.000 A 
ENDBRANCH  53  66
ENDBRANCH  27  28
ENDBRANCH  20  22
ENDBRANCH  19  20
ENDBRANCH  18  19
ENDBRANCH   1  18
TORSDOF 14
ENDMDL
MODEL 3
REMARK VINA RESULT:      -9.6      4.829      8.739
REMARK SMILES O=C(COc1ncc(C(F)(F)F)cc1Cl)OCCOC(=O)c1ccc(-c2c3nc(c(-c4ccccc4)c4ccc([nH]4)c(-c4ccccc4)c4nc(c(-c5ccccc5)c5ccc2[nH]5)C=C4)C=C3)cc1
REMARK SMILES IDX 17 1 16 2 2 3 1 4 3 5 4 6 5 7 6 8 14 9 7 10 13 11 15 12 8 13
REMARK SMILES IDX 9 14 10 15 11 16 12 17 18 18 19 19 20 20 21 21 22 22 23 23
REMARK SMILES IDX 69 24 24 25 68 26 25 27 26 28 27 29 62 30 28 31 67 32 61 33
REMARK SMILES IDX 63 34 29 35 66 36 60 37 59 38 30 40 52 41 37 42 51 43 38 44
REMARK SMILES IDX 41 45 50 46 64 47 39 48 40 49 49 51 65 52 42 53 31 54 32 55
REMARK SMILES IDX 36 56 33 57 35 58 34 59 53 60 54 61 58 62 55 63 57 64 56 65
REMARK SMILES IDX 43 66 44 67 48 68 45 69 47 70 46 71
REMARK H PARENT 63 39 41 50
REMARK Flexibility Score: inf
ROOT
ATOM      1  C   UNL A   1      42.817  18.634  26.731  1.00  0.00     0.274 C 
ENDROOT
BRANCH   1   2
ATOM      2  O   UNL A   1      41.920  19.696  26.342  1.00  0.00    -0.460 OA
BRANCH   2   3
ATOM      3  C   UNL A   1      41.926  20.930  26.904  1.00  0.00     0.344 C 
ATOM      4  O   UNL A   1      42.519  21.135  27.962  1.00  0.00    -0.248 OA
BRANCH   3   5
ATOM      5  C   UNL A   1      41.228  22.061  26.172  1.00  0.00     0.353 C 
BRANCH   5   6
ATOM      6  O   UNL A   1      40.274  22.679  27.028  1.00  0.00    -0.465 OA
BRANCH   6   7
ATOM      7  C   UNL A   1      39.060  22.729  26.391  1.00  0.00     0.233 A 
ATOM      8  N   UNL A   1      38.720  21.605  25.717  1.00  0.00    -0.220 NA
ATOM      9  C   UNL A   1      38.292  23.889  26.409  1.00  0.00     0.103 A 
ATOM     10  C   UNL A   1      37.554  21.640  25.031  1.00  0.00     0.128 A 
ATOM     11  C   UNL A   1      37.084  23.880  25.717  1.00  0.00     0.041 A 
ATOM     12  Cl  UNL A   1      38.779  25.314  27.235  1.00  0.00    -0.078 Cl
ATOM     13  C   UNL A   1      36.700  22.736  25.006  1.00  0.00     0.076 A 
BRANCH  13  14
ATOM     14  C   UNL A   1      35.447  22.689  24.187  1.00  0.00     0.417 C 
ATOM     15  F   UNL A   1      34.492  23.533  24.664  1.00  0.00    -0.166 F 
ATOM     16  F   UNL A   1      35.650  23.045  22.890  1.00  0.00    -0.166 F 
ATOM     17  F   UNL A   1      34.875  21.454  24.153  1.00  0.00    -0.166 F 
ENDBRANCH  13  14
ENDBRANCH   6   7
ENDBRANCH   5   6
ENDBRANCH   3   5
ENDBRANCH   2   3
ENDBRANCH   1   2
BRANCH   1  18
ATOM     18  C   UNL A   1      43.612  18.138  25.521  1.00  0.00     0.275 C 
BRANCH  18  19
ATOM     19  O   UNL A   1      43.717  19.188  24.541  1.00  0.00    -0.458 OA
BRANCH  19  20
ATOM     20  C   UNL A   1      44.976  19.608  24.256  1.00  0.00     0.338 C 
ATOM     21  O   UNL A   1      45.836  19.001  23.645  1.00  0.00    -0.246 OA
BRANCH  20  22
ATOM     22  C   UNL A   1      45.087  21.026  24.650  1.00  0.00     0.060 A 
ATOM     23  C   UNL A   1      45.486  21.331  25.957  1.00  0.00     0.016 A 
ATOM     24  C   UNL A   1      44.826  22.048  23.734  1.00  0.00     0.016 A 
ATOM     25  C   UNL A   1      45.638  22.664  26.347  1.00  0.00     0.010 A 
ATOM     26  C   UNL A   1      44.962  23.380  24.131  1.00  0.00     0.010 A 
ATOM     27  C   UNL A   1      45.364  23.695  25.439  1.00  0.00    -0.014 A 
BRANCH  27  28
ATOM     28  C   UNL A   1      45.423  25.115  25.857  1.00  0.00     0.031 A 
ATOM     29  C   UNL A   1      46.746  25.825  25.867  1.00  0.00     0.074 A 
ATOM     30  C   UNL A   1      44.313  25.747  26.280  1.00  0.00     0.049 A 
ATOM     31  N   UNL A   1      47.035  27.024  26.302  1.00  0.00    -0.248 NA
ATOM     32  C   UNL A   1      47.894  25.084  25.322  1.00  0.00     0.031 C 
ATOM     33  C   UNL A   1      42.966  25.179  26.295  1.00  0.00     0.029 A 
ATOM     34  N   UNL A   1      44.155  27.005  26.807  1.00  0.00    -0.354 N 
ATOM     35  C   UNL A   1      48.397  27.183  26.088  1.00  0.00     0.074 A 
ATOM     36  C   UNL A   1      48.881  25.953  25.499  1.00  0.00     0.031 C 
ATOM     37  C   UNL A   1      42.121  26.076  26.834  1.00  0.00     0.029 A 
ATOM     38  C   UNL A   1      42.874  27.265  27.230  1.00  0.00     0.049 A 
ATOM     39  H   UNL A   1      44.889  27.658  26.876  1.00  0.00     0.167 HD
ATOM     40  C   UNL A   1      49.175  28.257  26.359  1.00  0.00     0.031 A 
ATOM     41  C   UNL A   1      42.375  28.324  27.897  1.00  0.00     0.031 A 
ATOM     42  C   UNL A   1      48.703  29.475  26.959  1.00  0.00     0.049 A 
ATOM     43  C   UNL A   1      43.285  29.464  28.272  1.00  0.00     0.074 A 
ATOM     44  C   UNL A   1      49.414  30.632  27.229  1.00  0.00     0.029 A 
ATOM     45  N   UNL A   1      47.408  29.687  27.398  1.00  0.00    -0.354 N 
ATOM     46  N   UNL A   1      44.558  29.627  28.007  1.00  0.00    -0.248 NA
ATOM     47  C   UNL A   1      42.687  30.565  29.044  1.00  0.00     0.031 C 
ATOM     48  C   UNL A   1      48.561  31.523  27.888  1.00  0.00     0.029 A 
ATOM     49  C   UNL A   1      47.309  30.939  27.981  1.00  0.00     0.049 A 
ATOM     50  H   UNL A   1      46.668  29.044  27.310  1.00  0.00     0.167 HD
ATOM     51  C   UNL A   1      44.906  30.854  28.563  1.00  0.00     0.074 A 
ATOM     52  C   UNL A   1      43.708  31.401  29.162  1.00  0.00     0.031 C 
ATOM     53  C   UNL A   1      46.113  31.470  28.576  1.00  0.00     0.031 A 
BRANCH  40  54
ATOM     54  C   UNL A   1      50.637  28.155  26.039  1.00  0.00    -0.014 A 
ATOM     55  C   UNL A   1      51.544  27.612  26.962  1.00  0.00     0.009 A 
ATOM     56  C   UNL A   1      51.099  28.541  24.772  1.00  0.00     0.009 A 
ATOM     57  C   UNL A   1      52.891  27.473  26.626  1.00  0.00     0.001 A 
ATOM     58  C   UNL A   1      52.443  28.384  24.432  1.00  0.00     0.001 A 
ATOM     59  C   UNL A   1      53.338  27.853  25.360  1.00  0.00     0.000 A 
ENDBRANCH  40  54
BRANCH  41  60
ATOM     60  C   UNL A   1      40.948  28.347  28.313  1.00  0.00    -0.014 A 
ATOM     61  C   UNL A   1      39.977  28.962  27.509  1.00  0.00     0.009 A 
ATOM     62  C   UNL A   1      40.563  27.804  29.548  1.00  0.00     0.009 A 
ATOM     63  C   UNL A   1      38.656  29.065  27.951  1.00  0.00     0.001 A 
ATOM     64  C   UNL A   1      39.236  27.884  29.975  1.00  0.00     0.001 A 
ATOM     65  C   UNL A   1      38.287  28.525  29.182  1.00  0.00     0.000 A 
ENDBRANCH  41  60
BRANCH  53  66
ATOM     66  C   UNL A   1      46.196  32.813  29.245  1.00  0.00    -0.014 A 
ATOM     67  C   UNL A   1      46.556  32.927  30.596  1.00  0.00     0.009 A 
ATOM     68  C   UNL A   1      45.966  33.980  28.501  1.00  0.00     0.009 A 
ATOM     69  C   UNL A   1      46.660  34.184  31.196  1.00  0.00     0.001 A 
ATOM     70  C   UNL A   1      46.095  35.236  29.095  1.00  0.00     0.001 A 
ATOM     71  C   UNL A   1      46.435  35.335  30.443  1.00  0.00     0.000 A 
ENDBRANCH  53  66
ENDBRANCH  27  28
ENDBRANCH  20  22
ENDBRANCH  19  20
ENDBRANCH  18  19
ENDBRANCH   1  18
TORSDOF 14
ENDMDL
