MODEL 1
REMARK VINA RESULT:     -12.1      0.000      0.000
REMARK SMILES O=C(Cc1c(C(=O)c2cc3c(cn2)CCCC3)[nH]c2cc(Cl)ccc12)OCCOC(=O)c1ccc(-c2c3nc(c(-c4ccccc4)c4ccc([nH]4)c(-c4ccccc4)c4nc(c(-c5ccccc5)c5ccc2[nH]5)C=C4)C=C3)cc1
REMARK SMILES IDX 27 1 26 2 2 3 1 4 3 5 4 6 5 7 25 8 18 9 19 10 24 11 20 13
REMARK SMILES IDX 23 14 21 15 22 16 6 17 7 18 8 19 9 20 13 21 10 22 12 23
REMARK SMILES IDX 11 24 17 25 14 26 16 27 15 28 28 29 29 30 30 31 31 32 32 33
REMARK SMILES IDX 33 34 79 35 34 36 78 37 35 38 36 39 37 40 72 41 38 42 77 43
REMARK SMILES IDX 71 44 73 45 39 46 76 47 70 48 69 49 40 51 62 52 47 53 61 54
REMARK SMILES IDX 48 55 51 56 60 57 74 58 49 59 50 60 59 62 75 63 52 64 41 65
REMARK SMILES IDX 42 66 46 67 43 68 45 69 44 70 63 71 64 72 68 73 65 74 67 75
REMARK SMILES IDX 66 76 53 77 54 78 58 79 55 80 57 81 56 82
REMARK H PARENT 18 12 73 50 51 61
REMARK Flexibility Score: inf
ROOT
ATOM      1  C   UNL A   1      32.035  28.380  27.447  1.00  0.00     0.274 C 
ENDROOT
BRANCH   1   2
ATOM      2  O   UNL A   1      31.028  27.837  26.564  1.00  0.00    -0.462 OA
BRANCH   2   3
ATOM      3  C   UNL A   1      30.958  26.545  26.158  1.00  0.00     0.310 C 
ATOM      4  O   UNL A   1      31.226  25.639  26.946  1.00  0.00    -0.252 OA
BRANCH   3   5
ATOM      5  C   UNL A   1      30.566  26.255  24.736  1.00  0.00     0.161 C 
BRANCH   5   6
ATOM      6  C   UNL A   1      30.768  27.346  23.723  1.00  0.00     0.000 A 
ATOM      7  C   UNL A   1      32.032  27.781  23.315  1.00  0.00     0.093 A 
ATOM      8  C   UNL A   1      29.809  28.209  23.096  1.00  0.00     0.004 A 
ATOM      9  N   UNL A   1      31.840  28.721  22.335  1.00  0.00    -0.351 N 
ATOM     10  C   UNL A   1      30.522  29.097  22.291  1.00  0.00     0.048 A 
ATOM     11  C   UNL A   1      28.407  28.363  23.166  1.00  0.00     0.012 A 
ATOM     12  H   UNL A   1      32.546  29.076  21.749  1.00  0.00     0.167 HD
ATOM     13  C   UNL A   1      29.924  30.155  21.597  1.00  0.00     0.047 A 
ATOM     14  C   UNL A   1      27.792  29.433  22.503  1.00  0.00     0.021 A 
ATOM     15  C   UNL A   1      28.547  30.319  21.744  1.00  0.00     0.043 A 
ATOM     16  Cl  UNL A   1      27.776  31.656  20.980  1.00  0.00    -0.084 Cl
BRANCH   7  17
ATOM     17  C   UNL A   1      33.329  27.367  23.821  1.00  0.00     0.227 C 
ATOM     18  O   UNL A   1      34.213  28.151  24.150  1.00  0.00    -0.285 OA
BRANCH  17  19
ATOM     19  C   UNL A   1      33.637  25.924  23.876  1.00  0.00     0.113 A 
ATOM     20  C   UNL A   1      34.209  25.386  25.022  1.00  0.00     0.036 A 
ATOM     21  N   UNL A   1      33.359  25.225  22.754  1.00  0.00    -0.252 NA
ATOM     22  C   UNL A   1      34.469  24.014  25.044  1.00  0.00    -0.041 A 
ATOM     23  C   UNL A   1      33.573  23.898  22.821  1.00  0.00     0.115 A 
ATOM     24  C   UNL A   1      34.103  23.243  23.931  1.00  0.00    -0.026 A 
ATOM     25  C   UNL A   1      35.217  23.401  26.201  1.00  0.00     0.036 C 
ATOM     26  C   UNL A   1      34.175  21.741  23.967  1.00  0.00     0.037 C 
ATOM     27  C   UNL A   1      35.069  21.883  26.298  1.00  0.00     0.005 C 
ATOM     28  C   UNL A   1      35.230  21.221  24.934  1.00  0.00     0.005 C 
ENDBRANCH  17  19
ENDBRANCH   7  17
ENDBRANCH   5   6
ENDBRANCH   3   5
ENDBRANCH   2   3
ENDBRANCH   1   2
BRANCH   1  29
ATOM     29  C   UNL A   1      32.400  29.813  27.059  1.00  0.00     0.275 C 
BRANCH  29  30
ATOM     30  O   UNL A   1      33.827  29.938  26.914  1.00  0.00    -0.458 OA
BRANCH  30  31
ATOM     31  C   UNL A   1      34.438  30.837  27.726  1.00  0.00     0.338 C 
ATOM     32  O   UNL A   1      33.934  31.833  28.212  1.00  0.00    -0.246 OA
BRANCH  31  33
ATOM     33  C   UNL A   1      35.776  30.318  28.104  1.00  0.00     0.060 A 
ATOM     34  C   UNL A   1      36.838  30.286  27.195  1.00  0.00     0.016 A 
ATOM     35  C   UNL A   1      35.942  29.791  29.391  1.00  0.00     0.016 A 
ATOM     36  C   UNL A   1      38.058  29.719  27.575  1.00  0.00     0.010 A 
ATOM     37  C   UNL A   1      37.168  29.235  29.773  1.00  0.00     0.010 A 
ATOM     38  C   UNL A   1      38.238  29.193  28.869  1.00  0.00    -0.014 A 
BRANCH  38  39
ATOM     39  C   UNL A   1      39.595  28.780  29.309  1.00  0.00     0.031 A 
ATOM     40  C   UNL A   1      40.503  29.653  30.128  1.00  0.00     0.074 A 
ATOM     41  C   UNL A   1      40.037  27.574  28.901  1.00  0.00     0.049 A 
ATOM     42  N   UNL A   1      41.628  29.322  30.716  1.00  0.00    -0.248 NA
ATOM     43  C   UNL A   1      40.134  31.064  30.302  1.00  0.00     0.031 C 
ATOM     44  C   UNL A   1      39.302  26.668  28.016  1.00  0.00     0.029 A 
ATOM     45  N   UNL A   1      41.211  26.912  29.160  1.00  0.00    -0.354 N 
ATOM     46  C   UNL A   1      42.084  30.470  31.350  1.00  0.00     0.074 A 
ATOM     47  C   UNL A   1      41.147  31.524  31.031  1.00  0.00     0.031 C 
ATOM     48  C   UNL A   1      40.043  25.571  27.803  1.00  0.00     0.029 A 
ATOM     49  C   UNL A   1      41.306  25.700  28.524  1.00  0.00     0.049 A 
ATOM     50  H   UNL A   1      41.915  27.271  29.746  1.00  0.00     0.167 HD
ATOM     51  C   UNL A   1      43.164  30.603  32.158  1.00  0.00     0.031 A 
ATOM     52  C   UNL A   1      42.294  24.785  28.512  1.00  0.00     0.031 A 
ATOM     53  C   UNL A   1      44.054  29.528  32.500  1.00  0.00     0.049 A 
ATOM     54  C   UNL A   1      43.505  24.990  29.373  1.00  0.00     0.074 A 
ATOM     55  C   UNL A   1      45.002  29.490  33.509  1.00  0.00     0.029 A 
ATOM     56  N   UNL A   1      44.144  28.331  31.815  1.00  0.00    -0.354 N 
ATOM     57  N   UNL A   1      43.758  25.962  30.214  1.00  0.00    -0.248 NA
ATOM     58  C   UNL A   1      44.557  23.966  29.307  1.00  0.00     0.031 C 
ATOM     59  C   UNL A   1      45.725  28.303  33.378  1.00  0.00     0.029 A 
ATOM     60  C   UNL A   1      45.198  27.587  32.315  1.00  0.00     0.049 A 
ATOM     61  H   UNL A   1      43.549  28.051  31.084  1.00  0.00     0.167 HD
ATOM     62  C   UNL A   1      44.974  25.649  30.804  1.00  0.00     0.074 A 
ATOM     63  C   UNL A   1      45.413  24.397  30.225  1.00  0.00     0.031 C 
ATOM     64  C   UNL A   1      45.650  26.342  31.751  1.00  0.00     0.031 A 
BRANCH  51  65
ATOM     65  C   UNL A   1      43.424  31.914  32.841  1.00  0.00    -0.014 A 
ATOM     66  C   UNL A   1      44.406  32.798  32.374  1.00  0.00     0.009 A 
ATOM     67  C   UNL A   1      42.848  32.150  34.094  1.00  0.00     0.009 A 
ATOM     68  C   UNL A   1      44.786  33.902  33.144  1.00  0.00     0.001 A 
ATOM     69  C   UNL A   1      43.210  33.264  34.854  1.00  0.00     0.001 A 
ATOM     70  C   UNL A   1      44.183  34.138  34.380  1.00  0.00     0.000 A 
ENDBRANCH  51  65
BRANCH  52  71
ATOM     71  C   UNL A   1      42.138  23.577  27.665  1.00  0.00    -0.014 A 
ATOM     72  C   UNL A   1      41.552  22.415  28.197  1.00  0.00     0.009 A 
ATOM     73  C   UNL A   1      42.639  23.550  26.357  1.00  0.00     0.009 A 
ATOM     74  C   UNL A   1      41.498  21.241  27.444  1.00  0.00     0.001 A 
ATOM     75  C   UNL A   1      42.557  22.381  25.596  1.00  0.00     0.001 A 
ATOM     76  C   UNL A   1      41.998  21.226  26.144  1.00  0.00     0.000 A 
ENDBRANCH  52  71
BRANCH  64  77
ATOM     77  C   UNL A   1      46.955  25.790  32.248  1.00  0.00    -0.014 A 
ATOM     78  C   UNL A   1      46.987  25.005  33.412  1.00  0.00     0.009 A 
ATOM     79  C   UNL A   1      48.165  26.151  31.638  1.00  0.00     0.009 A 
ATOM     80  C   UNL A   1      48.205  24.619  33.975  1.00  0.00     0.001 A 
ATOM     81  C   UNL A   1      49.381  25.736  32.185  1.00  0.00     0.001 A 
ATOM     82  C   UNL A   1      49.401  24.983  33.359  1.00  0.00     0.000 A 
ENDBRANCH  64  77
ENDBRANCH  38  39
ENDBRANCH  31  33
ENDBRANCH  30  31
ENDBRANCH  29  30
ENDBRANCH   1  29
TORSDOF 14
ENDMDL
MODEL 2
REMARK VINA RESULT:     -12.1      0.767      5.796
REMARK SMILES O=C(Cc1c(C(=O)c2cc3c(cn2)CCCC3)[nH]c2cc(Cl)ccc12)OCCOC(=O)c1ccc(-c2c3nc(c(-c4ccccc4)c4ccc([nH]4)c(-c4ccccc4)c4nc(c(-c5ccccc5)c5ccc2[nH]5)C=C4)C=C3)cc1
REMARK SMILES IDX 27 1 26 2 2 3 1 4 3 5 4 6 5 7 25 8 18 9 19 10 24 11 20 13
REMARK SMILES IDX 23 14 21 15 22 16 6 17 7 18 8 19 9 20 13 21 10 22 12 23
REMARK SMILES IDX 11 24 17 25 14 26 16 27 15 28 28 29 29 30 30 31 31 32 32 33
REMARK SMILES IDX 33 34 79 35 34 36 78 37 35 38 36 39 37 40 72 41 38 42 77 43
REMARK SMILES IDX 71 44 73 45 39 46 76 47 70 48 69 49 40 51 62 52 47 53 61 54
REMARK SMILES IDX 48 55 51 56 60 57 74 58 49 59 50 60 59 62 75 63 52 64 41 65
REMARK SMILES IDX 42 66 46 67 43 68 45 69 44 70 63 71 64 72 68 73 65 74 67 75
REMARK SMILES IDX 66 76 53 77 54 78 58 79 55 80 57 81 56 82
REMARK H PARENT 18 12 73 50 51 61
REMARK Flexibility Score: inf
ROOT
ATOM      1  C   UNL A   1      31.957  28.272  27.596  1.00  0.00     0.274 C 
ENDROOT
BRANCH   1   2
ATOM      2  O   UNL A   1      31.049  27.782  26.584  1.00  0.00    -0.462 OA
BRANCH   2   3
ATOM      3  C   UNL A   1      30.941  26.489  26.189  1.00  0.00     0.310 C 
ATOM      4  O   UNL A   1      31.153  25.582  26.993  1.00  0.00    -0.252 OA
BRANCH   3   5
ATOM      5  C   UNL A   1      30.576  26.198  24.760  1.00  0.00     0.161 C 
BRANCH   5   6
ATOM      6  C   UNL A   1      30.777  27.296  23.754  1.00  0.00     0.000 A 
ATOM      7  C   UNL A   1      32.041  27.745  23.361  1.00  0.00     0.093 A 
ATOM      8  C   UNL A   1      29.816  28.152  23.121  1.00  0.00     0.004 A 
ATOM      9  N   UNL A   1      31.849  28.688  22.383  1.00  0.00    -0.351 N 
ATOM     10  C   UNL A   1      30.528  29.050  22.327  1.00  0.00     0.048 A 
ATOM     11  C   UNL A   1      28.412  28.291  23.177  1.00  0.00     0.012 A 
ATOM     12  H   UNL A   1      32.558  29.052  21.806  1.00  0.00     0.167 HD
ATOM     13  C   UNL A   1      29.927  30.105  21.632  1.00  0.00     0.047 A 
ATOM     14  C   UNL A   1      27.792  29.358  22.512  1.00  0.00     0.021 A 
ATOM     15  C   UNL A   1      28.546  30.255  21.765  1.00  0.00     0.043 A 
ATOM     16  Cl  UNL A   1      27.770  31.587  20.999  1.00  0.00    -0.084 Cl
BRANCH   7  17
ATOM     17  C   UNL A   1      33.337  27.342  23.879  1.00  0.00     0.227 C 
ATOM     18  O   UNL A   1      34.206  28.134  24.228  1.00  0.00    -0.285 OA
BRANCH  17  19
ATOM     19  C   UNL A   1      33.663  25.902  23.921  1.00  0.00     0.113 A 
ATOM     20  C   UNL A   1      34.207  25.354  25.076  1.00  0.00     0.036 A 
ATOM     21  N   UNL A   1      33.428  25.218  22.781  1.00  0.00    -0.252 NA
ATOM     22  C   UNL A   1      34.485  23.985  25.084  1.00  0.00    -0.041 A 
ATOM     23  C   UNL A   1      33.659  23.893  22.834  1.00  0.00     0.115 A 
ATOM     24  C   UNL A   1      34.163  23.227  23.950  1.00  0.00    -0.026 A 
ATOM     25  C   UNL A   1      35.206  23.365  26.255  1.00  0.00     0.036 C 
ATOM     26  C   UNL A   1      34.255  21.726  23.965  1.00  0.00     0.037 C 
ATOM     27  C   UNL A   1      35.076  21.844  26.324  1.00  0.00     0.005 C 
ATOM     28  C   UNL A   1      35.287  21.205  24.956  1.00  0.00     0.005 C 
ENDBRANCH  17  19
ENDBRANCH   7  17
ENDBRANCH   5   6
ENDBRANCH   3   5
ENDBRANCH   2   3
ENDBRANCH   1   2
BRANCH   1  29
ATOM     29  C   UNL A   1      32.644  29.562  27.149  1.00  0.00     0.275 C 
BRANCH  29  30
ATOM     30  O   UNL A   1      34.070  29.438  27.293  1.00  0.00    -0.458 OA
BRANCH  30  31
ATOM     31  C   UNL A   1      34.699  30.448  27.945  1.00  0.00     0.338 C 
ATOM     32  O   UNL A   1      34.199  31.496  28.312  1.00  0.00    -0.246 OA
BRANCH  31  33
ATOM     33  C   UNL A   1      36.062  30.003  28.330  1.00  0.00     0.060 A 
ATOM     34  C   UNL A   1      36.347  29.527  29.613  1.00  0.00     0.016 A 
ATOM     35  C   UNL A   1      37.091  30.128  27.387  1.00  0.00     0.016 A 
ATOM     36  C   UNL A   1      37.661  29.190  29.951  1.00  0.00     0.010 A 
ATOM     37  C   UNL A   1      38.403  29.778  27.723  1.00  0.00     0.010 A 
ATOM     38  C   UNL A   1      38.701  29.306  29.008  1.00  0.00    -0.014 A 
BRANCH  38  39
ATOM     39  C   UNL A   1      40.044  28.757  29.328  1.00  0.00     0.031 A 
ATOM     40  C   UNL A   1      40.503  27.390  28.903  1.00  0.00     0.074 A 
ATOM     41  C   UNL A   1      40.861  29.518  30.082  1.00  0.00     0.049 A 
ATOM     42  N   UNL A   1      41.712  26.887  28.972  1.00  0.00    -0.248 NA
ATOM     43  C   UNL A   1      39.504  26.464  28.354  1.00  0.00     0.031 C 
ATOM     44  C   UNL A   1      40.503  30.819  30.651  1.00  0.00     0.029 A 
ATOM     45  N   UNL A   1      42.145  29.304  30.513  1.00  0.00    -0.354 N 
ATOM     46  C   UNL A   1      41.626  25.602  28.452  1.00  0.00     0.074 A 
ATOM     47  C   UNL A   1      40.236  25.378  28.122  1.00  0.00     0.031 C 
ATOM     48  C   UNL A   1      41.542  31.285  31.359  1.00  0.00     0.029 A 
ATOM     49  C   UNL A   1      42.632  30.315  31.304  1.00  0.00     0.049 A 
ATOM     50  H   UNL A   1      42.668  28.504  30.277  1.00  0.00     0.167 HD
ATOM     51  C   UNL A   1      42.633  24.722  28.235  1.00  0.00     0.031 A 
ATOM     52  C   UNL A   1      43.819  30.456  31.923  1.00  0.00     0.031 A 
ATOM     53  C   UNL A   1      44.015  24.986  28.527  1.00  0.00     0.049 A 
ATOM     54  C   UNL A   1      44.894  29.432  31.711  1.00  0.00     0.074 A 
ATOM     55  C   UNL A   1      45.130  24.284  28.101  1.00  0.00     0.029 A 
ATOM     56  N   UNL A   1      44.466  25.996  29.355  1.00  0.00    -0.354 N 
ATOM     57  N   UNL A   1      44.874  28.370  30.943  1.00  0.00    -0.248 NA
ATOM     58  C   UNL A   1      46.162  29.632  32.425  1.00  0.00     0.031 C 
ATOM     59  C   UNL A   1      46.248  24.816  28.743  1.00  0.00     0.029 A 
ATOM     60  C   UNL A   1      45.833  25.876  29.533  1.00  0.00     0.049 A 
ATOM     61  H   UNL A   1      43.901  26.695  29.756  1.00  0.00     0.167 HD
ATOM     62  C   UNL A   1      46.134  27.799  31.051  1.00  0.00     0.074 A 
ATOM     63  C   UNL A   1      46.896  28.628  31.960  1.00  0.00     0.031 C 
ATOM     64  C   UNL A   1      46.607  26.689  30.434  1.00  0.00     0.031 A 
BRANCH  51  65
ATOM     65  C   UNL A   1      42.344  23.416  27.555  1.00  0.00    -0.014 A 
ATOM     66  C   UNL A   1      42.137  22.240  28.289  1.00  0.00     0.009 A 
ATOM     67  C   UNL A   1      42.517  23.321  26.169  1.00  0.00     0.009 A 
ATOM     68  C   UNL A   1      42.091  21.002  27.640  1.00  0.00     0.001 A 
ATOM     69  C   UNL A   1      42.450  22.088  25.518  1.00  0.00     0.001 A 
ATOM     70  C   UNL A   1      42.240  20.927  26.255  1.00  0.00     0.000 A 
ENDBRANCH  51  65
BRANCH  52  71
ATOM     71  C   UNL A   1      44.040  31.648  32.779  1.00  0.00    -0.014 A 
ATOM     72  C   UNL A   1      43.667  31.621  34.134  1.00  0.00     0.009 A 
ATOM     73  C   UNL A   1      44.545  32.836  32.236  1.00  0.00     0.009 A 
ATOM     74  C   UNL A   1      43.770  32.769  34.920  1.00  0.00     0.001 A 
ATOM     75  C   UNL A   1      44.673  33.976  33.033  1.00  0.00     0.001 A 
ATOM     76  C   UNL A   1      44.276  33.945  34.370  1.00  0.00     0.000 A 
ENDBRANCH  52  71
BRANCH  64  77
ATOM     77  C   UNL A   1      48.024  26.270  30.702  1.00  0.00    -0.014 A 
ATOM     78  C   UNL A   1      48.336  25.564  31.875  1.00  0.00     0.009 A 
ATOM     79  C   UNL A   1      49.066  26.685  29.860  1.00  0.00     0.009 A 
ATOM     80  C   UNL A   1      49.665  25.308  32.217  1.00  0.00     0.001 A 
ATOM     81  C   UNL A   1      50.392  26.400  30.188  1.00  0.00     0.001 A 
ATOM     82  C   UNL A   1      50.692  25.724  31.371  1.00  0.00     0.000 A 
ENDBRANCH  64  77
ENDBRANCH  38  39
ENDBRANCH  31  33
ENDBRANCH  30  31
ENDBRANCH  29  30
ENDBRANCH   1  29
TORSDOF 14
ENDMDL
MODEL 3
REMARK VINA RESULT:     -12.0      2.133      2.820
REMARK SMILES O=C(Cc1c(C(=O)c2cc3c(cn2)CCCC3)[nH]c2cc(Cl)ccc12)OCCOC(=O)c1ccc(-c2c3nc(c(-c4ccccc4)c4ccc([nH]4)c(-c4ccccc4)c4nc(c(-c5ccccc5)c5ccc2[nH]5)C=C4)C=C3)cc1
REMARK SMILES IDX 27 1 26 2 2 3 1 4 3 5 4 6 5 7 25 8 18 9 19 10 24 11 20 13
REMARK SMILES IDX 23 14 21 15 22 16 6 17 7 18 8 19 9 20 13 21 10 22 12 23
REMARK SMILES IDX 11 24 17 25 14 26 16 27 15 28 28 29 29 30 30 31 31 32 32 33
REMARK SMILES IDX 33 34 79 35 34 36 78 37 35 38 36 39 37 40 72 41 38 42 77 43
REMARK SMILES IDX 71 44 73 45 39 46 76 47 70 48 69 49 40 51 62 52 47 53 61 54
REMARK SMILES IDX 48 55 51 56 60 57 74 58 49 59 50 60 59 62 75 63 52 64 41 65
REMARK SMILES IDX 42 66 46 67 43 68 45 69 44 70 63 71 64 72 68 73 65 74 67 75
REMARK SMILES IDX 66 76 53 77 54 78 58 79 55 80 57 81 56 82
REMARK H PARENT 18 12 73 50 51 61
REMARK Flexibility Score: inf
ROOT
ATOM      1  C   UNL A   1      31.822  28.548  27.055  1.00  0.00     0.274 C 
ENDROOT
BRANCH   1   2
ATOM      2  O   UNL A   1      30.746  27.697  26.599  1.00  0.00    -0.462 OA
BRANCH   2   3
ATOM      3  C   UNL A   1      30.894  26.434  26.127  1.00  0.00     0.310 C 
ATOM      4  O   UNL A   1      31.285  25.541  26.876  1.00  0.00    -0.252 OA
BRANCH   3   5
ATOM      5  C   UNL A   1      30.587  26.164  24.680  1.00  0.00     0.161 C 
BRANCH   5   6
ATOM      6  C   UNL A   1      30.762  27.296  23.708  1.00  0.00     0.000 A 
ATOM      7  C   UNL A   1      32.015  27.777  23.319  1.00  0.00     0.093 A 
ATOM      8  C   UNL A   1      29.781  28.157  23.112  1.00  0.00     0.004 A 
ATOM      9  N   UNL A   1      31.799  28.748  22.374  1.00  0.00    -0.351 N 
ATOM     10  C   UNL A   1      30.472  29.091  22.341  1.00  0.00     0.048 A 
ATOM     11  C   UNL A   1      28.376  28.273  23.185  1.00  0.00     0.012 A 
ATOM     12  H   UNL A   1      32.497  29.142  21.802  1.00  0.00     0.167 HD
ATOM     13  C   UNL A   1      29.848  30.159  21.686  1.00  0.00     0.047 A 
ATOM     14  C   UNL A   1      27.734  29.350  22.561  1.00  0.00     0.021 A 
ATOM     15  C   UNL A   1      28.467  30.283  21.836  1.00  0.00     0.043 A 
ATOM     16  Cl  UNL A   1      27.663  31.627  21.121  1.00  0.00    -0.084 Cl
BRANCH   7  17
ATOM     17  C   UNL A   1      33.321  27.378  23.812  1.00  0.00     0.227 C 
ATOM     18  O   UNL A   1      34.194  28.172  24.145  1.00  0.00    -0.285 OA
BRANCH  17  19
ATOM     19  C   UNL A   1      33.652  25.940  23.846  1.00  0.00     0.113 A 
ATOM     20  C   UNL A   1      34.225  25.393  24.988  1.00  0.00     0.036 A 
ATOM     21  N   UNL A   1      33.394  25.254  22.712  1.00  0.00    -0.252 NA
ATOM     22  C   UNL A   1      34.507  24.025  24.990  1.00  0.00    -0.041 A 
ATOM     23  C   UNL A   1      33.630  23.930  22.759  1.00  0.00     0.115 A 
ATOM     24  C   UNL A   1      34.162  23.266  23.863  1.00  0.00    -0.026 A 
ATOM     25  C   UNL A   1      35.257  23.407  26.144  1.00  0.00     0.036 C 
ATOM     26  C   UNL A   1      34.259  21.765  23.876  1.00  0.00     0.037 C 
ATOM     27  C   UNL A   1      35.134  21.885  26.216  1.00  0.00     0.005 C 
ATOM     28  C   UNL A   1      35.315  21.248  24.843  1.00  0.00     0.005 C 
ENDBRANCH  17  19
ENDBRANCH   7  17
ENDBRANCH   5   6
ENDBRANCH   3   5
ENDBRANCH   2   3
ENDBRANCH   1   2
BRANCH   1  29
ATOM     29  C   UNL A   1      31.778  29.914  26.371  1.00  0.00     0.275 C 
BRANCH  29  30
ATOM     30  O   UNL A   1      33.114  30.420  26.191  1.00  0.00    -0.458 OA
BRANCH  30  31
ATOM     31  C   UNL A   1      33.488  31.435  27.009  1.00  0.00     0.338 C 
ATOM     32  O   UNL A   1      32.839  32.431  27.271  1.00  0.00    -0.246 OA
BRANCH  31  33
ATOM     33  C   UNL A   1      34.742  31.057  27.708  1.00  0.00     0.060 A 
ATOM     34  C   UNL A   1      35.727  32.000  28.017  1.00  0.00     0.016 A 
ATOM     35  C   UNL A   1      34.955  29.704  28.000  1.00  0.00     0.016 A 
ATOM     36  C   UNL A   1      36.923  31.584  28.608  1.00  0.00     0.010 A 
ATOM     37  C   UNL A   1      36.148  29.291  28.603  1.00  0.00     0.010 A 
ATOM     38  C   UNL A   1      37.144  30.227  28.913  1.00  0.00    -0.014 A 
BRANCH  38  39
ATOM     39  C   UNL A   1      38.332  29.841  29.717  1.00  0.00     0.031 A 
ATOM     40  C   UNL A   1      38.559  30.293  31.132  1.00  0.00     0.074 A 
ATOM     41  C   UNL A   1      39.270  29.086  29.111  1.00  0.00     0.049 A 
ATOM     42  N   UNL A   1      39.465  29.870  31.980  1.00  0.00    -0.248 NA
ATOM     43  C   UNL A   1      37.693  31.352  31.667  1.00  0.00     0.031 C 
ATOM     44  C   UNL A   1      39.229  28.665  27.710  1.00  0.00     0.029 A 
ATOM     45  N   UNL A   1      40.442  28.556  29.588  1.00  0.00    -0.354 N 
ATOM     46  C   UNL A   1      39.262  30.586  33.152  1.00  0.00     0.074 A 
ATOM     47  C   UNL A   1      38.183  31.513  32.893  1.00  0.00     0.031 C 
ATOM     48  C   UNL A   1      40.327  27.945  27.439  1.00  0.00     0.029 A 
ATOM     49  C   UNL A   1      41.153  27.863  28.640  1.00  0.00     0.049 A 
ATOM     50  H   UNL A   1      40.744  28.661  30.519  1.00  0.00     0.167 HD
ATOM     51  C   UNL A   1      39.897  30.438  34.340  1.00  0.00     0.031 A 
ATOM     52  C   UNL A   1      42.339  27.230  28.715  1.00  0.00     0.031 A 
ATOM     53  C   UNL A   1      40.935  29.475  34.587  1.00  0.00     0.049 A 
ATOM     54  C   UNL A   1      43.048  27.135  30.034  1.00  0.00     0.074 A 
ATOM     55  C   UNL A   1      41.446  29.061  35.806  1.00  0.00     0.029 A 
ATOM     56  N   UNL A   1      41.651  28.819  33.605  1.00  0.00    -0.354 N 
ATOM     57  N   UNL A   1      42.656  27.568  31.207  1.00  0.00    -0.248 NA
ATOM     58  C   UNL A   1      44.345  26.446  30.051  1.00  0.00     0.031 C 
ATOM     59  C   UNL A   1      42.532  28.221  35.556  1.00  0.00     0.029 A 
ATOM     60  C   UNL A   1      42.667  28.080  34.185  1.00  0.00     0.049 A 
ATOM     61  H   UNL A   1      41.467  28.870  32.640  1.00  0.00     0.167 HD
ATOM     62  C   UNL A   1      43.637  27.171  32.105  1.00  0.00     0.074 A 
ATOM     63  C   UNL A   1      44.644  26.464  31.344  1.00  0.00     0.031 C 
ATOM     64  C   UNL A   1      43.679  27.373  33.444  1.00  0.00     0.031 A 
BRANCH  51  65
ATOM     65  C   UNL A   1      39.450  31.240  35.526  1.00  0.00    -0.014 A 
ATOM     66  C   UNL A   1      38.300  30.896  36.249  1.00  0.00     0.009 A 
ATOM     67  C   UNL A   1      40.050  32.482  35.769  1.00  0.00     0.009 A 
ATOM     68  C   UNL A   1      37.778  31.774  37.204  1.00  0.00     0.001 A 
ATOM     69  C   UNL A   1      39.542  33.349  36.737  1.00  0.00     0.001 A 
ATOM     70  C   UNL A   1      38.403  32.997  37.453  1.00  0.00     0.000 A 
ENDBRANCH  51  65
BRANCH  52  71
ATOM     71  C   UNL A   1      42.898  26.613  27.486  1.00  0.00    -0.014 A 
ATOM     72  C   UNL A   1      43.742  27.359  26.645  1.00  0.00     0.009 A 
ATOM     73  C   UNL A   1      42.532  25.315  27.107  1.00  0.00     0.009 A 
ATOM     74  C   UNL A   1      44.186  26.826  25.434  1.00  0.00     0.001 A 
ATOM     75  C   UNL A   1      43.001  24.774  25.907  1.00  0.00     0.001 A 
ATOM     76  C   UNL A   1      43.817  25.533  25.068  1.00  0.00     0.000 A 
ENDBRANCH  52  71
BRANCH  64  77
ATOM     77  C   UNL A   1      44.850  26.832  34.213  1.00  0.00    -0.014 A 
ATOM     78  C   UNL A   1      44.788  25.547  34.774  1.00  0.00     0.009 A 
ATOM     79  C   UNL A   1      45.961  27.642  34.489  1.00  0.00     0.009 A 
ATOM     80  C   UNL A   1      45.799  25.093  35.623  1.00  0.00     0.001 A 
ATOM     81  C   UNL A   1      46.987  27.174  35.313  1.00  0.00     0.001 A 
ATOM     82  C   UNL A   1      46.899  25.907  35.890  1.00  0.00     0.000 A 
ENDBRANCH  64  77
ENDBRANCH  38  39
ENDBRANCH  31  33
ENDBRANCH  30  31
ENDBRANCH  29  30
ENDBRANCH   1  29
TORSDOF 14
ENDMDL
