MODEL 1
REMARK VINA RESULT:     -15.8      0.000      0.000
REMARK SMILES Cc1ccccc1/C=C1\SC(=O)N(CC(=O)Nc2ccccc2C(=O)OCCOC(=O)c2ccc(-c3c4nc(c(-c5ccccc5)c5ccc([nH]5)c(-c5ccccc5)c5nc(c(-c6ccccc6)c6ccc3[nH]6)C=C5)C=C4)cc2)C1=O
REMARK SMILES IDX 27 1 26 2 24 3 25 4 23 5 18 6 19 7 20 8 22 9 21 10 17 11
REMARK SMILES IDX 15 12 16 13 14 15 13 16 8 17 9 18 10 19 80 20 11 21 81 22
REMARK SMILES IDX 12 23 7 24 1 25 2 26 3 27 4 28 6 29 5 30 28 31 29 32 30 33
REMARK SMILES IDX 31 34 32 35 33 36 79 37 34 38 78 39 35 40 36 41 37 42 72 43
REMARK SMILES IDX 38 44 77 45 71 46 73 47 39 48 76 49 70 50 69 51 40 53 62 54
REMARK SMILES IDX 47 55 61 56 48 57 51 58 60 59 74 60 49 61 50 62 59 64 75 65
REMARK SMILES IDX 52 66 41 67 42 68 46 69 43 70 45 71 44 72 63 73 64 74 68 75
REMARK SMILES IDX 65 76 67 77 66 78 53 79 54 80 58 81 55 82 57 83 56 84
REMARK H PARENT 17 14 73 52 51 63
REMARK Flexibility Score: inf
ROOT
ATOM      1  C   UNL A   1      38.340  23.679  26.127  1.00  0.00     0.275 C 
ENDROOT
BRANCH   1   2
ATOM      2  O   UNL A   1      36.602  22.799  25.457  1.00  0.00    -0.458 OA
BRANCH   2   3
ATOM      3  C   UNL A   1      35.466  21.717  25.709  1.00  0.00     0.340 C 
ATOM      4  O   UNL A   1      34.945  22.503  26.565  1.00  0.00    -0.246 OA
BRANCH   3   5
ATOM      5  C   UNL A   1      34.717  19.793  25.070  1.00  0.00     0.083 A 
ATOM      6  C   UNL A   1      33.013  19.412  25.118  1.00  0.00     0.055 A 
ATOM      7  C   UNL A   1      32.487  18.147  24.806  1.00  0.00     0.027 A 
ATOM      8  C   UNL A   1      33.344  17.143  24.364  1.00  0.00     0.002 A 
ATOM      9  C   UNL A   1      35.371  18.562  24.575  1.00  0.00     0.018 A 
ATOM     10  C   UNL A   1      34.721  17.347  24.241  1.00  0.00     0.001 A 
BRANCH   6  11
ATOM     11  N   UNL A   1      31.761  20.516  25.512  1.00  0.00    -0.324 N 
ATOM     12  C   UNL A   1      31.508  22.077  25.336  1.00  0.00     0.244 C 
ATOM     13  O   UNL A   1      30.411  22.435  25.804  1.00  0.00    -0.273 OA
ATOM     14  H   UNL A   1      31.007  20.072  25.963  1.00  0.00     0.170 HD
BRANCH  12  15
ATOM     15  C   UNL A   1      32.403  23.328  24.199  1.00  0.00     0.230 C 
BRANCH  15  16
ATOM     16  N   UNL A   1      32.704  25.093  24.169  1.00  0.00    -0.259 N 
ATOM     17  C   UNL A   1      32.910  28.175  27.197  1.00  0.00     0.029 C 
ATOM     18  C   UNL A   1      32.741  27.526  26.021  1.00  0.00     0.083 C 
ATOM     19  S   UNL A   1      33.713  28.410  24.267  1.00  0.00    -0.022 SA
ATOM     20  C   UNL A   1      32.184  25.696  25.766  1.00  0.00     0.268 C 
ATOM     21  C   UNL A   1      33.485  26.458  23.047  1.00  0.00     0.294 C 
ATOM     22  O   UNL A   1      31.430  25.088  26.517  1.00  0.00    -0.268 OA
ATOM     23  O   UNL A   1      33.697  26.747  21.876  1.00  0.00    -0.261 OA
BRANCH  17  24
ATOM     24  C   UNL A   1      33.682  29.437  27.423  1.00  0.00    -0.021 A 
ATOM     25  C   UNL A   1      31.740  31.038  26.991  1.00  0.00     0.045 C 
ATOM     26  C   UNL A   1      33.181  30.740  27.274  1.00  0.00    -0.044 A 
ATOM     27  C   UNL A   1      34.056  31.850  27.379  1.00  0.00     0.004 A 
ATOM     28  C   UNL A   1      35.397  31.696  27.721  1.00  0.00     0.000 A 
ATOM     29  C   UNL A   1      35.030  29.325  27.811  1.00  0.00     0.008 A 
ATOM     30  C   UNL A   1      35.880  30.427  27.972  1.00  0.00     0.001 A 
ENDBRANCH  17  24
ENDBRANCH  15  16
ENDBRANCH  12  15
ENDBRANCH   6  11
ENDBRANCH   3   5
ENDBRANCH   2   3
ENDBRANCH   1   2
BRANCH   1  31
ATOM     31  C   UNL A   1      39.649  22.442  26.659  1.00  0.00     0.275 C 
BRANCH  31  32
ATOM     32  O   UNL A   1      41.203  22.978  27.159  1.00  0.00    -0.458 OA
BRANCH  32  33
ATOM     33  C   UNL A   1      41.942  24.176  27.561  1.00  0.00     0.338 C 
ATOM     34  O   UNL A   1      43.146  24.092  27.786  1.00  0.00    -0.246 OA
BRANCH  33  35
ATOM     35  C   UNL A   1      41.187  25.542  28.074  1.00  0.00     0.060 A 
ATOM     36  C   UNL A   1      42.445  26.636  28.348  1.00  0.00     0.016 A 
ATOM     37  C   UNL A   1      39.632  26.016  28.756  1.00  0.00     0.016 A 
ATOM     38  C   UNL A   1      42.324  28.379  29.111  1.00  0.00     0.010 A 
ATOM     39  C   UNL A   1      39.375  27.607  29.595  1.00  0.00     0.010 A 
ATOM     40  C   UNL A   1      40.677  28.878  29.724  1.00  0.00    -0.014 A 
BRANCH  40  41
ATOM     41  C   UNL A   1      40.484  29.794  30.911  1.00  0.00     0.031 A 
ATOM     42  C   UNL A   1      39.639  31.003  30.707  1.00  0.00     0.074 A 
ATOM     43  C   UNL A   1      40.705  29.391  32.204  1.00  0.00     0.049 A 
ATOM     44  N   UNL A   1      39.312  31.814  31.650  1.00  0.00    -0.248 NA
ATOM     45  C   UNL A   1      39.094  31.436  29.423  1.00  0.00     0.031 C 
ATOM     46  C   UNL A   1      39.958  29.822  33.393  1.00  0.00     0.029 A 
ATOM     47  N   UNL A   1      41.529  28.398  32.741  1.00  0.00    -0.354 N 
ATOM     48  C   UNL A   1      38.323  32.649  31.208  1.00  0.00     0.074 A 
ATOM     49  C   UNL A   1      38.252  32.407  29.790  1.00  0.00     0.031 C 
ATOM     50  C   UNL A   1      40.313  29.122  34.479  1.00  0.00     0.029 A 
ATOM     51  C   UNL A   1      41.522  28.416  34.153  1.00  0.00     0.049 A 
ATOM     52  H   UNL A   1      42.051  27.763  32.199  1.00  0.00     0.167 HD
ATOM     53  C   UNL A   1      37.649  33.389  32.129  1.00  0.00     0.031 A 
ATOM     54  C   UNL A   1      42.675  28.651  34.851  1.00  0.00     0.031 A 
ATOM     55  C   UNL A   1      38.320  33.345  33.445  1.00  0.00     0.049 A 
ATOM     56  C   UNL A   1      42.854  30.117  35.194  1.00  0.00     0.074 A 
ATOM     57  C   UNL A   1      37.998  32.853  34.698  1.00  0.00     0.029 A 
ATOM     58  N   UNL A   1      39.690  33.629  33.497  1.00  0.00    -0.354 N 
ATOM     59  N   UNL A   1      41.897  31.006  35.184  1.00  0.00    -0.248 NA
ATOM     60  C   UNL A   1      44.144  30.711  35.530  1.00  0.00     0.031 C 
ATOM     61  C   UNL A   1      39.211  32.733  35.450  1.00  0.00     0.029 A 
ATOM     62  C   UNL A   1      40.264  33.211  34.686  1.00  0.00     0.049 A 
ATOM     63  H   UNL A   1      40.188  34.076  32.773  1.00  0.00     0.167 HD
ATOM     64  C   UNL A   1      42.434  32.260  35.230  1.00  0.00     0.074 A 
ATOM     65  C   UNL A   1      43.826  32.016  35.577  1.00  0.00     0.031 C 
ATOM     66  C   UNL A   1      41.712  33.376  34.900  1.00  0.00     0.031 A 
BRANCH  53  67
ATOM     67  C   UNL A   1      36.314  34.058  31.867  1.00  0.00    -0.014 A 
ATOM     68  C   UNL A   1      35.804  34.991  32.787  1.00  0.00     0.009 A 
ATOM     69  C   UNL A   1      35.463  33.751  30.785  1.00  0.00     0.009 A 
ATOM     70  C   UNL A   1      34.533  35.574  32.634  1.00  0.00     0.001 A 
ATOM     71  C   UNL A   1      34.206  34.349  30.609  1.00  0.00     0.001 A 
ATOM     72  C   UNL A   1      33.736  35.257  31.541  1.00  0.00     0.000 A 
ENDBRANCH  53  67
BRANCH  54  73
ATOM     73  C   UNL A   1      43.727  27.678  34.469  1.00  0.00    -0.014 A 
ATOM     74  C   UNL A   1      43.544  26.374  34.975  1.00  0.00     0.009 A 
ATOM     75  C   UNL A   1      44.415  27.857  33.261  1.00  0.00     0.009 A 
ATOM     76  C   UNL A   1      43.799  25.272  34.163  1.00  0.00     0.001 A 
ATOM     77  C   UNL A   1      44.672  26.747  32.457  1.00  0.00     0.001 A 
ATOM     78  C   UNL A   1      44.313  25.467  32.887  1.00  0.00     0.000 A 
ENDBRANCH  54  73
BRANCH  66  79
ATOM     79  C   UNL A   1      42.304  34.767  34.777  1.00  0.00    -0.014 A 
ATOM     80  C   UNL A   1      42.559  35.632  35.850  1.00  0.00     0.009 A 
ATOM     81  C   UNL A   1      42.683  35.232  33.499  1.00  0.00     0.009 A 
ATOM     82  C   UNL A   1      43.049  36.930  35.645  1.00  0.00     0.001 A 
ATOM     83  C   UNL A   1      43.240  36.496  33.297  1.00  0.00     0.001 A 
ATOM     84  C   UNL A   1      43.389  37.361  34.370  1.00  0.00     0.000 A 
ENDBRANCH  66  79
ENDBRANCH  40  41
ENDBRANCH  33  35
ENDBRANCH  32  33
ENDBRANCH  31  32
ENDBRANCH   1  31
TORSDOF 15
ENDMDL
MODEL 2
REMARK VINA RESULT:     -15.5      4.328      9.832
REMARK SMILES Cc1ccccc1/C=C1\SC(=O)N(CC(=O)Nc2ccccc2C(=O)OCCOC(=O)c2ccc(-c3c4nc(c(-c5ccccc5)c5ccc([nH]5)c(-c5ccccc5)c5nc(c(-c6ccccc6)c6ccc3[nH]6)C=C5)C=C4)cc2)C1=O
REMARK SMILES IDX 27 1 26 2 24 3 25 4 23 5 18 6 19 7 20 8 22 9 21 10 17 11
REMARK SMILES IDX 15 12 16 13 14 15 13 16 8 17 9 18 10 19 80 20 11 21 81 22
REMARK SMILES IDX 12 23 7 24 1 25 2 26 3 27 4 28 6 29 5 30 28 31 29 32 30 33
REMARK SMILES IDX 31 34 32 35 33 36 79 37 34 38 78 39 35 40 36 41 37 42 72 43
REMARK SMILES IDX 38 44 77 45 71 46 73 47 39 48 76 49 70 50 69 51 40 53 62 54
REMARK SMILES IDX 47 55 61 56 48 57 51 58 60 59 74 60 49 61 50 62 59 64 75 65
REMARK SMILES IDX 52 66 41 67 42 68 46 69 43 70 45 71 44 72 63 73 64 74 68 75
REMARK SMILES IDX 65 76 67 77 66 78 53 79 54 80 58 81 55 82 57 83 56 84
REMARK H PARENT 17 14 73 52 51 63
REMARK Flexibility Score: inf
ROOT
ATOM      1  C   UNL A   1      34.038  34.816  30.152  1.00  0.00     0.275 C 
ENDROOT
BRANCH   1   2
ATOM      2  O   UNL A   1      32.838  33.993  28.695  1.00  0.00    -0.458 OA
BRANCH   2   3
ATOM      3  C   UNL A   1      32.625  32.827  27.636  1.00  0.00     0.340 C 
ATOM      4  O   UNL A   1      31.776  33.562  27.037  1.00  0.00    -0.246 OA
BRANCH   3   5
ATOM      5  C   UNL A   1      33.302  30.860  27.048  1.00  0.00     0.083 A 
ATOM      6  C   UNL A   1      32.459  29.926  25.837  1.00  0.00     0.055 A 
ATOM      7  C   UNL A   1      32.801  28.608  25.489  1.00  0.00     0.027 A 
ATOM      8  C   UNL A   1      33.913  28.015  26.080  1.00  0.00     0.002 A 
ATOM      9  C   UNL A   1      34.414  29.994  27.495  1.00  0.00     0.018 A 
ATOM     10  C   UNL A   1      34.691  28.683  27.030  1.00  0.00     0.001 A 
BRANCH   6  11
ATOM     11  N   UNL A   1      31.142  30.487  24.892  1.00  0.00    -0.324 N 
ATOM     12  C   UNL A   1      30.133  29.854  23.837  1.00  0.00     0.244 C 
ATOM     13  O   UNL A   1      29.319  30.690  23.399  1.00  0.00    -0.273 OA
ATOM     14  H   UNL A   1      30.965  31.444  25.040  1.00  0.00     0.170 HD
BRANCH  12  15
ATOM     15  C   UNL A   1      29.743  28.015  23.486  1.00  0.00     0.230 C 
BRANCH  15  16
ATOM     16  N   UNL A   1      30.242  26.421  24.132  1.00  0.00    -0.259 N 
ATOM     17  C   UNL A   1      33.320  23.566  23.089  1.00  0.00     0.029 C 
ATOM     18  C   UNL A   1      32.177  24.125  23.553  1.00  0.00     0.083 C 
ATOM     19  S   UNL A   1      31.565  23.560  25.580  1.00  0.00    -0.022 SA
ATOM     20  C   UNL A   1      31.291  25.702  22.881  1.00  0.00     0.268 C 
ATOM     21  C   UNL A   1      30.100  25.345  25.730  1.00  0.00     0.294 C 
ATOM     22  O   UNL A   1      31.307  26.061  21.709  1.00  0.00    -0.268 OA
ATOM     23  O   UNL A   1      29.372  25.123  26.689  1.00  0.00    -0.261 OA
BRANCH  17  24
ATOM     24  C   UNL A   1      34.201  22.596  23.810  1.00  0.00    -0.021 A 
ATOM     25  C   UNL A   1      32.612  20.602  23.657  1.00  0.00     0.045 C 
ATOM     26  C   UNL A   1      33.869  21.269  24.128  1.00  0.00    -0.044 A 
ATOM     27  C   UNL A   1      34.738  20.498  24.940  1.00  0.00     0.004 A 
ATOM     28  C   UNL A   1      35.970  20.987  25.364  1.00  0.00     0.000 A 
ATOM     29  C   UNL A   1      35.473  23.037  24.219  1.00  0.00     0.008 A 
ATOM     30  C   UNL A   1      36.356  22.254  24.973  1.00  0.00     0.001 A 
ENDBRANCH  17  24
ENDBRANCH  15  16
ENDBRANCH  12  15
ENDBRANCH   6  11
ENDBRANCH   3   5
ENDBRANCH   2   3
ENDBRANCH   1   2
BRANCH   1  31
ATOM     31  C   UNL A   1      34.969  33.537  31.166  1.00  0.00     0.275 C 
BRANCH  31  32
ATOM     32  O   UNL A   1      36.148  32.529  30.428  1.00  0.00    -0.458 OA
BRANCH  32  33
ATOM     33  C   UNL A   1      36.772  32.227  29.139  1.00  0.00     0.338 C 
ATOM     34  O   UNL A   1      36.325  32.744  28.119  1.00  0.00    -0.246 OA
BRANCH  33  35
ATOM     35  C   UNL A   1      37.801  30.962  28.937  1.00  0.00     0.060 A 
ATOM     36  C   UNL A   1      38.830  31.045  30.276  1.00  0.00     0.016 A 
ATOM     37  C   UNL A   1      38.355  29.903  27.642  1.00  0.00     0.016 A 
ATOM     38  C   UNL A   1      40.376  29.985  30.619  1.00  0.00     0.010 A 
ATOM     39  C   UNL A   1      39.860  28.894  27.779  1.00  0.00     0.010 A 
ATOM     40  C   UNL A   1      40.871  28.827  29.296  1.00  0.00    -0.014 A 
BRANCH  40  41
ATOM     41  C   UNL A   1      42.311  28.457  29.023  1.00  0.00     0.031 A 
ATOM     42  C   UNL A   1      43.286  29.573  28.880  1.00  0.00     0.074 A 
ATOM     43  C   UNL A   1      42.818  27.207  29.278  1.00  0.00     0.049 A 
ATOM     44  N   UNL A   1      44.553  29.403  28.744  1.00  0.00    -0.248 NA
ATOM     45  C   UNL A   1      42.937  30.991  28.854  1.00  0.00     0.031 C 
ATOM     46  C   UNL A   1      44.178  26.892  29.736  1.00  0.00     0.029 A 
ATOM     47  N   UNL A   1      42.207  25.952  29.345  1.00  0.00    -0.354 N 
ATOM     48  C   UNL A   1      45.193  30.599  28.916  1.00  0.00     0.074 A 
ATOM     49  C   UNL A   1      44.136  31.576  28.935  1.00  0.00     0.031 C 
ATOM     50  C   UNL A   1      44.305  25.596  30.049  1.00  0.00     0.029 A 
ATOM     51  C   UNL A   1      43.151  24.917  29.525  1.00  0.00     0.049 A 
ATOM     52  H   UNL A   1      41.235  25.807  29.274  1.00  0.00     0.167 HD
ATOM     53  C   UNL A   1      46.543  30.585  29.086  1.00  0.00     0.031 A 
ATOM     54  C   UNL A   1      43.290  23.930  28.587  1.00  0.00     0.031 A 
ATOM     55  C   UNL A   1      47.109  29.256  28.775  1.00  0.00     0.049 A 
ATOM     56  C   UNL A   1      44.370  24.247  27.572  1.00  0.00     0.074 A 
ATOM     57  C   UNL A   1      47.754  28.267  29.497  1.00  0.00     0.029 A 
ATOM     58  N   UNL A   1      46.764  28.663  27.554  1.00  0.00    -0.354 N 
ATOM     59  N   UNL A   1      45.316  25.132  27.742  1.00  0.00    -0.248 NA
ATOM     60  C   UNL A   1      44.441  23.622  26.255  1.00  0.00     0.031 C 
ATOM     61  C   UNL A   1      47.678  27.051  28.744  1.00  0.00     0.029 A 
ATOM     62  C   UNL A   1      47.049  27.307  27.537  1.00  0.00     0.049 A 
ATOM     63  H   UNL A   1      46.367  29.151  26.797  1.00  0.00     0.167 HD
ATOM     64  C   UNL A   1      45.921  25.394  26.547  1.00  0.00     0.074 A 
ATOM     65  C   UNL A   1      45.428  24.333  25.682  1.00  0.00     0.031 C 
ATOM     66  C   UNL A   1      46.704  26.501  26.353  1.00  0.00     0.031 A 
BRANCH  53  67
ATOM     67  C   UNL A   1      47.338  31.746  29.652  1.00  0.00    -0.014 A 
ATOM     68  C   UNL A   1      48.003  32.630  28.785  1.00  0.00     0.009 A 
ATOM     69  C   UNL A   1      47.551  31.976  31.027  1.00  0.00     0.009 A 
ATOM     70  C   UNL A   1      48.823  33.669  29.260  1.00  0.00     0.001 A 
ATOM     71  C   UNL A   1      48.343  33.028  31.512  1.00  0.00     0.001 A 
ATOM     72  C   UNL A   1      48.988  33.872  30.625  1.00  0.00     0.000 A 
ENDBRANCH  53  67
BRANCH  54  73
ATOM     73  C   UNL A   1      41.993  23.251  28.345  1.00  0.00    -0.014 A 
ATOM     74  C   UNL A   1      40.974  24.081  27.832  1.00  0.00     0.009 A 
ATOM     75  C   UNL A   1      41.987  21.884  28.038  1.00  0.00     0.009 A 
ATOM     76  C   UNL A   1      40.136  23.609  26.826  1.00  0.00     0.001 A 
ATOM     77  C   UNL A   1      41.139  21.419  27.033  1.00  0.00     0.001 A 
ATOM     78  C   UNL A   1      40.258  22.294  26.394  1.00  0.00     0.000 A 
ENDBRANCH  54  73
BRANCH  66  79
ATOM     79  C   UNL A   1      47.261  26.923  25.007  1.00  0.00    -0.014 A 
ATOM     80  C   UNL A   1      46.652  27.833  24.132  1.00  0.00     0.009 A 
ATOM     81  C   UNL A   1      48.513  26.413  24.600  1.00  0.00     0.009 A 
ATOM     82  C   UNL A   1      47.200  28.121  22.875  1.00  0.00     0.001 A 
ATOM     83  C   UNL A   1      49.100  26.753  23.380  1.00  0.00     0.001 A 
ATOM     84  C   UNL A   1      48.423  27.582  22.499  1.00  0.00     0.000 A 
ENDBRANCH  66  79
ENDBRANCH  40  41
ENDBRANCH  33  35
ENDBRANCH  32  33
ENDBRANCH  31  32
ENDBRANCH   1  31
TORSDOF 15
ENDMDL
MODEL 3
REMARK VINA RESULT:     -15.1      2.250      6.402
REMARK SMILES Cc1ccccc1/C=C1\SC(=O)N(CC(=O)Nc2ccccc2C(=O)OCCOC(=O)c2ccc(-c3c4nc(c(-c5ccccc5)c5ccc([nH]5)c(-c5ccccc5)c5nc(c(-c6ccccc6)c6ccc3[nH]6)C=C5)C=C4)cc2)C1=O
REMARK SMILES IDX 27 1 26 2 24 3 25 4 23 5 18 6 19 7 20 8 22 9 21 10 17 11
REMARK SMILES IDX 15 12 16 13 14 15 13 16 8 17 9 18 10 19 80 20 11 21 81 22
REMARK SMILES IDX 12 23 7 24 1 25 2 26 3 27 4 28 6 29 5 30 28 31 29 32 30 33
REMARK SMILES IDX 31 34 32 35 33 36 79 37 34 38 78 39 35 40 36 41 37 42 72 43
REMARK SMILES IDX 38 44 77 45 71 46 73 47 39 48 76 49 70 50 69 51 40 53 62 54
REMARK SMILES IDX 47 55 61 56 48 57 51 58 60 59 74 60 49 61 50 62 59 64 75 65
REMARK SMILES IDX 52 66 41 67 42 68 46 69 43 70 45 71 44 72 63 73 64 74 68 75
REMARK SMILES IDX 65 76 67 77 66 78 53 79 54 80 58 81 55 82 57 83 56 84
REMARK H PARENT 17 14 73 52 51 63
REMARK Flexibility Score: inf
ROOT
ATOM      1  C   UNL A   1      39.625  21.014  25.837  1.00  0.00     0.275 C 
ENDROOT
BRANCH   1   2
ATOM      2  O   UNL A   1      37.722  20.994  25.051  1.00  0.00    -0.458 OA
BRANCH   2   3
ATOM      3  C   UNL A   1      36.384  20.173  24.805  1.00  0.00     0.340 C 
ATOM      4  O   UNL A   1      35.816  21.256  24.451  1.00  0.00    -0.246 OA
BRANCH   3   5
ATOM      5  C   UNL A   1      35.527  18.188  24.820  1.00  0.00     0.083 A 
ATOM      6  C   UNL A   1      34.001  17.844  24.043  1.00  0.00     0.055 A 
ATOM      7  C   UNL A   1      33.356  16.597  24.107  1.00  0.00     0.027 A 
ATOM      8  C   UNL A   1      33.982  15.540  24.761  1.00  0.00     0.002 A 
ATOM      9  C   UNL A   1      35.947  16.906  25.426  1.00  0.00     0.018 A 
ATOM     10  C   UNL A   1      35.226  15.685  25.381  1.00  0.00     0.001 A 
BRANCH   6  11
ATOM     11  N   UNL A   1      33.106  18.948  23.082  1.00  0.00    -0.324 N 
ATOM     12  C   UNL A   1      32.413  20.363  23.301  1.00  0.00     0.244 C 
ATOM     13  O   UNL A   1      31.858  20.784  22.269  1.00  0.00    -0.273 OA
ATOM     14  H   UNL A   1      32.993  18.623  22.159  1.00  0.00     0.170 HD
BRANCH  12  15
ATOM     15  C   UNL A   1      32.659  21.625  24.717  1.00  0.00     0.230 C 
BRANCH  15  16
ATOM     16  N   UNL A   1      31.942  23.186  25.223  1.00  0.00    -0.259 N 
ATOM     17  C   UNL A   1      32.066  27.217  23.658  1.00  0.00     0.029 C 
ATOM     18  C   UNL A   1      31.963  26.155  24.492  1.00  0.00     0.083 C 
ATOM     19  S   UNL A   1      30.249  26.146  25.858  1.00  0.00    -0.022 SA
ATOM     20  C   UNL A   1      32.827  24.440  24.311  1.00  0.00     0.268 C 
ATOM     21  C   UNL A   1      30.505  23.891  26.305  1.00  0.00     0.294 C 
ATOM     22  O   UNL A   1      33.922  24.265  23.790  1.00  0.00    -0.268 OA
ATOM     23  O   UNL A   1      29.829  23.649  27.297  1.00  0.00    -0.261 OA
BRANCH  17  24
ATOM     24  C   UNL A   1      31.137  28.388  23.578  1.00  0.00    -0.021 A 
ATOM     25  C   UNL A   1      32.210  29.730  25.468  1.00  0.00     0.045 C 
ATOM     26  C   UNL A   1      31.153  29.504  24.430  1.00  0.00    -0.044 A 
ATOM     27  C   UNL A   1      30.128  30.478  24.337  1.00  0.00     0.004 A 
ATOM     28  C   UNL A   1      29.143  30.414  23.355  1.00  0.00     0.000 A 
ATOM     29  C   UNL A   1      30.153  28.382  22.572  1.00  0.00     0.008 A 
ATOM     30  C   UNL A   1      29.175  29.377  22.445  1.00  0.00     0.001 A 
ENDBRANCH  17  24
ENDBRANCH  15  16
ENDBRANCH  12  15
ENDBRANCH   6  11
ENDBRANCH   3   5
ENDBRANCH   2   3
ENDBRANCH   1   2
BRANCH   1  31
ATOM     31  C   UNL A   1      39.878  22.328  27.157  1.00  0.00     0.275 C 
BRANCH  31  32
ATOM     32  O   UNL A   1      39.830  23.995  26.746  1.00  0.00    -0.458 OA
BRANCH  32  33
ATOM     33  C   UNL A   1      40.429  25.289  27.078  1.00  0.00     0.338 C 
ATOM     34  O   UNL A   1      41.626  25.467  26.873  1.00  0.00    -0.246 OA
BRANCH  33  35
ATOM     35  C   UNL A   1      39.669  26.387  28.036  1.00  0.00     0.060 A 
ATOM     36  C   UNL A   1      40.132  27.883  27.402  1.00  0.00     0.016 A 
ATOM     37  C   UNL A   1      38.926  26.457  29.632  1.00  0.00     0.016 A 
ATOM     38  C   UNL A   1      39.757  29.612  28.114  1.00  0.00     0.010 A 
ATOM     39  C   UNL A   1      38.584  28.024  30.485  1.00  0.00     0.010 A 
ATOM     40  C   UNL A   1      38.900  29.651  29.726  1.00  0.00    -0.014 A 
BRANCH  40  41
ATOM     41  C   UNL A   1      39.125  30.740  30.750  1.00  0.00     0.031 A 
ATOM     42  C   UNL A   1      40.331  30.623  31.615  1.00  0.00     0.074 A 
ATOM     43  C   UNL A   1      38.528  31.973  30.667  1.00  0.00     0.049 A 
ATOM     44  N   UNL A   1      40.697  31.523  32.458  1.00  0.00    -0.248 NA
ATOM     45  C   UNL A   1      41.236  29.477  31.638  1.00  0.00     0.031 C 
ATOM     46  C   UNL A   1      39.111  33.257  31.078  1.00  0.00     0.029 A 
ATOM     47  N   UNL A   1      37.340  32.392  30.060  1.00  0.00    -0.354 N 
ATOM     48  C   UNL A   1      41.967  31.254  32.886  1.00  0.00     0.074 A 
ATOM     49  C   UNL A   1      42.248  29.935  32.382  1.00  0.00     0.031 C 
ATOM     50  C   UNL A   1      38.338  34.289  30.715  1.00  0.00     0.029 A 
ATOM     51  C   UNL A   1      37.062  33.750  30.331  1.00  0.00     0.049 A 
ATOM     52  H   UNL A   1      36.767  31.810  29.510  1.00  0.00     0.167 HD
ATOM     53  C   UNL A   1      42.636  32.227  33.562  1.00  0.00     0.031 A 
ATOM     54  C   UNL A   1      35.925  34.107  31.003  1.00  0.00     0.031 A 
ATOM     55  C   UNL A   1      41.731  33.330  33.947  1.00  0.00     0.049 A 
ATOM     56  C   UNL A   1      36.151  34.230  32.497  1.00  0.00     0.074 A 
ATOM     57  C   UNL A   1      41.616  34.670  33.620  1.00  0.00     0.029 A 
ATOM     58  N   UNL A   1      40.541  33.005  34.610  1.00  0.00    -0.354 N 
ATOM     59  N   UNL A   1      37.321  34.363  33.064  1.00  0.00    -0.248 NA
ATOM     60  C   UNL A   1      35.076  34.164  33.480  1.00  0.00     0.031 C 
ATOM     61  C   UNL A   1      40.300  35.102  33.984  1.00  0.00     0.029 A 
ATOM     62  C   UNL A   1      39.633  34.051  34.592  1.00  0.00     0.049 A 
ATOM     63  H   UNL A   1      40.370  32.135  35.039  1.00  0.00     0.167 HD
ATOM     64  C   UNL A   1      37.210  34.135  34.405  1.00  0.00     0.074 A 
ATOM     65  C   UNL A   1      35.773  34.146  34.629  1.00  0.00     0.031 C 
ATOM     66  C   UNL A   1      38.300  33.876  35.194  1.00  0.00     0.031 A 
BRANCH  53  67
ATOM     67  C   UNL A   1      44.138  32.237  33.769  1.00  0.00    -0.014 A 
ATOM     68  C   UNL A   1      44.673  32.639  35.005  1.00  0.00     0.009 A 
ATOM     69  C   UNL A   1      45.087  31.952  32.765  1.00  0.00     0.009 A 
ATOM     70  C   UNL A   1      46.059  32.748  35.220  1.00  0.00     0.001 A 
ATOM     71  C   UNL A   1      46.472  32.029  32.978  1.00  0.00     0.001 A 
ATOM     72  C   UNL A   1      46.959  32.437  34.208  1.00  0.00     0.000 A 
ENDBRANCH  53  67
BRANCH  54  73
ATOM     73  C   UNL A   1      34.721  33.582  30.313  1.00  0.00    -0.014 A 
ATOM     74  C   UNL A   1      33.866  34.568  29.777  1.00  0.00     0.009 A 
ATOM     75  C   UNL A   1      34.777  32.318  29.711  1.00  0.00     0.009 A 
ATOM     76  C   UNL A   1      33.296  34.382  28.520  1.00  0.00     0.001 A 
ATOM     77  C   UNL A   1      34.197  32.140  28.455  1.00  0.00     0.001 A 
ATOM     78  C   UNL A   1      33.508  33.188  27.842  1.00  0.00     0.000 A 
ENDBRANCH  54  73
BRANCH  66  79
ATOM     79  C   UNL A   1      38.216  33.455  36.649  1.00  0.00    -0.014 A 
ATOM     80  C   UNL A   1      38.577  34.256  37.741  1.00  0.00     0.009 A 
ATOM     81  C   UNL A   1      37.691  32.182  36.958  1.00  0.00     0.009 A 
ATOM     82  C   UNL A   1      38.531  33.769  39.055  1.00  0.00     0.001 A 
ATOM     83  C   UNL A   1      37.574  31.718  38.270  1.00  0.00     0.001 A 
ATOM     84  C   UNL A   1      38.030  32.501  39.319  1.00  0.00     0.000 A 
ENDBRANCH  66  79
ENDBRANCH  40  41
ENDBRANCH  33  35
ENDBRANCH  32  33
ENDBRANCH  31  32
ENDBRANCH   1  31
TORSDOF 15
ENDMDL
