MODEL 1
REMARK VINA RESULT:      -9.8      0.000      0.000
REMARK SMILES O=C(OCCOC(=O)c1cccc2c1cc(Br)c1ccccc12)c1ccc(-c2c3nc(c(-c4ccccc4)c4ccc([nH]4)c(-c4ccccc4)c4nc(c(-c5ccccc5)c5ccc2[nH]5)C=C4)C=C3)cc1
REMARK SMILES IDX 4 1 3 2 2 3 1 4 24 5 25 6 71 7 26 8 70 9 27 10 28 11 29 12
REMARK SMILES IDX 64 13 30 14 69 15 63 16 65 17 31 18 68 19 62 20 61 21 32 23
REMARK SMILES IDX 54 24 39 25 53 26 40 27 43 28 52 29 66 30 41 31 42 32 51 34
REMARK SMILES IDX 67 35 44 36 33 37 34 38 38 39 35 40 37 41 36 42 55 43 56 44
REMARK SMILES IDX 60 45 57 46 59 47 58 48 45 49 46 50 50 51 47 52 49 53 48 54
REMARK SMILES IDX 5 55 6 56 7 57 8 58 9 59 10 60 14 61 11 62 13 63 15 64 12 65
REMARK SMILES IDX 23 66 16 67 18 68 22 69 17 70 19 71 21 72 20 73
REMARK H PARENT 65 22 43 33
REMARK Flexibility Score: inf
ROOT
ATOM      1  C   UNL A   1      47.880  24.933  33.932  1.00  0.00     0.275 C 
ENDROOT
BRANCH   1   2
ATOM      2  O   UNL A   1      47.626  25.520  35.219  1.00  0.00    -0.458 OA
BRANCH   2   3
ATOM      3  C   UNL A   1      46.439  25.619  35.867  1.00  0.00     0.338 C 
ATOM      4  O   UNL A   1      46.272  25.023  36.928  1.00  0.00    -0.246 OA
BRANCH   3   5
ATOM      5  C   UNL A   1      45.253  26.248  35.221  1.00  0.00     0.060 A 
ATOM      6  C   UNL A   1      45.471  27.493  34.618  1.00  0.00     0.016 A 
ATOM      7  C   UNL A   1      43.972  25.697  35.148  1.00  0.00     0.016 A 
ATOM      8  C   UNL A   1      44.409  28.233  34.097  1.00  0.00     0.010 A 
ATOM      9  C   UNL A   1      42.907  26.425  34.603  1.00  0.00     0.010 A 
ATOM     10  C   UNL A   1      43.108  27.712  34.096  1.00  0.00    -0.014 A 
BRANCH  10  11
ATOM     11  C   UNL A   1      42.025  28.421  33.375  1.00  0.00     0.031 A 
ATOM     12  C   UNL A   1      41.787  28.271  31.901  1.00  0.00     0.074 A 
ATOM     13  C   UNL A   1      41.254  29.256  34.097  1.00  0.00     0.049 A 
ATOM     14  N   UNL A   1      40.760  28.682  31.199  1.00  0.00    -0.248 NA
ATOM     15  C   UNL A   1      42.795  27.554  31.109  1.00  0.00     0.031 C 
ATOM     16  C   UNL A   1      41.412  29.511  35.531  1.00  0.00     0.029 A 
ATOM     17  N   UNL A   1      40.206  30.054  33.728  1.00  0.00    -0.354 N 
ATOM     18  C   UNL A   1      40.950  28.187  29.915  1.00  0.00     0.074 A 
ATOM     19  C   UNL A   1      42.222  27.501  29.911  1.00  0.00     0.031 C 
ATOM     20  C   UNL A   1      40.501  30.411  35.917  1.00  0.00     0.029 A 
ATOM     21  C   UNL A   1      39.733  30.834  34.753  1.00  0.00     0.049 A 
ATOM     22  H   UNL A   1      39.829  30.068  32.818  1.00  0.00     0.167 HD
ATOM     23  C   UNL A   1      40.126  28.297  28.847  1.00  0.00     0.031 A 
ATOM     24  C   UNL A   1      38.811  31.813  34.757  1.00  0.00     0.031 A 
ATOM     25  C   UNL A   1      38.970  29.153  28.815  1.00  0.00     0.049 A 
ATOM     26  C   UNL A   1      38.065  32.103  33.492  1.00  0.00     0.074 A 
ATOM     27  C   UNL A   1      38.092  29.372  27.767  1.00  0.00     0.029 A 
ATOM     28  N   UNL A   1      38.584  29.999  29.844  1.00  0.00    -0.354 N 
ATOM     29  N   UNL A   1      38.148  31.493  32.334  1.00  0.00    -0.248 NA
ATOM     30  C   UNL A   1      37.091  33.200  33.529  1.00  0.00     0.031 C 
ATOM     31  C   UNL A   1      37.261  30.439  28.117  1.00  0.00     0.029 A 
ATOM     32  C   UNL A   1      37.548  30.812  29.421  1.00  0.00     0.049 A 
ATOM     33  H   UNL A   1      38.988  30.017  30.743  1.00  0.00     0.167 HD
ATOM     34  C   UNL A   1      37.226  32.118  31.507  1.00  0.00     0.074 A 
ATOM     35  C   UNL A   1      36.585  33.146  32.304  1.00  0.00     0.031 C 
ATOM     36  C   UNL A   1      36.936  31.854  30.210  1.00  0.00     0.031 A 
BRANCH  23  37
ATOM     37  C   UNL A   1      40.443  27.512  27.603  1.00  0.00    -0.014 A 
ATOM     38  C   UNL A   1      39.992  26.191  27.463  1.00  0.00     0.009 A 
ATOM     39  C   UNL A   1      41.335  28.029  26.649  1.00  0.00     0.009 A 
ATOM     40  C   UNL A   1      40.447  25.393  26.410  1.00  0.00     0.001 A 
ATOM     41  C   UNL A   1      41.775  27.232  25.587  1.00  0.00     0.001 A 
ATOM     42  C   UNL A   1      41.341  25.913  25.475  1.00  0.00     0.000 A 
ENDBRANCH  23  37
BRANCH  24  43
ATOM     43  C   UNL A   1      38.593  32.569  36.016  1.00  0.00    -0.014 A 
ATOM     44  C   UNL A   1      39.294  33.769  36.242  1.00  0.00     0.009 A 
ATOM     45  C   UNL A   1      37.803  32.043  37.045  1.00  0.00     0.009 A 
ATOM     46  C   UNL A   1      39.249  34.397  37.487  1.00  0.00     0.001 A 
ATOM     47  C   UNL A   1      37.732  32.693  38.279  1.00  0.00     0.001 A 
ATOM     48  C   UNL A   1      38.467  33.858  38.505  1.00  0.00     0.000 A 
ENDBRANCH  24  43
BRANCH  36  49
ATOM     49  C   UNL A   1      35.886  32.695  29.541  1.00  0.00    -0.014 A 
ATOM     50  C   UNL A   1      34.626  32.145  29.259  1.00  0.00     0.009 A 
ATOM     51  C   UNL A   1      36.180  33.990  29.090  1.00  0.00     0.009 A 
ATOM     52  C   UNL A   1      33.690  32.862  28.514  1.00  0.00     0.001 A 
ATOM     53  C   UNL A   1      35.227  34.721  28.376  1.00  0.00     0.001 A 
ATOM     54  C   UNL A   1      33.990  34.150  28.077  1.00  0.00     0.000 A 
ENDBRANCH  36  49
ENDBRANCH  10  11
ENDBRANCH   3   5
ENDBRANCH   2   3
ENDBRANCH   1   2
BRANCH   1  55
ATOM     55  C   UNL A   1      48.105  25.940  32.803  1.00  0.00     0.275 C 
BRANCH  55  56
ATOM     56  O   UNL A   1      47.530  25.537  31.551  1.00  0.00    -0.458 OA
BRANCH  56  57
ATOM     57  C   UNL A   1      46.422  26.227  31.161  1.00  0.00     0.338 C 
ATOM     58  O   UNL A   1      46.276  27.437  31.175  1.00  0.00    -0.246 OA
BRANCH  57  59
ATOM     59  C   UNL A   1      45.400  25.268  30.674  1.00  0.00     0.067 A 
ATOM     60  C   UNL A   1      44.750  24.494  31.640  1.00  0.00     0.016 A 
ATOM     61  C   UNL A   1      45.116  25.110  29.285  1.00  0.00    -0.002 A 
ATOM     62  C   UNL A   1      43.832  23.538  31.242  1.00  0.00     0.002 A 
ATOM     63  C   UNL A   1      44.240  24.070  28.866  1.00  0.00    -0.010 A 
ATOM     64  C   UNL A   1      45.714  25.907  28.294  1.00  0.00     0.026 A 
ATOM     65  C   UNL A   1      43.609  23.313  29.885  1.00  0.00     0.009 A 
ATOM     66  C   UNL A   1      44.049  23.799  27.459  1.00  0.00    -0.009 A 
ATOM     67  C   UNL A   1      45.496  25.680  26.932  1.00  0.00     0.026 A 
ATOM     68  C   UNL A   1      44.681  24.620  26.485  1.00  0.00    -0.004 A 
ATOM     69  C   UNL A   1      43.269  22.713  26.975  1.00  0.00     0.009 A 
ATOM     70  Br  UNL A   1      46.412  26.855  25.739  1.00  0.00    -0.050 Br
ATOM     71  C   UNL A   1      44.477  24.335  25.109  1.00  0.00     0.010 A 
ATOM     72  C   UNL A   1      43.093  22.449  25.615  1.00  0.00     0.001 A 
ATOM     73  C   UNL A   1      43.694  23.267  24.679  1.00  0.00     0.001 A 
ENDBRANCH  57  59
ENDBRANCH  56  57
ENDBRANCH  55  56
ENDBRANCH   1  55
TORSDOF 11
ENDMDL
MODEL 2
REMARK VINA RESULT:      -9.7      0.414      6.072
REMARK SMILES O=C(OCCOC(=O)c1cccc2c1cc(Br)c1ccccc12)c1ccc(-c2c3nc(c(-c4ccccc4)c4ccc([nH]4)c(-c4ccccc4)c4nc(c(-c5ccccc5)c5ccc2[nH]5)C=C4)C=C3)cc1
REMARK SMILES IDX 4 1 3 2 2 3 1 4 24 5 25 6 71 7 26 8 70 9 27 10 28 11 29 12
REMARK SMILES IDX 64 13 30 14 69 15 63 16 65 17 31 18 68 19 62 20 61 21 32 23
REMARK SMILES IDX 54 24 39 25 53 26 40 27 43 28 52 29 66 30 41 31 42 32 51 34
REMARK SMILES IDX 67 35 44 36 33 37 34 38 38 39 35 40 37 41 36 42 55 43 56 44
REMARK SMILES IDX 60 45 57 46 59 47 58 48 45 49 46 50 50 51 47 52 49 53 48 54
REMARK SMILES IDX 5 55 6 56 7 57 8 58 9 59 10 60 14 61 11 62 13 63 15 64 12 65
REMARK SMILES IDX 23 66 16 67 18 68 22 69 17 70 19 71 21 72 20 73
REMARK H PARENT 65 22 43 33
REMARK Flexibility Score: inf
ROOT
ATOM      1  C   UNL A   1      47.990  24.761  33.353  1.00  0.00     0.275 C 
ENDROOT
BRANCH   1   2
ATOM      2  O   UNL A   1      47.880  25.275  34.691  1.00  0.00    -0.458 OA
BRANCH   2   3
ATOM      3  C   UNL A   1      46.755  25.430  35.431  1.00  0.00     0.338 C 
ATOM      4  O   UNL A   1      46.638  24.832  36.497  1.00  0.00    -0.246 OA
BRANCH   3   5
ATOM      5  C   UNL A   1      45.559  26.133  34.885  1.00  0.00     0.060 A 
ATOM      6  C   UNL A   1      45.782  27.421  34.381  1.00  0.00     0.016 A 
ATOM      7  C   UNL A   1      44.265  25.613  34.815  1.00  0.00     0.016 A 
ATOM      8  C   UNL A   1      44.717  28.221  33.964  1.00  0.00     0.010 A 
ATOM      9  C   UNL A   1      43.196  26.404  34.374  1.00  0.00     0.010 A 
ATOM     10  C   UNL A   1      43.407  27.724  33.969  1.00  0.00    -0.014 A 
BRANCH  10  11
ATOM     11  C   UNL A   1      42.313  28.511  33.352  1.00  0.00     0.031 A 
ATOM     12  C   UNL A   1      41.451  29.465  34.125  1.00  0.00     0.074 A 
ATOM     13  C   UNL A   1      42.085  28.316  32.039  1.00  0.00     0.049 A 
ATOM     14  N   UNL A   1      40.599  30.347  33.664  1.00  0.00    -0.248 NA
ATOM     15  C   UNL A   1      41.564  29.463  35.591  1.00  0.00     0.031 C 
ATOM     16  C   UNL A   1      42.834  27.387  31.189  1.00  0.00     0.029 A 
ATOM     17  N   UNL A   1      41.154  28.864  31.199  1.00  0.00    -0.354 N 
ATOM     18  C   UNL A   1      40.158  31.068  34.766  1.00  0.00     0.074 A 
ATOM     19  C   UNL A   1      40.780  30.481  35.931  1.00  0.00     0.031 C 
ATOM     20  C   UNL A   1      42.327  27.424  29.951  1.00  0.00     0.029 A 
ATOM     21  C   UNL A   1      41.189  28.333  29.934  1.00  0.00     0.049 A 
ATOM     22  H   UNL A   1      40.523  29.568  31.474  1.00  0.00     0.167 HD
ATOM     23  C   UNL A   1      39.315  32.126  34.789  1.00  0.00     0.031 A 
ATOM     24  C   UNL A   1      40.374  28.522  28.881  1.00  0.00     0.031 A 
ATOM     25  C   UNL A   1      38.550  32.563  33.651  1.00  0.00     0.049 A 
ATOM     26  C   UNL A   1      39.273  29.530  28.995  1.00  0.00     0.074 A 
ATOM     27  C   UNL A   1      37.632  33.597  33.578  1.00  0.00     0.029 A 
ATOM     28  N   UNL A   1      38.544  31.934  32.415  1.00  0.00    -0.354 N 
ATOM     29  N   UNL A   1      38.991  30.324  30.000  1.00  0.00    -0.248 NA
ATOM     30  C   UNL A   1      38.386  29.683  27.836  1.00  0.00     0.031 C 
ATOM     31  C   UNL A   1      36.982  33.510  32.344  1.00  0.00     0.029 A 
ATOM     32  C   UNL A   1      37.569  32.492  31.607  1.00  0.00     0.049 A 
ATOM     33  H   UNL A   1      39.147  31.200  32.150  1.00  0.00     0.167 HD
ATOM     34  C   UNL A   1      37.906  31.085  29.591  1.00  0.00     0.074 A 
ATOM     35  C   UNL A   1      37.591  30.665  28.239  1.00  0.00     0.031 C 
ATOM     36  C   UNL A   1      37.241  32.048  30.275  1.00  0.00     0.031 A 
BRANCH  23  37
ATOM     37  C   UNL A   1      39.129  32.877  36.079  1.00  0.00    -0.014 A 
ATOM     38  C   UNL A   1      38.098  32.526  36.964  1.00  0.00     0.009 A 
ATOM     39  C   UNL A   1      39.869  34.045  36.331  1.00  0.00     0.009 A 
ATOM     40  C   UNL A   1      37.793  33.339  38.058  1.00  0.00     0.001 A 
ATOM     41  C   UNL A   1      39.572  34.847  37.436  1.00  0.00     0.001 A 
ATOM     42  C   UNL A   1      38.528  34.501  38.292  1.00  0.00     0.000 A 
ENDBRANCH  23  37
BRANCH  24  43
ATOM     43  C   UNL A   1      40.600  27.705  27.662  1.00  0.00    -0.014 A 
ATOM     44  C   UNL A   1      40.041  26.416  27.569  1.00  0.00     0.009 A 
ATOM     45  C   UNL A   1      41.470  28.140  26.655  1.00  0.00     0.009 A 
ATOM     46  C   UNL A   1      40.390  25.562  26.523  1.00  0.00     0.001 A 
ATOM     47  C   UNL A   1      41.790  27.294  25.589  1.00  0.00     0.001 A 
ATOM     48  C   UNL A   1      41.264  26.003  25.533  1.00  0.00     0.000 A 
ENDBRANCH  24  43
BRANCH  36  49
ATOM     49  C   UNL A   1      36.084  32.720  29.591  1.00  0.00    -0.014 A 
ATOM     50  C   UNL A   1      34.823  32.102  29.586  1.00  0.00     0.009 A 
ATOM     51  C   UNL A   1      36.266  33.902  28.859  1.00  0.00     0.009 A 
ATOM     52  C   UNL A   1      33.774  32.639  28.839  1.00  0.00     0.001 A 
ATOM     53  C   UNL A   1      35.203  34.458  28.142  1.00  0.00     0.001 A 
ATOM     54  C   UNL A   1      33.964  33.818  28.122  1.00  0.00     0.000 A 
ENDBRANCH  36  49
ENDBRANCH  10  11
ENDBRANCH   3   5
ENDBRANCH   2   3
ENDBRANCH   1   2
BRANCH   1  55
ATOM     55  C   UNL A   1      48.374  25.800  32.299  1.00  0.00     0.275 C 
BRANCH  55  56
ATOM     56  O   UNL A   1      47.737  25.593  31.030  1.00  0.00    -0.458 OA
BRANCH  56  57
ATOM     57  C   UNL A   1      46.568  26.265  30.839  1.00  0.00     0.338 C 
ATOM     58  O   UNL A   1      46.396  27.467  30.944  1.00  0.00    -0.246 OA
BRANCH  57  59
ATOM     59  C   UNL A   1      45.512  25.300  30.443  1.00  0.00     0.067 A 
ATOM     60  C   UNL A   1      44.920  24.559  31.469  1.00  0.00     0.016 A 
ATOM     61  C   UNL A   1      45.142  25.106  29.080  1.00  0.00    -0.002 A 
ATOM     62  C   UNL A   1      43.974  23.599  31.156  1.00  0.00     0.002 A 
ATOM     63  C   UNL A   1      44.236  24.062  28.745  1.00  0.00    -0.010 A 
ATOM     64  C   UNL A   1      45.681  25.872  28.031  1.00  0.00     0.026 A 
ATOM     65  C   UNL A   1      43.665  23.338  29.823  1.00  0.00     0.009 A 
ATOM     66  C   UNL A   1      43.956  23.753  27.361  1.00  0.00    -0.009 A 
ATOM     67  C   UNL A   1      45.378  25.608  26.692  1.00  0.00     0.026 A 
ATOM     68  C   UNL A   1      44.531  24.542  26.327  1.00  0.00    -0.004 A 
ATOM     69  C   UNL A   1      43.141  22.660  26.957  1.00  0.00     0.009 A 
ATOM     70  Br  UNL A   1      46.225  26.744  25.413  1.00  0.00    -0.050 Br
ATOM     71  C   UNL A   1      44.240  24.221  24.975  1.00  0.00     0.010 A 
ATOM     72  C   UNL A   1      42.879  22.359  25.618  1.00  0.00     0.001 A 
ATOM     73  C   UNL A   1      43.426  23.147  24.625  1.00  0.00     0.001 A 
ENDBRANCH  57  59
ENDBRANCH  56  57
ENDBRANCH  55  56
ENDBRANCH   1  55
TORSDOF 11
ENDMDL
MODEL 3
REMARK VINA RESULT:      -9.3      5.570     11.973
REMARK SMILES O=C(OCCOC(=O)c1cccc2c1cc(Br)c1ccccc12)c1ccc(-c2c3nc(c(-c4ccccc4)c4ccc([nH]4)c(-c4ccccc4)c4nc(c(-c5ccccc5)c5ccc2[nH]5)C=C4)C=C3)cc1
REMARK SMILES IDX 4 1 3 2 2 3 1 4 24 5 25 6 71 7 26 8 70 9 27 10 28 11 29 12
REMARK SMILES IDX 64 13 30 14 69 15 63 16 65 17 31 18 68 19 62 20 61 21 32 23
REMARK SMILES IDX 54 24 39 25 53 26 40 27 43 28 52 29 66 30 41 31 42 32 51 34
REMARK SMILES IDX 67 35 44 36 33 37 34 38 38 39 35 40 37 41 36 42 55 43 56 44
REMARK SMILES IDX 60 45 57 46 59 47 58 48 45 49 46 50 50 51 47 52 49 53 48 54
REMARK SMILES IDX 5 55 6 56 7 57 8 58 9 59 10 60 14 61 11 62 13 63 15 64 12 65
REMARK SMILES IDX 23 66 16 67 18 68 22 69 17 70 19 71 21 72 20 73
REMARK H PARENT 65 22 43 33
REMARK Flexibility Score: inf
ROOT
ATOM      1  C   UNL A   1      32.474  29.914  26.690  1.00  0.00     0.275 C 
ENDROOT
BRANCH   1   2
ATOM      2  O   UNL A   1      33.622  29.635  27.510  1.00  0.00    -0.458 OA
BRANCH   2   3
ATOM      3  C   UNL A   1      34.524  30.519  28.003  1.00  0.00     0.338 C 
ATOM      4  O   UNL A   1      34.302  31.724  27.926  1.00  0.00    -0.246 OA
BRANCH   3   5
ATOM      5  C   UNL A   1      35.880  30.081  28.439  1.00  0.00     0.060 A 
ATOM      6  C   UNL A   1      36.883  30.129  27.462  1.00  0.00     0.016 A 
ATOM      7  C   UNL A   1      36.231  29.659  29.722  1.00  0.00     0.016 A 
ATOM      8  C   UNL A   1      38.158  29.623  27.719  1.00  0.00     0.010 A 
ATOM      9  C   UNL A   1      37.517  29.173  29.992  1.00  0.00     0.010 A 
ATOM     10  C   UNL A   1      38.486  29.125  28.987  1.00  0.00    -0.014 A 
BRANCH  10  11
ATOM     11  C   UNL A   1      39.889  28.766  29.303  1.00  0.00     0.031 A 
ATOM     12  C   UNL A   1      40.850  29.715  29.955  1.00  0.00     0.074 A 
ATOM     13  C   UNL A   1      40.300  27.535  28.947  1.00  0.00     0.049 A 
ATOM     14  N   UNL A   1      42.034  29.456  30.455  1.00  0.00    -0.248 NA
ATOM     15  C   UNL A   1      40.444  31.120  30.096  1.00  0.00     0.031 C 
ATOM     16  C   UNL A   1      39.465  26.535  28.275  1.00  0.00     0.029 A 
ATOM     17  N   UNL A   1      41.516  26.921  29.080  1.00  0.00    -0.354 N 
ATOM     18  C   UNL A   1      42.462  30.633  31.056  1.00  0.00     0.074 A 
ATOM     19  C   UNL A   1      41.447  31.630  30.804  1.00  0.00     0.031 C 
ATOM     20  C   UNL A   1      40.197  25.439  28.047  1.00  0.00     0.029 A 
ATOM     21  C   UNL A   1      41.559  25.676  28.505  1.00  0.00     0.049 A 
ATOM     22  H   UNL A   1      42.283  27.332  29.542  1.00  0.00     0.167 HD
ATOM     23  C   UNL A   1      43.599  30.846  31.758  1.00  0.00     0.031 A 
ATOM     24  C   UNL A   1      42.587  24.828  28.327  1.00  0.00     0.031 A 
ATOM     25  C   UNL A   1      44.686  29.905  31.823  1.00  0.00     0.049 A 
ATOM     26  C   UNL A   1      43.923  25.186  28.899  1.00  0.00     0.074 A 
ATOM     27  C   UNL A   1      45.902  30.040  32.470  1.00  0.00     0.029 A 
ATOM     28  N   UNL A   1      44.726  28.696  31.144  1.00  0.00    -0.354 N 
ATOM     29  N   UNL A   1      44.251  26.233  29.618  1.00  0.00    -0.248 NA
ATOM     30  C   UNL A   1      45.026  24.250  28.655  1.00  0.00     0.031 C 
ATOM     31  C   UNL A   1      46.720  28.978  32.077  1.00  0.00     0.029 A 
ATOM     32  C   UNL A   1      45.980  28.125  31.274  1.00  0.00     0.049 A 
ATOM     33  H   UNL A   1      43.973  28.302  30.645  1.00  0.00     0.167 HD
ATOM     34  C   UNL A   1      45.594  26.075  29.928  1.00  0.00     0.074 A 
ATOM     35  C   UNL A   1      46.014  24.823  29.330  1.00  0.00     0.031 C 
ATOM     36  C   UNL A   1      46.398  26.894  30.650  1.00  0.00     0.031 A 
BRANCH  23  37
ATOM     37  C   UNL A   1      43.766  32.149  32.490  1.00  0.00    -0.014 A 
ATOM     38  C   UNL A   1      44.449  33.218  31.890  1.00  0.00     0.009 A 
ATOM     39  C   UNL A   1      43.396  32.255  33.842  1.00  0.00     0.009 A 
ATOM     40  C   UNL A   1      44.782  34.354  32.632  1.00  0.00     0.001 A 
ATOM     41  C   UNL A   1      43.717  33.400  34.577  1.00  0.00     0.001 A 
ATOM     42  C   UNL A   1      44.420  34.443  33.976  1.00  0.00     0.000 A 
ENDBRANCH  23  37
BRANCH  24  43
ATOM     43  C   UNL A   1      42.347  23.584  27.552  1.00  0.00    -0.014 A 
ATOM     44  C   UNL A   1      41.945  22.411  28.219  1.00  0.00     0.009 A 
ATOM     45  C   UNL A   1      42.641  23.519  26.185  1.00  0.00     0.009 A 
ATOM     46  C   UNL A   1      41.895  21.190  27.544  1.00  0.00     0.001 A 
ATOM     47  C   UNL A   1      42.554  22.302  25.505  1.00  0.00     0.001 A 
ATOM     48  C   UNL A   1      42.199  21.137  26.187  1.00  0.00     0.000 A 
ENDBRANCH  24  43
BRANCH  36  49
ATOM     49  C   UNL A   1      47.833  26.484  30.832  1.00  0.00    -0.014 A 
ATOM     50  C   UNL A   1      48.773  26.770  29.828  1.00  0.00     0.009 A 
ATOM     51  C   UNL A   1      48.230  25.719  31.938  1.00  0.00     0.009 A 
ATOM     52  C   UNL A   1      50.073  26.275  29.914  1.00  0.00     0.001 A 
ATOM     53  C   UNL A   1      49.544  25.256  32.040  1.00  0.00     0.001 A 
ATOM     54  C   UNL A   1      50.459  25.522  31.022  1.00  0.00     0.000 A 
ENDBRANCH  36  49
ENDBRANCH  10  11
ENDBRANCH   3   5
ENDBRANCH   2   3
ENDBRANCH   1   2
BRANCH   1  55
ATOM     55  C   UNL A   1      31.861  28.688  26.012  1.00  0.00     0.275 C 
BRANCH  55  56
ATOM     56  O   UNL A   1      32.775  27.590  25.877  1.00  0.00    -0.458 OA
BRANCH  56  57
ATOM     57  C   UNL A   1      33.204  27.330  24.610  1.00  0.00     0.338 C 
ATOM     58  O   UNL A   1      33.965  28.012  23.946  1.00  0.00    -0.246 OA
BRANCH  57  59
ATOM     59  C   UNL A   1      32.617  26.046  24.153  1.00  0.00     0.067 A 
ATOM     60  C   UNL A   1      31.326  26.097  23.620  1.00  0.00     0.016 A 
ATOM     61  C   UNL A   1      33.317  24.810  24.284  1.00  0.00    -0.002 A 
ATOM     62  C   UNL A   1      30.701  24.923  23.235  1.00  0.00     0.002 A 
ATOM     63  C   UNL A   1      32.647  23.594  23.971  1.00  0.00    -0.010 A 
ATOM     64  C   UNL A   1      34.634  24.732  24.767  1.00  0.00     0.026 A 
ATOM     65  C   UNL A   1      31.338  23.700  23.437  1.00  0.00     0.009 A 
ATOM     66  C   UNL A   1      33.285  22.322  24.231  1.00  0.00    -0.009 A 
ATOM     67  C   UNL A   1      35.273  23.506  24.976  1.00  0.00     0.026 A 
ATOM     68  C   UNL A   1      34.614  22.284  24.732  1.00  0.00    -0.004 A 
ATOM     69  C   UNL A   1      32.634  21.072  24.037  1.00  0.00     0.009 A 
ATOM     70  Br  UNL A   1      37.054  23.606  25.656  1.00  0.00    -0.050 Br
ATOM     71  C   UNL A   1      35.220  21.023  24.978  1.00  0.00     0.010 A 
ATOM     72  C   UNL A   1      33.250  19.846  24.297  1.00  0.00     0.001 A 
ATOM     73  C   UNL A   1      34.550  19.822  24.763  1.00  0.00     0.001 A 
ENDBRANCH  57  59
ENDBRANCH  56  57
ENDBRANCH  55  56
ENDBRANCH   1  55
TORSDOF 11
ENDMDL
