MODEL 1
REMARK VINA RESULT:     -11.1      0.000      0.000
REMARK SMILES CCOc1cnc(C(=O)c2[nH]c3cc(Cl)ccc3c2CC(=O)OCCOC(=O)c2ccc(-c3c4nc(c(-c5ccccc5)c5ccc([nH]5)c(-c5ccccc5)c5nc(c(-c6ccccc6)c6ccc3[nH]6)C=C5)C=C4)cc2)cc1CC
REMARK SMILES IDX 23 1 21 2 22 3 20 4 19 5 10 6 11 7 12 8 18 10 13 11 17 12
REMARK SMILES IDX 14 13 16 14 15 15 8 16 9 17 7 18 4 19 5 20 78 21 6 22 77 23
REMARK SMILES IDX 3 24 2 25 1 26 79 27 80 28 24 29 25 30 26 31 27 32 28 33
REMARK SMILES IDX 29 34 30 35 76 36 31 37 75 38 32 39 33 40 34 41 69 42 35 43
REMARK SMILES IDX 74 44 68 45 70 46 36 47 73 48 67 49 66 50 37 52 59 53 44 54
REMARK SMILES IDX 58 55 45 56 48 57 57 58 71 59 46 60 47 61 56 63 72 64 49 65
REMARK SMILES IDX 38 66 39 67 43 68 40 69 42 70 41 71 60 72 61 73 65 74 62 75
REMARK SMILES IDX 64 76 63 77 50 78 51 79 55 80 52 81 54 82 53 83
REMARK H PARENT 11 9 70 51 48 62
REMARK Flexibility Score: inf
ROOT
ATOM      1  O   UNL A   1      37.432  20.928  25.931  1.00  0.00    -0.462 OA
ENDROOT
BRANCH   1   2
ATOM      2  C   UNL A   1      36.675  21.956  25.476  1.00  0.00     0.310 C 
ATOM      3  O   UNL A   1      36.882  23.137  25.752  1.00  0.00    -0.252 OA
BRANCH   2   4
ATOM      4  C   UNL A   1      35.615  21.573  24.464  1.00  0.00     0.161 C 
BRANCH   4   5
ATOM      5  C   UNL A   1      34.391  20.854  24.939  1.00  0.00     0.000 A 
ATOM      6  C   UNL A   1      33.333  21.355  25.699  1.00  0.00     0.093 A 
ATOM      7  N   UNL A   1      32.435  20.327  25.867  1.00  0.00    -0.351 N 
ATOM      8  C   UNL A   1      32.997  19.134  25.494  1.00  0.00     0.048 A 
ATOM      9  H   UNL A   1      31.518  20.433  26.206  1.00  0.00     0.167 HD
ATOM     10  C   UNL A   1      34.182  19.435  24.830  1.00  0.00     0.004 A 
ATOM     11  C   UNL A   1      32.542  17.826  25.696  1.00  0.00     0.047 A 
ATOM     12  C   UNL A   1      34.930  18.371  24.280  1.00  0.00     0.012 A 
ATOM     13  C   UNL A   1      33.324  16.792  25.180  1.00  0.00     0.043 A 
ATOM     14  C   UNL A   1      34.491  17.052  24.468  1.00  0.00     0.021 A 
ATOM     15  Cl  UNL A   1      32.837  15.161  25.444  1.00  0.00    -0.084 Cl
BRANCH   6  16
ATOM     16  C   UNL A   1      33.052  22.653  26.303  1.00  0.00     0.227 C 
ATOM     17  O   UNL A   1      33.037  22.790  27.525  1.00  0.00    -0.285 OA
BRANCH  16  18
ATOM     18  C   UNL A   1      33.143  23.884  25.426  1.00  0.00     0.113 A 
ATOM     19  C   UNL A   1      32.622  26.346  24.311  1.00  0.00     0.140 A 
ATOM     20  C   UNL A   1      32.093  25.162  23.808  1.00  0.00     0.158 A 
ATOM     21  C   UNL A   1      33.468  26.279  25.417  1.00  0.00    -0.002 A 
ATOM     22  N   UNL A   1      32.323  23.939  24.342  1.00  0.00    -0.249 NA
ATOM     23  C   UNL A   1      33.786  25.014  25.933  1.00  0.00     0.040 A 
BRANCH  19  24
ATOM     24  O   UNL A   1      32.176  27.553  23.857  1.00  0.00    -0.492 OA
BRANCH  24  25
ATOM     25  C   UNL A   1      32.570  27.819  22.507  1.00  0.00     0.226 C 
ATOM     26  C   UNL A   1      33.927  28.500  22.514  1.00  0.00     0.049 C 
ENDBRANCH  24  25
ENDBRANCH  19  24
BRANCH  21  27
ATOM     27  C   UNL A   1      33.933  27.511  26.156  1.00  0.00     0.036 C 
ATOM     28  C   UNL A   1      32.878  28.004  27.143  1.00  0.00     0.009 C 
ENDBRANCH  21  27
ENDBRANCH  16  18
ENDBRANCH   6  16
ENDBRANCH   4   5
ENDBRANCH   2   4
ENDBRANCH   1   2
BRANCH   1  29
ATOM     29  C   UNL A   1      38.855  21.027  25.702  1.00  0.00     0.274 C 
BRANCH  29  30
ATOM     30  C   UNL A   1      39.524  19.643  25.668  1.00  0.00     0.275 C 
BRANCH  30  31
ATOM     31  O   UNL A   1      40.627  19.524  26.594  1.00  0.00    -0.458 OA
BRANCH  31  32
ATOM     32  C   UNL A   1      41.813  19.871  26.055  1.00  0.00     0.338 C 
ATOM     33  O   UNL A   1      42.402  19.296  25.156  1.00  0.00    -0.246 OA
BRANCH  32  34
ATOM     34  C   UNL A   1      42.345  21.131  26.560  1.00  0.00     0.060 A 
ATOM     35  C   UNL A   1      42.207  21.381  27.928  1.00  0.00     0.016 A 
ATOM     36  C   UNL A   1      42.698  22.150  25.676  1.00  0.00     0.016 A 
ATOM     37  C   UNL A   1      42.371  22.670  28.412  1.00  0.00     0.010 A 
ATOM     38  C   UNL A   1      42.923  23.435  26.175  1.00  0.00     0.010 A 
ATOM     39  C   UNL A   1      42.740  23.706  27.542  1.00  0.00    -0.014 A 
BRANCH  39  40
ATOM     40  C   UNL A   1      43.000  25.052  28.097  1.00  0.00     0.031 A 
ATOM     41  C   UNL A   1      41.898  26.050  28.287  1.00  0.00     0.074 A 
ATOM     42  C   UNL A   1      44.263  25.358  28.446  1.00  0.00     0.049 A 
ATOM     43  N   UNL A   1      41.971  27.272  28.750  1.00  0.00    -0.248 NA
ATOM     44  C   UNL A   1      40.539  25.627  27.914  1.00  0.00     0.031 C 
ATOM     45  C   UNL A   1      45.413  24.460  28.321  1.00  0.00     0.029 A 
ATOM     46  N   UNL A   1      44.789  26.507  28.974  1.00  0.00    -0.354 N 
ATOM     47  C   UNL A   1      40.675  27.766  28.726  1.00  0.00     0.074 A 
ATOM     48  C   UNL A   1      39.835  26.722  28.178  1.00  0.00     0.031 C 
ATOM     49  C   UNL A   1      46.509  25.089  28.768  1.00  0.00     0.029 A 
ATOM     50  C   UNL A   1      46.147  26.447  29.156  1.00  0.00     0.049 A 
ATOM     51  H   UNL A   1      44.247  27.296  29.202  1.00  0.00     0.167 HD
ATOM     52  C   UNL A   1      40.228  28.979  29.130  1.00  0.00     0.031 A 
ATOM     53  C   UNL A   1      47.016  27.391  29.555  1.00  0.00     0.031 A 
ATOM     54  C   UNL A   1      41.065  30.024  29.649  1.00  0.00     0.049 A 
ATOM     55  C   UNL A   1      46.507  28.755  29.900  1.00  0.00     0.074 A 
ATOM     56  C   UNL A   1      40.697  31.281  30.098  1.00  0.00     0.029 A 
ATOM     57  N   UNL A   1      42.443  29.943  29.770  1.00  0.00    -0.354 N 
ATOM     58  N   UNL A   1      45.270  29.191  29.914  1.00  0.00    -0.248 NA
ATOM     59  C   UNL A   1      47.510  29.757  30.278  1.00  0.00     0.031 C 
ATOM     60  C   UNL A   1      41.860  31.977  30.452  1.00  0.00     0.029 A 
ATOM     61  C   UNL A   1      42.945  31.140  30.251  1.00  0.00     0.049 A 
ATOM     62  H   UNL A   1      42.984  29.152  29.545  1.00  0.00     0.167 HD
ATOM     63  C   UNL A   1      45.345  30.518  30.308  1.00  0.00     0.074 A 
ATOM     64  C   UNL A   1      46.746  30.811  30.538  1.00  0.00     0.031 C 
ATOM     65  C   UNL A   1      44.341  31.414  30.462  1.00  0.00     0.031 A 
BRANCH  52  66
ATOM     66  C   UNL A   1      38.758  29.247  29.016  1.00  0.00    -0.014 A 
ATOM     67  C   UNL A   1      37.913  29.063  30.120  1.00  0.00     0.009 A 
ATOM     68  C   UNL A   1      38.223  29.742  27.819  1.00  0.00     0.009 A 
ATOM     69  C   UNL A   1      36.549  29.346  30.018  1.00  0.00     0.001 A 
ATOM     70  C   UNL A   1      36.862  30.037  27.724  1.00  0.00     0.001 A 
ATOM     71  C   UNL A   1      36.026  29.833  28.822  1.00  0.00     0.000 A 
ENDBRANCH  52  66
BRANCH  53  72
ATOM     72  C   UNL A   1      48.462  27.071  29.593  1.00  0.00    -0.014 A 
ATOM     73  C   UNL A   1      49.281  27.325  28.486  1.00  0.00     0.009 A 
ATOM     74  C   UNL A   1      49.037  26.557  30.767  1.00  0.00     0.009 A 
ATOM     75  C   UNL A   1      50.652  27.063  28.552  1.00  0.00     0.001 A 
ATOM     76  C   UNL A   1      50.410  26.320  30.838  1.00  0.00     0.001 A 
ATOM     77  C   UNL A   1      51.215  26.569  29.728  1.00  0.00     0.000 A 
ENDBRANCH  53  72
BRANCH  65  78
ATOM     78  C   UNL A   1      44.729  32.791  30.909  1.00  0.00    -0.014 A 
ATOM     79  C   UNL A   1      45.008  33.797  29.971  1.00  0.00     0.009 A 
ATOM     80  C   UNL A   1      44.793  33.090  32.278  1.00  0.00     0.009 A 
ATOM     81  C   UNL A   1      45.370  35.075  30.399  1.00  0.00     0.001 A 
ATOM     82  C   UNL A   1      45.136  34.374  32.702  1.00  0.00     0.001 A 
ATOM     83  C   UNL A   1      45.431  35.363  31.762  1.00  0.00     0.000 A 
ENDBRANCH  65  78
ENDBRANCH  39  40
ENDBRANCH  32  34
ENDBRANCH  31  32
ENDBRANCH  30  31
ENDBRANCH  29  30
ENDBRANCH   1  29
TORSDOF 17
ENDMDL
MODEL 2
REMARK VINA RESULT:     -10.9      4.724      9.944
REMARK SMILES CCOc1cnc(C(=O)c2[nH]c3cc(Cl)ccc3c2CC(=O)OCCOC(=O)c2ccc(-c3c4nc(c(-c5ccccc5)c5ccc([nH]5)c(-c5ccccc5)c5nc(c(-c6ccccc6)c6ccc3[nH]6)C=C5)C=C4)cc2)cc1CC
REMARK SMILES IDX 23 1 21 2 22 3 20 4 19 5 10 6 11 7 12 8 18 10 13 11 17 12
REMARK SMILES IDX 14 13 16 14 15 15 8 16 9 17 7 18 4 19 5 20 78 21 6 22 77 23
REMARK SMILES IDX 3 24 2 25 1 26 79 27 80 28 24 29 25 30 26 31 27 32 28 33
REMARK SMILES IDX 29 34 30 35 76 36 31 37 75 38 32 39 33 40 34 41 69 42 35 43
REMARK SMILES IDX 74 44 68 45 70 46 36 47 73 48 67 49 66 50 37 52 59 53 44 54
REMARK SMILES IDX 58 55 45 56 48 57 57 58 71 59 46 60 47 61 56 63 72 64 49 65
REMARK SMILES IDX 38 66 39 67 43 68 40 69 42 70 41 71 60 72 61 73 65 74 62 75
REMARK SMILES IDX 64 76 63 77 50 78 51 79 55 80 52 81 54 82 53 83
REMARK H PARENT 11 9 70 51 48 62
REMARK Flexibility Score: inf
ROOT
ATOM      1  O   UNL A   1      32.425  30.824  26.934  1.00  0.00    -0.462 OA
ENDROOT
BRANCH   1   2
ATOM      2  C   UNL A   1      32.508  29.953  25.898  1.00  0.00     0.310 C 
ATOM      3  O   UNL A   1      33.556  29.670  25.320  1.00  0.00    -0.252 OA
BRANCH   2   4
ATOM      4  C   UNL A   1      31.225  29.215  25.577  1.00  0.00     0.161 C 
BRANCH   4   5
ATOM      5  C   UNL A   1      30.764  29.157  24.153  1.00  0.00     0.000 A 
ATOM      6  C   UNL A   1      31.204  28.311  23.135  1.00  0.00     0.093 A 
ATOM      7  N   UNL A   1      30.473  28.618  22.011  1.00  0.00    -0.351 N 
ATOM      8  C   UNL A   1      29.795  29.795  22.188  1.00  0.00     0.048 A 
ATOM      9  H   UNL A   1      30.442  28.070  21.195  1.00  0.00     0.167 HD
ATOM     10  C   UNL A   1      29.883  30.114  23.539  1.00  0.00     0.004 A 
ATOM     11  C   UNL A   1      29.117  30.589  21.255  1.00  0.00     0.047 A 
ATOM     12  C   UNL A   1      29.203  31.262  24.002  1.00  0.00     0.012 A 
ATOM     13  C   UNL A   1      28.492  31.741  21.734  1.00  0.00     0.043 A 
ATOM     14  C   UNL A   1      28.515  32.071  23.085  1.00  0.00     0.021 A 
ATOM     15  Cl  UNL A   1      27.687  32.781  20.620  1.00  0.00    -0.084 Cl
BRANCH   6  16
ATOM     16  C   UNL A   1      32.221  27.268  23.060  1.00  0.00     0.227 C 
ATOM     17  O   UNL A   1      33.281  27.460  22.465  1.00  0.00    -0.285 OA
BRANCH  16  18
ATOM     18  C   UNL A   1      32.119  26.100  24.019  1.00  0.00     0.113 A 
ATOM     19  C   UNL A   1      32.274  23.565  25.079  1.00  0.00     0.140 A 
ATOM     20  C   UNL A   1      31.141  24.043  24.431  1.00  0.00     0.158 A 
ATOM     21  C   UNL A   1      33.372  24.413  25.214  1.00  0.00    -0.002 A 
ATOM     22  N   UNL A   1      31.040  25.281  23.891  1.00  0.00    -0.249 NA
ATOM     23  C   UNL A   1      33.257  25.727  24.735  1.00  0.00     0.040 A 
BRANCH  19  24
ATOM     24  O   UNL A   1      32.381  22.244  25.405  1.00  0.00    -0.492 OA
BRANCH  24  25
ATOM     25  C   UNL A   1      32.305  21.382  24.265  1.00  0.00     0.226 C 
ATOM     26  C   UNL A   1      33.002  20.072  24.589  1.00  0.00     0.049 C 
ENDBRANCH  24  25
ENDBRANCH  19  24
BRANCH  21  27
ATOM     27  C   UNL A   1      34.710  23.932  25.720  1.00  0.00     0.036 C 
ATOM     28  C   UNL A   1      35.750  23.892  24.604  1.00  0.00     0.009 C 
ENDBRANCH  21  27
ENDBRANCH  16  18
ENDBRANCH   6  16
ENDBRANCH   4   5
ENDBRANCH   2   4
ENDBRANCH   1   2
BRANCH   1  29
ATOM     29  C   UNL A   1      31.554  31.962  26.749  1.00  0.00     0.274 C 
BRANCH  29  30
ATOM     30  C   UNL A   1      32.316  33.290  26.885  1.00  0.00     0.275 C 
BRANCH  30  31
ATOM     31  O   UNL A   1      32.211  33.871  28.204  1.00  0.00    -0.458 OA
BRANCH  31  32
ATOM     32  C   UNL A   1      33.290  34.601  28.549  1.00  0.00     0.338 C 
ATOM     33  O   UNL A   1      33.339  35.811  28.688  1.00  0.00    -0.246 OA
BRANCH  32  34
ATOM     34  C   UNL A   1      34.462  33.800  28.885  1.00  0.00     0.060 A 
ATOM     35  C   UNL A   1      34.271  32.720  29.750  1.00  0.00     0.016 A 
ATOM     36  C   UNL A   1      35.743  34.272  28.595  1.00  0.00     0.016 A 
ATOM     37  C   UNL A   1      35.364  32.138  30.375  1.00  0.00     0.010 A 
ATOM     38  C   UNL A   1      36.846  33.643  29.177  1.00  0.00     0.010 A 
ATOM     39  C   UNL A   1      36.661  32.587  30.086  1.00  0.00    -0.014 A 
BRANCH  39  40
ATOM     40  C   UNL A   1      37.815  31.889  30.693  1.00  0.00     0.031 A 
ATOM     41  C   UNL A   1      38.560  30.816  29.959  1.00  0.00     0.074 A 
ATOM     42  C   UNL A   1      38.195  32.256  31.931  1.00  0.00     0.049 A 
ATOM     43  N   UNL A   1      39.583  30.106  30.363  1.00  0.00    -0.248 NA
ATOM     44  C   UNL A   1      38.106  30.497  28.596  1.00  0.00     0.031 C 
ATOM     45  C   UNL A   1      37.553  33.299  32.735  1.00  0.00     0.029 A 
ATOM     46  N   UNL A   1      39.207  31.792  32.728  1.00  0.00    -0.354 N 
ATOM     47  C   UNL A   1      39.897  29.258  29.311  1.00  0.00     0.074 A 
ATOM     48  C   UNL A   1      38.940  29.521  28.257  1.00  0.00     0.031 C 
ATOM     49  C   UNL A   1      38.192  33.402  33.908  1.00  0.00     0.029 A 
ATOM     50  C   UNL A   1      39.248  32.397  33.958  1.00  0.00     0.049 A 
ATOM     51  H   UNL A   1      39.842  31.095  32.446  1.00  0.00     0.167 HD
ATOM     52  C   UNL A   1      40.895  28.347  29.232  1.00  0.00     0.031 A 
ATOM     53  C   UNL A   1      40.024  32.149  35.027  1.00  0.00     0.031 A 
ATOM     54  C   UNL A   1      41.828  28.067  30.289  1.00  0.00     0.049 A 
ATOM     55  C   UNL A   1      41.055  31.067  34.946  1.00  0.00     0.074 A 
ATOM     56  C   UNL A   1      42.884  27.171  30.293  1.00  0.00     0.029 A 
ATOM     57  N   UNL A   1      41.805  28.665  31.539  1.00  0.00    -0.354 N 
ATOM     58  N   UNL A   1      41.367  30.303  33.927  1.00  0.00    -0.248 NA
ATOM     59  C   UNL A   1      41.834  30.807  36.162  1.00  0.00     0.031 C 
ATOM     60  C   UNL A   1      43.474  27.197  31.562  1.00  0.00     0.029 A 
ATOM     61  C   UNL A   1      42.804  28.132  32.335  1.00  0.00     0.049 A 
ATOM     62  H   UNL A   1      41.171  29.364  31.819  1.00  0.00     0.167 HD
ATOM     63  C   UNL A   1      42.385  29.476  34.375  1.00  0.00     0.074 A 
ATOM     64  C   UNL A   1      42.647  29.841  35.753  1.00  0.00     0.031 C 
ATOM     65  C   UNL A   1      43.041  28.499  33.705  1.00  0.00     0.031 A 
BRANCH  52  66
ATOM     66  C   UNL A   1      41.027  27.573  27.957  1.00  0.00    -0.014 A 
ATOM     67  C   UNL A   1      41.833  28.050  26.913  1.00  0.00     0.009 A 
ATOM     68  C   UNL A   1      40.390  26.331  27.817  1.00  0.00     0.009 A 
ATOM     69  C   UNL A   1      41.978  27.309  25.738  1.00  0.00     0.001 A 
ATOM     70  C   UNL A   1      40.548  25.586  26.647  1.00  0.00     0.001 A 
ATOM     71  C   UNL A   1      41.336  26.078  25.607  1.00  0.00     0.000 A 
ENDBRANCH  52  66
BRANCH  53  72
ATOM     72  C   UNL A   1      39.803  32.917  36.274  1.00  0.00    -0.014 A 
ATOM     73  C   UNL A   1      40.501  34.107  36.516  1.00  0.00     0.009 A 
ATOM     74  C   UNL A   1      38.844  32.484  37.204  1.00  0.00     0.009 A 
ATOM     75  C   UNL A   1      40.247  34.847  37.673  1.00  0.00     0.001 A 
ATOM     76  C   UNL A   1      38.576  33.238  38.347  1.00  0.00     0.001 A 
ATOM     77  C   UNL A   1      39.282  34.416  38.582  1.00  0.00     0.000 A 
ENDBRANCH  53  72
BRANCH  65  78
ATOM     78  C   UNL A   1      44.110  27.767  34.457  1.00  0.00    -0.014 A 
ATOM     79  C   UNL A   1      45.429  28.247  34.478  1.00  0.00     0.009 A 
ATOM     80  C   UNL A   1      43.792  26.601  35.168  1.00  0.00     0.009 A 
ATOM     81  C   UNL A   1      46.416  27.555  35.180  1.00  0.00     0.001 A 
ATOM     82  C   UNL A   1      44.778  25.923  35.885  1.00  0.00     0.001 A 
ATOM     83  C   UNL A   1      46.090  26.397  35.885  1.00  0.00     0.000 A 
ENDBRANCH  65  78
ENDBRANCH  39  40
ENDBRANCH  32  34
ENDBRANCH  31  32
ENDBRANCH  30  31
ENDBRANCH  29  30
ENDBRANCH   1  29
TORSDOF 17
ENDMDL
MODEL 3
REMARK VINA RESULT:     -10.9      4.063      9.536
REMARK SMILES CCOc1cnc(C(=O)c2[nH]c3cc(Cl)ccc3c2CC(=O)OCCOC(=O)c2ccc(-c3c4nc(c(-c5ccccc5)c5ccc([nH]5)c(-c5ccccc5)c5nc(c(-c6ccccc6)c6ccc3[nH]6)C=C5)C=C4)cc2)cc1CC
REMARK SMILES IDX 23 1 21 2 22 3 20 4 19 5 10 6 11 7 12 8 18 10 13 11 17 12
REMARK SMILES IDX 14 13 16 14 15 15 8 16 9 17 7 18 4 19 5 20 78 21 6 22 77 23
REMARK SMILES IDX 3 24 2 25 1 26 79 27 80 28 24 29 25 30 26 31 27 32 28 33
REMARK SMILES IDX 29 34 30 35 76 36 31 37 75 38 32 39 33 40 34 41 69 42 35 43
REMARK SMILES IDX 74 44 68 45 70 46 36 47 73 48 67 49 66 50 37 52 59 53 44 54
REMARK SMILES IDX 58 55 45 56 48 57 57 58 71 59 46 60 47 61 56 63 72 64 49 65
REMARK SMILES IDX 38 66 39 67 43 68 40 69 42 70 41 71 60 72 61 73 65 74 62 75
REMARK SMILES IDX 64 76 63 77 50 78 51 79 55 80 52 81 54 82 53 83
REMARK H PARENT 11 9 70 51 48 62
REMARK Flexibility Score: inf
ROOT
ATOM      1  O   UNL A   1      32.312  30.857  26.957  1.00  0.00    -0.462 OA
ENDROOT
BRANCH   1   2
ATOM      2  C   UNL A   1      32.488  29.957  25.958  1.00  0.00     0.310 C 
ATOM      3  O   UNL A   1      33.578  29.700  25.449  1.00  0.00    -0.252 OA
BRANCH   2   4
ATOM      4  C   UNL A   1      31.255  29.156  25.592  1.00  0.00     0.161 C 
BRANCH   4   5
ATOM      5  C   UNL A   1      30.827  29.108  24.158  1.00  0.00     0.000 A 
ATOM      6  C   UNL A   1      31.327  28.307  23.132  1.00  0.00     0.093 A 
ATOM      7  N   UNL A   1      30.605  28.605  22.000  1.00  0.00    -0.351 N 
ATOM      8  C   UNL A   1      29.868  29.744  22.187  1.00  0.00     0.048 A 
ATOM      9  H   UNL A   1      30.617  28.074  21.171  1.00  0.00     0.167 HD
ATOM     10  C   UNL A   1      29.913  30.036  23.547  1.00  0.00     0.004 A 
ATOM     11  C   UNL A   1      29.172  30.526  21.257  1.00  0.00     0.047 A 
ATOM     12  C   UNL A   1      29.170  31.140  24.019  1.00  0.00     0.012 A 
ATOM     13  C   UNL A   1      28.483  31.636  21.747  1.00  0.00     0.043 A 
ATOM     14  C   UNL A   1      28.463  31.936  23.106  1.00  0.00     0.021 A 
ATOM     15  Cl  UNL A   1      27.652  32.662  20.639  1.00  0.00    -0.084 Cl
BRANCH   6  16
ATOM     16  C   UNL A   1      32.394  27.316  23.056  1.00  0.00     0.227 C 
ATOM     17  O   UNL A   1      33.361  27.483  22.314  1.00  0.00    -0.285 OA
BRANCH  16  18
ATOM     18  C   UNL A   1      32.483  26.276  24.154  1.00  0.00     0.113 A 
ATOM     19  C   UNL A   1      32.783  23.874  25.465  1.00  0.00     0.140 A 
ATOM     20  C   UNL A   1      31.546  24.362  25.056  1.00  0.00     0.158 A 
ATOM     21  C   UNL A   1      33.917  24.646  25.216  1.00  0.00    -0.002 A 
ATOM     22  N   UNL A   1      31.369  25.534  24.401  1.00  0.00    -0.249 NA
ATOM     23  C   UNL A   1      33.746  25.901  24.613  1.00  0.00     0.040 A 
BRANCH  19  24
ATOM     24  O   UNL A   1      32.907  22.596  25.923  1.00  0.00    -0.492 OA
BRANCH  24  25
ATOM     25  C   UNL A   1      32.125  21.658  25.176  1.00  0.00     0.226 C 
ATOM     26  C   UNL A   1      32.869  21.301  23.901  1.00  0.00     0.049 C 
ENDBRANCH  24  25
ENDBRANCH  19  24
BRANCH  21  27
ATOM     27  C   UNL A   1      35.316  24.124  25.438  1.00  0.00     0.036 C 
ATOM     28  C   UNL A   1      35.902  23.528  24.161  1.00  0.00     0.009 C 
ENDBRANCH  21  27
ENDBRANCH  16  18
ENDBRANCH   6  16
ENDBRANCH   4   5
ENDBRANCH   2   4
ENDBRANCH   1   2
BRANCH   1  29
ATOM     29  C   UNL A   1      31.434  31.969  26.673  1.00  0.00     0.274 C 
BRANCH  29  30
ATOM     30  C   UNL A   1      32.143  33.318  26.871  1.00  0.00     0.275 C 
BRANCH  30  31
ATOM     31  O   UNL A   1      32.151  33.758  28.248  1.00  0.00    -0.458 OA
BRANCH  31  32
ATOM     32  C   UNL A   1      33.223  34.513  28.557  1.00  0.00     0.338 C 
ATOM     33  O   UNL A   1      33.242  35.721  28.721  1.00  0.00    -0.246 OA
BRANCH  32  34
ATOM     34  C   UNL A   1      34.434  33.743  28.817  1.00  0.00     0.060 A 
ATOM     35  C   UNL A   1      34.381  32.799  29.845  1.00  0.00     0.016 A 
ATOM     36  C   UNL A   1      35.653  34.142  28.269  1.00  0.00     0.016 A 
ATOM     37  C   UNL A   1      35.559  32.286  30.369  1.00  0.00     0.010 A 
ATOM     38  C   UNL A   1      36.834  33.578  28.756  1.00  0.00     0.010 A 
ATOM     39  C   UNL A   1      36.794  32.663  29.823  1.00  0.00    -0.014 A 
BRANCH  39  40
ATOM     40  C   UNL A   1      38.029  32.032  30.336  1.00  0.00     0.031 A 
ATOM     41  C   UNL A   1      38.845  32.669  31.420  1.00  0.00     0.074 A 
ATOM     42  C   UNL A   1      38.400  30.850  29.811  1.00  0.00     0.049 A 
ATOM     43  N   UNL A   1      39.957  32.243  31.966  1.00  0.00    -0.248 NA
ATOM     44  C   UNL A   1      38.355  33.944  31.967  1.00  0.00     0.031 C 
ATOM     45  C   UNL A   1      37.674  30.129  28.763  1.00  0.00     0.029 A 
ATOM     46  N   UNL A   1      39.477  30.050  30.086  1.00  0.00    -0.354 N 
ATOM     47  C   UNL A   1      40.301  33.193  32.917  1.00  0.00     0.074 A 
ATOM     48  C   UNL A   1      39.295  34.232  32.860  1.00  0.00     0.031 C 
ATOM     49  C   UNL A   1      38.322  28.988  28.488  1.00  0.00     0.029 A 
ATOM     50  C   UNL A   1      39.533  28.929  29.299  1.00  0.00     0.049 A 
ATOM     51  H   UNL A   1      40.144  30.258  30.779  1.00  0.00     0.167 HD
ATOM     52  C   UNL A   1      41.357  33.192  33.764  1.00  0.00     0.031 A 
ATOM     53  C   UNL A   1      40.472  27.972  29.209  1.00  0.00     0.031 A 
ATOM     54  C   UNL A   1      42.370  32.173  33.803  1.00  0.00     0.049 A 
ATOM     55  C   UNL A   1      41.681  28.049  30.088  1.00  0.00     0.074 A 
ATOM     56  C   UNL A   1      43.469  32.081  34.640  1.00  0.00     0.029 A 
ATOM     57  N   UNL A   1      42.419  31.079  32.955  1.00  0.00    -0.354 N 
ATOM     58  N   UNL A   1      41.969  28.931  31.014  1.00  0.00    -0.248 NA
ATOM     59  C   UNL A   1      42.696  27.005  29.906  1.00  0.00     0.031 C 
ATOM     60  C   UNL A   1      44.208  30.951  34.268  1.00  0.00     0.029 A 
ATOM     61  C   UNL A   1      43.549  30.326  33.222  1.00  0.00     0.049 A 
ATOM     62  H   UNL A   1      41.749  30.870  32.264  1.00  0.00     0.167 HD
ATOM     63  C   UNL A   1      43.195  28.546  31.532  1.00  0.00     0.074 A 
ATOM     64  C   UNL A   1      43.590  27.343  30.828  1.00  0.00     0.031 C 
ATOM     65  C   UNL A   1      43.930  29.139  32.503  1.00  0.00     0.031 A 
BRANCH  52  66
ATOM     66  C   UNL A   1      41.480  34.340  34.719  1.00  0.00    -0.014 A 
ATOM     67  C   UNL A   1      40.949  34.250  36.014  1.00  0.00     0.009 A 
ATOM     68  C   UNL A   1      42.179  35.496  34.345  1.00  0.00     0.009 A 
ATOM     69  C   UNL A   1      41.094  35.311  36.911  1.00  0.00     0.001 A 
ATOM     70  C   UNL A   1      42.335  36.549  35.248  1.00  0.00     0.001 A 
ATOM     71  C   UNL A   1      41.787  36.458  36.527  1.00  0.00     0.000 A 
ENDBRANCH  52  66
BRANCH  53  72
ATOM     72  C   UNL A   1      40.312  26.894  28.205  1.00  0.00    -0.014 A 
ATOM     73  C   UNL A   1      40.904  27.000  26.940  1.00  0.00     0.009 A 
ATOM     74  C   UNL A   1      39.605  25.726  28.536  1.00  0.00     0.009 A 
ATOM     75  C   UNL A   1      40.785  25.955  26.020  1.00  0.00     0.001 A 
ATOM     76  C   UNL A   1      39.509  24.675  27.623  1.00  0.00     0.001 A 
ATOM     77  C   UNL A   1      40.095  24.793  26.365  1.00  0.00     0.000 A 
ENDBRANCH  53  72
BRANCH  65  78
ATOM     78  C   UNL A   1      45.229  28.485  32.860  1.00  0.00    -0.014 A 
ATOM     79  C   UNL A   1      46.422  28.869  32.229  1.00  0.00     0.009 A 
ATOM     80  C   UNL A   1      45.265  27.495  33.853  1.00  0.00     0.009 A 
ATOM     81  C   UNL A   1      47.626  28.251  32.568  1.00  0.00     0.001 A 
ATOM     82  C   UNL A   1      46.473  26.893  34.204  1.00  0.00     0.001 A 
ATOM     83  C   UNL A   1      47.652  27.267  33.556  1.00  0.00     0.000 A 
ENDBRANCH  65  78
ENDBRANCH  39  40
ENDBRANCH  32  34
ENDBRANCH  31  32
ENDBRANCH  30  31
ENDBRANCH  29  30
ENDBRANCH   1  29
TORSDOF 17
ENDMDL
