MODEL 1
REMARK VINA RESULT:     -10.4      0.000      0.000
REMARK SMILES CCC(C)(C)[C@@H]1CCc2c(sc(=O)n2CCCC(=O)OCCOC(=O)c2ccc(-c3c4nc(c(-c5ccccc5)c5ccc([nH]5)c(-c5ccccc5)c5nc(c(-c6ccccc6)c6ccc3[nH]6)C=C5)C=C4)cc2)C1
REMARK SMILES IDX 20 1 18 2 19 3 17 4 16 5 15 6 14 7 6 8 7 9 74 10 8 11 10 12
REMARK SMILES IDX 9 13 11 14 12 15 13 16 3 17 4 18 5 19 2 20 1 21 21 22 22 23
REMARK SMILES IDX 23 24 24 25 25 26 26 27 27 28 73 29 28 30 72 31 29 32 30 33
REMARK SMILES IDX 31 34 66 35 32 36 71 37 65 38 67 39 33 40 70 41 64 42 63 43
REMARK SMILES IDX 34 45 56 46 41 47 55 48 42 49 45 50 54 51 68 52 43 53 44 54
REMARK SMILES IDX 53 56 69 57 46 58 35 59 36 60 40 61 37 62 39 63 38 64 57 65
REMARK SMILES IDX 58 66 62 67 59 68 61 69 60 70 47 71 48 72 52 73 49 74 51 75
REMARK SMILES IDX 50 76
REMARK H PARENT 67 44 45 55
REMARK Flexibility Score: inf
ROOT
ATOM      1  O   UNL A   1      34.334  30.319  27.362  1.00  0.00    -0.462 OA
ENDROOT
BRANCH   1   2
ATOM      2  C   UNL A   1      33.357  29.518  26.881  1.00  0.00     0.305 C 
ATOM      3  O   UNL A   1      32.156  29.712  27.039  1.00  0.00    -0.252 OA
BRANCH   2   4
ATOM      4  C   UNL A   1      33.902  28.318  26.128  1.00  0.00     0.124 C 
BRANCH   4   5
ATOM      5  C   UNL A   1      33.159  26.982  26.221  1.00  0.00     0.034 C 
BRANCH   5   6
ATOM      6  C   UNL A   1      32.310  26.545  25.026  1.00  0.00     0.127 C 
BRANCH   6   7
ATOM      7  N   UNL A   1      31.898  25.149  25.074  1.00  0.00    -0.303 N 
ATOM      8  C   UNL A   1      34.343  21.939  24.149  1.00  0.00     0.000 C 
ATOM      9  C   UNL A   1      34.427  23.073  23.097  1.00  0.00     0.011 C 
ATOM     10  C   UNL A   1      32.822  21.658  24.326  1.00  0.00     0.053 C 
ATOM     11  C   UNL A   1      33.778  24.384  23.550  1.00  0.00     0.055 C 
ATOM     12  C   UNL A   1      32.111  22.913  24.693  1.00  0.00     0.030 A 
ATOM     13  C   UNL A   1      32.571  24.141  24.407  1.00  0.00     0.035 A 
ATOM     14  S   UNL A   1      30.744  22.945  25.747  1.00  0.00    -0.079 S 
ATOM     15  C   UNL A   1      30.884  24.700  25.929  1.00  0.00     0.307 A 
ATOM     16  O   UNL A   1      30.189  25.321  26.699  1.00  0.00    -0.257 OA
BRANCH   8  17
ATOM     17  C   UNL A   1      35.192  22.075  25.513  1.00  0.00    -0.032 C 
ATOM     18  C   UNL A   1      36.294  20.986  25.458  1.00  0.00     0.011 C 
ATOM     19  C   UNL A   1      34.361  21.747  26.790  1.00  0.00     0.011 C 
BRANCH  17  20
ATOM     20  C   UNL A   1      35.874  23.444  25.837  1.00  0.00     0.003 C 
ATOM     21  C   UNL A   1      37.196  23.797  25.172  1.00  0.00     0.004 C 
ENDBRANCH  17  20
ENDBRANCH   8  17
ENDBRANCH   6   7
ENDBRANCH   5   6
ENDBRANCH   4   5
ENDBRANCH   2   4
ENDBRANCH   1   2
BRANCH   1  22
ATOM     22  C   UNL A   1      33.971  31.557  27.983  1.00  0.00     0.274 C 
BRANCH  22  23
ATOM     23  C   UNL A   1      35.113  32.547  27.844  1.00  0.00     0.275 C 
BRANCH  23  24
ATOM     24  O   UNL A   1      36.369  31.902  28.046  1.00  0.00    -0.458 OA
BRANCH  24  25
ATOM     25  C   UNL A   1      37.092  32.381  29.083  1.00  0.00     0.338 C 
ATOM     26  O   UNL A   1      37.219  33.542  29.430  1.00  0.00    -0.246 OA
BRANCH  25  27
ATOM     27  C   UNL A   1      37.943  31.314  29.610  1.00  0.00     0.060 A 
ATOM     28  C   UNL A   1      39.301  31.590  29.785  1.00  0.00     0.016 A 
ATOM     29  C   UNL A   1      37.444  30.005  29.625  1.00  0.00     0.016 A 
ATOM     30  C   UNL A   1      40.183  30.529  29.813  1.00  0.00     0.010 A 
ATOM     31  C   UNL A   1      38.325  28.951  29.634  1.00  0.00     0.010 A 
ATOM     32  C   UNL A   1      39.688  29.224  29.661  1.00  0.00    -0.014 A 
BRANCH  32  33
ATOM     33  C   UNL A   1      40.615  28.116  29.786  1.00  0.00     0.031 A 
ATOM     34  C   UNL A   1      41.289  28.150  31.100  1.00  0.00     0.074 A 
ATOM     35  C   UNL A   1      40.769  27.128  28.884  1.00  0.00     0.049 A 
ATOM     36  N   UNL A   1      42.495  28.549  31.320  1.00  0.00    -0.248 NA
ATOM     37  C   UNL A   1      40.482  27.964  32.318  1.00  0.00     0.031 C 
ATOM     38  C   UNL A   1      39.981  26.874  27.676  1.00  0.00     0.029 A 
ATOM     39  N   UNL A   1      41.628  26.070  28.910  1.00  0.00    -0.354 N 
ATOM     40  C   UNL A   1      42.684  28.401  32.685  1.00  0.00     0.074 A 
ATOM     41  C   UNL A   1      41.371  28.274  33.264  1.00  0.00     0.031 C 
ATOM     42  C   UNL A   1      40.244  25.623  27.223  1.00  0.00     0.029 A 
ATOM     43  C   UNL A   1      41.315  25.047  28.019  1.00  0.00     0.049 A 
ATOM     44  H   UNL A   1      42.408  26.033  29.511  1.00  0.00     0.167 HD
ATOM     45  C   UNL A   1      43.902  28.017  33.152  1.00  0.00     0.031 A 
ATOM     46  C   UNL A   1      41.878  23.812  27.971  1.00  0.00     0.031 A 
ATOM     47  C   UNL A   1      44.928  28.220  32.152  1.00  0.00     0.049 A 
ATOM     48  C   UNL A   1      43.196  23.909  28.632  1.00  0.00     0.074 A 
ATOM     49  C   UNL A   1      45.418  29.293  31.436  1.00  0.00     0.029 A 
ATOM     50  N   UNL A   1      45.302  27.094  31.463  1.00  0.00    -0.354 N 
ATOM     51  N   UNL A   1      44.198  24.567  28.131  1.00  0.00    -0.248 NA
ATOM     52  C   UNL A   1      43.281  23.621  30.053  1.00  0.00     0.031 C 
ATOM     53  C   UNL A   1      45.733  28.774  30.142  1.00  0.00     0.029 A 
ATOM     54  C   UNL A   1      45.501  27.398  30.147  1.00  0.00     0.049 A 
ATOM     55  H   UNL A   1      45.411  26.198  31.859  1.00  0.00     0.167 HD
ATOM     56  C   UNL A   1      44.768  25.199  29.224  1.00  0.00     0.074 A 
ATOM     57  C   UNL A   1      44.261  24.466  30.384  1.00  0.00     0.031 C 
ATOM     58  C   UNL A   1      45.343  26.431  29.082  1.00  0.00     0.031 A 
BRANCH  45  59
ATOM     59  C   UNL A   1      44.045  26.945  34.217  1.00  0.00    -0.014 A 
ATOM     60  C   UNL A   1      44.777  27.260  35.375  1.00  0.00     0.009 A 
ATOM     61  C   UNL A   1      43.788  25.578  33.992  1.00  0.00     0.009 A 
ATOM     62  C   UNL A   1      45.306  26.259  36.198  1.00  0.00     0.001 A 
ATOM     63  C   UNL A   1      44.278  24.577  34.833  1.00  0.00     0.001 A 
ATOM     64  C   UNL A   1      45.065  24.918  35.920  1.00  0.00     0.000 A 
ENDBRANCH  45  59
BRANCH  46  65
ATOM     65  C   UNL A   1      41.293  22.489  27.646  1.00  0.00    -0.014 A 
ATOM     66  C   UNL A   1      40.101  22.402  26.897  1.00  0.00     0.009 A 
ATOM     67  C   UNL A   1      42.060  21.322  27.779  1.00  0.00     0.009 A 
ATOM     68  C   UNL A   1      39.732  21.212  26.255  1.00  0.00     0.001 A 
ATOM     69  C   UNL A   1      41.688  20.131  27.142  1.00  0.00     0.001 A 
ATOM     70  C   UNL A   1      40.536  20.082  26.362  1.00  0.00     0.000 A 
ENDBRANCH  46  65
BRANCH  58  71
ATOM     71  C   UNL A   1      45.670  26.892  27.681  1.00  0.00    -0.014 A 
ATOM     72  C   UNL A   1      44.739  27.469  26.800  1.00  0.00     0.009 A 
ATOM     73  C   UNL A   1      47.009  26.813  27.271  1.00  0.00     0.009 A 
ATOM     74  C   UNL A   1      45.134  27.909  25.530  1.00  0.00     0.001 A 
ATOM     75  C   UNL A   1      47.407  27.274  26.016  1.00  0.00     0.001 A 
ATOM     76  C   UNL A   1      46.468  27.813  25.141  1.00  0.00     0.000 A 
ENDBRANCH  58  71
ENDBRANCH  32  33
ENDBRANCH  25  27
ENDBRANCH  24  25
ENDBRANCH  23  24
ENDBRANCH  22  23
ENDBRANCH   1  22
TORSDOF 16
ENDMDL
MODEL 2
REMARK VINA RESULT:     -10.4      3.643      8.407
REMARK SMILES CCC(C)(C)[C@@H]1CCc2c(sc(=O)n2CCCC(=O)OCCOC(=O)c2ccc(-c3c4nc(c(-c5ccccc5)c5ccc([nH]5)c(-c5ccccc5)c5nc(c(-c6ccccc6)c6ccc3[nH]6)C=C5)C=C4)cc2)C1
REMARK SMILES IDX 20 1 18 2 19 3 17 4 16 5 15 6 14 7 6 8 7 9 74 10 8 11 10 12
REMARK SMILES IDX 9 13 11 14 12 15 13 16 3 17 4 18 5 19 2 20 1 21 21 22 22 23
REMARK SMILES IDX 23 24 24 25 25 26 26 27 27 28 73 29 28 30 72 31 29 32 30 33
REMARK SMILES IDX 31 34 66 35 32 36 71 37 65 38 67 39 33 40 70 41 64 42 63 43
REMARK SMILES IDX 34 45 56 46 41 47 55 48 42 49 45 50 54 51 68 52 43 53 44 54
REMARK SMILES IDX 53 56 69 57 46 58 35 59 36 60 40 61 37 62 39 63 38 64 57 65
REMARK SMILES IDX 58 66 62 67 59 68 61 69 60 70 47 71 48 72 52 73 49 74 51 75
REMARK SMILES IDX 50 76
REMARK H PARENT 67 44 45 55
REMARK Flexibility Score: inf
ROOT
ATOM      1  O   UNL A   1      37.704  22.761  24.826  1.00  0.00    -0.462 OA
ENDROOT
BRANCH   1   2
ATOM      2  C   UNL A   1      36.679  22.810  23.946  1.00  0.00     0.305 C 
ATOM      3  O   UNL A   1      36.759  23.256  22.807  1.00  0.00    -0.252 OA
BRANCH   2   4
ATOM      4  C   UNL A   1      35.385  22.264  24.523  1.00  0.00     0.124 C 
BRANCH   4   5
ATOM      5  C   UNL A   1      34.366  23.241  25.118  1.00  0.00     0.034 C 
BRANCH   5   6
ATOM      6  C   UNL A   1      32.903  23.105  24.691  1.00  0.00     0.127 C 
BRANCH   6   7
ATOM      7  N   UNL A   1      32.437  24.183  23.832  1.00  0.00    -0.303 N 
ATOM      8  C   UNL A   1      31.437  27.979  25.145  1.00  0.00     0.000 C 
ATOM      9  C   UNL A   1      30.817  26.864  26.023  1.00  0.00     0.011 C 
ATOM     10  C   UNL A   1      31.064  27.603  23.682  1.00  0.00     0.053 C 
ATOM     11  C   UNL A   1      31.399  25.473  25.756  1.00  0.00     0.055 C 
ATOM     12  C   UNL A   1      31.533  26.224  23.375  1.00  0.00     0.030 A 
ATOM     13  C   UNL A   1      31.751  25.285  24.309  1.00  0.00     0.035 A 
ATOM     14  S   UNL A   1      32.094  25.747  21.813  1.00  0.00    -0.079 S 
ATOM     15  C   UNL A   1      32.788  24.262  22.479  1.00  0.00     0.307 A 
ATOM     16  O   UNL A   1      33.454  23.509  21.806  1.00  0.00    -0.257 OA
BRANCH   8  17
ATOM     17  C   UNL A   1      32.975  28.399  25.389  1.00  0.00    -0.032 C 
ATOM     18  C   UNL A   1      33.580  28.690  23.991  1.00  0.00     0.011 C 
ATOM     19  C   UNL A   1      33.843  27.246  25.976  1.00  0.00     0.011 C 
BRANCH  17  20
ATOM     20  C   UNL A   1      33.278  29.621  26.316  1.00  0.00     0.003 C 
ATOM     21  C   UNL A   1      34.365  29.504  27.375  1.00  0.00     0.004 C 
ENDBRANCH  17  20
ENDBRANCH   8  17
ENDBRANCH   6   7
ENDBRANCH   5   6
ENDBRANCH   4   5
ENDBRANCH   2   4
ENDBRANCH   1   2
BRANCH   1  22
ATOM     22  C   UNL A   1      38.050  21.502  25.415  1.00  0.00     0.274 C 
BRANCH  22  23
ATOM     23  C   UNL A   1      39.424  21.604  26.053  1.00  0.00     0.275 C 
BRANCH  23  24
ATOM     24  O   UNL A   1      39.513  22.761  26.882  1.00  0.00    -0.458 OA
BRANCH  24  25
ATOM     25  C   UNL A   1      40.755  23.040  27.336  1.00  0.00     0.338 C 
ATOM     26  O   UNL A   1      41.560  22.267  27.827  1.00  0.00    -0.246 OA
BRANCH  25  27
ATOM     27  C   UNL A   1      40.930  24.491  27.401  1.00  0.00     0.060 A 
ATOM     28  C   UNL A   1      41.780  25.002  28.385  1.00  0.00     0.016 A 
ATOM     29  C   UNL A   1      40.031  25.305  26.701  1.00  0.00     0.016 A 
ATOM     30  C   UNL A   1      41.606  26.312  28.778  1.00  0.00     0.010 A 
ATOM     31  C   UNL A   1      39.847  26.605  27.107  1.00  0.00     0.010 A 
ATOM     32  C   UNL A   1      40.588  27.076  28.185  1.00  0.00    -0.014 A 
BRANCH  32  33
ATOM     33  C   UNL A   1      40.479  28.477  28.542  1.00  0.00     0.031 A 
ATOM     34  C   UNL A   1      41.637  29.235  28.025  1.00  0.00     0.074 A 
ATOM     35  C   UNL A   1      39.424  29.039  29.163  1.00  0.00     0.049 A 
ATOM     36  N   UNL A   1      42.646  29.639  28.719  1.00  0.00    -0.248 NA
ATOM     37  C   UNL A   1      41.822  29.343  26.568  1.00  0.00     0.031 C 
ATOM     38  C   UNL A   1      38.136  28.427  29.495  1.00  0.00     0.029 A 
ATOM     39  N   UNL A   1      39.251  30.333  29.555  1.00  0.00    -0.354 N 
ATOM     40  C   UNL A   1      43.467  30.297  27.817  1.00  0.00     0.074 A 
ATOM     41  C   UNL A   1      43.042  29.881  26.505  1.00  0.00     0.031 C 
ATOM     42  C   UNL A   1      37.246  29.398  29.817  1.00  0.00     0.029 A 
ATOM     43  C   UNL A   1      37.935  30.677  29.854  1.00  0.00     0.049 A 
ATOM     44  H   UNL A   1      39.998  30.973  29.623  1.00  0.00     0.167 HD
ATOM     45  C   UNL A   1      44.154  31.398  28.222  1.00  0.00     0.031 A 
ATOM     46  C   UNL A   1      37.454  31.928  30.080  1.00  0.00     0.031 A 
ATOM     47  C   UNL A   1      44.224  31.464  29.665  1.00  0.00     0.049 A 
ATOM     48  C   UNL A   1      38.601  32.769  30.477  1.00  0.00     0.074 A 
ATOM     49  C   UNL A   1      44.708  30.657  30.674  1.00  0.00     0.029 A 
ATOM     50  N   UNL A   1      43.328  32.322  30.254  1.00  0.00    -0.354 N 
ATOM     51  N   UNL A   1      39.231  32.629  31.606  1.00  0.00    -0.248 NA
ATOM     52  C   UNL A   1      39.317  33.499  29.446  1.00  0.00     0.031 C 
ATOM     53  C   UNL A   1      43.790  30.812  31.758  1.00  0.00     0.029 A 
ATOM     54  C   UNL A   1      42.835  31.765  31.399  1.00  0.00     0.049 A 
ATOM     55  H   UNL A   1      43.078  33.207  29.902  1.00  0.00     0.167 HD
ATOM     56  C   UNL A   1      40.566  32.793  31.271  1.00  0.00     0.074 A 
ATOM     57  C   UNL A   1      40.543  33.469  29.973  1.00  0.00     0.031 C 
ATOM     58  C   UNL A   1      41.532  32.092  31.936  1.00  0.00     0.031 A 
BRANCH  45  59
ATOM     59  C   UNL A   1      44.213  32.656  27.374  1.00  0.00    -0.014 A 
ATOM     60  C   UNL A   1      43.720  33.850  27.929  1.00  0.00     0.009 A 
ATOM     61  C   UNL A   1      44.412  32.650  25.978  1.00  0.00     0.009 A 
ATOM     62  C   UNL A   1      43.354  34.933  27.121  1.00  0.00     0.001 A 
ATOM     63  C   UNL A   1      44.087  33.743  25.173  1.00  0.00     0.001 A 
ATOM     64  C   UNL A   1      43.527  34.875  25.743  1.00  0.00     0.000 A 
ENDBRANCH  45  59
BRANCH  46  65
ATOM     65  C   UNL A   1      36.150  32.543  29.737  1.00  0.00    -0.014 A 
ATOM     66  C   UNL A   1      35.431  33.273  30.705  1.00  0.00     0.009 A 
ATOM     67  C   UNL A   1      35.769  32.696  28.395  1.00  0.00     0.009 A 
ATOM     68  C   UNL A   1      34.418  34.169  30.334  1.00  0.00     0.001 A 
ATOM     69  C   UNL A   1      34.753  33.587  28.025  1.00  0.00     0.001 A 
ATOM     70  C   UNL A   1      34.093  34.340  28.992  1.00  0.00     0.000 A 
ENDBRANCH  46  65
BRANCH  58  71
ATOM     71  C   UNL A   1      41.151  31.453  33.251  1.00  0.00    -0.014 A 
ATOM     72  C   UNL A   1      40.648  30.146  33.381  1.00  0.00     0.009 A 
ATOM     73  C   UNL A   1      41.397  32.187  34.421  1.00  0.00     0.009 A 
ATOM     74  C   UNL A   1      40.358  29.614  34.644  1.00  0.00     0.001 A 
ATOM     75  C   UNL A   1      41.132  31.648  35.680  1.00  0.00     0.001 A 
ATOM     76  C   UNL A   1      40.603  30.365  35.791  1.00  0.00     0.000 A 
ENDBRANCH  58  71
ENDBRANCH  32  33
ENDBRANCH  25  27
ENDBRANCH  24  25
ENDBRANCH  23  24
ENDBRANCH  22  23
ENDBRANCH   1  22
TORSDOF 16
ENDMDL
MODEL 3
REMARK VINA RESULT:     -10.4      2.382      6.177
REMARK SMILES CCC(C)(C)[C@@H]1CCc2c(sc(=O)n2CCCC(=O)OCCOC(=O)c2ccc(-c3c4nc(c(-c5ccccc5)c5ccc([nH]5)c(-c5ccccc5)c5nc(c(-c6ccccc6)c6ccc3[nH]6)C=C5)C=C4)cc2)C1
REMARK SMILES IDX 20 1 18 2 19 3 17 4 16 5 15 6 14 7 6 8 7 9 74 10 8 11 10 12
REMARK SMILES IDX 9 13 11 14 12 15 13 16 3 17 4 18 5 19 2 20 1 21 21 22 22 23
REMARK SMILES IDX 23 24 24 25 25 26 26 27 27 28 73 29 28 30 72 31 29 32 30 33
REMARK SMILES IDX 31 34 66 35 32 36 71 37 65 38 67 39 33 40 70 41 64 42 63 43
REMARK SMILES IDX 34 45 56 46 41 47 55 48 42 49 45 50 54 51 68 52 43 53 44 54
REMARK SMILES IDX 53 56 69 57 46 58 35 59 36 60 40 61 37 62 39 63 38 64 57 65
REMARK SMILES IDX 58 66 62 67 59 68 61 69 60 70 47 71 48 72 52 73 49 74 51 75
REMARK SMILES IDX 50 76
REMARK H PARENT 67 44 45 55
REMARK Flexibility Score: inf
ROOT
ATOM      1  O   UNL A   1      32.545  29.505  27.134  1.00  0.00    -0.462 OA
ENDROOT
BRANCH   1   2
ATOM      2  C   UNL A   1      31.861  29.709  25.985  1.00  0.00     0.305 C 
ATOM      3  O   UNL A   1      31.390  30.786  25.636  1.00  0.00    -0.252 OA
BRANCH   2   4
ATOM      4  C   UNL A   1      31.714  28.443  25.160  1.00  0.00     0.124 C 
BRANCH   4   5
ATOM      5  C   UNL A   1      31.081  27.205  25.803  1.00  0.00     0.034 C 
BRANCH   5   6
ATOM      6  C   UNL A   1      32.012  26.152  26.406  1.00  0.00     0.127 C 
BRANCH   6   7
ATOM      7  N   UNL A   1      31.854  24.825  25.829  1.00  0.00    -0.303 N 
ATOM      8  C   UNL A   1      34.812  22.781  23.777  1.00  0.00     0.000 C 
ATOM      9  C   UNL A   1      34.679  24.253  23.317  1.00  0.00     0.011 C 
ATOM     10  C   UNL A   1      33.367  22.203  23.722  1.00  0.00     0.053 C 
ATOM     11  C   UNL A   1      33.816  25.114  24.245  1.00  0.00     0.055 C 
ATOM     12  C   UNL A   1      32.452  23.041  24.545  1.00  0.00     0.030 A 
ATOM     13  C   UNL A   1      32.683  24.330  24.839  1.00  0.00     0.035 A 
ATOM     14  S   UNL A   1      31.117  22.389  25.424  1.00  0.00    -0.079 S 
ATOM     15  C   UNL A   1      30.948  23.891  26.346  1.00  0.00     0.307 A 
ATOM     16  O   UNL A   1      30.166  23.995  27.262  1.00  0.00    -0.257 OA
BRANCH   8  17
ATOM     17  C   UNL A   1      35.644  22.454  25.119  1.00  0.00    -0.032 C 
ATOM     18  C   UNL A   1      37.058  23.056  24.919  1.00  0.00     0.011 C 
ATOM     19  C   UNL A   1      35.880  20.930  25.341  1.00  0.00     0.011 C 
BRANCH  17  20
ATOM     20  C   UNL A   1      35.086  22.961  26.488  1.00  0.00     0.003 C 
ATOM     21  C   UNL A   1      34.389  21.981  27.421  1.00  0.00     0.004 C 
ENDBRANCH  17  20
ENDBRANCH   8  17
ENDBRANCH   6   7
ENDBRANCH   5   6
ENDBRANCH   4   5
ENDBRANCH   2   4
ENDBRANCH   1   2
BRANCH   1  22
ATOM     22  C   UNL A   1      33.766  30.221  27.348  1.00  0.00     0.274 C 
BRANCH  22  23
ATOM     23  C   UNL A   1      34.927  29.244  27.373  1.00  0.00     0.275 C 
BRANCH  23  24
ATOM     24  O   UNL A   1      36.150  29.917  27.666  1.00  0.00    -0.458 OA
BRANCH  24  25
ATOM     25  C   UNL A   1      36.778  29.493  28.786  1.00  0.00     0.338 C 
ATOM     26  O   UNL A   1      36.516  29.783  29.941  1.00  0.00    -0.246 OA
BRANCH  25  27
ATOM     27  C   UNL A   1      38.019  28.815  28.415  1.00  0.00     0.060 A 
ATOM     28  C   UNL A   1      38.592  27.948  29.348  1.00  0.00     0.016 A 
ATOM     29  C   UNL A   1      38.730  29.282  27.302  1.00  0.00     0.016 A 
ATOM     30  C   UNL A   1      39.941  27.678  29.244  1.00  0.00     0.010 A 
ATOM     31  C   UNL A   1      40.077  29.027  27.211  1.00  0.00     0.010 A 
ATOM     32  C   UNL A   1      40.683  28.284  28.218  1.00  0.00    -0.014 A 
BRANCH  32  33
ATOM     33  C   UNL A   1      42.078  27.918  28.066  1.00  0.00     0.031 A 
ATOM     34  C   UNL A   1      42.199  26.582  27.446  1.00  0.00     0.074 A 
ATOM     35  C   UNL A   1      43.124  28.718  28.347  1.00  0.00     0.049 A 
ATOM     36  N   UNL A   1      42.482  25.487  28.063  1.00  0.00    -0.248 NA
ATOM     37  C   UNL A   1      41.720  26.394  26.066  1.00  0.00     0.031 C 
ATOM     38  C   UNL A   1      43.107  30.131  28.731  1.00  0.00     0.029 A 
ATOM     39  N   UNL A   1      44.457  28.447  28.258  1.00  0.00    -0.354 N 
ATOM     40  C   UNL A   1      42.485  24.508  27.082  1.00  0.00     0.074 A 
ATOM     41  C   UNL A   1      41.788  25.066  25.951  1.00  0.00     0.031 C 
ATOM     42  C   UNL A   1      44.356  30.645  28.612  1.00  0.00     0.029 A 
ATOM     43  C   UNL A   1      45.279  29.571  28.285  1.00  0.00     0.049 A 
ATOM     44  H   UNL A   1      44.810  27.531  28.183  1.00  0.00     0.167 HD
ATOM     45  C   UNL A   1      43.382  23.489  27.158  1.00  0.00     0.031 A 
ATOM     46  C   UNL A   1      46.612  29.608  28.023  1.00  0.00     0.031 A 
ATOM     47  C   UNL A   1      43.929  23.380  28.493  1.00  0.00     0.049 A 
ATOM     48  C   UNL A   1      47.134  28.241  28.229  1.00  0.00     0.074 A 
ATOM     49  C   UNL A   1      43.422  23.174  29.761  1.00  0.00     0.029 A 
ATOM     50  N   UNL A   1      45.174  23.932  28.661  1.00  0.00    -0.354 N 
ATOM     51  N   UNL A   1      47.211  27.676  29.397  1.00  0.00    -0.248 NA
ATOM     52  C   UNL A   1      47.186  27.340  27.091  1.00  0.00     0.031 C 
ATOM     53  C   UNL A   1      44.231  23.973  30.627  1.00  0.00     0.029 A 
ATOM     54  C   UNL A   1      45.243  24.564  29.870  1.00  0.00     0.049 A 
ATOM     55  H   UNL A   1      45.908  23.881  28.006  1.00  0.00     0.167 HD
ATOM     56  C   UNL A   1      46.817  26.368  29.166  1.00  0.00     0.074 A 
ATOM     57  C   UNL A   1      46.961  26.184  27.722  1.00  0.00     0.031 C 
ATOM     58  C   UNL A   1      46.131  25.677  30.126  1.00  0.00     0.031 A 
BRANCH  45  59
ATOM     59  C   UNL A   1      44.171  23.030  25.946  1.00  0.00    -0.014 A 
ATOM     60  C   UNL A   1      44.244  21.650  25.689  1.00  0.00     0.009 A 
ATOM     61  C   UNL A   1      45.097  23.844  25.261  1.00  0.00     0.009 A 
ATOM     62  C   UNL A   1      45.249  21.111  24.877  1.00  0.00     0.001 A 
ATOM     63  C   UNL A   1      46.075  23.315  24.417  1.00  0.00     0.001 A 
ATOM     64  C   UNL A   1      46.170  21.943  24.250  1.00  0.00     0.000 A 
ENDBRANCH  45  59
BRANCH  46  65
ATOM     65  C   UNL A   1      47.443  30.640  27.359  1.00  0.00    -0.014 A 
ATOM     66  C   UNL A   1      46.851  31.817  26.858  1.00  0.00     0.009 A 
ATOM     67  C   UNL A   1      48.839  30.630  27.508  1.00  0.00     0.009 A 
ATOM     68  C   UNL A   1      47.620  32.957  26.582  1.00  0.00     0.001 A 
ATOM     69  C   UNL A   1      49.608  31.767  27.226  1.00  0.00     0.001 A 
ATOM     70  C   UNL A   1      48.996  32.937  26.784  1.00  0.00     0.000 A 
ENDBRANCH  46  65
BRANCH  58  71
ATOM     71  C   UNL A   1      46.153  26.228  31.532  1.00  0.00    -0.014 A 
ATOM     72  C   UNL A   1      45.186  27.105  32.056  1.00  0.00     0.009 A 
ATOM     73  C   UNL A   1      47.161  25.764  32.392  1.00  0.00     0.009 A 
ATOM     74  C   UNL A   1      45.258  27.537  33.386  1.00  0.00     0.001 A 
ATOM     75  C   UNL A   1      47.217  26.174  33.724  1.00  0.00     0.001 A 
ATOM     76  C   UNL A   1      46.272  27.069  34.219  1.00  0.00     0.000 A 
ENDBRANCH  58  71
ENDBRANCH  32  33
ENDBRANCH  25  27
ENDBRANCH  24  25
ENDBRANCH  23  24
ENDBRANCH  22  23
ENDBRANCH   1  22
TORSDOF 16
ENDMDL
