MODEL 1
REMARK VINA RESULT:     -11.0      0.000      0.000
REMARK SMILES CO[C@H]1C[C@@H](C(=O)OCCOC(=O)c2ccc(-c3c4nc(c(-c5ccccc5)c5ccc([nH]5)c(-c5ccccc5)c5nc(c(-c6ccccc6)c6ccc3[nH]6)C=C5)C=C4)cc2)N(C(=O)Nc2cc(C)cc(F)c2)C1
REMARK SMILES IDX 9 1 8 2 6 3 7 4 5 5 3 6 4 7 74 8 62 9 2 10 1 11 63 12 64 13
REMARK SMILES IDX 65 14 66 16 67 17 73 18 68 19 71 20 69 21 70 22 72 23 10 24
REMARK SMILES IDX 11 25 12 26 13 27 14 28 15 29 61 30 16 31 60 32 17 33 18 34
REMARK SMILES IDX 19 35 54 36 20 37 59 38 53 39 55 40 21 41 58 42 52 43 51 44
REMARK SMILES IDX 22 46 44 47 29 48 43 49 30 50 33 51 42 52 56 53 31 54 32 55
REMARK SMILES IDX 41 57 57 58 34 59 23 60 24 61 28 62 25 63 27 64 26 65 45 66
REMARK SMILES IDX 46 67 50 68 47 69 49 70 48 71 35 72 36 73 40 74 37 75 39 76
REMARK SMILES IDX 38 77
REMARK H PARENT 65 15 55 45 33 56
REMARK Flexibility Score: inf
ROOT
ATOM      1  C   UNL A   1      37.319  20.419  24.946  1.00  0.00     0.274 C 
ENDROOT
BRANCH   1   2
ATOM      2  O   UNL A   1      36.930  21.531  25.791  1.00  0.00    -0.461 OA
BRANCH   2   3
ATOM      3  C   UNL A   1      36.404  22.588  25.128  1.00  0.00     0.329 C 
ATOM      4  O   UNL A   1      36.917  23.691  25.140  1.00  0.00    -0.250 OA
BRANCH   3   5
ATOM      5  C   UNL A   1      35.159  22.302  24.317  1.00  0.00     0.199 C 
ATOM      6  C   UNL A   1      33.529  23.897  23.404  1.00  0.00     0.140 C 
ATOM      7  C   UNL A   1      35.005  23.541  23.424  1.00  0.00     0.071 C 
ATOM      8  C   UNL A   1      32.971  23.265  24.676  1.00  0.00     0.154 C 
ATOM      9  N   UNL A   1      33.930  22.270  25.151  1.00  0.00    -0.308 N 
BRANCH   6  10
ATOM     10  O   UNL A   1      33.304  25.307  23.457  1.00  0.00    -0.380 OA
ATOM     11  C   UNL A   1      33.428  25.978  22.210  1.00  0.00     0.195 C 
ENDBRANCH   6  10
BRANCH   9  12
ATOM     12  C   UNL A   1      33.464  21.400  26.108  1.00  0.00     0.322 C 
ATOM     13  O   UNL A   1      33.467  21.730  27.301  1.00  0.00    -0.248 OA
ATOM     14  N   UNL A   1      32.791  20.259  25.824  1.00  0.00    -0.308 N 
ATOM     15  H   UNL A   1      31.966  20.167  26.353  1.00  0.00     0.171 HD
BRANCH  14  16
ATOM     16  C   UNL A   1      32.994  19.180  24.956  1.00  0.00     0.046 A 
ATOM     17  C   UNL A   1      33.799  18.132  25.406  1.00  0.00     0.029 A 
ATOM     18  C   UNL A   1      32.590  19.179  23.626  1.00  0.00     0.065 A 
ATOM     19  C   UNL A   1      34.002  16.990  24.614  1.00  0.00    -0.046 A 
ATOM     20  C   UNL A   1      32.716  18.018  22.866  1.00  0.00     0.125 A 
ATOM     21  C   UNL A   1      34.901  15.883  25.067  1.00  0.00     0.044 C 
ATOM     22  C   UNL A   1      33.383  16.910  23.365  1.00  0.00     0.042 A 
ATOM     23  F   UNL A   1      32.157  17.952  21.650  1.00  0.00    -0.207 F 
ENDBRANCH  14  16
ENDBRANCH   9  12
ENDBRANCH   3   5
ENDBRANCH   2   3
ENDBRANCH   1   2
BRANCH   1  24
ATOM     24  C   UNL A   1      38.713  19.771  25.166  1.00  0.00     0.275 C 
BRANCH  24  25
ATOM     25  O   UNL A   1      39.274  19.923  26.493  1.00  0.00    -0.458 OA
BRANCH  25  26
ATOM     26  C   UNL A   1      40.594  20.260  26.542  1.00  0.00     0.338 C 
ATOM     27  O   UNL A   1      41.514  19.599  26.080  1.00  0.00    -0.246 OA
BRANCH  26  28
ATOM     28  C   UNL A   1      40.799  21.652  27.035  1.00  0.00     0.060 A 
ATOM     29  C   UNL A   1      40.024  22.661  26.441  1.00  0.00     0.016 A 
ATOM     30  C   UNL A   1      41.741  22.000  27.999  1.00  0.00     0.016 A 
ATOM     31  C   UNL A   1      40.160  24.003  26.805  1.00  0.00     0.010 A 
ATOM     32  C   UNL A   1      41.933  23.359  28.316  1.00  0.00     0.010 A 
ATOM     33  C   UNL A   1      41.159  24.370  27.707  1.00  0.00    -0.014 A 
BRANCH  33  34
ATOM     34  C   UNL A   1      41.551  25.801  27.822  1.00  0.00     0.031 A 
ATOM     35  C   UNL A   1      42.825  26.240  27.147  1.00  0.00     0.074 A 
ATOM     36  C   UNL A   1      40.805  26.713  28.473  1.00  0.00     0.049 A 
ATOM     37  N   UNL A   1      43.456  27.385  27.218  1.00  0.00    -0.248 NA
ATOM     38  C   UNL A   1      43.470  25.251  26.266  1.00  0.00     0.031 C 
ATOM     39  C   UNL A   1      39.488  26.478  29.059  1.00  0.00     0.029 A 
ATOM     40  N   UNL A   1      41.067  28.035  28.755  1.00  0.00    -0.354 N 
ATOM     41  C   UNL A   1      44.584  27.242  26.418  1.00  0.00     0.074 A 
ATOM     42  C   UNL A   1      44.549  25.908  25.864  1.00  0.00     0.031 C 
ATOM     43  C   UNL A   1      39.069  27.610  29.657  1.00  0.00     0.029 A 
ATOM     44  C   UNL A   1      40.109  28.633  29.539  1.00  0.00     0.049 A 
ATOM     45  H   UNL A   1      41.866  28.508  28.426  1.00  0.00     0.167 HD
ATOM     46  C   UNL A   1      45.572  28.136  26.181  1.00  0.00     0.031 A 
ATOM     47  C   UNL A   1      40.095  29.847  30.127  1.00  0.00     0.031 A 
ATOM     48  C   UNL A   1      45.619  29.462  26.730  1.00  0.00     0.049 A 
ATOM     49  C   UNL A   1      41.276  30.775  29.954  1.00  0.00     0.074 A 
ATOM     50  C   UNL A   1      46.589  30.433  26.547  1.00  0.00     0.029 A 
ATOM     51  N   UNL A   1      44.662  30.001  27.571  1.00  0.00    -0.354 N 
ATOM     52  N   UNL A   1      42.346  30.629  29.212  1.00  0.00    -0.248 NA
ATOM     53  C   UNL A   1      41.248  32.038  30.713  1.00  0.00     0.031 C 
ATOM     54  C   UNL A   1      46.253  31.538  27.334  1.00  0.00     0.029 A 
ATOM     55  C   UNL A   1      45.038  31.279  27.949  1.00  0.00     0.049 A 
ATOM     56  H   UNL A   1      43.839  29.546  27.859  1.00  0.00     0.167 HD
ATOM     57  C   UNL A   1      43.091  31.792  29.381  1.00  0.00     0.074 A 
ATOM     58  C   UNL A   1      42.352  32.639  30.291  1.00  0.00     0.031 C 
ATOM     59  C   UNL A   1      44.283  32.128  28.831  1.00  0.00     0.031 A 
BRANCH  46  60
ATOM     60  C   UNL A   1      46.732  27.682  25.343  1.00  0.00    -0.014 A 
ATOM     61  C   UNL A   1      46.808  27.965  23.972  1.00  0.00     0.009 A 
ATOM     62  C   UNL A   1      47.797  27.007  25.961  1.00  0.00     0.009 A 
ATOM     63  C   UNL A   1      47.921  27.560  23.232  1.00  0.00     0.001 A 
ATOM     64  C   UNL A   1      48.919  26.628  25.225  1.00  0.00     0.001 A 
ATOM     65  C   UNL A   1      48.978  26.899  23.860  1.00  0.00     0.000 A 
ENDBRANCH  46  60
BRANCH  47  66
ATOM     66  C   UNL A   1      38.967  30.257  31.013  1.00  0.00    -0.014 A 
ATOM     67  C   UNL A   1      38.904  29.822  32.346  1.00  0.00     0.009 A 
ATOM     68  C   UNL A   1      37.897  31.007  30.498  1.00  0.00     0.009 A 
ATOM     69  C   UNL A   1      37.776  30.090  33.127  1.00  0.00     0.001 A 
ATOM     70  C   UNL A   1      36.787  31.302  31.291  1.00  0.00     0.001 A 
ATOM     71  C   UNL A   1      36.719  30.829  32.601  1.00  0.00     0.000 A 
ENDBRANCH  47  66
BRANCH  59  72
ATOM     72  C   UNL A   1      44.841  33.492  29.130  1.00  0.00    -0.014 A 
ATOM     73  C   UNL A   1      45.741  33.703  30.184  1.00  0.00     0.009 A 
ATOM     74  C   UNL A   1      44.518  34.567  28.286  1.00  0.00     0.009 A 
ATOM     75  C   UNL A   1      46.290  34.970  30.400  1.00  0.00     0.001 A 
ATOM     76  C   UNL A   1      45.091  35.825  28.485  1.00  0.00     0.001 A 
ATOM     77  C   UNL A   1      45.971  36.026  29.547  1.00  0.00     0.000 A 
ENDBRANCH  59  72
ENDBRANCH  33  34
ENDBRANCH  26  28
ENDBRANCH  25  26
ENDBRANCH  24  25
ENDBRANCH   1  24
TORSDOF 14
ENDMDL
MODEL 2
REMARK VINA RESULT:     -11.0      4.736      8.396
REMARK SMILES CO[C@H]1C[C@@H](C(=O)OCCOC(=O)c2ccc(-c3c4nc(c(-c5ccccc5)c5ccc([nH]5)c(-c5ccccc5)c5nc(c(-c6ccccc6)c6ccc3[nH]6)C=C5)C=C4)cc2)N(C(=O)Nc2cc(C)cc(F)c2)C1
REMARK SMILES IDX 9 1 8 2 6 3 7 4 5 5 3 6 4 7 74 8 62 9 2 10 1 11 63 12 64 13
REMARK SMILES IDX 65 14 66 16 67 17 73 18 68 19 71 20 69 21 70 22 72 23 10 24
REMARK SMILES IDX 11 25 12 26 13 27 14 28 15 29 61 30 16 31 60 32 17 33 18 34
REMARK SMILES IDX 19 35 54 36 20 37 59 38 53 39 55 40 21 41 58 42 52 43 51 44
REMARK SMILES IDX 22 46 44 47 29 48 43 49 30 50 33 51 42 52 56 53 31 54 32 55
REMARK SMILES IDX 41 57 57 58 34 59 23 60 24 61 28 62 25 63 27 64 26 65 45 66
REMARK SMILES IDX 46 67 50 68 47 69 49 70 48 71 35 72 36 73 40 74 37 75 39 76
REMARK SMILES IDX 38 77
REMARK H PARENT 65 15 55 45 33 56
REMARK Flexibility Score: inf
ROOT
ATOM      1  C   UNL A   1      31.770  29.647  25.604  1.00  0.00     0.274 C 
ENDROOT
BRANCH   1   2
ATOM      2  O   UNL A   1      31.632  28.537  26.527  1.00  0.00    -0.461 OA
BRANCH   2   3
ATOM      3  C   UNL A   1      32.059  27.346  26.047  1.00  0.00     0.329 C 
ATOM      4  O   UNL A   1      33.139  26.870  26.340  1.00  0.00    -0.250 OA
BRANCH   3   5
ATOM      5  C   UNL A   1      31.081  26.606  25.160  1.00  0.00     0.199 C 
ATOM      6  C   UNL A   1      31.051  24.221  24.574  1.00  0.00     0.140 C 
ATOM      7  C   UNL A   1      31.050  25.187  25.745  1.00  0.00     0.071 C 
ATOM      8  C   UNL A   1      31.647  25.024  23.422  1.00  0.00     0.154 C 
ATOM      9  N   UNL A   1      31.581  26.441  23.771  1.00  0.00    -0.308 N 
BRANCH   6  10
ATOM     10  O   UNL A   1      31.874  23.077  24.808  1.00  0.00    -0.380 OA
ATOM     11  C   UNL A   1      32.266  22.890  26.161  1.00  0.00     0.195 C 
ENDBRANCH   6  10
BRANCH   9  12
ATOM     12  C   UNL A   1      31.797  27.322  22.738  1.00  0.00     0.322 C 
ATOM     13  O   UNL A   1      32.925  27.428  22.237  1.00  0.00    -0.248 OA
ATOM     14  N   UNL A   1      30.804  27.952  22.065  1.00  0.00    -0.308 N 
ATOM     15  H   UNL A   1      30.908  27.883  21.089  1.00  0.00     0.171 HD
BRANCH  14  16
ATOM     16  C   UNL A   1      29.665  28.678  22.434  1.00  0.00     0.046 A 
ATOM     17  C   UNL A   1      29.740  30.070  22.377  1.00  0.00     0.029 A 
ATOM     18  C   UNL A   1      28.541  28.100  23.013  1.00  0.00     0.065 A 
ATOM     19  C   UNL A   1      28.622  30.864  22.676  1.00  0.00    -0.046 A 
ATOM     20  C   UNL A   1      27.402  28.871  23.231  1.00  0.00     0.125 A 
ATOM     21  C   UNL A   1      28.706  32.358  22.665  1.00  0.00     0.044 C 
ATOM     22  C   UNL A   1      27.422  30.243  23.029  1.00  0.00     0.042 A 
ATOM     23  F   UNL A   1      26.259  28.282  23.609  1.00  0.00    -0.207 F 
ENDBRANCH  14  16
ENDBRANCH   9  12
ENDBRANCH   3   5
ENDBRANCH   2   3
ENDBRANCH   1   2
BRANCH   1  24
ATOM     24  C   UNL A   1      31.747  31.092  26.171  1.00  0.00     0.275 C 
BRANCH  24  25
ATOM     25  O   UNL A   1      32.397  31.274  27.453  1.00  0.00    -0.458 OA
BRANCH  25  26
ATOM     26  C   UNL A   1      33.249  32.335  27.538  1.00  0.00     0.338 C 
ATOM     27  O   UNL A   1      32.930  33.512  27.447  1.00  0.00    -0.246 OA
BRANCH  26  28
ATOM     28  C   UNL A   1      34.612  31.923  27.980  1.00  0.00     0.060 A 
ATOM     29  C   UNL A   1      34.786  30.580  28.351  1.00  0.00     0.016 A 
ATOM     30  C   UNL A   1      35.687  32.801  28.092  1.00  0.00     0.016 A 
ATOM     31  C   UNL A   1      36.013  30.097  28.811  1.00  0.00     0.010 A 
ATOM     32  C   UNL A   1      36.905  32.336  28.624  1.00  0.00     0.010 A 
ATOM     33  C   UNL A   1      37.070  30.988  29.006  1.00  0.00    -0.014 A 
BRANCH  33  34
ATOM     34  C   UNL A   1      38.239  30.566  29.825  1.00  0.00     0.031 A 
ATOM     35  C   UNL A   1      39.253  29.651  29.187  1.00  0.00     0.074 A 
ATOM     36  C   UNL A   1      38.439  30.991  31.086  1.00  0.00     0.049 A 
ATOM     37  N   UNL A   1      40.272  29.030  29.726  1.00  0.00    -0.248 NA
ATOM     38  C   UNL A   1      39.097  29.410  27.743  1.00  0.00     0.031 C 
ATOM     39  C   UNL A   1      37.629  31.978  31.794  1.00  0.00     0.029 A 
ATOM     40  N   UNL A   1      39.400  30.626  32.003  1.00  0.00    -0.354 N 
ATOM     41  C   UNL A   1      40.856  28.304  28.695  1.00  0.00     0.074 A 
ATOM     42  C   UNL A   1      40.088  28.566  27.499  1.00  0.00     0.031 C 
ATOM     43  C   UNL A   1      38.108  32.119  33.045  1.00  0.00     0.029 A 
ATOM     44  C   UNL A   1      39.227  31.196  33.241  1.00  0.00     0.049 A 
ATOM     45  H   UNL A   1      40.141  30.013  31.791  1.00  0.00     0.167 HD
ATOM     46  C   UNL A   1      41.926  27.476  28.742  1.00  0.00     0.031 A 
ATOM     47  C   UNL A   1      39.869  30.967  34.406  1.00  0.00     0.031 A 
ATOM     48  C   UNL A   1      42.693  27.205  29.926  1.00  0.00     0.049 A 
ATOM     49  C   UNL A   1      40.974  29.937  34.461  1.00  0.00     0.074 A 
ATOM     50  C   UNL A   1      43.790  26.372  30.066  1.00  0.00     0.029 A 
ATOM     51  N   UNL A   1      42.442  27.753  31.171  1.00  0.00    -0.354 N 
ATOM     52  N   UNL A   1      41.511  29.241  33.487  1.00  0.00    -0.248 NA
ATOM     53  C   UNL A   1      41.556  29.653  35.784  1.00  0.00     0.031 C 
ATOM     54  C   UNL A   1      44.162  26.364  31.413  1.00  0.00     0.029 A 
ATOM     55  C   UNL A   1      43.339  27.246  32.095  1.00  0.00     0.049 A 
ATOM     56  H   UNL A   1      41.732  28.405  31.371  1.00  0.00     0.167 HD
ATOM     57  C   UNL A   1      42.515  28.477  34.073  1.00  0.00     0.074 A 
ATOM     58  C   UNL A   1      42.521  28.795  35.484  1.00  0.00     0.031 C 
ATOM     59  C   UNL A   1      43.358  27.590  33.492  1.00  0.00     0.031 A 
BRANCH  46  60
ATOM     60  C   UNL A   1      42.290  26.738  27.487  1.00  0.00    -0.014 A 
ATOM     61  C   UNL A   1      41.846  25.430  27.245  1.00  0.00     0.009 A 
ATOM     62  C   UNL A   1      43.046  27.394  26.504  1.00  0.00     0.009 A 
ATOM     63  C   UNL A   1      42.173  24.787  26.049  1.00  0.00     0.001 A 
ATOM     64  C   UNL A   1      43.348  26.761  25.299  1.00  0.00     0.001 A 
ATOM     65  C   UNL A   1      42.916  25.455  25.075  1.00  0.00     0.000 A 
ENDBRANCH  46  60
BRANCH  47  66
ATOM     66  C   UNL A   1      39.451  31.657  35.660  1.00  0.00    -0.014 A 
ATOM     67  C   UNL A   1      38.331  31.218  36.385  1.00  0.00     0.009 A 
ATOM     68  C   UNL A   1      40.114  32.820  36.085  1.00  0.00     0.009 A 
ATOM     69  C   UNL A   1      37.860  31.953  37.477  1.00  0.00     0.001 A 
ATOM     70  C   UNL A   1      39.662  33.533  37.197  1.00  0.00     0.001 A 
ATOM     71  C   UNL A   1      38.525  33.108  37.883  1.00  0.00     0.000 A 
ENDBRANCH  47  66
BRANCH  59  72
ATOM     72  C   UNL A   1      44.409  26.945  34.352  1.00  0.00    -0.014 A 
ATOM     73  C   UNL A   1      45.624  27.585  34.635  1.00  0.00     0.009 A 
ATOM     74  C   UNL A   1      44.138  25.705  34.955  1.00  0.00     0.009 A 
ATOM     75  C   UNL A   1      46.555  26.986  35.488  1.00  0.00     0.001 A 
ATOM     76  C   UNL A   1      45.057  25.123  35.830  1.00  0.00     0.001 A 
ATOM     77  C   UNL A   1      46.268  25.761  36.089  1.00  0.00     0.000 A 
ENDBRANCH  59  72
ENDBRANCH  33  34
ENDBRANCH  26  28
ENDBRANCH  25  26
ENDBRANCH  24  25
ENDBRANCH   1  24
TORSDOF 14
ENDMDL
MODEL 3
REMARK VINA RESULT:     -11.0      3.867      8.711
REMARK SMILES CO[C@H]1C[C@@H](C(=O)OCCOC(=O)c2ccc(-c3c4nc(c(-c5ccccc5)c5ccc([nH]5)c(-c5ccccc5)c5nc(c(-c6ccccc6)c6ccc3[nH]6)C=C5)C=C4)cc2)N(C(=O)Nc2cc(C)cc(F)c2)C1
REMARK SMILES IDX 9 1 8 2 6 3 7 4 5 5 3 6 4 7 74 8 62 9 2 10 1 11 63 12 64 13
REMARK SMILES IDX 65 14 66 16 67 17 73 18 68 19 71 20 69 21 70 22 72 23 10 24
REMARK SMILES IDX 11 25 12 26 13 27 14 28 15 29 61 30 16 31 60 32 17 33 18 34
REMARK SMILES IDX 19 35 54 36 20 37 59 38 53 39 55 40 21 41 58 42 52 43 51 44
REMARK SMILES IDX 22 46 44 47 29 48 43 49 30 50 33 51 42 52 56 53 31 54 32 55
REMARK SMILES IDX 41 57 57 58 34 59 23 60 24 61 28 62 25 63 27 64 26 65 45 66
REMARK SMILES IDX 46 67 50 68 47 69 49 70 48 71 35 72 36 73 40 74 37 75 39 76
REMARK SMILES IDX 38 77
REMARK H PARENT 65 15 55 45 33 56
REMARK Flexibility Score: inf
ROOT
ATOM      1  C   UNL A   1      32.702  30.217  26.578  1.00  0.00     0.274 C 
ENDROOT
BRANCH   1   2
ATOM      2  O   UNL A   1      33.730  29.418  25.940  1.00  0.00    -0.461 OA
BRANCH   2   3
ATOM      3  C   UNL A   1      33.488  28.087  25.930  1.00  0.00     0.329 C 
ATOM      4  O   UNL A   1      34.328  27.265  26.245  1.00  0.00    -0.250 OA
BRANCH   3   5
ATOM      5  C   UNL A   1      32.080  27.678  25.557  1.00  0.00     0.199 C 
ATOM      6  C   UNL A   1      31.068  25.440  25.626  1.00  0.00     0.140 C 
ATOM      7  C   UNL A   1      31.787  26.479  26.469  1.00  0.00     0.071 C 
ATOM      8  C   UNL A   1      31.461  25.781  24.192  1.00  0.00     0.154 C 
ATOM      9  N   UNL A   1      31.988  27.143  24.173  1.00  0.00    -0.308 N 
BRANCH   6  10
ATOM     10  O   UNL A   1      31.497  24.108  25.915  1.00  0.00    -0.380 OA
ATOM     11  C   UNL A   1      30.611  23.360  26.736  1.00  0.00     0.195 C 
ENDBRANCH   6  10
BRANCH   9  12
ATOM     12  C   UNL A   1      32.113  27.719  22.932  1.00  0.00     0.322 C 
ATOM     13  O   UNL A   1      33.222  27.775  22.382  1.00  0.00    -0.248 OA
ATOM     14  N   UNL A   1      31.061  28.054  22.148  1.00  0.00    -0.308 N 
ATOM     15  H   UNL A   1      31.159  27.727  21.224  1.00  0.00     0.171 HD
BRANCH  14  16
ATOM     16  C   UNL A   1      29.865  28.757  22.343  1.00  0.00     0.046 A 
ATOM     17  C   UNL A   1      29.837  30.100  21.965  1.00  0.00     0.029 A 
ATOM     18  C   UNL A   1      28.781  28.245  23.046  1.00  0.00     0.065 A 
ATOM     19  C   UNL A   1      28.658  30.853  22.076  1.00  0.00    -0.046 A 
ATOM     20  C   UNL A   1      27.585  28.957  23.084  1.00  0.00     0.125 A 
ATOM     21  C   UNL A   1      28.630  32.306  21.718  1.00  0.00     0.044 C 
ATOM     22  C   UNL A   1      27.503  30.242  22.569  1.00  0.00     0.042 A 
ATOM     23  F   UNL A   1      26.484  28.386  23.594  1.00  0.00    -0.207 F 
ENDBRANCH  14  16
ENDBRANCH   9  12
ENDBRANCH   3   5
ENDBRANCH   2   3
ENDBRANCH   1   2
BRANCH   1  24
ATOM     24  C   UNL A   1      33.130  31.271  27.635  1.00  0.00     0.275 C 
BRANCH  24  25
ATOM     25  O   UNL A   1      34.534  31.626  27.636  1.00  0.00    -0.458 OA
BRANCH  25  26
ATOM     26  C   UNL A   1      35.175  31.500  28.832  1.00  0.00     0.338 C 
ATOM     27  O   UNL A   1      34.765  31.916  29.906  1.00  0.00    -0.246 OA
BRANCH  26  28
ATOM     28  C   UNL A   1      36.355  30.593  28.742  1.00  0.00     0.060 A 
ATOM     29  C   UNL A   1      36.972  30.223  29.948  1.00  0.00     0.016 A 
ATOM     30  C   UNL A   1      36.898  30.147  27.540  1.00  0.00     0.016 A 
ATOM     31  C   UNL A   1      38.103  29.405  29.975  1.00  0.00     0.010 A 
ATOM     32  C   UNL A   1      38.081  29.382  27.559  1.00  0.00     0.010 A 
ATOM     33  C   UNL A   1      38.702  29.024  28.774  1.00  0.00    -0.014 A 
BRANCH  33  34
ATOM     34  C   UNL A   1      40.085  28.474  28.788  1.00  0.00     0.031 A 
ATOM     35  C   UNL A   1      41.217  29.420  29.097  1.00  0.00     0.074 A 
ATOM     36  C   UNL A   1      40.356  27.174  28.568  1.00  0.00     0.049 A 
ATOM     37  N   UNL A   1      42.510  29.224  29.029  1.00  0.00    -0.248 NA
ATOM     38  C   UNL A   1      40.835  30.768  29.551  1.00  0.00     0.031 C 
ATOM     39  C   UNL A   1      39.368  26.113  28.390  1.00  0.00     0.029 A 
ATOM     40  N   UNL A   1      41.567  26.529  28.448  1.00  0.00    -0.354 N 
ATOM     41  C   UNL A   1      43.091  30.431  29.401  1.00  0.00     0.074 A 
ATOM     42  C   UNL A   1      42.016  31.349  29.703  1.00  0.00     0.031 C 
ATOM     43  C   UNL A   1      40.012  24.954  28.155  1.00  0.00     0.029 A 
ATOM     44  C   UNL A   1      41.454  25.200  28.115  1.00  0.00     0.049 A 
ATOM     45  H   UNL A   1      42.432  26.978  28.587  1.00  0.00     0.167 HD
ATOM     46  C   UNL A   1      44.404  30.753  29.468  1.00  0.00     0.031 A 
ATOM     47  C   UNL A   1      42.402  24.301  27.777  1.00  0.00     0.031 A 
ATOM     48  C   UNL A   1      45.480  29.851  29.166  1.00  0.00     0.049 A 
ATOM     49  C   UNL A   1      43.852  24.725  27.729  1.00  0.00     0.074 A 
ATOM     50  C   UNL A   1      46.842  30.096  29.200  1.00  0.00     0.029 A 
ATOM     51  N   UNL A   1      45.318  28.535  28.769  1.00  0.00    -0.354 N 
ATOM     52  N   UNL A   1      44.394  25.871  28.064  1.00  0.00    -0.248 NA
ATOM     53  C   UNL A   1      44.822  23.729  27.243  1.00  0.00     0.031 C 
ATOM     54  C   UNL A   1      47.503  28.948  28.758  1.00  0.00     0.029 A 
ATOM     55  C   UNL A   1      46.554  27.967  28.517  1.00  0.00     0.049 A 
ATOM     56  H   UNL A   1      44.454  28.073  28.680  1.00  0.00     0.167 HD
ATOM     57  C   UNL A   1      45.764  25.717  27.872  1.00  0.00     0.074 A 
ATOM     58  C   UNL A   1      45.974  24.367  27.396  1.00  0.00     0.031 C 
ATOM     59  C   UNL A   1      46.758  26.614  28.073  1.00  0.00     0.031 A 
BRANCH  46  60
ATOM     60  C   UNL A   1      44.755  32.172  29.811  1.00  0.00    -0.014 A 
ATOM     61  C   UNL A   1      44.982  32.576  31.135  1.00  0.00     0.009 A 
ATOM     62  C   UNL A   1      44.915  33.105  28.776  1.00  0.00     0.009 A 
ATOM     63  C   UNL A   1      45.343  33.895  31.414  1.00  0.00     0.001 A 
ATOM     64  C   UNL A   1      45.303  34.415  29.054  1.00  0.00     0.001 A 
ATOM     65  C   UNL A   1      45.511  34.811  30.374  1.00  0.00     0.000 A 
ENDBRANCH  46  60
BRANCH  47  66
ATOM     66  C   UNL A   1      42.033  22.914  27.370  1.00  0.00    -0.014 A 
ATOM     67  C   UNL A   1      41.605  22.637  26.062  1.00  0.00     0.009 A 
ATOM     68  C   UNL A   1      42.014  21.878  28.318  1.00  0.00     0.009 A 
ATOM     69  C   UNL A   1      41.124  21.368  25.726  1.00  0.00     0.001 A 
ATOM     70  C   UNL A   1      41.566  20.602  27.971  1.00  0.00     0.001 A 
ATOM     71  C   UNL A   1      41.106  20.352  26.679  1.00  0.00     0.000 A 
ENDBRANCH  47  66
BRANCH  59  72
ATOM     72  C   UNL A   1      48.175  26.161  27.851  1.00  0.00    -0.014 A 
ATOM     73  C   UNL A   1      48.913  25.529  28.863  1.00  0.00     0.009 A 
ATOM     74  C   UNL A   1      48.750  26.300  26.577  1.00  0.00     0.009 A 
ATOM     75  C   UNL A   1      50.206  25.065  28.607  1.00  0.00     0.001 A 
ATOM     76  C   UNL A   1      50.030  25.809  26.316  1.00  0.00     0.001 A 
ATOM     77  C   UNL A   1      50.760  25.198  27.335  1.00  0.00     0.000 A 
ENDBRANCH  59  72
ENDBRANCH  33  34
ENDBRANCH  26  28
ENDBRANCH  25  26
ENDBRANCH  24  25
ENDBRANCH   1  24
TORSDOF 14
ENDMDL
