MODEL 1
REMARK VINA RESULT:     -10.6      0.000      0.000
REMARK SMILES Cn1ncc(C(=O)OCCOC(=O)c2ccc(-c3c4nc(c(-c5ccccc5)c5ccc([nH]5)c(-c5ccccc5)c5nc(c(-c6ccccc6)c6ccc3[nH]6)C=C5)C=C4)cc2)c1C(=O)Nc1ccccn1
REMARK SMILES IDX 9 1 8 2 6 3 7 4 5 5 1 6 2 7 3 8 62 9 4 10 63 11 64 12 65 13
REMARK SMILES IDX 66 15 67 16 71 17 68 18 70 19 69 20 10 21 11 22 12 23 13 24
REMARK SMILES IDX 14 25 15 26 61 27 16 28 60 29 17 30 18 31 19 32 54 33 20 34
REMARK SMILES IDX 59 35 53 36 55 37 21 38 58 39 52 40 51 41 22 43 44 44 29 45
REMARK SMILES IDX 43 46 30 47 33 48 42 49 56 50 31 51 32 52 41 54 57 55 34 56
REMARK SMILES IDX 23 57 24 58 28 59 25 60 27 61 26 62 45 63 46 64 50 65 47 66
REMARK SMILES IDX 49 67 48 68 35 69 36 70 40 71 37 72 39 73 38 74
REMARK H PARENT 65 14 55 42 33 53
REMARK Flexibility Score: inf
ROOT
ATOM      1  C   UNL A   1      37.934  20.183  25.156  1.00  0.00     0.275 C 
ENDROOT
BRANCH   1   2
ATOM      2  O   UNL A   1      38.403  21.547  25.104  1.00  0.00    -0.458 OA
BRANCH   2   3
ATOM      3  C   UNL A   1      37.492  22.500  25.441  1.00  0.00     0.342 C 
ATOM      4  O   UNL A   1      37.650  23.315  26.347  1.00  0.00    -0.246 OA
BRANCH   3   5
ATOM      5  C   UNL A   1      36.343  22.586  24.556  1.00  0.00     0.111 A 
ATOM      6  C   UNL A   1      33.038  23.462  23.792  1.00  0.00     0.174 C 
ATOM      7  N   UNL A   1      34.336  22.826  23.752  1.00  0.00    -0.262 N 
ATOM      8  N   UNL A   1      35.128  23.256  22.755  1.00  0.00    -0.180 NA
ATOM      9  C   UNL A   1      35.024  22.142  24.743  1.00  0.00     0.140 A 
ATOM     10  C   UNL A   1      36.318  23.289  23.335  1.00  0.00     0.151 A 
BRANCH   9  11
ATOM     11  C   UNL A   1      34.529  21.389  25.883  1.00  0.00     0.275 C 
ATOM     12  O   UNL A   1      34.536  21.877  27.016  1.00  0.00    -0.267 OA
ATOM     13  N   UNL A   1      33.930  20.159  25.789  1.00  0.00    -0.305 N 
ATOM     14  H   UNL A   1      33.574  19.828  26.645  1.00  0.00     0.171 HD
BRANCH  13  15
ATOM     15  C   UNL A   1      33.730  19.292  24.731  1.00  0.00     0.132 A 
ATOM     16  C   UNL A   1      32.645  19.367  23.873  1.00  0.00     0.047 A 
ATOM     17  N   UNL A   1      34.650  18.308  24.675  1.00  0.00    -0.239 NA
ATOM     18  C   UNL A   1      32.453  18.322  22.967  1.00  0.00     0.005 A 
ATOM     19  C   UNL A   1      34.417  17.288  23.825  1.00  0.00     0.113 A 
ATOM     20  C   UNL A   1      33.333  17.243  22.968  1.00  0.00     0.020 A 
ENDBRANCH  13  15
ENDBRANCH   9  11
ENDBRANCH   3   5
ENDBRANCH   2   3
ENDBRANCH   1   2
BRANCH   1  21
ATOM     21  C   UNL A   1      39.099  19.217  25.372  1.00  0.00     0.275 C 
BRANCH  21  22
ATOM     22  O   UNL A   1      39.925  19.658  26.466  1.00  0.00    -0.458 OA
BRANCH  22  23
ATOM     23  C   UNL A   1      41.256  19.599  26.236  1.00  0.00     0.338 C 
ATOM     24  O   UNL A   1      41.886  18.688  25.731  1.00  0.00    -0.246 OA
BRANCH  23  25
ATOM     25  C   UNL A   1      41.885  20.880  26.587  1.00  0.00     0.060 A 
ATOM     26  C   UNL A   1      41.946  21.219  27.931  1.00  0.00     0.016 A 
ATOM     27  C   UNL A   1      42.213  21.821  25.618  1.00  0.00     0.016 A 
ATOM     28  C   UNL A   1      42.179  22.535  28.317  1.00  0.00     0.010 A 
ATOM     29  C   UNL A   1      42.597  23.110  26.016  1.00  0.00     0.010 A 
ATOM     30  C   UNL A   1      42.536  23.500  27.369  1.00  0.00    -0.014 A 
BRANCH  30  31
ATOM     31  C   UNL A   1      42.825  24.902  27.795  1.00  0.00     0.031 A 
ATOM     32  C   UNL A   1      44.247  25.353  28.028  1.00  0.00     0.074 A 
ATOM     33  C   UNL A   1      41.820  25.787  27.966  1.00  0.00     0.049 A 
ATOM     34  N   UNL A   1      44.686  26.462  28.573  1.00  0.00    -0.248 NA
ATOM     35  C   UNL A   1      45.316  24.433  27.607  1.00  0.00     0.031 C 
ATOM     36  C   UNL A   1      40.399  25.523  27.722  1.00  0.00     0.029 A 
ATOM     37  N   UNL A   1      41.840  27.098  28.380  1.00  0.00    -0.354 N 
ATOM     38  C   UNL A   1      46.070  26.344  28.616  1.00  0.00     0.074 A 
ATOM     39  C   UNL A   1      46.399  25.052  28.053  1.00  0.00     0.031 C 
ATOM     40  C   UNL A   1      39.694  26.642  27.945  1.00  0.00     0.029 A 
ATOM     41  C   UNL A   1      40.591  27.670  28.455  1.00  0.00     0.049 A 
ATOM     42  H   UNL A   1      42.669  27.581  28.601  1.00  0.00     0.167 HD
ATOM     43  C   UNL A   1      46.985  27.230  29.083  1.00  0.00     0.031 A 
ATOM     44  C   UNL A   1      40.193  28.863  28.933  1.00  0.00     0.031 A 
ATOM     45  C   UNL A   1      46.658  28.530  29.610  1.00  0.00     0.049 A 
ATOM     46  C   UNL A   1      41.216  29.795  29.513  1.00  0.00     0.074 A 
ATOM     47  C   UNL A   1      47.515  29.505  30.093  1.00  0.00     0.029 A 
ATOM     48  N   UNL A   1      45.374  29.043  29.711  1.00  0.00    -0.354 N 
ATOM     49  N   UNL A   1      42.516  29.653  29.587  1.00  0.00    -0.248 NA
ATOM     50  C   UNL A   1      40.712  31.050  30.091  1.00  0.00     0.031 C 
ATOM     51  C   UNL A   1      46.745  30.582  30.542  1.00  0.00     0.029 A 
ATOM     52  C   UNL A   1      45.414  30.308  30.276  1.00  0.00     0.049 A 
ATOM     53  H   UNL A   1      44.555  28.577  29.425  1.00  0.00     0.167 HD
ATOM     54  C   UNL A   1      42.989  30.806  30.200  1.00  0.00     0.074 A 
ATOM     55  C   UNL A   1      41.837  31.647  30.455  1.00  0.00     0.031 C 
ATOM     56  C   UNL A   1      44.262  31.135  30.525  1.00  0.00     0.031 A 
BRANCH  43  57
ATOM     57  C   UNL A   1      48.429  26.806  29.093  1.00  0.00    -0.014 A 
ATOM     58  C   UNL A   1      48.976  26.061  30.149  1.00  0.00     0.009 A 
ATOM     59  C   UNL A   1      49.249  27.124  27.996  1.00  0.00     0.009 A 
ATOM     60  C   UNL A   1      50.320  25.678  30.123  1.00  0.00     0.001 A 
ATOM     61  C   UNL A   1      50.582  26.713  27.958  1.00  0.00     0.001 A 
ATOM     62  C   UNL A   1      51.119  25.999  29.027  1.00  0.00     0.000 A 
ENDBRANCH  43  57
BRANCH  44  63
ATOM     63  C   UNL A   1      38.747  29.217  28.948  1.00  0.00    -0.014 A 
ATOM     64  C   UNL A   1      38.128  29.755  27.810  1.00  0.00     0.009 A 
ATOM     65  C   UNL A   1      37.978  29.025  30.109  1.00  0.00     0.009 A 
ATOM     66  C   UNL A   1      36.779  30.116  27.843  1.00  0.00     0.001 A 
ATOM     67  C   UNL A   1      36.620  29.351  30.126  1.00  0.00     0.001 A 
ATOM     68  C   UNL A   1      36.026  29.907  28.996  1.00  0.00     0.000 A 
ENDBRANCH  44  63
BRANCH  56  69
ATOM     69  C   UNL A   1      44.479  32.481  31.156  1.00  0.00    -0.014 A 
ATOM     70  C   UNL A   1      44.460  32.647  32.550  1.00  0.00     0.009 A 
ATOM     71  C   UNL A   1      44.736  33.595  30.342  1.00  0.00     0.009 A 
ATOM     72  C   UNL A   1      44.658  33.910  33.113  1.00  0.00     0.001 A 
ATOM     73  C   UNL A   1      44.965  34.849  30.908  1.00  0.00     0.001 A 
ATOM     74  C   UNL A   1      44.915  35.008  32.292  1.00  0.00     0.000 A 
ENDBRANCH  56  69
ENDBRANCH  30  31
ENDBRANCH  23  25
ENDBRANCH  22  23
ENDBRANCH  21  22
ENDBRANCH   1  21
TORSDOF 13
ENDMDL
MODEL 2
REMARK VINA RESULT:     -10.5      0.518      6.090
REMARK SMILES Cn1ncc(C(=O)OCCOC(=O)c2ccc(-c3c4nc(c(-c5ccccc5)c5ccc([nH]5)c(-c5ccccc5)c5nc(c(-c6ccccc6)c6ccc3[nH]6)C=C5)C=C4)cc2)c1C(=O)Nc1ccccn1
REMARK SMILES IDX 9 1 8 2 6 3 7 4 5 5 1 6 2 7 3 8 62 9 4 10 63 11 64 12 65 13
REMARK SMILES IDX 66 15 67 16 71 17 68 18 70 19 69 20 10 21 11 22 12 23 13 24
REMARK SMILES IDX 14 25 15 26 61 27 16 28 60 29 17 30 18 31 19 32 54 33 20 34
REMARK SMILES IDX 59 35 53 36 55 37 21 38 58 39 52 40 51 41 22 43 44 44 29 45
REMARK SMILES IDX 43 46 30 47 33 48 42 49 56 50 31 51 32 52 41 54 57 55 34 56
REMARK SMILES IDX 23 57 24 58 28 59 25 60 27 61 26 62 45 63 46 64 50 65 47 66
REMARK SMILES IDX 49 67 48 68 35 69 36 70 40 71 37 72 39 73 38 74
REMARK H PARENT 65 14 55 42 33 53
REMARK Flexibility Score: inf
ROOT
ATOM      1  C   UNL A   1      37.658  20.026  24.992  1.00  0.00     0.275 C 
ENDROOT
BRANCH   1   2
ATOM      2  O   UNL A   1      37.988  21.401  24.707  1.00  0.00    -0.458 OA
BRANCH   2   3
ATOM      3  C   UNL A   1      37.130  22.333  25.205  1.00  0.00     0.342 C 
ATOM      4  O   UNL A   1      37.392  23.081  26.144  1.00  0.00    -0.246 OA
BRANCH   3   5
ATOM      5  C   UNL A   1      35.896  22.487  24.454  1.00  0.00     0.111 A 
ATOM      6  C   UNL A   1      32.541  23.434  24.105  1.00  0.00     0.174 C 
ATOM      7  N   UNL A   1      33.819  22.795  23.885  1.00  0.00    -0.262 N 
ATOM      8  N   UNL A   1      34.507  23.289  22.842  1.00  0.00    -0.180 NA
ATOM      9  C   UNL A   1      34.598  22.039  24.747  1.00  0.00     0.140 A 
ATOM     10  C   UNL A   1      35.751  23.274  23.294  1.00  0.00     0.151 A 
BRANCH   9  11
ATOM     11  C   UNL A   1      34.215  21.211  25.879  1.00  0.00     0.275 C 
ATOM     12  O   UNL A   1      34.189  21.673  27.022  1.00  0.00    -0.267 OA
ATOM     13  N   UNL A   1      33.760  19.922  25.768  1.00  0.00    -0.305 N 
ATOM     14  H   UNL A   1      33.461  19.535  26.622  1.00  0.00     0.171 HD
BRANCH  13  15
ATOM     15  C   UNL A   1      33.639  19.060  24.694  1.00  0.00     0.132 A 
ATOM     16  C   UNL A   1      32.594  19.106  23.786  1.00  0.00     0.047 A 
ATOM     17  N   UNL A   1      34.595  18.108  24.673  1.00  0.00    -0.239 NA
ATOM     18  C   UNL A   1      32.481  18.065  22.863  1.00  0.00     0.005 A 
ATOM     19  C   UNL A   1      34.437  17.089  23.805  1.00  0.00     0.113 A 
ATOM     20  C   UNL A   1      33.397  17.016  22.897  1.00  0.00     0.020 A 
ENDBRANCH  13  15
ENDBRANCH   9  11
ENDBRANCH   3   5
ENDBRANCH   2   3
ENDBRANCH   1   2
BRANCH   1  21
ATOM     21  C   UNL A   1      38.913  19.229  25.347  1.00  0.00     0.275 C 
BRANCH  21  22
ATOM     22  O   UNL A   1      39.722  19.955  26.291  1.00  0.00    -0.458 OA
BRANCH  22  23
ATOM     23  C   UNL A   1      41.057  19.790  26.144  1.00  0.00     0.338 C 
ATOM     24  O   UNL A   1      41.642  18.843  25.654  1.00  0.00    -0.246 OA
BRANCH  23  25
ATOM     25  C   UNL A   1      41.764  21.007  26.571  1.00  0.00     0.060 A 
ATOM     26  C   UNL A   1      42.005  21.167  27.928  1.00  0.00     0.016 A 
ATOM     27  C   UNL A   1      41.995  22.061  25.695  1.00  0.00     0.016 A 
ATOM     28  C   UNL A   1      42.324  22.417  28.445  1.00  0.00     0.010 A 
ATOM     29  C   UNL A   1      42.465  23.281  26.202  1.00  0.00     0.010 A 
ATOM     30  C   UNL A   1      42.588  23.493  27.589  1.00  0.00    -0.014 A 
BRANCH  30  31
ATOM     31  C   UNL A   1      42.971  24.823  28.150  1.00  0.00     0.031 A 
ATOM     32  C   UNL A   1      41.915  25.853  28.469  1.00  0.00     0.074 A 
ATOM     33  C   UNL A   1      44.267  25.117  28.389  1.00  0.00     0.049 A 
ATOM     34  N   UNL A   1      42.059  27.118  28.784  1.00  0.00    -0.248 NA
ATOM     35  C   UNL A   1      40.513  25.409  28.414  1.00  0.00     0.031 C 
ATOM     36  C   UNL A   1      45.400  24.208  28.191  1.00  0.00     0.029 A 
ATOM     37  N   UNL A   1      44.854  26.268  28.860  1.00  0.00    -0.354 N 
ATOM     38  C   UNL A   1      40.772  27.630  28.902  1.00  0.00     0.074 A 
ATOM     39  C   UNL A   1      39.860  26.544  28.615  1.00  0.00     0.031 C 
ATOM     40  C   UNL A   1      46.531  24.815  28.580  1.00  0.00     0.029 A 
ATOM     41  C   UNL A   1      46.224  26.191  28.947  1.00  0.00     0.049 A 
ATOM     42  H   UNL A   1      44.341  27.070  29.113  1.00  0.00     0.167 HD
ATOM     43  C   UNL A   1      40.385  28.890  29.220  1.00  0.00     0.031 A 
ATOM     44  C   UNL A   1      47.146  27.130  29.229  1.00  0.00     0.031 A 
ATOM     45  C   UNL A   1      41.294  29.960  29.541  1.00  0.00     0.049 A 
ATOM     46  C   UNL A   1      46.696  28.535  29.505  1.00  0.00     0.074 A 
ATOM     47  C   UNL A   1      40.998  31.267  29.891  1.00  0.00     0.029 A 
ATOM     48  N   UNL A   1      42.675  29.845  29.565  1.00  0.00    -0.354 N 
ATOM     49  N   UNL A   1      45.480  29.015  29.570  1.00  0.00    -0.248 NA
ATOM     50  C   UNL A   1      47.752  29.533  29.730  1.00  0.00     0.031 C 
ATOM     51  C   UNL A   1      42.200  31.958  30.067  1.00  0.00     0.029 A 
ATOM     52  C   UNL A   1      43.245  31.065  29.895  1.00  0.00     0.049 A 
ATOM     53  H   UNL A   1      43.177  29.020  29.376  1.00  0.00     0.167 HD
ATOM     54  C   UNL A   1      45.621  30.365  29.864  1.00  0.00     0.074 A 
ATOM     55  C   UNL A   1      47.041  30.620  29.988  1.00  0.00     0.031 C 
ATOM     56  C   UNL A   1      44.660  31.307  30.014  1.00  0.00     0.031 A 
BRANCH  43  57
ATOM     57  C   UNL A   1      38.912  29.199  29.189  1.00  0.00    -0.014 A 
ATOM     58  C   UNL A   1      38.107  29.090  30.333  1.00  0.00     0.009 A 
ATOM     59  C   UNL A   1      38.328  29.651  27.993  1.00  0.00     0.009 A 
ATOM     60  C   UNL A   1      36.743  29.390  30.270  1.00  0.00     0.001 A 
ATOM     61  C   UNL A   1      36.972  29.981  27.941  1.00  0.00     0.001 A 
ATOM     62  C   UNL A   1      36.179  29.841  29.077  1.00  0.00     0.000 A 
ENDBRANCH  43  57
BRANCH  44  63
ATOM     63  C   UNL A   1      48.595  26.788  29.199  1.00  0.00    -0.014 A 
ATOM     64  C   UNL A   1      49.252  26.343  30.356  1.00  0.00     0.009 A 
ATOM     65  C   UNL A   1      49.332  26.913  28.009  1.00  0.00     0.009 A 
ATOM     66  C   UNL A   1      50.619  26.057  30.327  1.00  0.00     0.001 A 
ATOM     67  C   UNL A   1      50.690  26.589  27.974  1.00  0.00     0.001 A 
ATOM     68  C   UNL A   1      51.334  26.172  29.136  1.00  0.00     0.000 A 
ENDBRANCH  44  63
BRANCH  56  69
ATOM     69  C   UNL A   1      45.113  32.695  30.369  1.00  0.00    -0.014 A 
ATOM     70  C   UNL A   1      45.297  33.084  31.706  1.00  0.00     0.009 A 
ATOM     71  C   UNL A   1      45.386  33.618  29.348  1.00  0.00     0.009 A 
ATOM     72  C   UNL A   1      45.712  34.382  32.012  1.00  0.00     0.001 A 
ATOM     73  C   UNL A   1      45.831  34.904  29.655  1.00  0.00     0.001 A 
ATOM     74  C   UNL A   1      45.983  35.289  30.987  1.00  0.00     0.000 A 
ENDBRANCH  56  69
ENDBRANCH  30  31
ENDBRANCH  23  25
ENDBRANCH  22  23
ENDBRANCH  21  22
ENDBRANCH   1  21
TORSDOF 13
ENDMDL
MODEL 3
REMARK VINA RESULT:     -10.4      2.172      2.782
REMARK SMILES Cn1ncc(C(=O)OCCOC(=O)c2ccc(-c3c4nc(c(-c5ccccc5)c5ccc([nH]5)c(-c5ccccc5)c5nc(c(-c6ccccc6)c6ccc3[nH]6)C=C5)C=C4)cc2)c1C(=O)Nc1ccccn1
REMARK SMILES IDX 9 1 8 2 6 3 7 4 5 5 1 6 2 7 3 8 62 9 4 10 63 11 64 12 65 13
REMARK SMILES IDX 66 15 67 16 71 17 68 18 70 19 69 20 10 21 11 22 12 23 13 24
REMARK SMILES IDX 14 25 15 26 61 27 16 28 60 29 17 30 18 31 19 32 54 33 20 34
REMARK SMILES IDX 59 35 53 36 55 37 21 38 58 39 52 40 51 41 22 43 44 44 29 45
REMARK SMILES IDX 43 46 30 47 33 48 42 49 56 50 31 51 32 52 41 54 57 55 34 56
REMARK SMILES IDX 23 57 24 58 28 59 25 60 27 61 26 62 45 63 46 64 50 65 47 66
REMARK SMILES IDX 49 67 48 68 35 69 36 70 40 71 37 72 39 73 38 74
REMARK H PARENT 65 14 55 42 33 53
REMARK Flexibility Score: inf
ROOT
ATOM      1  C   UNL A   1      36.073  20.275  24.956  1.00  0.00     0.275 C 
ENDROOT
BRANCH   1   2
ATOM      2  O   UNL A   1      35.751  21.071  26.115  1.00  0.00    -0.458 OA
BRANCH   2   3
ATOM      3  C   UNL A   1      35.422  22.368  25.871  1.00  0.00     0.342 C 
ATOM      4  O   UNL A   1      35.767  23.312  26.578  1.00  0.00    -0.246 OA
BRANCH   3   5
ATOM      5  C   UNL A   1      34.729  22.595  24.614  1.00  0.00     0.111 A 
ATOM      6  C   UNL A   1      32.292  24.125  22.615  1.00  0.00     0.174 C 
ATOM      7  N   UNL A   1      33.285  23.193  23.101  1.00  0.00    -0.262 N 
ATOM      8  N   UNL A   1      34.462  23.259  22.456  1.00  0.00    -0.180 NA
ATOM      9  C   UNL A   1      33.360  22.521  24.312  1.00  0.00     0.140 A 
ATOM     10  C   UNL A   1      35.331  23.088  23.440  1.00  0.00     0.151 A 
BRANCH   9  11
ATOM     11  C   UNL A   1      32.306  22.096  25.218  1.00  0.00     0.275 C 
ATOM     12  O   UNL A   1      31.641  22.922  25.849  1.00  0.00    -0.267 OA
ATOM     13  N   UNL A   1      31.898  20.795  25.364  1.00  0.00    -0.305 N 
ATOM     14  H   UNL A   1      31.115  20.692  25.952  1.00  0.00     0.171 HD
BRANCH  13  15
ATOM     15  C   UNL A   1      32.370  19.601  24.851  1.00  0.00     0.132 A 
ATOM     16  C   UNL A   1      32.506  19.350  23.495  1.00  0.00     0.047 A 
ATOM     17  N   UNL A   1      32.597  18.672  25.801  1.00  0.00    -0.239 NA
ATOM     18  C   UNL A   1      32.807  18.045  23.098  1.00  0.00     0.005 A 
ATOM     19  C   UNL A   1      32.839  17.410  25.391  1.00  0.00     0.113 A 
ATOM     20  C   UNL A   1      32.938  17.048  24.061  1.00  0.00     0.020 A 
ENDBRANCH  13  15
ENDBRANCH   9  11
ENDBRANCH   3   5
ENDBRANCH   2   3
ENDBRANCH   1   2
BRANCH   1  21
ATOM     21  C   UNL A   1      37.530  19.814  25.002  1.00  0.00     0.275 C 
BRANCH  21  22
ATOM     22  O   UNL A   1      38.412  20.942  25.158  1.00  0.00    -0.458 OA
BRANCH  22  23
ATOM     23  C   UNL A   1      39.383  20.782  26.085  1.00  0.00     0.338 C 
ATOM     24  O   UNL A   1      39.952  19.754  26.401  1.00  0.00    -0.246 OA
BRANCH  23  25
ATOM     25  C   UNL A   1      39.775  22.089  26.633  1.00  0.00     0.060 A 
ATOM     26  C   UNL A   1      39.094  23.208  26.176  1.00  0.00     0.016 A 
ATOM     27  C   UNL A   1      40.919  22.241  27.408  1.00  0.00     0.016 A 
ATOM     28  C   UNL A   1      39.629  24.480  26.352  1.00  0.00     0.010 A 
ATOM     29  C   UNL A   1      41.374  23.532  27.713  1.00  0.00     0.010 A 
ATOM     30  C   UNL A   1      40.764  24.669  27.147  1.00  0.00    -0.014 A 
BRANCH  30  31
ATOM     31  C   UNL A   1      41.309  26.042  27.366  1.00  0.00     0.031 A 
ATOM     32  C   UNL A   1      42.627  26.449  26.754  1.00  0.00     0.074 A 
ATOM     33  C   UNL A   1      40.623  26.941  28.105  1.00  0.00     0.049 A 
ATOM     34  N   UNL A   1      43.349  27.522  26.978  1.00  0.00    -0.248 NA
ATOM     35  C   UNL A   1      43.221  25.526  25.774  1.00  0.00     0.031 C 
ATOM     36  C   UNL A   1      39.307  26.722  28.712  1.00  0.00     0.029 A 
ATOM     37  N   UNL A   1      40.935  28.231  28.466  1.00  0.00    -0.354 N 
ATOM     38  C   UNL A   1      44.502  27.370  26.217  1.00  0.00     0.074 A 
ATOM     39  C   UNL A   1      44.391  26.100  25.534  1.00  0.00     0.031 C 
ATOM     40  C   UNL A   1      38.908  27.844  29.327  1.00  0.00     0.029 A 
ATOM     41  C   UNL A   1      39.981  28.826  29.257  1.00  0.00     0.049 A 
ATOM     42  H   UNL A   1      41.763  28.684  28.184  1.00  0.00     0.167 HD
ATOM     43  C   UNL A   1      45.558  28.213  26.098  1.00  0.00     0.031 A 
ATOM     44  C   UNL A   1      39.982  30.005  29.907  1.00  0.00     0.031 A 
ATOM     45  C   UNL A   1      45.651  29.494  26.750  1.00  0.00     0.049 A 
ATOM     46  C   UNL A   1      41.195  30.886  29.820  1.00  0.00     0.074 A 
ATOM     47  C   UNL A   1      46.673  30.425  26.679  1.00  0.00     0.029 A 
ATOM     48  N   UNL A   1      44.680  30.030  27.581  1.00  0.00    -0.354 N 
ATOM     49  N   UNL A   1      42.295  30.710  29.132  1.00  0.00    -0.248 NA
ATOM     50  C   UNL A   1      41.169  32.123  30.614  1.00  0.00     0.031 C 
ATOM     51  C   UNL A   1      46.348  31.497  27.515  1.00  0.00     0.029 A 
ATOM     52  C   UNL A   1      45.093  31.266  28.053  1.00  0.00     0.049 A 
ATOM     53  H   UNL A   1      43.824  29.598  27.804  1.00  0.00     0.167 HD
ATOM     54  C   UNL A   1      43.085  31.822  29.393  1.00  0.00     0.074 A 
ATOM     55  C   UNL A   1      42.326  32.677  30.282  1.00  0.00     0.031 C 
ATOM     56  C   UNL A   1      44.329  32.107  28.938  1.00  0.00     0.031 A 
BRANCH  43  57
ATOM     57  C   UNL A   1      46.728  27.756  25.268  1.00  0.00    -0.014 A 
ATOM     58  C   UNL A   1      47.759  26.971  25.807  1.00  0.00     0.009 A 
ATOM     59  C   UNL A   1      46.775  28.085  23.902  1.00  0.00     0.009 A 
ATOM     60  C   UNL A   1      48.828  26.559  25.007  1.00  0.00     0.001 A 
ATOM     61  C   UNL A   1      47.827  27.644  23.097  1.00  0.00     0.001 A 
ATOM     62  C   UNL A   1      48.858  26.890  23.653  1.00  0.00     0.000 A 
ENDBRANCH  43  57
BRANCH  44  63
ATOM     63  C   UNL A   1      38.822  30.390  30.757  1.00  0.00    -0.014 A 
ATOM     64  C   UNL A   1      38.648  29.829  32.030  1.00  0.00     0.009 A 
ATOM     65  C   UNL A   1      37.875  31.319  30.292  1.00  0.00     0.009 A 
ATOM     66  C   UNL A   1      37.539  30.170  32.808  1.00  0.00     0.001 A 
ATOM     67  C   UNL A   1      36.789  31.688  31.088  1.00  0.00     0.001 A 
ATOM     68  C   UNL A   1      36.616  31.104  32.340  1.00  0.00     0.000 A 
ENDBRANCH  44  63
BRANCH  56  69
ATOM     69  C   UNL A   1      44.929  33.417  29.364  1.00  0.00    -0.014 A 
ATOM     70  C   UNL A   1      44.644  34.608  28.679  1.00  0.00     0.009 A 
ATOM     71  C   UNL A   1      45.770  33.461  30.487  1.00  0.00     0.009 A 
ATOM     72  C   UNL A   1      45.221  35.813  29.090  1.00  0.00     0.001 A 
ATOM     73  C   UNL A   1      46.319  34.671  30.914  1.00  0.00     0.001 A 
ATOM     74  C   UNL A   1      46.053  35.844  30.209  1.00  0.00     0.000 A 
ENDBRANCH  56  69
ENDBRANCH  30  31
ENDBRANCH  23  25
ENDBRANCH  22  23
ENDBRANCH  21  22
ENDBRANCH   1  21
TORSDOF 13
ENDMDL
