MODEL 1
REMARK VINA RESULT:     -11.1      0.000      0.000
REMARK SMILES O=C(CCC(=O)OCCOC(=O)c1ccc(-c2c3nc(c(-c4ccccc4)c4ccc([nH]4)c(-c4ccccc4)c4nc(c(-c5ccccc5)c5ccc2[nH]5)C=C4)C=C3)cc1)/[NH+]=C1\S[C@H]2CS(=O)(=O)C[C@@H]2N1c1ccc(Oc2ccccc2)cc1
REMARK SMILES IDX 7 1 5 2 6 3 4 4 3 5 2 6 1 7 61 8 62 9 63 11 71 12 64 13
REMARK SMILES IDX 70 14 65 15 69 16 66 17 67 18 68 19 72 20 73 21 84 22 74 23
REMARK SMILES IDX 83 24 75 25 76 26 77 27 78 28 82 29 79 30 81 31 80 32 8 33
REMARK SMILES IDX 9 34 10 35 11 36 12 37 13 38 14 39 60 40 15 41 59 42 16 43
REMARK SMILES IDX 17 44 18 45 53 46 19 47 58 48 52 49 54 50 20 51 57 52 51 53
REMARK SMILES IDX 50 54 21 56 43 57 28 58 42 59 29 60 32 61 41 62 55 63 30 64
REMARK SMILES IDX 31 65 40 67 56 68 33 69 22 70 23 71 27 72 24 73 26 74 25 75
REMARK SMILES IDX 44 76 45 77 49 78 46 79 48 80 47 81 34 82 35 83 39 84 36 85
REMARK SMILES IDX 38 86 37 87
REMARK H PARENT 61 10 54 55 32 66
REMARK Flexibility Score: inf
ROOT
ATOM      1  O   UNL A   1      33.608  33.998  29.063  1.00  0.00    -0.462 OA
ENDROOT
BRANCH   1   2
ATOM      2  C   UNL A   1      34.903  33.727  28.791  1.00  0.00     0.306 C 
ATOM      3  O   UNL A   1      35.737  34.563  28.463  1.00  0.00    -0.252 OA
BRANCH   2   4
ATOM      4  C   UNL A   1      35.198  32.255  28.888  1.00  0.00     0.135 C 
BRANCH   4   5
ATOM      5  C   UNL A   1      35.160  31.436  27.603  1.00  0.00     0.139 C 
BRANCH   5   6
ATOM      6  C   UNL A   1      34.901  29.928  27.627  1.00  0.00     0.308 C 
ATOM      7  O   UNL A   1      34.912  29.344  28.711  1.00  0.00    -0.247 OA
ATOM      8  N   UNL A   1      34.685  29.231  26.467  1.00  0.00    -0.204 N 
ATOM      9  C   UNL A   1      33.489  29.027  26.011  1.00  0.00     0.319 C 
ATOM     10  H   UNL A   1      35.457  28.878  25.967  1.00  0.00     0.316 HD
ATOM     11  S   UNL A   1      31.992  29.836  26.559  1.00  0.00    -0.029 SA
ATOM     12  N   UNL A   1      33.180  28.194  24.929  1.00  0.00    -0.217 N 
ATOM     13  C   UNL A   1      31.041  29.255  25.118  1.00  0.00     0.120 C 
ATOM     14  C   UNL A   1      32.078  28.706  24.134  1.00  0.00     0.212 C 
ATOM     15  C   UNL A   1      30.253  30.198  24.227  1.00  0.00     0.156 C 
ATOM     16  C   UNL A   1      31.249  27.925  23.141  1.00  0.00     0.188 C 
ATOM     17  S   UNL A   1      30.027  29.197  22.731  1.00  0.00     0.155 S 
ATOM     18  O   UNL A   1      28.707  28.613  22.746  1.00  0.00    -0.229 OA
ATOM     19  O   UNL A   1      30.532  29.952  21.603  1.00  0.00    -0.229 OA
BRANCH  12  20
ATOM     20  C   UNL A   1      33.445  26.822  24.925  1.00  0.00     0.128 A 
ATOM     21  C   UNL A   1      33.134  26.015  26.027  1.00  0.00     0.056 A 
ATOM     22  C   UNL A   1      34.084  26.227  23.831  1.00  0.00     0.056 A 
ATOM     23  C   UNL A   1      33.538  24.677  26.076  1.00  0.00     0.051 A 
ATOM     24  C   UNL A   1      34.482  24.892  23.872  1.00  0.00     0.051 A 
ATOM     25  C   UNL A   1      34.247  24.122  25.012  1.00  0.00     0.127 A 
BRANCH  25  26
ATOM     26  O   UNL A   1      34.659  22.814  25.178  1.00  0.00    -0.457 OA
BRANCH  26  27
ATOM     27  C   UNL A   1      35.993  22.616  25.442  1.00  0.00     0.127 A 
ATOM     28  C   UNL A   1      36.552  21.386  25.104  1.00  0.00     0.047 A 
ATOM     29  C   UNL A   1      36.773  23.629  26.006  1.00  0.00     0.047 A 
ATOM     30  C   UNL A   1      37.921  21.190  25.265  1.00  0.00     0.004 A 
ATOM     31  C   UNL A   1      38.144  23.432  26.156  1.00  0.00     0.004 A 
ATOM     32  C   UNL A   1      38.719  22.217  25.777  1.00  0.00     0.000 A 
ENDBRANCH  26  27
ENDBRANCH  25  26
ENDBRANCH  12  20
ENDBRANCH   5   6
ENDBRANCH   4   5
ENDBRANCH   2   4
ENDBRANCH   1   2
BRANCH   1  33
ATOM     33  C   UNL A   1      33.156  35.321  28.726  1.00  0.00     0.274 C 
BRANCH  33  34
ATOM     34  C   UNL A   1      32.886  36.114  29.995  1.00  0.00     0.275 C 
BRANCH  34  35
ATOM     35  O   UNL A   1      32.471  35.320  31.119  1.00  0.00    -0.458 OA
BRANCH  35  36
ATOM     36  C   UNL A   1      33.152  35.567  32.253  1.00  0.00     0.338 C 
ATOM     37  O   UNL A   1      32.958  36.479  33.048  1.00  0.00    -0.246 OA
BRANCH  36  38
ATOM     38  C   UNL A   1      34.342  34.758  32.365  1.00  0.00     0.060 A 
ATOM     39  C   UNL A   1      35.598  35.310  32.156  1.00  0.00     0.016 A 
ATOM     40  C   UNL A   1      34.157  33.399  32.636  1.00  0.00     0.016 A 
ATOM     41  C   UNL A   1      36.701  34.484  32.301  1.00  0.00     0.010 A 
ATOM     42  C   UNL A   1      35.253  32.594  32.848  1.00  0.00     0.010 A 
ATOM     43  C   UNL A   1      36.525  33.146  32.707  1.00  0.00    -0.014 A 
BRANCH  43  44
ATOM     44  C   UNL A   1      37.683  32.364  33.152  1.00  0.00     0.031 A 
ATOM     45  C   UNL A   1      38.284  31.332  32.263  1.00  0.00     0.074 A 
ATOM     46  C   UNL A   1      38.123  32.617  34.397  1.00  0.00     0.049 A 
ATOM     47  N   UNL A   1      39.365  30.627  32.451  1.00  0.00    -0.248 NA
ATOM     48  C   UNL A   1      37.571  31.028  31.011  1.00  0.00     0.031 C 
ATOM     49  C   UNL A   1      37.494  33.558  35.335  1.00  0.00     0.029 A 
ATOM     50  N   UNL A   1      39.211  32.151  35.077  1.00  0.00    -0.354 N 
ATOM     51  C   UNL A   1      39.465  29.796  31.345  1.00  0.00     0.074 A 
ATOM     52  C   UNL A   1      38.310  30.045  30.513  1.00  0.00     0.031 C 
ATOM     53  C   UNL A   1      38.263  33.673  36.425  1.00  0.00     0.029 A 
ATOM     54  C   UNL A   1      39.406  32.784  36.281  1.00  0.00     0.049 A 
ATOM     55  H   UNL A   1      39.795  31.434  34.739  1.00  0.00     0.167 HD
ATOM     56  C   UNL A   1      40.454  28.919  31.059  1.00  0.00     0.031 A 
ATOM     57  C   UNL A   1      40.424  32.674  37.149  1.00  0.00     0.031 A 
ATOM     58  C   UNL A   1      41.574  28.701  31.935  1.00  0.00     0.049 A 
ATOM     59  C   UNL A   1      41.535  31.739  36.778  1.00  0.00     0.074 A 
ATOM     60  C   UNL A   1      42.654  27.856  31.777  1.00  0.00     0.029 A 
ATOM     61  N   UNL A   1      41.746  29.355  33.152  1.00  0.00    -0.354 N 
ATOM     62  N   UNL A   1      41.656  30.997  35.701  1.00  0.00    -0.248 NA
ATOM     63  C   UNL A   1      42.646  31.628  37.724  1.00  0.00     0.031 C 
ATOM     64  C   UNL A   1      43.463  27.974  32.913  1.00  0.00     0.029 A 
ATOM     65  C   UNL A   1      42.912  28.928  33.759  1.00  0.00     0.049 A 
ATOM     66  H   UNL A   1      41.129  30.024  33.526  1.00  0.00     0.167 HD
ATOM     67  C   UNL A   1      42.859  30.326  35.835  1.00  0.00     0.074 A 
ATOM     68  C   UNL A   1      43.444  30.782  37.086  1.00  0.00     0.031 C 
ATOM     69  C   UNL A   1      43.430  29.409  35.016  1.00  0.00     0.031 A 
BRANCH  56  70
ATOM     70  C   UNL A   1      40.337  28.143  29.777  1.00  0.00    -0.014 A 
ATOM     71  C   UNL A   1      40.956  28.588  28.596  1.00  0.00     0.009 A 
ATOM     72  C   UNL A   1      39.582  26.960  29.736  1.00  0.00     0.009 A 
ATOM     73  C   UNL A   1      40.785  27.893  27.396  1.00  0.00     0.001 A 
ATOM     74  C   UNL A   1      39.435  26.252  28.540  1.00  0.00     0.001 A 
ATOM     75  C   UNL A   1      40.026  26.724  27.369  1.00  0.00     0.000 A 
ENDBRANCH  56  70
BRANCH  57  76
ATOM     76  C   UNL A   1      40.442  33.504  38.380  1.00  0.00    -0.014 A 
ATOM     77  C   UNL A   1      41.020  34.782  38.375  1.00  0.00     0.009 A 
ATOM     78  C   UNL A   1      39.813  33.054  39.553  1.00  0.00     0.009 A 
ATOM     79  C   UNL A   1      40.982  35.585  39.520  1.00  0.00     0.001 A 
ATOM     80  C   UNL A   1      39.750  33.869  40.687  1.00  0.00     0.001 A 
ATOM     81  C   UNL A   1      40.340  35.130  40.672  1.00  0.00     0.000 A 
ENDBRANCH  57  76
BRANCH  69  82
ATOM     82  C   UNL A   1      44.747  28.857  35.468  1.00  0.00    -0.014 A 
ATOM     83  C   UNL A   1      45.949  29.483  35.110  1.00  0.00     0.009 A 
ATOM     84  C   UNL A   1      44.777  27.718  36.287  1.00  0.00     0.009 A 
ATOM     85  C   UNL A   1      47.167  28.956  35.538  1.00  0.00     0.001 A 
ATOM     86  C   UNL A   1      45.995  27.212  36.736  1.00  0.00     0.001 A 
ATOM     87  C   UNL A   1      47.187  27.825  36.354  1.00  0.00     0.000 A 
ENDBRANCH  69  82
ENDBRANCH  43  44
ENDBRANCH  36  38
ENDBRANCH  35  36
ENDBRANCH  34  35
ENDBRANCH  33  34
ENDBRANCH   1  33
TORSDOF 16
ENDMDL
MODEL 2
REMARK VINA RESULT:     -10.5      2.815      7.693
REMARK SMILES O=C(CCC(=O)OCCOC(=O)c1ccc(-c2c3nc(c(-c4ccccc4)c4ccc([nH]4)c(-c4ccccc4)c4nc(c(-c5ccccc5)c5ccc2[nH]5)C=C4)C=C3)cc1)/[NH+]=C1\S[C@H]2CS(=O)(=O)C[C@@H]2N1c1ccc(Oc2ccccc2)cc1
REMARK SMILES IDX 7 1 5 2 6 3 4 4 3 5 2 6 1 7 61 8 62 9 63 11 71 12 64 13
REMARK SMILES IDX 70 14 65 15 69 16 66 17 67 18 68 19 72 20 73 21 84 22 74 23
REMARK SMILES IDX 83 24 75 25 76 26 77 27 78 28 82 29 79 30 81 31 80 32 8 33
REMARK SMILES IDX 9 34 10 35 11 36 12 37 13 38 14 39 60 40 15 41 59 42 16 43
REMARK SMILES IDX 17 44 18 45 53 46 19 47 58 48 52 49 54 50 20 51 57 52 51 53
REMARK SMILES IDX 50 54 21 56 43 57 28 58 42 59 29 60 32 61 41 62 55 63 30 64
REMARK SMILES IDX 31 65 40 67 56 68 33 69 22 70 23 71 27 72 24 73 26 74 25 75
REMARK SMILES IDX 44 76 45 77 49 78 46 79 48 80 47 81 34 82 35 83 39 84 36 85
REMARK SMILES IDX 38 86 37 87
REMARK H PARENT 61 10 54 55 32 66
REMARK Flexibility Score: inf
ROOT
ATOM      1  O   UNL A   1      31.096  28.788  24.295  1.00  0.00    -0.462 OA
ENDROOT
BRANCH   1   2
ATOM      2  C   UNL A   1      30.965  27.636  23.601  1.00  0.00     0.306 C 
ATOM      3  O   UNL A   1      30.125  26.775  23.830  1.00  0.00    -0.252 OA
BRANCH   2   4
ATOM      4  C   UNL A   1      32.015  27.507  22.532  1.00  0.00     0.135 C 
BRANCH   4   5
ATOM      5  C   UNL A   1      32.839  26.224  22.496  1.00  0.00     0.139 C 
BRANCH   5   6
ATOM      6  C   UNL A   1      33.898  25.927  23.561  1.00  0.00     0.308 C 
ATOM      7  O   UNL A   1      34.131  26.781  24.416  1.00  0.00    -0.247 OA
ATOM      8  N   UNL A   1      34.592  24.746  23.553  1.00  0.00    -0.204 N 
ATOM      9  C   UNL A   1      34.191  23.719  24.235  1.00  0.00     0.319 C 
ATOM     10  H   UNL A   1      35.415  24.675  23.017  1.00  0.00     0.316 HD
ATOM     11  S   UNL A   1      32.588  23.513  25.000  1.00  0.00    -0.029 SA
ATOM     12  N   UNL A   1      34.926  22.539  24.405  1.00  0.00    -0.217 N 
ATOM     13  C   UNL A   1      32.844  21.730  25.269  1.00  0.00     0.120 C 
ATOM     14  C   UNL A   1      34.079  21.361  24.442  1.00  0.00     0.212 C 
ATOM     15  C   UNL A   1      31.848  20.684  24.803  1.00  0.00     0.156 C 
ATOM     16  C   UNL A   1      34.463  19.996  24.964  1.00  0.00     0.188 C 
ATOM     17  S   UNL A   1      32.855  19.175  24.819  1.00  0.00     0.155 S 
ATOM     18  O   UNL A   1      32.584  18.438  26.031  1.00  0.00    -0.229 OA
ATOM     19  O   UNL A   1      32.781  18.570  23.505  1.00  0.00    -0.229 OA
BRANCH  12  20
ATOM     20  C   UNL A   1      36.172  22.504  25.034  1.00  0.00     0.128 A 
ATOM     21  C   UNL A   1      36.561  23.499  25.942  1.00  0.00     0.056 A 
ATOM     22  C   UNL A   1      37.093  21.495  24.728  1.00  0.00     0.056 A 
ATOM     23  C   UNL A   1      37.863  23.539  26.452  1.00  0.00     0.051 A 
ATOM     24  C   UNL A   1      38.389  21.527  25.240  1.00  0.00     0.051 A 
ATOM     25  C   UNL A   1      38.792  22.573  26.072  1.00  0.00     0.127 A 
BRANCH  25  26
ATOM     26  O   UNL A   1      40.069  22.732  26.575  1.00  0.00    -0.457 OA
BRANCH  26  27
ATOM     27  C   UNL A   1      40.940  21.686  26.389  1.00  0.00     0.127 A 
ATOM     28  C   UNL A   1      40.477  20.397  26.638  1.00  0.00     0.047 A 
ATOM     29  C   UNL A   1      42.243  21.907  25.934  1.00  0.00     0.047 A 
ATOM     30  C   UNL A   1      41.303  19.309  26.362  1.00  0.00     0.004 A 
ATOM     31  C   UNL A   1      43.061  20.815  25.650  1.00  0.00     0.004 A 
ATOM     32  C   UNL A   1      42.587  19.517  25.855  1.00  0.00     0.000 A 
ENDBRANCH  26  27
ENDBRANCH  25  26
ENDBRANCH  12  20
ENDBRANCH   5   6
ENDBRANCH   4   5
ENDBRANCH   2   4
ENDBRANCH   1   2
BRANCH   1  33
ATOM     33  C   UNL A   1      31.704  28.676  25.594  1.00  0.00     0.274 C 
BRANCH  33  34
ATOM     34  C   UNL A   1      31.857  30.057  26.213  1.00  0.00     0.275 C 
BRANCH  34  35
ATOM     35  O   UNL A   1      33.194  30.581  26.183  1.00  0.00    -0.458 OA
BRANCH  35  36
ATOM     36  C   UNL A   1      33.510  31.356  27.237  1.00  0.00     0.338 C 
ATOM     37  O   UNL A   1      32.882  32.319  27.662  1.00  0.00    -0.246 OA
BRANCH  36  38
ATOM     38  C   UNL A   1      34.839  31.091  27.732  1.00  0.00     0.060 A 
ATOM     39  C   UNL A   1      35.739  32.128  27.942  1.00  0.00     0.016 A 
ATOM     40  C   UNL A   1      35.181  29.750  27.933  1.00  0.00     0.016 A 
ATOM     41  C   UNL A   1      36.991  31.807  28.441  1.00  0.00     0.010 A 
ATOM     42  C   UNL A   1      36.399  29.437  28.493  1.00  0.00     0.010 A 
ATOM     43  C   UNL A   1      37.292  30.471  28.772  1.00  0.00    -0.014 A 
BRANCH  43  44
ATOM     44  C   UNL A   1      38.484  30.171  29.572  1.00  0.00     0.031 A 
ATOM     45  C   UNL A   1      38.547  30.560  31.009  1.00  0.00     0.074 A 
ATOM     46  C   UNL A   1      39.496  29.571  28.923  1.00  0.00     0.049 A 
ATOM     47  N   UNL A   1      39.470  30.284  31.886  1.00  0.00    -0.248 NA
ATOM     48  C   UNL A   1      37.445  31.389  31.527  1.00  0.00     0.031 C 
ATOM     49  C   UNL A   1      39.506  29.261  27.485  1.00  0.00     0.029 A 
ATOM     50  N   UNL A   1      40.685  29.076  29.375  1.00  0.00    -0.354 N 
ATOM     51  C   UNL A   1      39.066  30.902  33.060  1.00  0.00     0.074 A 
ATOM     52  C   UNL A   1      37.840  31.611  32.773  1.00  0.00     0.031 C 
ATOM     53  C   UNL A   1      40.598  28.542  27.198  1.00  0.00     0.029 A 
ATOM     54  C   UNL A   1      41.380  28.382  28.414  1.00  0.00     0.049 A 
ATOM     55  H   UNL A   1      41.011  29.204  30.294  1.00  0.00     0.167 HD
ATOM     56  C   UNL A   1      39.672  30.854  34.268  1.00  0.00     0.031 A 
ATOM     57  C   UNL A   1      42.511  27.667  28.526  1.00  0.00     0.031 A 
ATOM     58  C   UNL A   1      40.903  30.144  34.490  1.00  0.00     0.049 A 
ATOM     59  C   UNL A   1      43.129  27.584  29.889  1.00  0.00     0.074 A 
ATOM     60  C   UNL A   1      41.628  29.998  35.656  1.00  0.00     0.029 A 
ATOM     61  N   UNL A   1      41.589  29.450  33.497  1.00  0.00    -0.354 N 
ATOM     62  N   UNL A   1      42.711  28.121  31.012  1.00  0.00    -0.248 NA
ATOM     63  C   UNL A   1      44.358  26.797  30.008  1.00  0.00     0.031 C 
ATOM     64  C   UNL A   1      42.771  29.244  35.360  1.00  0.00     0.029 A 
ATOM     65  C   UNL A   1      42.733  28.879  34.021  1.00  0.00     0.049 A 
ATOM     66  H   UNL A   1      41.301  29.376  32.558  1.00  0.00     0.167 HD
ATOM     67  C   UNL A   1      43.626  27.739  31.979  1.00  0.00     0.074 A 
ATOM     68  C   UNL A   1      44.601  26.894  31.308  1.00  0.00     0.031 C 
ATOM     69  C   UNL A   1      43.673  28.061  33.294  1.00  0.00     0.031 A 
BRANCH  56  70
ATOM     70  C   UNL A   1      39.018  31.602  35.397  1.00  0.00    -0.014 A 
ATOM     71  C   UNL A   1      38.247  30.933  36.363  1.00  0.00     0.009 A 
ATOM     72  C   UNL A   1      39.153  32.996  35.490  1.00  0.00     0.009 A 
ATOM     73  C   UNL A   1      37.591  31.646  37.369  1.00  0.00     0.001 A 
ATOM     74  C   UNL A   1      38.517  33.704  36.513  1.00  0.00     0.001 A 
ATOM     75  C   UNL A   1      37.728  33.032  37.445  1.00  0.00     0.000 A 
ENDBRANCH  56  70
BRANCH  57  76
ATOM     76  C   UNL A   1      43.060  26.956  27.343  1.00  0.00    -0.014 A 
ATOM     77  C   UNL A   1      43.979  27.586  26.491  1.00  0.00     0.009 A 
ATOM     78  C   UNL A   1      42.727  25.613  27.100  1.00  0.00     0.009 A 
ATOM     79  C   UNL A   1      44.540  26.893  25.413  1.00  0.00     0.001 A 
ATOM     80  C   UNL A   1      43.310  24.913  26.040  1.00  0.00     0.001 A 
ATOM     81  C   UNL A   1      44.211  25.556  25.193  1.00  0.00     0.000 A 
ENDBRANCH  57  76
BRANCH  69  82
ATOM     82  C   UNL A   1      44.821  27.488  34.068  1.00  0.00    -0.014 A 
ATOM     83  C   UNL A   1      44.723  26.222  34.663  1.00  0.00     0.009 A 
ATOM     84  C   UNL A   1      46.018  28.211  34.172  1.00  0.00     0.009 A 
ATOM     85  C   UNL A   1      45.799  25.702  35.381  1.00  0.00     0.001 A 
ATOM     86  C   UNL A   1      47.100  27.675  34.867  1.00  0.00     0.001 A 
ATOM     87  C   UNL A   1      46.986  26.427  35.477  1.00  0.00     0.000 A 
ENDBRANCH  69  82
ENDBRANCH  43  44
ENDBRANCH  36  38
ENDBRANCH  35  36
ENDBRANCH  34  35
ENDBRANCH  33  34
ENDBRANCH   1  33
TORSDOF 16
ENDMDL
MODEL 3
REMARK VINA RESULT:     -10.4      2.761      5.466
REMARK SMILES O=C(CCC(=O)OCCOC(=O)c1ccc(-c2c3nc(c(-c4ccccc4)c4ccc([nH]4)c(-c4ccccc4)c4nc(c(-c5ccccc5)c5ccc2[nH]5)C=C4)C=C3)cc1)/[NH+]=C1\S[C@H]2CS(=O)(=O)C[C@@H]2N1c1ccc(Oc2ccccc2)cc1
REMARK SMILES IDX 7 1 5 2 6 3 4 4 3 5 2 6 1 7 61 8 62 9 63 11 71 12 64 13
REMARK SMILES IDX 70 14 65 15 69 16 66 17 67 18 68 19 72 20 73 21 84 22 74 23
REMARK SMILES IDX 83 24 75 25 76 26 77 27 78 28 82 29 79 30 81 31 80 32 8 33
REMARK SMILES IDX 9 34 10 35 11 36 12 37 13 38 14 39 60 40 15 41 59 42 16 43
REMARK SMILES IDX 17 44 18 45 53 46 19 47 58 48 52 49 54 50 20 51 57 52 51 53
REMARK SMILES IDX 50 54 21 56 43 57 28 58 42 59 29 60 32 61 41 62 55 63 30 64
REMARK SMILES IDX 31 65 40 67 56 68 33 69 22 70 23 71 27 72 24 73 26 74 25 75
REMARK SMILES IDX 44 76 45 77 49 78 46 79 48 80 47 81 34 82 35 83 39 84 36 85
REMARK SMILES IDX 38 86 37 87
REMARK H PARENT 61 10 54 55 32 66
REMARK Flexibility Score: inf
ROOT
ATOM      1  O   UNL A   1      31.036  29.245  24.065  1.00  0.00    -0.462 OA
ENDROOT
BRANCH   1   2
ATOM      2  C   UNL A   1      30.866  28.086  23.393  1.00  0.00     0.306 C 
ATOM      3  O   UNL A   1      29.874  27.370  23.476  1.00  0.00    -0.252 OA
BRANCH   2   4
ATOM      4  C   UNL A   1      32.068  27.743  22.558  1.00  0.00     0.135 C 
BRANCH   4   5
ATOM      5  C   UNL A   1      32.672  26.352  22.718  1.00  0.00     0.139 C 
BRANCH   5   6
ATOM      6  C   UNL A   1      33.743  26.065  23.773  1.00  0.00     0.308 C 
ATOM      7  O   UNL A   1      33.946  26.904  24.652  1.00  0.00    -0.247 OA
ATOM      8  N   UNL A   1      34.481  24.911  23.732  1.00  0.00    -0.204 N 
ATOM      9  C   UNL A   1      34.120  23.851  24.386  1.00  0.00     0.319 C 
ATOM     10  H   UNL A   1      35.305  24.886  23.193  1.00  0.00     0.316 HD
ATOM     11  S   UNL A   1      32.528  23.565  25.147  1.00  0.00    -0.029 SA
ATOM     12  N   UNL A   1      34.899  22.696  24.523  1.00  0.00    -0.217 N 
ATOM     13  C   UNL A   1      32.850  21.786  25.367  1.00  0.00     0.120 C 
ATOM     14  C   UNL A   1      34.096  21.486  24.529  1.00  0.00     0.212 C 
ATOM     15  C   UNL A   1      31.892  20.717  24.874  1.00  0.00     0.156 C 
ATOM     16  C   UNL A   1      34.532  20.122  25.012  1.00  0.00     0.188 C 
ATOM     17  S   UNL A   1      32.955  19.247  24.847  1.00  0.00     0.155 S 
ATOM     18  O   UNL A   1      32.715  18.467  26.038  1.00  0.00    -0.229 OA
ATOM     19  O   UNL A   1      32.901  18.676  23.517  1.00  0.00    -0.229 OA
BRANCH  12  20
ATOM     20  C   UNL A   1      36.147  22.690  25.149  1.00  0.00     0.128 A 
ATOM     21  C   UNL A   1      36.489  23.656  26.106  1.00  0.00     0.056 A 
ATOM     22  C   UNL A   1      37.115  21.744  24.793  1.00  0.00     0.056 A 
ATOM     23  C   UNL A   1      37.789  23.733  26.617  1.00  0.00     0.051 A 
ATOM     24  C   UNL A   1      38.409  21.813  25.305  1.00  0.00     0.051 A 
ATOM     25  C   UNL A   1      38.763  22.834  26.188  1.00  0.00     0.127 A 
BRANCH  25  26
ATOM     26  O   UNL A   1      40.032  23.030  26.699  1.00  0.00    -0.457 OA
BRANCH  26  27
ATOM     27  C   UNL A   1      40.885  21.954  26.659  1.00  0.00     0.127 A 
ATOM     28  C   UNL A   1      41.887  21.948  25.692  1.00  0.00     0.047 A 
ATOM     29  C   UNL A   1      40.771  20.910  27.581  1.00  0.00     0.047 A 
ATOM     30  C   UNL A   1      42.830  20.923  25.690  1.00  0.00     0.004 A 
ATOM     31  C   UNL A   1      41.722  19.892  27.581  1.00  0.00     0.004 A 
ATOM     32  C   UNL A   1      42.756  19.904  26.642  1.00  0.00     0.000 A 
ENDBRANCH  26  27
ENDBRANCH  25  26
ENDBRANCH  12  20
ENDBRANCH   5   6
ENDBRANCH   4   5
ENDBRANCH   2   4
ENDBRANCH   1   2
BRANCH   1  33
ATOM     33  C   UNL A   1      31.270  29.126  25.480  1.00  0.00     0.274 C 
BRANCH  33  34
ATOM     34  C   UNL A   1      31.768  30.452  26.034  1.00  0.00     0.275 C 
BRANCH  34  35
ATOM     35  O   UNL A   1      33.186  30.511  26.259  1.00  0.00    -0.458 OA
BRANCH  35  36
ATOM     36  C   UNL A   1      33.556  31.344  27.248  1.00  0.00     0.338 C 
ATOM     37  O   UNL A   1      32.989  32.372  27.601  1.00  0.00    -0.246 OA
BRANCH  36  38
ATOM     38  C   UNL A   1      34.873  31.042  27.755  1.00  0.00     0.060 A 
ATOM     39  C   UNL A   1      35.790  32.055  28.001  1.00  0.00     0.016 A 
ATOM     40  C   UNL A   1      35.186  29.690  27.929  1.00  0.00     0.016 A 
ATOM     41  C   UNL A   1      37.029  31.697  28.508  1.00  0.00     0.010 A 
ATOM     42  C   UNL A   1      36.389  29.340  28.498  1.00  0.00     0.010 A 
ATOM     43  C   UNL A   1      37.299  30.348  28.812  1.00  0.00    -0.014 A 
BRANCH  43  44
ATOM     44  C   UNL A   1      38.473  30.007  29.621  1.00  0.00     0.031 A 
ATOM     45  C   UNL A   1      39.608  29.248  29.025  1.00  0.00     0.074 A 
ATOM     46  C   UNL A   1      38.434  30.387  30.910  1.00  0.00     0.049 A 
ATOM     47  N   UNL A   1      40.759  28.955  29.559  1.00  0.00    -0.248 NA
ATOM     48  C   UNL A   1      39.420  28.727  27.660  1.00  0.00     0.031 C 
ATOM     49  C   UNL A   1      37.291  31.050  31.555  1.00  0.00     0.029 A 
ATOM     50  N   UNL A   1      39.374  30.317  31.897  1.00  0.00    -0.354 N 
ATOM     51  C   UNL A   1      41.437  28.215  28.601  1.00  0.00     0.074 A 
ATOM     52  C   UNL A   1      40.551  28.060  27.470  1.00  0.00     0.031 C 
ATOM     53  C   UNL A   1      37.637  31.415  32.796  1.00  0.00     0.029 A 
ATOM     54  C   UNL A   1      39.000  30.971  33.046  1.00  0.00     0.049 A 
ATOM     55  H   UNL A   1      40.232  29.846  31.795  1.00  0.00     0.167 HD
ATOM     56  C   UNL A   1      42.698  27.732  28.672  1.00  0.00     0.031 A 
ATOM     57  C   UNL A   1      39.707  31.211  34.162  1.00  0.00     0.031 A 
ATOM     58  C   UNL A   1      43.530  27.905  29.833  1.00  0.00     0.049 A 
ATOM     59  C   UNL A   1      41.121  30.714  34.190  1.00  0.00     0.074 A 
ATOM     60  C   UNL A   1      44.827  27.482  30.048  1.00  0.00     0.029 A 
ATOM     61  N   UNL A   1      43.125  28.570  30.987  1.00  0.00    -0.354 N 
ATOM     62  N   UNL A   1      41.780  30.066  33.257  1.00  0.00    -0.248 NA
ATOM     63  C   UNL A   1      41.890  30.984  35.405  1.00  0.00     0.031 C 
ATOM     64  C   UNL A   1      45.194  27.862  31.344  1.00  0.00     0.029 A 
ATOM     65  C   UNL A   1      44.144  28.564  31.920  1.00  0.00     0.049 A 
ATOM     66  H   UNL A   1      42.242  28.985  31.118  1.00  0.00     0.167 HD
ATOM     67  C   UNL A   1      43.047  29.847  33.770  1.00  0.00     0.074 A 
ATOM     68  C   UNL A   1      43.068  30.467  35.085  1.00  0.00     0.031 C 
ATOM     69  C   UNL A   1      44.095  29.186  33.221  1.00  0.00     0.031 A 
BRANCH  56  70
ATOM     70  C   UNL A   1      43.212  26.970  27.482  1.00  0.00    -0.014 A 
ATOM     71  C   UNL A   1      43.163  25.566  27.439  1.00  0.00     0.009 A 
ATOM     72  C   UNL A   1      43.773  27.658  26.394  1.00  0.00     0.009 A 
ATOM     73  C   UNL A   1      43.704  24.867  26.356  1.00  0.00     0.001 A 
ATOM     74  C   UNL A   1      44.289  26.957  25.301  1.00  0.00     0.001 A 
ATOM     75  C   UNL A   1      44.265  25.564  25.287  1.00  0.00     0.000 A 
ENDBRANCH  56  70
BRANCH  57  76
ATOM     76  C   UNL A   1      39.100  31.989  35.272  1.00  0.00    -0.014 A 
ATOM     77  C   UNL A   1      39.078  33.391  35.236  1.00  0.00     0.009 A 
ATOM     78  C   UNL A   1      38.470  31.332  36.342  1.00  0.00     0.009 A 
ATOM     79  C   UNL A   1      38.453  34.118  36.254  1.00  0.00     0.001 A 
ATOM     80  C   UNL A   1      37.820  32.060  37.343  1.00  0.00     0.001 A 
ATOM     81  C   UNL A   1      37.818  33.452  37.302  1.00  0.00     0.000 A 
ENDBRANCH  57  76
BRANCH  69  82
ATOM     82  C   UNL A   1      45.335  29.114  34.059  1.00  0.00    -0.014 A 
ATOM     83  C   UNL A   1      45.511  28.083  34.993  1.00  0.00     0.009 A 
ATOM     84  C   UNL A   1      46.347  30.070  33.884  1.00  0.00     0.009 A 
ATOM     85  C   UNL A   1      46.670  28.030  35.766  1.00  0.00     0.001 A 
ATOM     86  C   UNL A   1      47.515  29.997  34.638  1.00  0.00     0.001 A 
ATOM     87  C   UNL A   1      47.671  28.984  35.584  1.00  0.00     0.000 A 
ENDBRANCH  69  82
ENDBRANCH  43  44
ENDBRANCH  36  38
ENDBRANCH  35  36
ENDBRANCH  34  35
ENDBRANCH  33  34
ENDBRANCH   1  33
TORSDOF 16
ENDMDL
