MODEL 1
REMARK VINA RESULT:      -8.7      0.000      0.000
REMARK SMILES CC[C@@H](NS(=O)(=O)c1ccc(CC#N)cc1)C(=O)OCCOC(=O)c1ccc(-c2c3nc(c(-c4ccccc4)c4ccc([nH]4)c(-c4ccccc4)c4nc(c(-c5ccccc5)c5ccc2[nH]5)C=C4)C=C3)cc1
REMARK SMILES IDX 19 1 17 2 18 3 3 4 2 5 1 6 4 7 5 9 6 10 7 11 8 12 9 13 16 14
REMARK SMILES IDX 10 15 15 16 11 17 12 18 13 19 14 20 20 21 21 22 22 23 23 24
REMARK SMILES IDX 24 25 25 26 26 27 72 28 27 29 71 30 28 31 29 32 30 33 65 34
REMARK SMILES IDX 31 35 70 36 64 37 66 38 32 39 69 40 63 41 62 42 33 44 55 45
REMARK SMILES IDX 40 46 54 47 41 48 44 49 53 50 67 51 42 52 43 53 52 55 68 56
REMARK SMILES IDX 45 57 34 58 35 59 39 60 36 61 38 62 37 63 56 64 57 65 61 66
REMARK SMILES IDX 58 67 60 68 59 69 46 70 47 71 51 72 48 73 50 74 49 75
REMARK H PARENT 4 8 66 43 44 54
REMARK Flexibility Score: inf
ROOT
ATOM      1  O   UNL A   1      41.010  20.021  26.783  1.00  0.00    -0.461 OA
ENDROOT
BRANCH   1   2
ATOM      2  C   UNL A   1      42.148  20.288  26.098  1.00  0.00     0.324 C 
ATOM      3  O   UNL A   1      42.590  19.551  25.229  1.00  0.00    -0.250 OA
BRANCH   2   4
ATOM      4  C   UNL A   1      42.899  21.531  26.513  1.00  0.00     0.179 C 
BRANCH   4   5
ATOM      5  C   UNL A   1      42.619  21.877  27.980  1.00  0.00     0.028 C 
ATOM      6  C   UNL A   1      42.430  23.372  28.204  1.00  0.00     0.006 C 
ENDBRANCH   4   5
BRANCH   4   7
ATOM      7  N   UNL A   1      44.341  21.385  26.188  1.00  0.00    -0.197 NA
ATOM      8  H   UNL A   1      44.478  20.439  25.836  1.00  0.00     0.142 HD
BRANCH   7   9
ATOM      9  S   UNL A   1      45.018  22.458  25.044  1.00  0.00     0.241 S 
ATOM     10  O   UNL A   1      46.394  22.067  24.852  1.00  0.00    -0.207 OA
ATOM     11  O   UNL A   1      44.084  22.469  23.935  1.00  0.00    -0.207 OA
BRANCH   9  12
ATOM     12  C   UNL A   1      44.969  24.074  25.795  1.00  0.00     0.082 A 
ATOM     13  C   UNL A   1      45.786  24.391  26.879  1.00  0.00     0.022 A 
ATOM     14  C   UNL A   1      44.114  25.044  25.271  1.00  0.00     0.022 A 
ATOM     15  C   UNL A   1      45.876  25.724  27.316  1.00  0.00     0.006 A 
ATOM     16  C   UNL A   1      44.264  26.382  25.650  1.00  0.00     0.006 A 
ATOM     17  C   UNL A   1      45.183  26.749  26.646  1.00  0.00    -0.034 A 
BRANCH  17  18
ATOM     18  C   UNL A   1      45.290  28.214  27.059  1.00  0.00     0.155 C 
BRANCH  18  19
ATOM     19  C   UNL A   1      46.027  28.900  25.920  1.00  0.00     0.067 C 
ATOM     20  N   UNL A   1      46.639  29.468  24.974  1.00  0.00    -0.198 NA
ENDBRANCH  18  19
ENDBRANCH  17  18
ENDBRANCH   9  12
ENDBRANCH   7   9
ENDBRANCH   4   7
ENDBRANCH   2   4
ENDBRANCH   1   2
BRANCH   1  21
ATOM     21  C   UNL A   1      39.878  19.742  25.932  1.00  0.00     0.274 C 
BRANCH  21  22
ATOM     22  C   UNL A   1      38.969  20.952  25.623  1.00  0.00     0.275 C 
BRANCH  22  23
ATOM     23  O   UNL A   1      39.133  22.083  26.513  1.00  0.00    -0.458 OA
BRANCH  23  24
ATOM     24  C   UNL A   1      38.655  23.267  26.044  1.00  0.00     0.338 C 
ATOM     25  O   UNL A   1      37.727  23.407  25.262  1.00  0.00    -0.246 OA
BRANCH  24  26
ATOM     26  C   UNL A   1      39.249  24.420  26.766  1.00  0.00     0.060 A 
ATOM     27  C   UNL A   1      38.887  24.604  28.110  1.00  0.00     0.016 A 
ATOM     28  C   UNL A   1      40.075  25.353  26.144  1.00  0.00     0.016 A 
ATOM     29  C   UNL A   1      39.352  25.693  28.842  1.00  0.00     0.010 A 
ATOM     30  C   UNL A   1      40.513  26.474  26.869  1.00  0.00     0.010 A 
ATOM     31  C   UNL A   1      40.142  26.657  28.217  1.00  0.00    -0.014 A 
BRANCH  31  32
ATOM     32  C   UNL A   1      40.451  27.918  28.937  1.00  0.00     0.031 A 
ATOM     33  C   UNL A   1      41.787  28.063  29.611  1.00  0.00     0.074 A 
ATOM     34  C   UNL A   1      39.579  28.944  28.950  1.00  0.00     0.049 A 
ATOM     35  N   UNL A   1      42.237  29.031  30.368  1.00  0.00    -0.248 NA
ATOM     36  C   UNL A   1      42.748  26.969  29.397  1.00  0.00     0.031 C 
ATOM     37  C   UNL A   1      38.292  28.972  28.259  1.00  0.00     0.029 A 
ATOM     38  N   UNL A   1      39.652  30.164  29.578  1.00  0.00    -0.354 N 
ATOM     39  C   UNL A   1      43.520  28.653  30.740  1.00  0.00     0.074 A 
ATOM     40  C   UNL A   1      43.771  27.359  30.143  1.00  0.00     0.031 C 
ATOM     41  C   UNL A   1      37.687  30.145  28.514  1.00  0.00     0.029 A 
ATOM     42  C   UNL A   1      38.520  30.927  29.424  1.00  0.00     0.049 A 
ATOM     43  H   UNL A   1      40.439  30.462  30.090  1.00  0.00     0.167 HD
ATOM     44  C   UNL A   1      44.410  29.323  31.511  1.00  0.00     0.031 A 
ATOM     45  C   UNL A   1      38.180  32.105  29.984  1.00  0.00     0.031 A 
ATOM     46  C   UNL A   1      44.155  30.604  32.113  1.00  0.00     0.049 A 
ATOM     47  C   UNL A   1      39.143  32.780  30.925  1.00  0.00     0.074 A 
ATOM     48  C   UNL A   1      44.989  31.360  32.919  1.00  0.00     0.029 A 
ATOM     49  N   UNL A   1      42.976  31.320  31.977  1.00  0.00    -0.354 N 
ATOM     50  N   UNL A   1      40.348  32.407  31.286  1.00  0.00    -0.248 NA
ATOM     51  C   UNL A   1      38.698  34.043  31.536  1.00  0.00     0.031 C 
ATOM     52  C   UNL A   1      44.290  32.502  33.323  1.00  0.00     0.029 A 
ATOM     53  C   UNL A   1      43.048  32.494  32.708  1.00  0.00     0.049 A 
ATOM     54  H   UNL A   1      42.200  31.035  31.441  1.00  0.00     0.167 HD
ATOM     55  C   UNL A   1      40.814  33.402  32.138  1.00  0.00     0.074 A 
ATOM     56  C   UNL A   1      39.770  34.402  32.226  1.00  0.00     0.031 C 
ATOM     57  C   UNL A   1      42.003  33.482  32.786  1.00  0.00     0.031 A 
BRANCH  44  58
ATOM     58  C   UNL A   1      45.726  28.651  31.791  1.00  0.00    -0.014 A 
ATOM     59  C   UNL A   1      45.904  27.814  32.905  1.00  0.00     0.009 A 
ATOM     60  C   UNL A   1      46.802  28.839  30.907  1.00  0.00     0.009 A 
ATOM     61  C   UNL A   1      47.141  27.212  33.147  1.00  0.00     0.001 A 
ATOM     62  C   UNL A   1      48.026  28.209  31.133  1.00  0.00     0.001 A 
ATOM     63  C   UNL A   1      48.199  27.405  32.259  1.00  0.00     0.000 A 
ENDBRANCH  44  58
BRANCH  45  64
ATOM     64  C   UNL A   1      36.845  32.705  29.712  1.00  0.00    -0.014 A 
ATOM     65  C   UNL A   1      36.646  33.559  28.616  1.00  0.00     0.009 A 
ATOM     66  C   UNL A   1      35.764  32.449  30.573  1.00  0.00     0.009 A 
ATOM     67  C   UNL A   1      35.405  34.166  28.405  1.00  0.00     0.001 A 
ATOM     68  C   UNL A   1      34.515  33.028  30.339  1.00  0.00     0.001 A 
ATOM     69  C   UNL A   1      34.340  33.895  29.263  1.00  0.00     0.000 A 
ENDBRANCH  45  64
BRANCH  57  70
ATOM     70  C   UNL A   1      42.260  34.714  33.612  1.00  0.00    -0.014 A 
ATOM     71  C   UNL A   1      41.956  34.759  34.982  1.00  0.00     0.009 A 
ATOM     72  C   UNL A   1      42.859  35.835  33.013  1.00  0.00     0.009 A 
ATOM     73  C   UNL A   1      42.214  35.914  35.724  1.00  0.00     0.001 A 
ATOM     74  C   UNL A   1      43.147  36.975  33.765  1.00  0.00     0.001 A 
ATOM     75  C   UNL A   1      42.814  37.017  35.118  1.00  0.00     0.000 A 
ENDBRANCH  57  70
ENDBRANCH  31  32
ENDBRANCH  24  26
ENDBRANCH  23  24
ENDBRANCH  22  23
ENDBRANCH  21  22
ENDBRANCH   1  21
TORSDOF 17
ENDMDL
MODEL 2
REMARK VINA RESULT:      -8.5      0.837      6.113
REMARK SMILES CC[C@@H](NS(=O)(=O)c1ccc(CC#N)cc1)C(=O)OCCOC(=O)c1ccc(-c2c3nc(c(-c4ccccc4)c4ccc([nH]4)c(-c4ccccc4)c4nc(c(-c5ccccc5)c5ccc2[nH]5)C=C4)C=C3)cc1
REMARK SMILES IDX 19 1 17 2 18 3 3 4 2 5 1 6 4 7 5 9 6 10 7 11 8 12 9 13 16 14
REMARK SMILES IDX 10 15 15 16 11 17 12 18 13 19 14 20 20 21 21 22 22 23 23 24
REMARK SMILES IDX 24 25 25 26 26 27 72 28 27 29 71 30 28 31 29 32 30 33 65 34
REMARK SMILES IDX 31 35 70 36 64 37 66 38 32 39 69 40 63 41 62 42 33 44 55 45
REMARK SMILES IDX 40 46 54 47 41 48 44 49 53 50 67 51 42 52 43 53 52 55 68 56
REMARK SMILES IDX 45 57 34 58 35 59 39 60 36 61 38 62 37 63 56 64 57 65 61 66
REMARK SMILES IDX 58 67 60 68 59 69 46 70 47 71 51 72 48 73 50 74 49 75
REMARK H PARENT 4 8 66 43 44 54
REMARK Flexibility Score: inf
ROOT
ATOM      1  O   UNL A   1      40.424  19.908  26.460  1.00  0.00    -0.461 OA
ENDROOT
BRANCH   1   2
ATOM      2  C   UNL A   1      41.683  20.143  26.020  1.00  0.00     0.324 C 
ATOM      3  O   UNL A   1      42.323  19.332  25.366  1.00  0.00    -0.250 OA
BRANCH   2   4
ATOM      4  C   UNL A   1      42.302  21.457  26.439  1.00  0.00     0.179 C 
BRANCH   4   5
ATOM      5  C   UNL A   1      41.659  21.977  27.729  1.00  0.00     0.028 C 
ATOM      6  C   UNL A   1      42.559  22.949  28.483  1.00  0.00     0.006 C 
ENDBRANCH   4   5
BRANCH   4   7
ATOM      7  N   UNL A   1      43.780  21.323  26.508  1.00  0.00    -0.197 NA
ATOM      8  H   UNL A   1      43.999  20.332  26.407  1.00  0.00     0.142 HD
BRANCH   7   9
ATOM      9  S   UNL A   1      44.716  22.172  25.359  1.00  0.00     0.241 S 
ATOM     10  O   UNL A   1      46.052  21.626  25.407  1.00  0.00    -0.207 OA
ATOM     11  O   UNL A   1      43.940  22.136  24.135  1.00  0.00    -0.207 OA
BRANCH   9  12
ATOM     12  C   UNL A   1      44.757  23.866  25.912  1.00  0.00     0.082 A 
ATOM     13  C   UNL A   1      45.609  24.269  26.940  1.00  0.00     0.022 A 
ATOM     14  C   UNL A   1      43.939  24.808  25.287  1.00  0.00     0.022 A 
ATOM     15  C   UNL A   1      45.769  25.639  27.214  1.00  0.00     0.006 A 
ATOM     16  C   UNL A   1      44.159  26.172  25.502  1.00  0.00     0.006 A 
ATOM     17  C   UNL A   1      45.113  26.609  26.436  1.00  0.00    -0.034 A 
BRANCH  17  18
ATOM     18  C   UNL A   1      45.296  28.106  26.669  1.00  0.00     0.155 C 
BRANCH  18  19
ATOM     19  C   UNL A   1      43.921  28.718  26.448  1.00  0.00     0.067 C 
ATOM     20  N   UNL A   1      42.781  29.225  26.267  1.00  0.00    -0.198 NA
ENDBRANCH  18  19
ENDBRANCH  17  18
ENDBRANCH   9  12
ENDBRANCH   7   9
ENDBRANCH   4   7
ENDBRANCH   2   4
ENDBRANCH   1   2
BRANCH   1  21
ATOM     21  C   UNL A   1      39.453  19.804  25.396  1.00  0.00     0.274 C 
BRANCH  21  22
ATOM     22  C   UNL A   1      38.458  20.980  25.293  1.00  0.00     0.275 C 
BRANCH  22  23
ATOM     23  O   UNL A   1      38.688  22.061  26.229  1.00  0.00    -0.458 OA
BRANCH  23  24
ATOM     24  C   UNL A   1      38.346  23.300  25.784  1.00  0.00     0.338 C 
ATOM     25  O   UNL A   1      37.440  23.560  25.006  1.00  0.00    -0.246 OA
BRANCH  24  26
ATOM     26  C   UNL A   1      39.066  24.366  26.527  1.00  0.00     0.060 A 
ATOM     27  C   UNL A   1      38.776  24.517  27.892  1.00  0.00     0.016 A 
ATOM     28  C   UNL A   1      39.944  25.253  25.908  1.00  0.00     0.016 A 
ATOM     29  C   UNL A   1      39.363  25.529  28.648  1.00  0.00     0.010 A 
ATOM     30  C   UNL A   1      40.505  26.299  26.660  1.00  0.00     0.010 A 
ATOM     31  C   UNL A   1      40.206  26.451  28.029  1.00  0.00    -0.014 A 
BRANCH  31  32
ATOM     32  C   UNL A   1      40.652  27.647  28.787  1.00  0.00     0.031 A 
ATOM     33  C   UNL A   1      39.698  28.796  28.959  1.00  0.00     0.074 A 
ATOM     34  C   UNL A   1      41.868  27.694  29.362  1.00  0.00     0.049 A 
ATOM     35  N   UNL A   1      39.899  29.971  29.501  1.00  0.00    -0.248 NA
ATOM     36  C   UNL A   1      38.330  28.590  28.456  1.00  0.00     0.031 C 
ATOM     37  C   UNL A   1      42.852  26.614  29.355  1.00  0.00     0.029 A 
ATOM     38  N   UNL A   1      42.481  28.704  30.064  1.00  0.00    -0.354 N 
ATOM     39  C   UNL A   1      38.694  30.651  29.382  1.00  0.00     0.074 A 
ATOM     40  C   UNL A   1      37.774  29.768  28.700  1.00  0.00     0.031 C 
ATOM     41  C   UNL A   1      43.954  27.024  30.006  1.00  0.00     0.029 A 
ATOM     42  C   UNL A   1      43.772  28.410  30.432  1.00  0.00     0.049 A 
ATOM     43  H   UNL A   1      42.038  29.557  30.280  1.00  0.00     0.167 HD
ATOM     44  C   UNL A   1      38.382  31.901  29.803  1.00  0.00     0.031 A 
ATOM     45  C   UNL A   1      44.710  29.183  31.012  1.00  0.00     0.031 A 
ATOM     46  C   UNL A   1      39.302  32.782  30.472  1.00  0.00     0.049 A 
ATOM     47  C   UNL A   1      44.374  30.607  31.373  1.00  0.00     0.074 A 
ATOM     48  C   UNL A   1      39.084  34.070  30.929  1.00  0.00     0.029 A 
ATOM     49  N   UNL A   1      40.617  32.466  30.778  1.00  0.00    -0.354 N 
ATOM     50  N   UNL A   1      43.238  31.249  31.241  1.00  0.00    -0.248 NA
ATOM     51  C   UNL A   1      45.452  31.412  31.967  1.00  0.00     0.031 C 
ATOM     52  C   UNL A   1      40.286  34.557  31.453  1.00  0.00     0.029 A 
ATOM     53  C   UNL A   1      41.232  33.545  31.391  1.00  0.00     0.049 A 
ATOM     54  H   UNL A   1      41.050  31.603  30.587  1.00  0.00     0.167 HD
ATOM     55  C   UNL A   1      43.456  32.519  31.763  1.00  0.00     0.074 A 
ATOM     56  C   UNL A   1      44.827  32.551  32.228  1.00  0.00     0.031 C 
ATOM     57  C   UNL A   1      42.597  33.564  31.851  1.00  0.00     0.031 A 
BRANCH  44  58
ATOM     58  C   UNL A   1      36.999  32.407  29.500  1.00  0.00    -0.014 A 
ATOM     59  C   UNL A   1      36.735  33.200  28.371  1.00  0.00     0.009 A 
ATOM     60  C   UNL A   1      35.934  32.063  30.349  1.00  0.00     0.009 A 
ATOM     61  C   UNL A   1      35.442  33.666  28.120  1.00  0.00     0.001 A 
ATOM     62  C   UNL A   1      34.638  32.503  30.078  1.00  0.00     0.001 A 
ATOM     63  C   UNL A   1      34.395  33.313  28.970  1.00  0.00     0.000 A 
ENDBRANCH  44  58
BRANCH  45  64
ATOM     64  C   UNL A   1      46.080  28.649  31.246  1.00  0.00    -0.014 A 
ATOM     65  C   UNL A   1      47.048  28.672  30.231  1.00  0.00     0.009 A 
ATOM     66  C   UNL A   1      46.417  28.081  32.487  1.00  0.00     0.009 A 
ATOM     67  C   UNL A   1      48.311  28.113  30.441  1.00  0.00     0.001 A 
ATOM     68  C   UNL A   1      47.691  27.555  32.707  1.00  0.00     0.001 A 
ATOM     69  C   UNL A   1      48.634  27.561  31.680  1.00  0.00     0.000 A 
ENDBRANCH  45  64
BRANCH  57  70
ATOM     70  C   UNL A   1      43.097  34.818  32.517  1.00  0.00    -0.014 A 
ATOM     71  C   UNL A   1      43.932  35.725  31.847  1.00  0.00     0.009 A 
ATOM     72  C   UNL A   1      42.685  35.115  33.828  1.00  0.00     0.009 A 
ATOM     73  C   UNL A   1      44.373  36.884  32.488  1.00  0.00     0.001 A 
ATOM     74  C   UNL A   1      43.101  36.291  34.454  1.00  0.00     0.001 A 
ATOM     75  C   UNL A   1      43.953  37.169  33.787  1.00  0.00     0.000 A 
ENDBRANCH  57  70
ENDBRANCH  31  32
ENDBRANCH  24  26
ENDBRANCH  23  24
ENDBRANCH  22  23
ENDBRANCH  21  22
ENDBRANCH   1  21
TORSDOF 17
ENDMDL
MODEL 3
REMARK VINA RESULT:      -8.4      4.782      9.412
REMARK SMILES CC[C@@H](NS(=O)(=O)c1ccc(CC#N)cc1)C(=O)OCCOC(=O)c1ccc(-c2c3nc(c(-c4ccccc4)c4ccc([nH]4)c(-c4ccccc4)c4nc(c(-c5ccccc5)c5ccc2[nH]5)C=C4)C=C3)cc1
REMARK SMILES IDX 19 1 17 2 18 3 3 4 2 5 1 6 4 7 5 9 6 10 7 11 8 12 9 13 16 14
REMARK SMILES IDX 10 15 15 16 11 17 12 18 13 19 14 20 20 21 21 22 22 23 23 24
REMARK SMILES IDX 24 25 25 26 26 27 72 28 27 29 71 30 28 31 29 32 30 33 65 34
REMARK SMILES IDX 31 35 70 36 64 37 66 38 32 39 69 40 63 41 62 42 33 44 55 45
REMARK SMILES IDX 40 46 54 47 41 48 44 49 53 50 67 51 42 52 43 53 52 55 68 56
REMARK SMILES IDX 45 57 34 58 35 59 39 60 36 61 38 62 37 63 56 64 57 65 61 66
REMARK SMILES IDX 58 67 60 68 59 69 46 70 47 71 51 72 48 73 50 74 49 75
REMARK H PARENT 4 8 66 43 44 54
REMARK Flexibility Score: inf
ROOT
ATOM      1  O   UNL A   1      34.100  20.678  24.208  1.00  0.00    -0.461 OA
ENDROOT
BRANCH   1   2
ATOM      2  C   UNL A   1      32.902  20.707  24.839  1.00  0.00     0.324 C 
ATOM      3  O   UNL A   1      32.402  19.723  25.365  1.00  0.00    -0.250 OA
BRANCH   2   4
ATOM      4  C   UNL A   1      32.162  22.024  24.805  1.00  0.00     0.179 C 
BRANCH   4   5
ATOM      5  C   UNL A   1      31.777  22.398  23.370  1.00  0.00     0.028 C 
ATOM      6  C   UNL A   1      32.580  23.579  22.837  1.00  0.00     0.006 C 
ENDBRANCH   4   5
BRANCH   4   7
ATOM      7  N   UNL A   1      31.018  21.988  25.752  1.00  0.00    -0.197 NA
ATOM      8  H   UNL A   1      31.056  21.094  26.239  1.00  0.00     0.142 HD
BRANCH   7   9
ATOM      9  S   UNL A   1      30.923  23.212  26.941  1.00  0.00     0.241 S 
ATOM     10  O   UNL A   1      29.595  23.158  27.505  1.00  0.00    -0.207 OA
ATOM     11  O   UNL A   1      32.096  23.025  27.772  1.00  0.00    -0.207 OA
BRANCH   9  12
ATOM     12  C   UNL A   1      31.127  24.756  26.074  1.00  0.00     0.082 A 
ATOM     13  C   UNL A   1      30.146  25.232  25.205  1.00  0.00     0.022 A 
ATOM     14  C   UNL A   1      32.280  25.513  26.291  1.00  0.00     0.022 A 
ATOM     15  C   UNL A   1      30.240  26.540  24.699  1.00  0.00     0.006 A 
ATOM     16  C   UNL A   1      32.332  26.841  25.856  1.00  0.00     0.006 A 
ATOM     17  C   UNL A   1      31.289  27.390  25.092  1.00  0.00    -0.034 A 
BRANCH  17  18
ATOM     18  C   UNL A   1      31.402  28.831  24.603  1.00  0.00     0.155 C 
BRANCH  18  19
ATOM     19  C   UNL A   1      31.811  29.639  25.825  1.00  0.00     0.067 C 
ATOM     20  N   UNL A   1      32.152  30.310  26.837  1.00  0.00    -0.198 NA
ENDBRANCH  18  19
ENDBRANCH  17  18
ENDBRANCH   9  12
ENDBRANCH   7   9
ENDBRANCH   4   7
ENDBRANCH   2   4
ENDBRANCH   1   2
BRANCH   1  21
ATOM     21  C   UNL A   1      35.153  20.087  25.000  1.00  0.00     0.274 C 
BRANCH  21  22
ATOM     22  C   UNL A   1      36.156  21.087  25.617  1.00  0.00     0.275 C 
BRANCH  22  23
ATOM     23  O   UNL A   1      37.391  21.250  24.877  1.00  0.00    -0.458 OA
BRANCH  23  24
ATOM     24  C   UNL A   1      38.522  20.899  25.546  1.00  0.00     0.338 C 
ATOM     25  O   UNL A   1      39.048  19.796  25.537  1.00  0.00    -0.246 OA
BRANCH  24  26
ATOM     26  C   UNL A   1      39.199  22.082  26.135  1.00  0.00     0.060 A 
ATOM     27  C   UNL A   1      38.687  23.350  25.817  1.00  0.00     0.016 A 
ATOM     28  C   UNL A   1      40.349  21.980  26.913  1.00  0.00     0.016 A 
ATOM     29  C   UNL A   1      39.297  24.512  26.280  1.00  0.00     0.010 A 
ATOM     30  C   UNL A   1      40.990  23.153  27.347  1.00  0.00     0.010 A 
ATOM     31  C   UNL A   1      40.475  24.425  27.021  1.00  0.00    -0.014 A 
BRANCH  31  32
ATOM     32  C   UNL A   1      41.235  25.664  27.322  1.00  0.00     0.031 A 
ATOM     33  C   UNL A   1      40.616  26.696  28.224  1.00  0.00     0.074 A 
ATOM     34  C   UNL A   1      42.480  25.851  26.846  1.00  0.00     0.049 A 
ATOM     35  N   UNL A   1      41.054  27.886  28.550  1.00  0.00    -0.248 NA
ATOM     36  C   UNL A   1      39.332  26.334  28.845  1.00  0.00     0.031 C 
ATOM     37  C   UNL A   1      43.233  24.891  26.042  1.00  0.00     0.029 A 
ATOM     38  N   UNL A   1      43.328  26.924  26.972  1.00  0.00    -0.354 N 
ATOM     39  C   UNL A   1      40.089  28.423  29.393  1.00  0.00     0.074 A 
ATOM     40  C   UNL A   1      39.035  27.439  29.512  1.00  0.00     0.031 C 
ATOM     41  C   UNL A   1      44.427  25.426  25.731  1.00  0.00     0.029 A 
ATOM     42  C   UNL A   1      44.502  26.781  26.272  1.00  0.00     0.049 A 
ATOM     43  H   UNL A   1      43.115  27.720  27.512  1.00  0.00     0.167 HD
ATOM     44  C   UNL A   1      40.082  29.628  30.012  1.00  0.00     0.031 A 
ATOM     45  C   UNL A   1      45.503  27.657  26.060  1.00  0.00     0.031 A 
ATOM     46  C   UNL A   1      41.127  30.609  29.884  1.00  0.00     0.049 A 
ATOM     47  C   UNL A   1      45.422  29.032  26.671  1.00  0.00     0.074 A 
ATOM     48  C   UNL A   1      41.208  31.863  30.463  1.00  0.00     0.029 A 
ATOM     49  N   UNL A   1      42.273  30.447  29.122  1.00  0.00    -0.354 N 
ATOM     50  N   UNL A   1      44.498  29.539  27.451  1.00  0.00    -0.248 NA
ATOM     51  C   UNL A   1      46.527  29.956  26.370  1.00  0.00     0.031 C 
ATOM     52  C   UNL A   1      42.371  32.485  30.000  1.00  0.00     0.029 A 
ATOM     53  C   UNL A   1      43.053  31.589  29.191  1.00  0.00     0.049 A 
ATOM     54  H   UNL A   1      42.500  29.639  28.606  1.00  0.00     0.167 HD
ATOM     55  C   UNL A   1      44.925  30.825  27.760  1.00  0.00     0.074 A 
ATOM     56  C   UNL A   1      46.198  31.015  27.096  1.00  0.00     0.031 C 
ATOM     57  C   UNL A   1      44.319  31.765  28.527  1.00  0.00     0.031 A 
BRANCH  44  58
ATOM     58  C   UNL A   1      38.876  29.972  30.842  1.00  0.00    -0.014 A 
ATOM     59  C   UNL A   1      37.726  30.540  30.271  1.00  0.00     0.009 A 
ATOM     60  C   UNL A   1      38.883  29.698  32.220  1.00  0.00     0.009 A 
ATOM     61  C   UNL A   1      36.624  30.860  31.068  1.00  0.00     0.001 A 
ATOM     62  C   UNL A   1      37.768  29.989  33.008  1.00  0.00     0.001 A 
ATOM     63  C   UNL A   1      36.644  30.579  32.434  1.00  0.00     0.000 A 
ENDBRANCH  44  58
BRANCH  45  64
ATOM     64  C   UNL A   1      46.653  27.284  25.190  1.00  0.00    -0.014 A 
ATOM     65  C   UNL A   1      47.656  26.417  25.651  1.00  0.00     0.009 A 
ATOM     66  C   UNL A   1      46.768  27.822  23.898  1.00  0.00     0.009 A 
ATOM     67  C   UNL A   1      48.762  26.122  24.850  1.00  0.00     0.001 A 
ATOM     68  C   UNL A   1      47.855  27.497  23.085  1.00  0.00     0.001 A 
ATOM     69  C   UNL A   1      48.858  26.657  23.566  1.00  0.00     0.000 A 
ENDBRANCH  45  64
BRANCH  57  70
ATOM     70  C   UNL A   1      45.045  33.068  28.731  1.00  0.00    -0.014 A 
ATOM     71  C   UNL A   1      46.014  33.221  29.734  1.00  0.00     0.009 A 
ATOM     72  C   UNL A   1      44.782  34.147  27.870  1.00  0.00     0.009 A 
ATOM     73  C   UNL A   1      46.677  34.440  29.894  1.00  0.00     0.001 A 
ATOM     74  C   UNL A   1      45.472  35.353  28.011  1.00  0.00     0.001 A 
ATOM     75  C   UNL A   1      46.410  35.501  29.030  1.00  0.00     0.000 A 
ENDBRANCH  57  70
ENDBRANCH  31  32
ENDBRANCH  24  26
ENDBRANCH  23  24
ENDBRANCH  22  23
ENDBRANCH  21  22
ENDBRANCH   1  21
TORSDOF 17
ENDMDL
