MODEL 1
REMARK VINA RESULT:      -9.4      0.000      0.000
REMARK SMILES O=C(OCCOC(=O)[C@@H]1Sc2c(sc(=O)n2Cc2ccccc2)[C@H]2c3ccccc3OC(=O)[C@@H]21)c1ccc(-c2c3nc(c(-c4ccccc4)c4ccc([nH]4)c(-c4ccccc4)c4nc(c(-c5ccccc5)c5ccc2[nH]5)C=C4)C=C3)cc1
REMARK SMILES IDX 4 1 3 2 2 3 1 4 35 5 36 6 82 7 37 8 81 9 38 10 39 11 40 12
REMARK SMILES IDX 75 13 41 14 80 15 74 16 76 17 42 18 79 19 73 20 72 21 43 23
REMARK SMILES IDX 65 24 50 25 64 26 51 27 54 28 63 29 77 30 52 31 53 32 62 34
REMARK SMILES IDX 78 35 55 36 44 37 45 38 49 39 46 40 48 41 47 42 66 43 67 44
REMARK SMILES IDX 71 45 68 46 70 47 69 48 56 49 57 50 61 51 58 52 60 53 59 54
REMARK SMILES IDX 5 55 6 56 7 57 8 58 9 59 10 60 34 61 11 62 24 63 32 64 12 65
REMARK SMILES IDX 16 66 25 67 31 68 33 69 13 70 14 71 26 72 30 73 15 74 27 75
REMARK SMILES IDX 29 76 28 77 17 78 18 79 19 80 23 81 20 82 22 83 21 84
REMARK H PARENT 76 22 54 33
REMARK Flexibility Score: inf
ROOT
ATOM      1  C   UNL A   1      35.543  33.820  30.034  1.00  0.00     0.275 C 
ENDROOT
BRANCH   1   2
ATOM      2  O   UNL A   1      34.824  32.579  29.875  1.00  0.00    -0.458 OA
BRANCH   2   3
ATOM      3  C   UNL A   1      34.790  31.807  28.757  1.00  0.00     0.338 C 
ATOM      4  O   UNL A   1      33.898  31.897  27.923  1.00  0.00    -0.246 OA
BRANCH   3   5
ATOM      5  C   UNL A   1      35.785  30.725  28.634  1.00  0.00     0.060 A 
ATOM      6  C   UNL A   1      36.205  30.124  29.811  1.00  0.00     0.016 A 
ATOM      7  C   UNL A   1      36.379  30.365  27.425  1.00  0.00     0.016 A 
ATOM      8  C   UNL A   1      37.391  29.405  29.801  1.00  0.00     0.010 A 
ATOM      9  C   UNL A   1      37.595  29.672  27.440  1.00  0.00     0.010 A 
ATOM     10  C   UNL A   1      38.192  29.343  28.658  1.00  0.00    -0.014 A 
BRANCH  10  11
ATOM     11  C   UNL A   1      39.651  29.064  28.874  1.00  0.00     0.031 A 
ATOM     12  C   UNL A   1      40.040  27.444  28.395  1.00  0.00     0.074 A 
ATOM     13  C   UNL A   1      40.454  30.089  29.455  1.00  0.00     0.049 A 
ATOM     14  N   UNL A   1      40.702  26.475  29.004  1.00  0.00    -0.248 NA
ATOM     15  C   UNL A   1      39.606  26.932  27.082  1.00  0.00     0.031 C 
ATOM     16  C   UNL A   1      40.145  31.507  29.791  1.00  0.00     0.029 A 
ATOM     17  N   UNL A   1      41.802  30.137  29.836  1.00  0.00    -0.354 N 
ATOM     18  C   UNL A   1      41.169  25.497  28.117  1.00  0.00     0.074 A 
ATOM     19  C   UNL A   1      40.224  25.733  27.012  1.00  0.00     0.031 C 
ATOM     20  C   UNL A   1      41.283  32.211  30.076  1.00  0.00     0.029 A 
ATOM     21  C   UNL A   1      42.429  31.321  30.095  1.00  0.00     0.049 A 
ATOM     22  H   UNL A   1      42.308  29.297  29.919  1.00  0.00     0.167 HD
ATOM     23  C   UNL A   1      42.368  24.726  28.153  1.00  0.00     0.031 A 
ATOM     24  C   UNL A   1      43.797  31.454  30.077  1.00  0.00     0.031 A 
ATOM     25  C   UNL A   1      43.441  24.584  29.318  1.00  0.00     0.049 A 
ATOM     26  C   UNL A   1      44.648  30.173  30.424  1.00  0.00     0.074 A 
ATOM     27  C   UNL A   1      44.429  23.707  29.804  1.00  0.00     0.029 A 
ATOM     28  N   UNL A   1      43.592  25.504  30.343  1.00  0.00    -0.354 N 
ATOM     29  N   UNL A   1      44.497  29.373  31.460  1.00  0.00    -0.248 NA
ATOM     30  C   UNL A   1      45.726  29.697  29.541  1.00  0.00     0.031 C 
ATOM     31  C   UNL A   1      45.228  24.358  30.887  1.00  0.00     0.029 A 
ATOM     32  C   UNL A   1      44.803  25.672  31.024  1.00  0.00     0.049 A 
ATOM     33  H   UNL A   1      42.820  26.058  30.602  1.00  0.00     0.167 HD
ATOM     34  C   UNL A   1      45.244  28.184  31.232  1.00  0.00     0.074 A 
ATOM     35  C   UNL A   1      46.049  28.508  30.075  1.00  0.00     0.031 C 
ATOM     36  C   UNL A   1      44.962  26.951  31.822  1.00  0.00     0.031 A 
BRANCH  23  37
ATOM     37  C   UNL A   1      42.876  24.245  26.759  1.00  0.00    -0.014 A 
ATOM     38  C   UNL A   1      43.935  24.881  26.068  1.00  0.00     0.009 A 
ATOM     39  C   UNL A   1      42.472  23.018  26.214  1.00  0.00     0.009 A 
ATOM     40  C   UNL A   1      44.505  24.376  24.891  1.00  0.00     0.001 A 
ATOM     41  C   UNL A   1      43.087  22.463  25.077  1.00  0.00     0.001 A 
ATOM     42  C   UNL A   1      44.091  23.149  24.406  1.00  0.00     0.000 A 
ENDBRANCH  23  37
BRANCH  24  43
ATOM     43  C   UNL A   1      44.440  32.616  29.357  1.00  0.00    -0.014 A 
ATOM     44  C   UNL A   1      44.109  32.904  28.013  1.00  0.00     0.009 A 
ATOM     45  C   UNL A   1      45.536  33.315  29.891  1.00  0.00     0.009 A 
ATOM     46  C   UNL A   1      44.831  33.822  27.241  1.00  0.00     0.001 A 
ATOM     47  C   UNL A   1      46.285  34.212  29.106  1.00  0.00     0.001 A 
ATOM     48  C   UNL A   1      45.934  34.462  27.782  1.00  0.00     0.000 A 
ENDBRANCH  24  43
BRANCH  36  49
ATOM     49  C   UNL A   1      44.595  27.048  33.291  1.00  0.00    -0.014 A 
ATOM     50  C   UNL A   1      43.289  26.706  33.669  1.00  0.00     0.009 A 
ATOM     51  C   UNL A   1      45.518  27.281  34.334  1.00  0.00     0.009 A 
ATOM     52  C   UNL A   1      42.944  26.544  35.019  1.00  0.00     0.001 A 
ATOM     53  C   UNL A   1      45.183  27.102  35.680  1.00  0.00     0.001 A 
ATOM     54  C   UNL A   1      43.895  26.721  36.022  1.00  0.00     0.000 A 
ENDBRANCH  36  49
ENDBRANCH  10  11
ENDBRANCH   3   5
ENDBRANCH   2   3
ENDBRANCH   1   2
BRANCH   1  55
ATOM     55  C   UNL A   1      36.950  33.715  30.624  1.00  0.00     0.274 C 
BRANCH  55  56
ATOM     56  O   UNL A   1      37.324  34.789  31.493  1.00  0.00    -0.461 OA
BRANCH  56  57
ATOM     57  C   UNL A   1      36.966  34.618  32.797  1.00  0.00     0.320 C 
ATOM     58  O   UNL A   1      35.961  35.100  33.307  1.00  0.00    -0.251 OA
BRANCH  57  59
ATOM     59  C   UNL A   1      38.049  33.903  33.613  1.00  0.00     0.178 C 
ATOM     60  S   UNL A   1      39.796  34.659  32.971  1.00  0.00    -0.091 SA
ATOM     61  C   UNL A   1      37.933  32.353  33.842  1.00  0.00     0.137 C 
ATOM     62  C   UNL A   1      40.900  33.482  33.566  1.00  0.00     0.094 A 
ATOM     63  C   UNL A   1      39.180  31.714  33.301  1.00  0.00     0.082 C 
ATOM     64  C   UNL A   1      36.721  31.631  33.279  1.00  0.00     0.317 C 
ATOM     65  C   UNL A   1      40.365  32.321  33.962  1.00  0.00     0.049 A 
ATOM     66  N   UNL A   1      42.302  33.607  33.816  1.00  0.00    -0.289 N 
ATOM     67  C   UNL A   1      39.213  30.225  33.127  1.00  0.00     0.004 A 
ATOM     68  O   UNL A   1      36.801  30.230  33.262  1.00  0.00    -0.426 OA
ATOM     69  O   UNL A   1      35.679  32.194  32.973  1.00  0.00    -0.251 OA
ATOM     70  S   UNL A   1      41.254  31.580  35.199  1.00  0.00    -0.077 S 
ATOM     71  C   UNL A   1      42.601  32.641  34.830  1.00  0.00     0.308 A 
ATOM     72  C   UNL A   1      40.390  29.531  32.778  1.00  0.00     0.008 A 
ATOM     73  C   UNL A   1      38.020  29.530  33.146  1.00  0.00     0.134 A 
ATOM     74  O   UNL A   1      43.609  32.422  35.490  1.00  0.00    -0.257 OA
ATOM     75  C   UNL A   1      40.373  28.159  32.543  1.00  0.00     0.001 A 
ATOM     76  C   UNL A   1      37.985  28.153  32.914  1.00  0.00     0.047 A 
ATOM     77  C   UNL A   1      39.170  27.467  32.620  1.00  0.00     0.004 A 
BRANCH  66  78
ATOM     78  C   UNL A   1      43.252  34.689  32.789  1.00  0.00     0.163 C 
BRANCH  78  79
ATOM     79  C   UNL A   1      43.037  35.522  31.126  1.00  0.00    -0.028 A 
ATOM     80  C   UNL A   1      43.857  36.575  30.583  1.00  0.00     0.005 A 
ATOM     81  C   UNL A   1      42.156  35.188  30.068  1.00  0.00     0.005 A 
ATOM     82  C   UNL A   1      43.745  37.241  29.327  1.00  0.00     0.000 A 
ATOM     83  C   UNL A   1      41.973  35.843  28.812  1.00  0.00     0.000 A 
ATOM     84  C   UNL A   1      42.766  36.892  28.440  1.00  0.00     0.000 A 
ENDBRANCH  78  79
ENDBRANCH  66  78
ENDBRANCH  57  59
ENDBRANCH  56  57
ENDBRANCH  55  56
ENDBRANCH   1  55
TORSDOF 13
ENDMDL
MODEL 2
REMARK VINA RESULT:      -9.2      4.938     10.380
REMARK SMILES O=C(OCCOC(=O)[C@@H]1Sc2c(sc(=O)n2Cc2ccccc2)[C@H]2c3ccccc3OC(=O)[C@@H]21)c1ccc(-c2c3nc(c(-c4ccccc4)c4ccc([nH]4)c(-c4ccccc4)c4nc(c(-c5ccccc5)c5ccc2[nH]5)C=C4)C=C3)cc1
REMARK SMILES IDX 4 1 3 2 2 3 1 4 35 5 36 6 82 7 37 8 81 9 38 10 39 11 40 12
REMARK SMILES IDX 75 13 41 14 80 15 74 16 76 17 42 18 79 19 73 20 72 21 43 23
REMARK SMILES IDX 65 24 50 25 64 26 51 27 54 28 63 29 77 30 52 31 53 32 62 34
REMARK SMILES IDX 78 35 55 36 44 37 45 38 49 39 46 40 48 41 47 42 66 43 67 44
REMARK SMILES IDX 71 45 68 46 70 47 69 48 56 49 57 50 61 51 58 52 60 53 59 54
REMARK SMILES IDX 5 55 6 56 7 57 8 58 9 59 10 60 34 61 11 62 24 63 32 64 12 65
REMARK SMILES IDX 16 66 25 67 31 68 33 69 13 70 14 71 26 72 30 73 15 74 27 75
REMARK SMILES IDX 29 76 28 77 17 78 18 79 19 80 23 81 20 82 22 83 21 84
REMARK H PARENT 76 22 54 33
REMARK Flexibility Score: inf
ROOT
ATOM      1  C   UNL A   1      35.810  31.878  29.078  1.00  0.00     0.275 C 
ENDROOT
BRANCH   1   2
ATOM      2  O   UNL A   1      35.397  31.837  30.460  1.00  0.00    -0.458 OA
BRANCH   2   3
ATOM      3  C   UNL A   1      36.144  32.204  31.534  1.00  0.00     0.338 C 
ATOM      4  O   UNL A   1      36.030  33.299  32.071  1.00  0.00    -0.246 OA
BRANCH   3   5
ATOM      5  C   UNL A   1      37.230  31.302  31.961  1.00  0.00     0.060 A 
ATOM      6  C   UNL A   1      38.525  31.691  31.653  1.00  0.00     0.016 A 
ATOM      7  C   UNL A   1      37.004  30.059  32.551  1.00  0.00     0.016 A 
ATOM      8  C   UNL A   1      39.526  30.730  31.666  1.00  0.00     0.010 A 
ATOM      9  C   UNL A   1      38.016  29.092  32.520  1.00  0.00     0.010 A 
ATOM     10  C   UNL A   1      39.237  29.385  31.909  1.00  0.00    -0.014 A 
BRANCH  10  11
ATOM     11  C   UNL A   1      40.207  28.379  31.359  1.00  0.00     0.031 A 
ATOM     12  C   UNL A   1      41.468  28.061  32.505  1.00  0.00     0.074 A 
ATOM     13  C   UNL A   1      39.997  27.896  30.035  1.00  0.00     0.049 A 
ATOM     14  N   UNL A   1      42.785  28.035  32.388  1.00  0.00    -0.248 NA
ATOM     15  C   UNL A   1      41.138  27.747  33.907  1.00  0.00     0.031 C 
ATOM     16  C   UNL A   1      38.873  28.101  29.080  1.00  0.00     0.029 A 
ATOM     17  N   UNL A   1      40.727  27.019  29.218  1.00  0.00    -0.354 N 
ATOM     18  C   UNL A   1      43.407  27.315  33.415  1.00  0.00     0.074 A 
ATOM     19  C   UNL A   1      42.339  27.407  34.426  1.00  0.00     0.031 C 
ATOM     20  C   UNL A   1      38.948  27.232  28.026  1.00  0.00     0.029 A 
ATOM     21  C   UNL A   1      40.179  26.467  28.097  1.00  0.00     0.049 A 
ATOM     22  H   UNL A   1      41.655  26.798  29.459  1.00  0.00     0.167 HD
ATOM     23  C   UNL A   1      44.576  26.498  33.383  1.00  0.00     0.031 A 
ATOM     24  C   UNL A   1      40.686  25.334  27.507  1.00  0.00     0.031 A 
ATOM     25  C   UNL A   1      45.652  26.322  32.226  1.00  0.00     0.049 A 
ATOM     26  C   UNL A   1      42.228  25.058  27.687  1.00  0.00     0.074 A 
ATOM     27  C   UNL A   1      46.992  25.948  32.017  1.00  0.00     0.029 A 
ATOM     28  N   UNL A   1      45.413  26.633  30.897  1.00  0.00    -0.354 N 
ATOM     29  N   UNL A   1      43.218  25.902  27.479  1.00  0.00    -0.248 NA
ATOM     30  C   UNL A   1      42.730  23.766  28.183  1.00  0.00     0.031 C 
ATOM     31  C   UNL A   1      47.283  25.815  30.557  1.00  0.00     0.029 A 
ATOM     32  C   UNL A   1      46.107  26.018  29.849  1.00  0.00     0.049 A 
ATOM     33  H   UNL A   1      44.731  27.310  30.683  1.00  0.00     0.167 HD
ATOM     34  C   UNL A   1      44.404  25.368  28.054  1.00  0.00     0.074 A 
ATOM     35  C   UNL A   1      44.037  24.006  28.378  1.00  0.00     0.031 C 
ATOM     36  C   UNL A   1      45.493  26.134  28.468  1.00  0.00     0.031 A 
BRANCH  23  37
ATOM     37  C   UNL A   1      44.614  25.374  34.463  1.00  0.00    -0.014 A 
ATOM     38  C   UNL A   1      43.825  24.201  34.379  1.00  0.00     0.009 A 
ATOM     39  C   UNL A   1      45.599  25.347  35.460  1.00  0.00     0.009 A 
ATOM     40  C   UNL A   1      43.956  23.116  35.256  1.00  0.00     0.001 A 
ATOM     41  C   UNL A   1      45.792  24.233  36.297  1.00  0.00     0.001 A 
ATOM     42  C   UNL A   1      44.960  23.124  36.207  1.00  0.00     0.000 A 
ENDBRANCH  23  37
BRANCH  24  43
ATOM     43  C   UNL A   1      39.762  24.214  27.089  1.00  0.00    -0.014 A 
ATOM     44  C   UNL A   1      40.240  22.889  26.975  1.00  0.00     0.009 A 
ATOM     45  C   UNL A   1      38.472  24.455  26.586  1.00  0.00     0.009 A 
ATOM     46  C   UNL A   1      39.489  21.866  26.386  1.00  0.00     0.001 A 
ATOM     47  C   UNL A   1      37.729  23.436  25.960  1.00  0.00     0.001 A 
ATOM     48  C   UNL A   1      38.238  22.144  25.858  1.00  0.00     0.000 A 
ENDBRANCH  24  43
BRANCH  36  49
ATOM     49  C   UNL A   1      45.854  27.251  27.505  1.00  0.00    -0.014 A 
ATOM     50  C   UNL A   1      45.084  28.423  27.536  1.00  0.00     0.009 A 
ATOM     51  C   UNL A   1      47.018  27.276  26.705  1.00  0.00     0.009 A 
ATOM     52  C   UNL A   1      45.494  29.577  26.853  1.00  0.00     0.001 A 
ATOM     53  C   UNL A   1      47.439  28.430  26.038  1.00  0.00     0.001 A 
ATOM     54  C   UNL A   1      46.681  29.587  26.122  1.00  0.00     0.000 A 
ENDBRANCH  36  49
ENDBRANCH  10  11
ENDBRANCH   3   5
ENDBRANCH   2   3
ENDBRANCH   1   2
BRANCH   1  55
ATOM     55  C   UNL A   1      35.973  30.526  28.382  1.00  0.00     0.274 C 
BRANCH  55  56
ATOM     56  O   UNL A   1      34.760  29.789  28.199  1.00  0.00    -0.461 OA
BRANCH  56  57
ATOM     57  C   UNL A   1      34.692  29.084  27.034  1.00  0.00     0.320 C 
ATOM     58  O   UNL A   1      35.457  29.235  26.089  1.00  0.00    -0.251 OA
BRANCH  57  59
ATOM     59  C   UNL A   1      33.441  28.200  26.957  1.00  0.00     0.178 C 
ATOM     60  S   UNL A   1      34.076  26.425  26.262  1.00  0.00    -0.091 SA
ATOM     61  C   UNL A   1      32.113  28.808  26.380  1.00  0.00     0.137 C 
ATOM     62  C   UNL A   1      32.588  25.718  25.766  1.00  0.00     0.094 A 
ATOM     63  C   UNL A   1      31.688  27.963  25.214  1.00  0.00     0.082 C 
ATOM     64  C   UNL A   1      32.111  30.268  25.962  1.00  0.00     0.317 C 
ATOM     65  C   UNL A   1      31.547  26.552  25.659  1.00  0.00     0.049 A 
ATOM     66  N   UNL A   1      32.269  24.339  25.568  1.00  0.00    -0.289 N 
ATOM     67  C   UNL A   1      30.616  28.476  24.300  1.00  0.00     0.004 A 
ATOM     68  O   UNL A   1      31.006  30.683  25.202  1.00  0.00    -0.426 OA
ATOM     69  O   UNL A   1      32.934  31.085  26.351  1.00  0.00    -0.251 OA
ATOM     70  S   UNL A   1      30.065  25.791  25.967  1.00  0.00    -0.077 S 
ATOM     71  C   UNL A   1      30.855  24.236  25.777  1.00  0.00     0.308 A 
ATOM     72  C   UNL A   1      30.049  27.684  23.281  1.00  0.00     0.008 A 
ATOM     73  C   UNL A   1      30.290  29.817  24.351  1.00  0.00     0.134 A 
ATOM     74  O   UNL A   1      30.101  23.275  25.856  1.00  0.00    -0.257 OA
ATOM     75  C   UNL A   1      29.114  28.212  22.395  1.00  0.00     0.001 A 
ATOM     76  C   UNL A   1      29.352  30.363  23.471  1.00  0.00     0.047 A 
ATOM     77  C   UNL A   1      28.757  29.552  22.496  1.00  0.00     0.004 A 
BRANCH  66  78
ATOM     78  C   UNL A   1      33.539  23.248  24.998  1.00  0.00     0.163 C 
BRANCH  78  79
ATOM     79  C   UNL A   1      33.731  21.405  24.734  1.00  0.00    -0.028 A 
ATOM     80  C   UNL A   1      34.939  20.637  24.897  1.00  0.00     0.005 A 
ATOM     81  C   UNL A   1      32.733  20.431  24.477  1.00  0.00     0.005 A 
ATOM     82  C   UNL A   1      35.142  19.237  24.716  1.00  0.00     0.000 A 
ATOM     83  C   UNL A   1      32.885  19.030  24.248  1.00  0.00     0.000 A 
ATOM     84  C   UNL A   1      34.106  18.425  24.353  1.00  0.00     0.000 A 
ENDBRANCH  78  79
ENDBRANCH  66  78
ENDBRANCH  57  59
ENDBRANCH  56  57
ENDBRANCH  55  56
ENDBRANCH   1  55
TORSDOF 13
ENDMDL
MODEL 3
REMARK VINA RESULT:      -9.1      5.819     11.394
REMARK SMILES O=C(OCCOC(=O)[C@@H]1Sc2c(sc(=O)n2Cc2ccccc2)[C@H]2c3ccccc3OC(=O)[C@@H]21)c1ccc(-c2c3nc(c(-c4ccccc4)c4ccc([nH]4)c(-c4ccccc4)c4nc(c(-c5ccccc5)c5ccc2[nH]5)C=C4)C=C3)cc1
REMARK SMILES IDX 4 1 3 2 2 3 1 4 35 5 36 6 82 7 37 8 81 9 38 10 39 11 40 12
REMARK SMILES IDX 75 13 41 14 80 15 74 16 76 17 42 18 79 19 73 20 72 21 43 23
REMARK SMILES IDX 65 24 50 25 64 26 51 27 54 28 63 29 77 30 52 31 53 32 62 34
REMARK SMILES IDX 78 35 55 36 44 37 45 38 49 39 46 40 48 41 47 42 66 43 67 44
REMARK SMILES IDX 71 45 68 46 70 47 69 48 56 49 57 50 61 51 58 52 60 53 59 54
REMARK SMILES IDX 5 55 6 56 7 57 8 58 9 59 10 60 34 61 11 62 24 63 32 64 12 65
REMARK SMILES IDX 16 66 25 67 31 68 33 69 13 70 14 71 26 72 30 73 15 74 27 75
REMARK SMILES IDX 29 76 28 77 17 78 18 79 19 80 23 81 20 82 22 83 21 84
REMARK H PARENT 76 22 54 33
REMARK Flexibility Score: inf
ROOT
ATOM      1  C   UNL A   1      40.976  23.411  26.915  1.00  0.00     0.275 C 
ENDROOT
BRANCH   1   2
ATOM      2  O   UNL A   1      42.007  23.546  25.914  1.00  0.00    -0.458 OA
BRANCH   2   3
ATOM      3  C   UNL A   1      43.251  24.059  26.105  1.00  0.00     0.338 C 
ATOM      4  O   UNL A   1      44.244  23.351  26.207  1.00  0.00    -0.246 OA
BRANCH   3   5
ATOM      5  C   UNL A   1      43.370  25.509  26.349  1.00  0.00     0.060 A 
ATOM      6  C   UNL A   1      43.748  25.900  27.624  1.00  0.00     0.016 A 
ATOM      7  C   UNL A   1      43.027  26.474  25.403  1.00  0.00     0.016 A 
ATOM      8  C   UNL A   1      43.495  27.207  28.018  1.00  0.00     0.010 A 
ATOM      9  C   UNL A   1      42.740  27.776  25.828  1.00  0.00     0.010 A 
ATOM     10  C   UNL A   1      42.810  28.095  27.185  1.00  0.00    -0.014 A 
BRANCH  10  11
ATOM     11  C   UNL A   1      42.096  29.232  27.858  1.00  0.00     0.031 A 
ATOM     12  C   UNL A   1      43.151  30.596  28.031  1.00  0.00     0.074 A 
ATOM     13  C   UNL A   1      40.751  29.026  28.281  1.00  0.00     0.049 A 
ATOM     14  N   UNL A   1      43.439  31.368  29.065  1.00  0.00    -0.248 NA
ATOM     15  C   UNL A   1      43.929  31.086  26.878  1.00  0.00     0.031 C 
ATOM     16  C   UNL A   1      39.814  27.887  28.062  1.00  0.00     0.029 A 
ATOM     17  N   UNL A   1      39.839  29.836  28.973  1.00  0.00    -0.354 N 
ATOM     18  C   UNL A   1      43.980  32.603  28.687  1.00  0.00     0.074 A 
ATOM     19  C   UNL A   1      44.480  32.224  27.354  1.00  0.00     0.031 C 
ATOM     20  C   UNL A   1      38.533  28.222  28.405  1.00  0.00     0.029 A 
ATOM     21  C   UNL A   1      38.506  29.543  29.005  1.00  0.00     0.049 A 
ATOM     22  H   UNL A   1      40.168  30.634  29.446  1.00  0.00     0.167 HD
ATOM     23  C   UNL A   1      43.825  33.891  29.281  1.00  0.00     0.031 A 
ATOM     24  C   UNL A   1      37.550  30.481  29.312  1.00  0.00     0.031 A 
ATOM     25  C   UNL A   1      43.168  34.287  30.673  1.00  0.00     0.049 A 
ATOM     26  C   UNL A   1      37.983  31.668  30.256  1.00  0.00     0.074 A 
ATOM     27  C   UNL A   1      43.191  35.297  31.653  1.00  0.00     0.029 A 
ATOM     28  N   UNL A   1      42.274  33.482  31.360  1.00  0.00    -0.354 N 
ATOM     29  N   UNL A   1      38.612  31.579  31.410  1.00  0.00    -0.248 NA
ATOM     30  C   UNL A   1      37.753  33.074  29.886  1.00  0.00     0.031 C 
ATOM     31  C   UNL A   1      42.096  35.092  32.650  1.00  0.00     0.029 A 
ATOM     32  C   UNL A   1      41.330  34.005  32.251  1.00  0.00     0.049 A 
ATOM     33  H   UNL A   1      42.305  32.509  31.217  1.00  0.00     0.167 HD
ATOM     34  C   UNL A   1      39.088  32.869  31.773  1.00  0.00     0.074 A 
ATOM     35  C   UNL A   1      38.429  33.748  30.831  1.00  0.00     0.031 C 
ATOM     36  C   UNL A   1      40.171  33.100  32.620  1.00  0.00     0.031 A 
BRANCH  23  37
ATOM     37  C   UNL A   1      43.998  35.087  28.295  1.00  0.00    -0.014 A 
ATOM     38  C   UNL A   1      42.912  35.669  27.598  1.00  0.00     0.009 A 
ATOM     39  C   UNL A   1      45.198  35.807  28.217  1.00  0.00     0.009 A 
ATOM     40  C   UNL A   1      43.022  36.835  26.829  1.00  0.00     0.001 A 
ATOM     41  C   UNL A   1      45.303  37.020  27.511  1.00  0.00     0.001 A 
ATOM     42  C   UNL A   1      44.220  37.525  26.803  1.00  0.00     0.000 A 
ENDBRANCH  23  37
BRANCH  24  43
ATOM     43  C   UNL A   1      36.306  30.606  28.464  1.00  0.00    -0.014 A 
ATOM     44  C   UNL A   1      35.372  31.641  28.701  1.00  0.00     0.009 A 
ATOM     45  C   UNL A   1      35.905  29.601  27.568  1.00  0.00     0.009 A 
ATOM     46  C   UNL A   1      34.111  31.669  28.095  1.00  0.00     0.001 A 
ATOM     47  C   UNL A   1      34.624  29.608  26.985  1.00  0.00     0.001 A 
ATOM     48  C   UNL A   1      33.727  30.639  27.251  1.00  0.00     0.000 A 
ENDBRANCH  24  43
BRANCH  36  49
ATOM     49  C   UNL A   1      40.203  32.187  33.833  1.00  0.00    -0.014 A 
ATOM     50  C   UNL A   1      39.136  32.260  34.740  1.00  0.00     0.009 A 
ATOM     51  C   UNL A   1      41.132  31.142  34.026  1.00  0.00     0.009 A 
ATOM     52  C   UNL A   1      38.975  31.297  35.748  1.00  0.00     0.001 A 
ATOM     53  C   UNL A   1      40.965  30.170  35.017  1.00  0.00     0.001 A 
ATOM     54  C   UNL A   1      39.877  30.242  35.873  1.00  0.00     0.000 A 
ENDBRANCH  36  49
ENDBRANCH  10  11
ENDBRANCH   3   5
ENDBRANCH   2   3
ENDBRANCH   1   2
BRANCH   1  55
ATOM     55  C   UNL A   1      39.795  24.376  26.803  1.00  0.00     0.274 C 
BRANCH  55  56
ATOM     56  O   UNL A   1      38.873  24.085  25.748  1.00  0.00    -0.461 OA
BRANCH  56  57
ATOM     57  C   UNL A   1      37.585  23.892  26.154  1.00  0.00     0.320 C 
ATOM     58  O   UNL A   1      37.247  23.711  27.318  1.00  0.00    -0.251 OA
BRANCH  57  59
ATOM     59  C   UNL A   1      36.615  23.747  24.975  1.00  0.00     0.178 C 
ATOM     60  S   UNL A   1      35.163  25.096  25.302  1.00  0.00    -0.091 SA
ATOM     61  C   UNL A   1      36.217  22.307  24.489  1.00  0.00     0.137 C 
ATOM     62  C   UNL A   1      33.939  24.521  24.238  1.00  0.00     0.094 A 
ATOM     63  C   UNL A   1      34.722  22.191  24.573  1.00  0.00     0.082 C 
ATOM     64  C   UNL A   1      36.848  21.112  25.183  1.00  0.00     0.317 C 
ATOM     65  C   UNL A   1      34.102  23.278  23.771  1.00  0.00     0.049 A 
ATOM     66  N   UNL A   1      32.827  25.225  23.680  1.00  0.00    -0.289 N 
ATOM     67  C   UNL A   1      34.093  20.836  24.444  1.00  0.00     0.004 A 
ATOM     68  O   UNL A   1      36.257  19.869  24.911  1.00  0.00    -0.426 OA
ATOM     69  O   UNL A   1      37.879  21.176  25.838  1.00  0.00    -0.251 OA
ATOM     70  S   UNL A   1      33.422  23.062  22.234  1.00  0.00    -0.077 S 
ATOM     71  C   UNL A   1      32.515  24.547  22.457  1.00  0.00     0.308 A 
ATOM     72  C   UNL A   1      32.697  20.656  24.353  1.00  0.00     0.008 A 
ATOM     73  C   UNL A   1      34.893  19.719  24.587  1.00  0.00     0.134 A 
ATOM     74  O   UNL A   1      31.747  24.810  21.541  1.00  0.00    -0.257 OA
ATOM     75  C   UNL A   1      32.137  19.382  24.317  1.00  0.00     0.001 A 
ATOM     76  C   UNL A   1      34.348  18.434  24.551  1.00  0.00     0.047 A 
ATOM     77  C   UNL A   1      32.964  18.268  24.407  1.00  0.00     0.004 A 
BRANCH  66  78
ATOM     78  C   UNL A   1      32.079  26.516  24.629  1.00  0.00     0.163 C 
BRANCH  78  79
ATOM     79  C   UNL A   1      31.104  28.075  24.274  1.00  0.00    -0.028 A 
ATOM     80  C   UNL A   1      29.922  28.178  23.456  1.00  0.00     0.005 A 
ATOM     81  C   UNL A   1      31.250  29.367  24.838  1.00  0.00     0.005 A 
ATOM     82  C   UNL A   1      29.139  29.331  23.156  1.00  0.00     0.000 A 
ATOM     83  C   UNL A   1      30.524  30.561  24.544  1.00  0.00     0.000 A 
ATOM     84  C   UNL A   1      29.464  30.549  23.681  1.00  0.00     0.000 A 
ENDBRANCH  78  79
ENDBRANCH  66  78
ENDBRANCH  57  59
ENDBRANCH  56  57
ENDBRANCH  55  56
ENDBRANCH   1  55
TORSDOF 13
ENDMDL
