MODEL 1
REMARK VINA RESULT:     -12.5      0.000      0.000
REMARK SMILES CC(=O)O[C@@H]1CC[C@]23C(=O)O[C@]4(CC[C@]2(O)C1)[C@H]3CC[C@]1(C)[C@H](C(=O)OCCOC(=O)c2ccc(-c3c5nc(c(-c6ccccc6)c6ccc([nH]6)c(-c6ccccc6)c6nc(c(-c7ccccc7)c7ccc3[nH]7)C=C6)C=C5)cc2)CC[C@@H]14
REMARK SMILES IDX 27 1 26 2 24 3 25 4 23 5 5 6 6 7 17 8 7 9 15 10 8 11 14 12
REMARK SMILES IDX 9 13 18 14 13 15 10 16 11 17 12 18 19 19 82 20 20 21 21 22
REMARK SMILES IDX 81 23 22 24 80 25 4 26 2 27 1 28 3 29 16 30 28 32 29 33
REMARK SMILES IDX 30 34 31 35 32 36 33 37 79 38 34 39 78 40 35 41 36 42 37 43
REMARK SMILES IDX 72 44 38 45 77 46 71 47 73 48 39 49 76 50 70 51 69 52 40 54
REMARK SMILES IDX 62 55 47 56 61 57 48 58 51 59 60 60 74 61 49 62 50 63 59 65
REMARK SMILES IDX 75 66 52 67 41 68 42 69 46 70 43 71 45 72 44 73 63 74 64 75
REMARK SMILES IDX 68 76 65 77 67 78 66 79 53 80 54 81 58 82 55 83 57 84 56 85
REMARK H PARENT 16 31 73 53 51 64
REMARK Flexibility Score: inf
ROOT
ATOM      1  C   UNL A   1      30.663  29.317  24.484  1.00  0.00     0.274 C 
ENDROOT
BRANCH   1   2
ATOM      2  O   UNL A   1      31.368  28.852  23.319  1.00  0.00    -0.462 OA
BRANCH   2   3
ATOM      3  C   UNL A   1      31.641  27.525  23.310  1.00  0.00     0.309 C 
ATOM      4  O   UNL A   1      31.894  26.876  22.298  1.00  0.00    -0.252 OA
BRANCH   3   5
ATOM      5  C   UNL A   1      31.833  26.951  24.702  1.00  0.00     0.105 C 
ATOM      6  C   UNL A   1      37.350  21.355  24.599  1.00  0.00     0.179 C 
ATOM      7  C   UNL A   1      37.007  22.453  23.618  1.00  0.00     0.047 C 
ATOM      8  C   UNL A   1      36.085  20.474  24.720  1.00  0.00     0.081 C 
ATOM      9  C   UNL A   1      35.855  23.224  24.196  1.00  0.00     0.026 C 
ATOM     10  C   UNL A   1      34.741  21.223  25.040  1.00  0.00     0.085 C 
ATOM     11  C   UNL A   1      34.386  22.327  24.055  1.00  0.00     0.103 C 
ATOM     12  C   UNL A   1      34.709  21.777  26.508  1.00  0.00     0.041 C 
ATOM     13  C   UNL A   1      33.917  23.493  23.341  1.00  0.00     0.316 C 
ATOM     14  C   UNL A   1      32.839  22.725  24.914  1.00  0.00     0.054 C 
ATOM     15  C   UNL A   1      34.295  23.305  26.672  1.00  0.00     0.052 C 
ATOM     16  O   UNL A   1      33.808  23.602  22.104  1.00  0.00    -0.251 OA
ATOM     17  O   UNL A   1      33.850  24.498  24.284  1.00  0.00    -0.458 OA
ATOM     18  C   UNL A   1      33.382  23.937  25.541  1.00  0.00     0.120 C 
ATOM     19  C   UNL A   1      31.478  23.025  24.206  1.00  0.00     0.009 C 
ATOM     20  C   UNL A   1      32.507  25.037  26.111  1.00  0.00     0.040 C 
ATOM     21  C   UNL A   1      31.131  24.515  23.950  1.00  0.00     0.008 C 
ATOM     22  C   UNL A   1      31.388  25.508  25.125  1.00  0.00    -0.013 C 
ATOM     23  C   UNL A   1      33.397  26.281  26.364  1.00  0.00     0.009 C 
ATOM     24  C   UNL A   1      30.087  25.648  25.955  1.00  0.00     0.013 C 
ATOM     25  C   UNL A   1      33.301  27.103  25.097  1.00  0.00     0.016 C 
BRANCH   6  26
ATOM     26  O   UNL A   1      37.725  21.785  25.941  1.00  0.00    -0.462 OA
BRANCH  26  27
ATOM     27  C   UNL A   1      38.899  22.415  26.219  1.00  0.00     0.302 C 
ATOM     28  C   UNL A   1      38.666  23.859  26.555  1.00  0.00     0.139 C 
ATOM     29  O   UNL A   1      40.017  21.922  26.183  1.00  0.00    -0.253 OA
ENDBRANCH  26  27
ENDBRANCH   6  26
BRANCH  10  30
ATOM     30  O   UNL A   1      33.729  20.203  24.858  1.00  0.00    -0.389 OA
ATOM     31  H   UNL A   1      33.217  20.395  24.057  1.00  0.00     0.211 HD
ENDBRANCH  10  30
ENDBRANCH   3   5
ENDBRANCH   2   3
ENDBRANCH   1   2
BRANCH   1  32
ATOM     32  C   UNL A   1      31.387  30.529  25.067  1.00  0.00     0.275 C 
BRANCH  32  33
ATOM     33  O   UNL A   1      32.364  30.119  26.048  1.00  0.00    -0.458 OA
BRANCH  33  34
ATOM     34  C   UNL A   1      32.800  31.111  26.857  1.00  0.00     0.338 C 
ATOM     35  O   UNL A   1      32.196  32.115  27.196  1.00  0.00    -0.246 OA
BRANCH  34  36
ATOM     36  C   UNL A   1      34.168  30.846  27.332  1.00  0.00     0.060 A 
ATOM     37  C   UNL A   1      34.572  29.544  27.617  1.00  0.00     0.016 A 
ATOM     38  C   UNL A   1      34.975  31.923  27.692  1.00  0.00     0.016 A 
ATOM     39  C   UNL A   1      35.700  29.326  28.403  1.00  0.00     0.010 A 
ATOM     40  C   UNL A   1      36.186  31.688  28.350  1.00  0.00     0.010 A 
ATOM     41  C   UNL A   1      36.540  30.391  28.758  1.00  0.00    -0.014 A 
BRANCH  41  42
ATOM     42  C   UNL A   1      37.787  30.150  29.539  1.00  0.00     0.031 A 
ATOM     43  C   UNL A   1      38.925  29.353  28.951  1.00  0.00     0.074 A 
ATOM     44  C   UNL A   1      37.897  30.636  30.792  1.00  0.00     0.049 A 
ATOM     45  N   UNL A   1      40.012  28.909  29.534  1.00  0.00    -0.248 NA
ATOM     46  C   UNL A   1      38.823  28.996  27.528  1.00  0.00     0.031 C 
ATOM     47  C   UNL A   1      36.894  31.452  31.481  1.00  0.00     0.029 A 
ATOM     48  N   UNL A   1      38.909  30.516  31.712  1.00  0.00    -0.354 N 
ATOM     49  C   UNL A   1      40.694  28.181  28.566  1.00  0.00     0.074 A 
ATOM     50  C   UNL A   1      39.893  28.232  27.361  1.00  0.00     0.031 C 
ATOM     51  C   UNL A   1      37.358  31.797  32.690  1.00  0.00     0.029 A 
ATOM     52  C   UNL A   1      38.646  31.150  32.901  1.00  0.00     0.049 A 
ATOM     53  H   UNL A   1      39.743  30.023  31.536  1.00  0.00     0.167 HD
ATOM     54  C   UNL A   1      41.878  27.529  28.668  1.00  0.00     0.031 A 
ATOM     55  C   UNL A   1      39.337  31.179  34.055  1.00  0.00     0.031 A 
ATOM     56  C   UNL A   1      42.688  27.496  29.860  1.00  0.00     0.049 A 
ATOM     57  C   UNL A   1      40.618  30.407  34.160  1.00  0.00     0.074 A 
ATOM     58  C   UNL A   1      43.907  26.872  30.060  1.00  0.00     0.029 A 
ATOM     59  N   UNL A   1      42.361  28.123  31.053  1.00  0.00    -0.354 N 
ATOM     60  N   UNL A   1      41.232  29.696  33.246  1.00  0.00    -0.248 NA
ATOM     61  C   UNL A   1      41.296  30.435  35.462  1.00  0.00     0.031 C 
ATOM     62  C   UNL A   1      44.297  27.083  31.388  1.00  0.00     0.029 A 
ATOM     63  C   UNL A   1      43.348  27.886  31.997  1.00  0.00     0.049 A 
ATOM     64  H   UNL A   1      41.549  28.658  31.207  1.00  0.00     0.167 HD
ATOM     65  C   UNL A   1      42.377  29.207  33.857  1.00  0.00     0.074 A 
ATOM     66  C   UNL A   1      42.383  29.722  35.211  1.00  0.00     0.031 C 
ATOM     67  C   UNL A   1      43.336  28.398  33.344  1.00  0.00     0.031 A 
BRANCH  54  68
ATOM     68  C   UNL A   1      42.354  26.761  27.464  1.00  0.00    -0.014 A 
ATOM     69  C   UNL A   1      42.022  25.410  27.274  1.00  0.00     0.009 A 
ATOM     70  C   UNL A   1      43.128  27.411  26.489  1.00  0.00     0.009 A 
ATOM     71  C   UNL A   1      42.488  24.718  26.153  1.00  0.00     0.001 A 
ATOM     72  C   UNL A   1      43.567  26.725  25.355  1.00  0.00     0.001 A 
ATOM     73  C   UNL A   1      43.257  25.376  25.194  1.00  0.00     0.000 A 
ENDBRANCH  54  68
BRANCH  55  74
ATOM     74  C   UNL A   1      38.809  31.939  35.218  1.00  0.00    -0.014 A 
ATOM     75  C   UNL A   1      38.143  31.275  36.258  1.00  0.00     0.009 A 
ATOM     76  C   UNL A   1      38.972  33.332  35.296  1.00  0.00     0.009 A 
ATOM     77  C   UNL A   1      37.631  31.992  37.341  1.00  0.00     0.001 A 
ATOM     78  C   UNL A   1      38.489  34.042  36.397  1.00  0.00     0.001 A 
ATOM     79  C   UNL A   1      37.810  33.373  37.413  1.00  0.00     0.000 A 
ENDBRANCH  55  74
BRANCH  67  80
ATOM     80  C   UNL A   1      44.488  28.059  34.247  1.00  0.00    -0.014 A 
ATOM     81  C   UNL A   1      44.463  26.916  35.062  1.00  0.00     0.009 A 
ATOM     82  C   UNL A   1      45.612  28.898  34.284  1.00  0.00     0.009 A 
ATOM     83  C   UNL A   1      45.525  26.644  35.927  1.00  0.00     0.001 A 
ATOM     84  C   UNL A   1      46.685  28.608  35.127  1.00  0.00     0.001 A 
ATOM     85  C   UNL A   1      46.634  27.489  35.958  1.00  0.00     0.000 A 
ENDBRANCH  67  80
ENDBRANCH  41  42
ENDBRANCH  34  36
ENDBRANCH  33  34
ENDBRANCH  32  33
ENDBRANCH   1  32
TORSDOF 14
ENDMDL
MODEL 2
REMARK VINA RESULT:     -12.4      3.164      8.780
REMARK SMILES CC(=O)O[C@@H]1CC[C@]23C(=O)O[C@]4(CC[C@]2(O)C1)[C@H]3CC[C@]1(C)[C@H](C(=O)OCCOC(=O)c2ccc(-c3c5nc(c(-c6ccccc6)c6ccc([nH]6)c(-c6ccccc6)c6nc(c(-c7ccccc7)c7ccc3[nH]7)C=C6)C=C5)cc2)CC[C@@H]14
REMARK SMILES IDX 27 1 26 2 24 3 25 4 23 5 5 6 6 7 17 8 7 9 15 10 8 11 14 12
REMARK SMILES IDX 9 13 18 14 13 15 10 16 11 17 12 18 19 19 82 20 20 21 21 22
REMARK SMILES IDX 81 23 22 24 80 25 4 26 2 27 1 28 3 29 16 30 28 32 29 33
REMARK SMILES IDX 30 34 31 35 32 36 33 37 79 38 34 39 78 40 35 41 36 42 37 43
REMARK SMILES IDX 72 44 38 45 77 46 71 47 73 48 39 49 76 50 70 51 69 52 40 54
REMARK SMILES IDX 62 55 47 56 61 57 48 58 51 59 60 60 74 61 49 62 50 63 59 65
REMARK SMILES IDX 75 66 52 67 41 68 42 69 46 70 43 71 45 72 44 73 63 74 64 75
REMARK SMILES IDX 68 76 65 77 67 78 66 79 53 80 54 81 58 82 55 83 57 84 56 85
REMARK H PARENT 16 31 73 53 51 64
REMARK Flexibility Score: inf
ROOT
ATOM      1  C   UNL A   1      35.441  19.865  25.048  1.00  0.00     0.274 C 
ENDROOT
BRANCH   1   2
ATOM      2  O   UNL A   1      34.648  20.921  24.477  1.00  0.00    -0.462 OA
BRANCH   2   3
ATOM      3  C   UNL A   1      33.313  20.801  24.674  1.00  0.00     0.309 C 
ATOM      4  O   UNL A   1      32.618  19.913  24.187  1.00  0.00    -0.252 OA
BRANCH   3   5
ATOM      5  C   UNL A   1      32.787  21.738  25.746  1.00  0.00     0.105 C 
ATOM      6  C   UNL A   1      30.892  28.683  22.594  1.00  0.00     0.179 C 
ATOM      7  C   UNL A   1      31.130  27.325  21.974  1.00  0.00     0.047 C 
ATOM      8  C   UNL A   1      32.209  29.069  23.305  1.00  0.00     0.081 C 
ATOM      9  C   UNL A   1      31.447  26.374  23.093  1.00  0.00     0.026 C 
ATOM     10  C   UNL A   1      32.802  28.007  24.300  1.00  0.00     0.085 C 
ATOM     11  C   UNL A   1      33.048  26.637  23.684  1.00  0.00     0.103 C 
ATOM     12  C   UNL A   1      31.935  27.867  25.600  1.00  0.00     0.041 C 
ATOM     13  C   UNL A   1      33.236  25.241  23.361  1.00  0.00     0.316 C 
ATOM     14  C   UNL A   1      33.711  25.957  25.229  1.00  0.00     0.054 C 
ATOM     15  C   UNL A   1      31.533  26.384  26.019  1.00  0.00     0.052 C 
ATOM     16  O   UNL A   1      33.827  24.792  22.360  1.00  0.00    -0.251 OA
ATOM     17  O   UNL A   1      32.438  24.549  24.249  1.00  0.00    -0.458 OA
ATOM     18  C   UNL A   1      32.485  25.211  25.542  1.00  0.00     0.120 C 
ATOM     19  C   UNL A   1      34.968  25.034  25.330  1.00  0.00     0.009 C 
ATOM     20  C   UNL A   1      32.448  24.057  26.527  1.00  0.00     0.040 C 
ATOM     21  C   UNL A   1      34.717  23.503  25.353  1.00  0.00     0.008 C 
ATOM     22  C   UNL A   1      33.565  22.994  26.273  1.00  0.00    -0.013 C 
ATOM     23  C   UNL A   1      31.103  23.308  26.344  1.00  0.00     0.009 C 
ATOM     24  C   UNL A   1      34.158  22.624  27.657  1.00  0.00     0.013 C 
ATOM     25  C   UNL A   1      31.392  22.212  25.341  1.00  0.00     0.016 C 
BRANCH   6  26
ATOM     26  O   UNL A   1      29.814  28.766  23.572  1.00  0.00    -0.462 OA
BRANCH  26  27
ATOM     27  C   UNL A   1      28.534  28.389  23.303  1.00  0.00     0.302 C 
ATOM     28  C   UNL A   1      27.763  29.517  22.680  1.00  0.00     0.139 C 
ATOM     29  O   UNL A   1      28.029  27.303  23.545  1.00  0.00    -0.253 OA
ENDBRANCH  26  27
ENDBRANCH   6  26
BRANCH  10  30
ATOM     30  O   UNL A   1      34.115  28.529  24.616  1.00  0.00    -0.389 OA
ATOM     31  H   UNL A   1      34.749  27.797  24.674  1.00  0.00     0.211 HD
ENDBRANCH  10  30
ENDBRANCH   3   5
ENDBRANCH   2   3
ENDBRANCH   1   2
BRANCH   1  32
ATOM     32  C   UNL A   1      36.916  20.106  24.732  1.00  0.00     0.275 C 
BRANCH  32  33
ATOM     33  O   UNL A   1      37.439  21.195  25.522  1.00  0.00    -0.458 OA
BRANCH  33  34
ATOM     34  C   UNL A   1      38.728  21.049  25.901  1.00  0.00     0.338 C 
ATOM     35  O   UNL A   1      39.431  20.058  25.780  1.00  0.00    -0.246 OA
BRANCH  34  36
ATOM     36  C   UNL A   1      39.246  22.284  26.510  1.00  0.00     0.060 A 
ATOM     37  C   UNL A   1      38.708  23.519  26.159  1.00  0.00     0.016 A 
ATOM     38  C   UNL A   1      40.412  22.221  27.272  1.00  0.00     0.016 A 
ATOM     39  C   UNL A   1      39.417  24.686  26.429  1.00  0.00     0.010 A 
ATOM     40  C   UNL A   1      41.040  23.403  27.671  1.00  0.00     0.010 A 
ATOM     41  C   UNL A   1      40.579  24.649  27.214  1.00  0.00    -0.014 A 
BRANCH  41  42
ATOM     42  C   UNL A   1      41.301  25.906  27.564  1.00  0.00     0.031 A 
ATOM     43  C   UNL A   1      40.676  26.925  28.484  1.00  0.00     0.074 A 
ATOM     44  C   UNL A   1      42.521  26.145  27.043  1.00  0.00     0.049 A 
ATOM     45  N   UNL A   1      41.082  28.138  28.772  1.00  0.00    -0.248 NA
ATOM     46  C   UNL A   1      39.427  26.538  29.157  1.00  0.00     0.031 C 
ATOM     47  C   UNL A   1      43.266  25.238  26.166  1.00  0.00     0.029 A 
ATOM     48  N   UNL A   1      43.356  27.227  27.179  1.00  0.00    -0.354 N 
ATOM     49  C   UNL A   1      40.115  28.673  29.616  1.00  0.00     0.074 A 
ATOM     50  C   UNL A   1      39.096  27.658  29.783  1.00  0.00     0.031 C 
ATOM     51  C   UNL A   1      44.460  25.777  25.882  1.00  0.00     0.029 A 
ATOM     52  C   UNL A   1      44.528  27.106  26.474  1.00  0.00     0.049 A 
ATOM     53  H   UNL A   1      43.134  28.013  27.728  1.00  0.00     0.167 HD
ATOM     54  C   UNL A   1      40.076  29.897  30.198  1.00  0.00     0.031 A 
ATOM     55  C   UNL A   1      45.535  27.979  26.285  1.00  0.00     0.031 A 
ATOM     56  C   UNL A   1      41.100  30.900  30.051  1.00  0.00     0.049 A 
ATOM     57  C   UNL A   1      45.444  29.345  26.896  1.00  0.00     0.074 A 
ATOM     58  C   UNL A   1      41.157  32.166  30.608  1.00  0.00     0.029 A 
ATOM     59  N   UNL A   1      42.252  30.746  29.295  1.00  0.00    -0.354 N 
ATOM     60  N   UNL A   1      44.507  29.846  27.662  1.00  0.00    -0.248 NA
ATOM     61  C   UNL A   1      46.549  30.267  26.606  1.00  0.00     0.031 C 
ATOM     62  C   UNL A   1      42.322  32.795  30.154  1.00  0.00     0.029 A 
ATOM     63  C   UNL A   1      43.018  31.899  29.360  1.00  0.00     0.049 A 
ATOM     64  H   UNL A   1      42.492  29.936  28.789  1.00  0.00     0.167 HD
ATOM     65  C   UNL A   1      44.918  31.138  27.961  1.00  0.00     0.074 A 
ATOM     66  C   UNL A   1      46.199  31.331  27.313  1.00  0.00     0.031 C 
ATOM     67  C   UNL A   1      44.287  32.081  28.703  1.00  0.00     0.031 A 
BRANCH  54  68
ATOM     68  C   UNL A   1      38.862  30.236  31.021  1.00  0.00    -0.014 A 
ATOM     69  C   UNL A   1      37.694  30.749  30.435  1.00  0.00     0.009 A 
ATOM     70  C   UNL A   1      38.880  30.010  32.408  1.00  0.00     0.009 A 
ATOM     71  C   UNL A   1      36.587  31.067  31.226  1.00  0.00     0.001 A 
ATOM     72  C   UNL A   1      37.761  30.300  33.191  1.00  0.00     0.001 A 
ATOM     73  C   UNL A   1      36.619  30.839  32.601  1.00  0.00     0.000 A 
ENDBRANCH  54  68
BRANCH  55  74
ATOM     74  C   UNL A   1      46.701  27.596  25.445  1.00  0.00    -0.014 A 
ATOM     75  C   UNL A   1      46.741  27.939  24.086  1.00  0.00     0.009 A 
ATOM     76  C   UNL A   1      47.780  26.889  26.000  1.00  0.00     0.009 A 
ATOM     77  C   UNL A   1      47.828  27.563  23.294  1.00  0.00     0.001 A 
ATOM     78  C   UNL A   1      48.881  26.545  25.214  1.00  0.00     0.001 A 
ATOM     79  C   UNL A   1      48.899  26.873  23.860  1.00  0.00     0.000 A 
ENDBRANCH  55  74
BRANCH  67  80
ATOM     80  C   UNL A   1      45.001  33.391  28.877  1.00  0.00    -0.014 A 
ATOM     81  C   UNL A   1      44.785  34.463  27.997  1.00  0.00     0.009 A 
ATOM     82  C   UNL A   1      45.904  33.553  29.939  1.00  0.00     0.009 A 
ATOM     83  C   UNL A   1      45.493  35.656  28.151  1.00  0.00     0.001 A 
ATOM     84  C   UNL A   1      46.589  34.756  30.109  1.00  0.00     0.001 A 
ATOM     85  C   UNL A   1      46.392  35.802  29.208  1.00  0.00     0.000 A 
ENDBRANCH  67  80
ENDBRANCH  41  42
ENDBRANCH  34  36
ENDBRANCH  33  34
ENDBRANCH  32  33
ENDBRANCH   1  32
TORSDOF 14
ENDMDL
MODEL 3
REMARK VINA RESULT:     -12.3      1.215      2.550
REMARK SMILES CC(=O)O[C@@H]1CC[C@]23C(=O)O[C@]4(CC[C@]2(O)C1)[C@H]3CC[C@]1(C)[C@H](C(=O)OCCOC(=O)c2ccc(-c3c5nc(c(-c6ccccc6)c6ccc([nH]6)c(-c6ccccc6)c6nc(c(-c7ccccc7)c7ccc3[nH]7)C=C6)C=C5)cc2)CC[C@@H]14
REMARK SMILES IDX 27 1 26 2 24 3 25 4 23 5 5 6 6 7 17 8 7 9 15 10 8 11 14 12
REMARK SMILES IDX 9 13 18 14 13 15 10 16 11 17 12 18 19 19 82 20 20 21 21 22
REMARK SMILES IDX 81 23 22 24 80 25 4 26 2 27 1 28 3 29 16 30 28 32 29 33
REMARK SMILES IDX 30 34 31 35 32 36 33 37 79 38 34 39 78 40 35 41 36 42 37 43
REMARK SMILES IDX 72 44 38 45 77 46 71 47 73 48 39 49 76 50 70 51 69 52 40 54
REMARK SMILES IDX 62 55 47 56 61 57 48 58 51 59 60 60 74 61 49 62 50 63 59 65
REMARK SMILES IDX 75 66 52 67 41 68 42 69 46 70 43 71 45 72 44 73 63 74 64 75
REMARK SMILES IDX 68 76 65 77 67 78 66 79 53 80 54 81 58 82 55 83 57 84 56 85
REMARK H PARENT 16 31 73 53 51 64
REMARK Flexibility Score: inf
ROOT
ATOM      1  C   UNL A   1      30.654  29.890  24.639  1.00  0.00     0.274 C 
ENDROOT
BRANCH   1   2
ATOM      2  O   UNL A   1      30.728  29.327  23.316  1.00  0.00    -0.462 OA
BRANCH   2   3
ATOM      3  C   UNL A   1      30.641  27.976  23.267  1.00  0.00     0.309 C 
ATOM      4  O   UNL A   1      29.634  27.336  23.557  1.00  0.00    -0.252 OA
BRANCH   3   5
ATOM      5  C   UNL A   1      31.838  27.329  22.595  1.00  0.00     0.105 C 
ATOM      6  C   UNL A   1      33.100  20.172  25.585  1.00  0.00     0.179 C 
ATOM      7  C   UNL A   1      31.898  21.088  25.631  1.00  0.00     0.047 C 
ATOM      8  C   UNL A   1      34.256  20.946  26.259  1.00  0.00     0.081 C 
ATOM      9  C   UNL A   1      32.252  22.327  24.859  1.00  0.00     0.026 C 
ATOM     10  C   UNL A   1      34.534  22.395  25.720  1.00  0.00     0.085 C 
ATOM     11  C   UNL A   1      33.330  23.325  25.765  1.00  0.00     0.103 C 
ATOM     12  C   UNL A   1      35.151  22.380  24.278  1.00  0.00     0.041 C 
ATOM     13  C   UNL A   1      32.310  24.333  25.587  1.00  0.00     0.316 C 
ATOM     14  C   UNL A   1      34.267  24.724  25.091  1.00  0.00     0.054 C 
ATOM     15  C   UNL A   1      34.451  23.325  23.205  1.00  0.00     0.052 C 
ATOM     16  O   UNL A   1      31.477  24.694  26.441  1.00  0.00    -0.251 OA
ATOM     17  O   UNL A   1      32.311  24.620  24.237  1.00  0.00    -0.458 OA
ATOM     18  C   UNL A   1      33.681  24.598  23.750  1.00  0.00     0.120 C 
ATOM     19  C   UNL A   1      34.167  26.196  25.608  1.00  0.00     0.009 C 
ATOM     20  C   UNL A   1      33.706  25.719  22.727  1.00  0.00     0.040 C 
ATOM     21  C   UNL A   1      33.189  27.140  24.860  1.00  0.00     0.008 C 
ATOM     22  C   UNL A   1      33.217  27.088  23.301  1.00  0.00    -0.013 C 
ATOM     23  C   UNL A   1      32.715  25.359  21.591  1.00  0.00     0.009 C 
ATOM     24  C   UNL A   1      34.199  28.169  22.783  1.00  0.00     0.013 C 
ATOM     25  C   UNL A   1      31.402  25.994  21.994  1.00  0.00     0.016 C 
BRANCH   6  26
ATOM     26  O   UNL A   1      33.549  19.763  24.260  1.00  0.00    -0.462 OA
BRANCH  26  27
ATOM     27  C   UNL A   1      33.650  18.461  23.878  1.00  0.00     0.302 C 
ATOM     28  C   UNL A   1      32.531  18.084  22.952  1.00  0.00     0.139 C 
ATOM     29  O   UNL A   1      34.502  17.661  24.238  1.00  0.00    -0.253 OA
ENDBRANCH  26  27
ENDBRANCH   6  26
BRANCH  10  30
ATOM     30  O   UNL A   1      35.479  22.940  26.674  1.00  0.00    -0.389 OA
ATOM     31  H   UNL A   1      36.267  22.376  26.706  1.00  0.00     0.211 HD
ENDBRANCH  10  30
ENDBRANCH   3   5
ENDBRANCH   2   3
ENDBRANCH   1   2
BRANCH   1  32
ATOM     32  C   UNL A   1      32.064  30.081  25.192  1.00  0.00     0.275 C 
BRANCH  32  33
ATOM     33  O   UNL A   1      32.036  30.236  26.627  1.00  0.00    -0.458 OA
BRANCH  33  34
ATOM     34  C   UNL A   1      32.641  31.354  27.086  1.00  0.00     0.338 C 
ATOM     35  O   UNL A   1      32.174  32.480  27.152  1.00  0.00    -0.246 OA
BRANCH  34  36
ATOM     36  C   UNL A   1      34.013  31.069  27.535  1.00  0.00     0.060 A 
ATOM     37  C   UNL A   1      34.431  29.753  27.721  1.00  0.00     0.016 A 
ATOM     38  C   UNL A   1      34.811  32.124  27.973  1.00  0.00     0.016 A 
ATOM     39  C   UNL A   1      35.564  29.489  28.485  1.00  0.00     0.010 A 
ATOM     40  C   UNL A   1      36.026  31.854  28.607  1.00  0.00     0.010 A 
ATOM     41  C   UNL A   1      36.395  30.533  28.916  1.00  0.00    -0.014 A 
BRANCH  41  42
ATOM     42  C   UNL A   1      37.647  30.247  29.673  1.00  0.00     0.031 A 
ATOM     43  C   UNL A   1      38.756  29.432  29.054  1.00  0.00     0.074 A 
ATOM     44  C   UNL A   1      37.788  30.708  30.932  1.00  0.00     0.049 A 
ATOM     45  N   UNL A   1      39.839  28.952  29.612  1.00  0.00    -0.248 NA
ATOM     46  C   UNL A   1      38.623  29.103  27.626  1.00  0.00     0.031 C 
ATOM     47  C   UNL A   1      36.817  31.537  31.651  1.00  0.00     0.029 A 
ATOM     48  N   UNL A   1      38.811  30.546  31.834  1.00  0.00    -0.354 N 
ATOM     49  C   UNL A   1      40.489  28.224  28.621  1.00  0.00     0.074 A 
ATOM     50  C   UNL A   1      39.671  28.316  27.429  1.00  0.00     0.031 C 
ATOM     51  C   UNL A   1      37.308  31.849  32.858  1.00  0.00     0.029 A 
ATOM     52  C   UNL A   1      38.582  31.166  33.038  1.00  0.00     0.049 A 
ATOM     53  H   UNL A   1      39.629  30.036  31.637  1.00  0.00     0.167 HD
ATOM     54  C   UNL A   1      41.657  27.541  28.694  1.00  0.00     0.031 A 
ATOM     55  C   UNL A   1      39.292  31.157  34.182  1.00  0.00     0.031 A 
ATOM     56  C   UNL A   1      42.484  27.467  29.871  1.00  0.00     0.049 A 
ATOM     57  C   UNL A   1      40.554  30.351  34.253  1.00  0.00     0.074 A 
ATOM     58  C   UNL A   1      43.690  26.808  30.042  1.00  0.00     0.029 A 
ATOM     59  N   UNL A   1      42.191  28.080  31.080  1.00  0.00    -0.354 N 
ATOM     60  N   UNL A   1      41.135  29.642  33.317  1.00  0.00    -0.248 NA
ATOM     61  C   UNL A   1      41.252  30.340  35.545  1.00  0.00     0.031 C 
ATOM     62  C   UNL A   1      44.105  26.986  31.367  1.00  0.00     0.029 A 
ATOM     63  C   UNL A   1      43.185  27.802  32.005  1.00  0.00     0.049 A 
ATOM     64  H   UNL A   1      41.395  28.632  31.256  1.00  0.00     0.167 HD
ATOM     65  C   UNL A   1      42.277  29.113  33.902  1.00  0.00     0.074 A 
ATOM     66  C   UNL A   1      42.317  29.604  35.265  1.00  0.00     0.031 C 
ATOM     67  C   UNL A   1      43.208  28.290  33.360  1.00  0.00     0.031 A 
BRANCH  54  68
ATOM     68  C   UNL A   1      42.095  26.782  27.469  1.00  0.00    -0.014 A 
ATOM     69  C   UNL A   1      41.654  25.474  27.217  1.00  0.00     0.009 A 
ATOM     70  C   UNL A   1      42.945  27.401  26.537  1.00  0.00     0.009 A 
ATOM     71  C   UNL A   1      42.086  24.788  26.078  1.00  0.00     0.001 A 
ATOM     72  C   UNL A   1      43.352  26.725  25.386  1.00  0.00     0.001 A 
ATOM     73  C   UNL A   1      42.931  25.415  25.163  1.00  0.00     0.000 A 
ENDBRANCH  54  68
BRANCH  55  74
ATOM     74  C   UNL A   1      38.800  31.910  35.366  1.00  0.00    -0.014 A 
ATOM     75  C   UNL A   1      38.153  31.241  36.414  1.00  0.00     0.009 A 
ATOM     76  C   UNL A   1      38.979  33.300  35.455  1.00  0.00     0.009 A 
ATOM     77  C   UNL A   1      37.676  31.951  37.518  1.00  0.00     0.001 A 
ATOM     78  C   UNL A   1      38.532  34.002  36.574  1.00  0.00     0.001 A 
ATOM     79  C   UNL A   1      37.872  33.329  37.600  1.00  0.00     0.000 A 
ENDBRANCH  55  74
BRANCH  67  80
ATOM     80  C   UNL A   1      44.363  27.906  34.239  1.00  0.00    -0.014 A 
ATOM     81  C   UNL A   1      45.528  28.688  34.298  1.00  0.00     0.009 A 
ATOM     82  C   UNL A   1      44.285  26.742  35.018  1.00  0.00     0.009 A 
ATOM     83  C   UNL A   1      46.607  28.288  35.087  1.00  0.00     0.001 A 
ATOM     84  C   UNL A   1      45.354  26.359  35.830  1.00  0.00     0.001 A 
ATOM     85  C   UNL A   1      46.519  27.126  35.853  1.00  0.00     0.000 A 
ENDBRANCH  67  80
ENDBRANCH  41  42
ENDBRANCH  34  36
ENDBRANCH  33  34
ENDBRANCH  32  33
ENDBRANCH   1  32
TORSDOF 14
ENDMDL
