MODEL 1
REMARK VINA RESULT:      -9.5      0.000      0.000
REMARK SMILES COc1cc([C@H]2CC(c3ccc(S(C)(=O)=O)cc3)=NN2c2ccc(C(=O)OCCOC(=O)c3ccc(-c4c5nc(c(-c6ccccc6)c6ccc([nH]6)c(-c6ccccc6)c6nc(c(-c7ccccc7)c7ccc4[nH]7)C=C6)C=C5)cc3)cc2)cc(OC)c1OC
REMARK SMILES IDX 28 1 27 2 25 3 26 4 24 5 21 6 22 7 82 8 23 9 81 10 20 11
REMARK SMILES IDX 6 12 7 13 8 14 19 15 5 16 3 17 4 18 87 19 84 20 83 21 2 22
REMARK SMILES IDX 1 23 88 24 89 25 85 26 86 27 9 28 10 29 18 30 11 31 17 32
REMARK SMILES IDX 12 33 13 34 14 35 15 36 16 37 29 38 30 39 31 40 32 41 33 42
REMARK SMILES IDX 34 43 80 44 35 45 79 46 36 47 37 48 38 49 73 50 39 51 78 52
REMARK SMILES IDX 72 53 74 54 40 55 77 56 71 57 70 58 41 60 63 61 48 62 62 63
REMARK SMILES IDX 49 64 52 65 61 66 75 67 50 68 51 69 60 71 76 72 53 73 42 74
REMARK SMILES IDX 43 75 47 76 44 77 46 78 45 79 64 80 65 81 69 82 66 83 68 84
REMARK SMILES IDX 67 85 54 86 55 87 59 88 56 89 58 90 57 91
REMARK H PARENT 74 59 52 70
REMARK Flexibility Score: inf
ROOT
ATOM      1  C   UNL A   1      34.058  34.379  29.960  1.00  0.00     0.275 C 
ENDROOT
BRANCH   1   2
ATOM      2  O   UNL A   1      33.960  33.730  31.245  1.00  0.00    -0.458 OA
BRANCH   2   3
ATOM      3  C   UNL A   1      34.663  34.320  32.247  1.00  0.00     0.338 C 
ATOM      4  O   UNL A   1      34.280  35.218  32.971  1.00  0.00    -0.246 OA
BRANCH   3   5
ATOM      5  C   UNL A   1      35.977  33.660  32.420  1.00  0.00     0.060 A 
ATOM      6  C   UNL A   1      38.457  32.444  32.952  1.00  0.00     0.060 A 
ATOM      7  C   UNL A   1      37.285  31.958  33.536  1.00  0.00     0.029 A 
ATOM      8  C   UNL A   1      38.365  33.533  32.074  1.00  0.00     0.029 A 
ATOM      9  C   UNL A   1      36.068  32.588  33.309  1.00  0.00     0.018 A 
ATOM     10  C   UNL A   1      37.128  34.128  31.785  1.00  0.00     0.018 A 
BRANCH   6  11
ATOM     11  N   UNL A   1      39.678  31.874  33.291  1.00  0.00    -0.257 N 
ATOM     12  C   UNL A   1      40.839  32.659  33.730  1.00  0.00     0.144 C 
ATOM     13  C   UNL A   1      41.759  31.575  34.326  1.00  0.00     0.091 C 
ATOM     14  C   UNL A   1      40.865  30.367  34.224  1.00  0.00     0.071 C 
ATOM     15  N   UNL A   1      39.715  30.567  33.664  1.00  0.00    -0.176 NA
BRANCH  12  16
ATOM     16  C   UNL A   1      40.465  33.793  34.683  1.00  0.00    -0.015 A 
ATOM     17  C   UNL A   1      39.352  34.545  36.736  1.00  0.00     0.164 A 
ATOM     18  C   UNL A   1      39.639  33.541  35.791  1.00  0.00     0.056 A 
ATOM     19  C   UNL A   1      39.890  35.839  36.611  1.00  0.00     0.203 A 
ATOM     20  C   UNL A   1      40.720  36.100  35.500  1.00  0.00     0.164 A 
ATOM     21  C   UNL A   1      40.998  35.082  34.565  1.00  0.00     0.056 A 
BRANCH  17  22
ATOM     22  O   UNL A   1      38.652  34.170  37.856  1.00  0.00    -0.493 OA
ATOM     23  C   UNL A   1      38.409  32.764  37.895  1.00  0.00     0.278 C 
ENDBRANCH  17  22
BRANCH  19  24
ATOM     24  O   UNL A   1      39.713  36.867  37.495  1.00  0.00    -0.490 OA
ATOM     25  C   UNL A   1      40.542  36.999  38.636  1.00  0.00     0.278 C 
ENDBRANCH  19  24
BRANCH  20  26
ATOM     26  O   UNL A   1      41.345  37.275  35.156  1.00  0.00    -0.493 OA
ATOM     27  C   UNL A   1      42.742  37.273  34.909  1.00  0.00     0.278 C 
ENDBRANCH  20  26
ENDBRANCH  12  16
BRANCH  14  28
ATOM     28  C   UNL A   1      41.303  29.024  34.645  1.00  0.00    -0.002 A 
ATOM     29  C   UNL A   1      41.626  28.098  33.644  1.00  0.00     0.011 A 
ATOM     30  C   UNL A   1      41.413  28.673  35.993  1.00  0.00     0.011 A 
ATOM     31  C   UNL A   1      42.096  26.828  33.985  1.00  0.00     0.021 A 
ATOM     32  C   UNL A   1      41.857  27.390  36.338  1.00  0.00     0.021 A 
ATOM     33  C   UNL A   1      42.205  26.479  35.333  1.00  0.00     0.067 A 
BRANCH  33  34
ATOM     34  S   UNL A   1      42.863  24.882  35.762  1.00  0.00     0.175 S 
ATOM     35  C   UNL A   1      44.234  24.644  34.662  1.00  0.00     0.163 C 
ATOM     36  O   UNL A   1      43.378  24.997  37.112  1.00  0.00    -0.224 OA
ATOM     37  O   UNL A   1      41.858  23.891  35.428  1.00  0.00    -0.224 OA
ENDBRANCH  33  34
ENDBRANCH  14  28
ENDBRANCH   6  11
ENDBRANCH   3   5
ENDBRANCH   2   3
ENDBRANCH   1   2
BRANCH   1  38
ATOM     38  C   UNL A   1      34.614  33.435  28.894  1.00  0.00     0.275 C 
BRANCH  38  39
ATOM     39  O   UNL A   1      34.696  32.092  29.406  1.00  0.00    -0.458 OA
BRANCH  39  40
ATOM     40  C   UNL A   1      34.680  31.111  28.477  1.00  0.00     0.338 C 
ATOM     41  O   UNL A   1      33.804  30.865  27.664  1.00  0.00    -0.246 OA
BRANCH  40  42
ATOM     42  C   UNL A   1      35.931  30.338  28.537  1.00  0.00     0.060 A 
ATOM     43  C   UNL A   1      36.335  29.809  29.756  1.00  0.00     0.016 A 
ATOM     44  C   UNL A   1      36.789  30.292  27.441  1.00  0.00     0.016 A 
ATOM     45  C   UNL A   1      37.643  29.369  29.932  1.00  0.00     0.010 A 
ATOM     46  C   UNL A   1      38.058  29.717  27.584  1.00  0.00     0.010 A 
ATOM     47  C   UNL A   1      38.524  29.297  28.845  1.00  0.00    -0.014 A 
BRANCH  47  48
ATOM     48  C   UNL A   1      39.925  28.812  29.029  1.00  0.00     0.031 A 
ATOM     49  C   UNL A   1      40.991  29.732  29.574  1.00  0.00     0.074 A 
ATOM     50  C   UNL A   1      40.258  27.544  28.713  1.00  0.00     0.049 A 
ATOM     51  N   UNL A   1      42.288  29.554  29.634  1.00  0.00    -0.248 NA
ATOM     52  C   UNL A   1      40.542  31.030  30.102  1.00  0.00     0.031 C 
ATOM     53  C   UNL A   1      39.337  26.520  28.213  1.00  0.00     0.029 A 
ATOM     54  N   UNL A   1      41.468  26.896  28.770  1.00  0.00    -0.354 N 
ATOM     55  C   UNL A   1      42.812  30.741  30.134  1.00  0.00     0.074 A 
ATOM     56  C   UNL A   1      41.695  31.631  30.359  1.00  0.00     0.031 C 
ATOM     57  C   UNL A   1      40.001  25.367  28.057  1.00  0.00     0.029 A 
ATOM     58  C   UNL A   1      41.412  25.591  28.342  1.00  0.00     0.049 A 
ATOM     59  H   UNL A   1      42.296  27.324  29.086  1.00  0.00     0.167 HD
ATOM     60  C   UNL A   1      44.107  31.062  30.378  1.00  0.00     0.031 A 
ATOM     61  C   UNL A   1      42.385  24.681  28.147  1.00  0.00     0.031 A 
ATOM     62  C   UNL A   1      45.216  30.160  30.204  1.00  0.00     0.049 A 
ATOM     63  C   UNL A   1      43.812  25.062  28.401  1.00  0.00     0.074 A 
ATOM     64  C   UNL A   1      46.559  30.382  30.461  1.00  0.00     0.029 A 
ATOM     65  N   UNL A   1      45.110  28.857  29.740  1.00  0.00    -0.354 N 
ATOM     66  N   UNL A   1      44.295  26.201  28.831  1.00  0.00    -0.248 NA
ATOM     67  C   UNL A   1      44.827  24.037  28.125  1.00  0.00     0.031 C 
ATOM     68  C   UNL A   1      47.270  29.231  30.106  1.00  0.00     0.029 A 
ATOM     69  C   UNL A   1      46.365  28.272  29.680  1.00  0.00     0.049 A 
ATOM     70  H   UNL A   1      44.267  28.413  29.490  1.00  0.00     0.167 HD
ATOM     71  C   UNL A   1      45.672  26.030  28.886  1.00  0.00     0.074 A 
ATOM     72  C   UNL A   1      45.943  24.670  28.465  1.00  0.00     0.031 C 
ATOM     73  C   UNL A   1      46.624  26.924  29.247  1.00  0.00     0.031 A 
BRANCH  60  74
ATOM     74  C   UNL A   1      44.401  32.476  30.808  1.00  0.00    -0.014 A 
ATOM     75  C   UNL A   1      44.664  33.496  29.880  1.00  0.00     0.009 A 
ATOM     76  C   UNL A   1      44.398  32.791  32.177  1.00  0.00     0.009 A 
ATOM     77  C   UNL A   1      44.965  34.789  30.317  1.00  0.00     0.001 A 
ATOM     78  C   UNL A   1      44.668  34.090  32.609  1.00  0.00     0.001 A 
ATOM     79  C   UNL A   1      44.964  35.085  31.680  1.00  0.00     0.000 A 
ENDBRANCH  60  74
BRANCH  61  80
ATOM     80  C   UNL A   1      42.028  23.334  27.629  1.00  0.00    -0.014 A 
ATOM     81  C   UNL A   1      41.606  22.321  28.502  1.00  0.00     0.009 A 
ATOM     82  C   UNL A   1      42.062  23.073  26.249  1.00  0.00     0.009 A 
ATOM     83  C   UNL A   1      41.227  21.071  28.001  1.00  0.00     0.001 A 
ATOM     84  C   UNL A   1      41.653  21.834  25.750  1.00  0.00     0.001 A 
ATOM     85  C   UNL A   1      41.241  20.834  26.626  1.00  0.00     0.000 A 
ENDBRANCH  61  80
BRANCH  73  86
ATOM     86  C   UNL A   1      48.048  26.447  29.224  1.00  0.00    -0.014 A 
ATOM     87  C   UNL A   1      48.638  25.864  30.357  1.00  0.00     0.009 A 
ATOM     88  C   UNL A   1      48.801  26.556  28.044  1.00  0.00     0.009 A 
ATOM     89  C   UNL A   1      49.965  25.432  30.317  1.00  0.00     0.001 A 
ATOM     90  C   UNL A   1      50.117  26.099  27.999  1.00  0.00     0.001 A 
ATOM     91  C   UNL A   1      50.701  25.546  29.138  1.00  0.00     0.000 A 
ENDBRANCH  73  86
ENDBRANCH  47  48
ENDBRANCH  40  42
ENDBRANCH  39  40
ENDBRANCH  38  39
ENDBRANCH   1  38
TORSDOF 18
ENDMDL
MODEL 2
REMARK VINA RESULT:      -9.2      5.557     11.322
REMARK SMILES COc1cc([C@H]2CC(c3ccc(S(C)(=O)=O)cc3)=NN2c2ccc(C(=O)OCCOC(=O)c3ccc(-c4c5nc(c(-c6ccccc6)c6ccc([nH]6)c(-c6ccccc6)c6nc(c(-c7ccccc7)c7ccc4[nH]7)C=C6)C=C5)cc3)cc2)cc(OC)c1OC
REMARK SMILES IDX 28 1 27 2 25 3 26 4 24 5 21 6 22 7 82 8 23 9 81 10 20 11
REMARK SMILES IDX 6 12 7 13 8 14 19 15 5 16 3 17 4 18 87 19 84 20 83 21 2 22
REMARK SMILES IDX 1 23 88 24 89 25 85 26 86 27 9 28 10 29 18 30 11 31 17 32
REMARK SMILES IDX 12 33 13 34 14 35 15 36 16 37 29 38 30 39 31 40 32 41 33 42
REMARK SMILES IDX 34 43 80 44 35 45 79 46 36 47 37 48 38 49 73 50 39 51 78 52
REMARK SMILES IDX 72 53 74 54 40 55 77 56 71 57 70 58 41 60 63 61 48 62 62 63
REMARK SMILES IDX 49 64 52 65 61 66 75 67 50 68 51 69 60 71 76 72 53 73 42 74
REMARK SMILES IDX 43 75 47 76 44 77 46 78 45 79 64 80 65 81 69 82 66 83 68 84
REMARK SMILES IDX 67 85 54 86 55 87 59 88 56 89 58 90 57 91
REMARK H PARENT 74 59 52 70
REMARK Flexibility Score: inf
ROOT
ATOM      1  C   UNL A   1      36.164  31.046  28.340  1.00  0.00     0.275 C 
ENDROOT
BRANCH   1   2
ATOM      2  O   UNL A   1      35.425  30.236  27.402  1.00  0.00    -0.458 OA
BRANCH   2   3
ATOM      3  C   UNL A   1      34.074  30.356  27.472  1.00  0.00     0.338 C 
ATOM      4  O   UNL A   1      33.446  31.374  27.687  1.00  0.00    -0.246 OA
BRANCH   3   5
ATOM      5  C   UNL A   1      33.419  29.065  27.159  1.00  0.00     0.060 A 
ATOM      6  C   UNL A   1      32.223  26.646  26.366  1.00  0.00     0.060 A 
ATOM      7  C   UNL A   1      33.580  26.878  26.136  1.00  0.00     0.029 A 
ATOM      8  C   UNL A   1      31.477  27.634  27.025  1.00  0.00     0.029 A 
ATOM      9  C   UNL A   1      34.160  28.092  26.486  1.00  0.00     0.018 A 
ATOM     10  C   UNL A   1      32.073  28.831  27.446  1.00  0.00     0.018 A 
BRANCH   6  11
ATOM     11  N   UNL A   1      31.640  25.476  25.897  1.00  0.00    -0.257 N 
ATOM     12  C   UNL A   1      30.386  25.451  25.132  1.00  0.00     0.144 C 
ATOM     13  C   UNL A   1      30.387  24.024  24.548  1.00  0.00     0.091 C 
ATOM     14  C   UNL A   1      31.741  23.542  25.001  1.00  0.00     0.071 C 
ATOM     15  N   UNL A   1      32.416  24.373  25.729  1.00  0.00    -0.176 NA
BRANCH  12  16
ATOM     16  C   UNL A   1      30.295  26.576  24.102  1.00  0.00    -0.015 A 
ATOM     17  C   UNL A   1      28.985  28.340  23.012  1.00  0.00     0.164 A 
ATOM     18  C   UNL A   1      29.077  27.241  23.887  1.00  0.00     0.056 A 
ATOM     19  C   UNL A   1      30.114  28.821  22.325  1.00  0.00     0.203 A 
ATOM     20  C   UNL A   1      31.341  28.158  22.535  1.00  0.00     0.164 A 
ATOM     21  C   UNL A   1      31.415  27.060  23.416  1.00  0.00     0.056 A 
BRANCH  17  22
ATOM     22  O   UNL A   1      27.787  29.011  22.972  1.00  0.00    -0.493 OA
ATOM     23  C   UNL A   1      26.740  28.285  23.615  1.00  0.00     0.278 C 
ENDBRANCH  17  22
BRANCH  19  24
ATOM     24  O   UNL A   1      30.141  29.906  21.493  1.00  0.00    -0.490 OA
ATOM     25  C   UNL A   1      28.980  30.688  21.277  1.00  0.00     0.278 C 
ENDBRANCH  19  24
BRANCH  20  26
ATOM     26  O   UNL A   1      32.567  28.428  21.974  1.00  0.00    -0.493 OA
ATOM     27  C   UNL A   1      33.721  28.443  22.799  1.00  0.00     0.278 C 
ENDBRANCH  20  26
ENDBRANCH  12  16
BRANCH  14  28
ATOM     28  C   UNL A   1      32.228  22.180  24.717  1.00  0.00    -0.002 A 
ATOM     29  C   UNL A   1      32.720  21.425  25.791  1.00  0.00     0.011 A 
ATOM     30  C   UNL A   1      32.196  21.638  23.431  1.00  0.00     0.011 A 
ATOM     31  C   UNL A   1      33.147  20.111  25.591  1.00  0.00     0.021 A 
ATOM     32  C   UNL A   1      32.649  20.329  23.221  1.00  0.00     0.021 A 
ATOM     33  C   UNL A   1      33.113  19.571  24.303  1.00  0.00     0.067 A 
BRANCH  33  34
ATOM     34  S   UNL A   1      33.599  17.875  24.064  1.00  0.00     0.175 S 
ATOM     35  C   UNL A   1      32.745  16.974  25.330  1.00  0.00     0.163 C 
ATOM     36  O   UNL A   1      33.065  17.470  22.778  1.00  0.00    -0.224 OA
ATOM     37  O   UNL A   1      35.020  17.784  24.344  1.00  0.00    -0.224 OA
ENDBRANCH  33  34
ENDBRANCH  14  28
ENDBRANCH   6  11
ENDBRANCH   3   5
ENDBRANCH   2   3
ENDBRANCH   1   2
BRANCH   1  38
ATOM     38  C   UNL A   1      36.242  30.385  29.717  1.00  0.00     0.275 C 
BRANCH  38  39
ATOM     39  O   UNL A   1      36.588  31.356  30.721  1.00  0.00    -0.458 OA
BRANCH  39  40
ATOM     40  C   UNL A   1      37.320  30.889  31.756  1.00  0.00     0.338 C 
ATOM     41  O   UNL A   1      36.944  30.662  32.895  1.00  0.00    -0.246 OA
BRANCH  40  42
ATOM     42  C   UNL A   1      38.705  30.641  31.325  1.00  0.00     0.060 A 
ATOM     43  C   UNL A   1      39.209  31.354  30.245  1.00  0.00     0.016 A 
ATOM     44  C   UNL A   1      39.437  29.587  31.864  1.00  0.00     0.016 A 
ATOM     45  C   UNL A   1      40.367  30.929  29.601  1.00  0.00     0.010 A 
ATOM     46  C   UNL A   1      40.675  29.250  31.302  1.00  0.00     0.010 A 
ATOM     47  C   UNL A   1      41.133  29.880  30.129  1.00  0.00    -0.014 A 
BRANCH  47  48
ATOM     48  C   UNL A   1      42.384  29.431  29.447  1.00  0.00     0.031 A 
ATOM     49  C   UNL A   1      42.470  28.059  28.825  1.00  0.00     0.074 A 
ATOM     50  C   UNL A   1      43.456  30.247  29.376  1.00  0.00     0.049 A 
ATOM     51  N   UNL A   1      43.517  27.425  28.355  1.00  0.00    -0.248 NA
ATOM     52  C   UNL A   1      41.219  27.289  28.739  1.00  0.00     0.031 C 
ATOM     53  C   UNL A   1      43.520  31.617  29.893  1.00  0.00     0.029 A 
ATOM     54  N   UNL A   1      44.702  30.043  28.834  1.00  0.00    -0.354 N 
ATOM     55  C   UNL A   1      43.065  26.163  27.988  1.00  0.00     0.074 A 
ATOM     56  C   UNL A   1      41.651  26.118  28.293  1.00  0.00     0.031 C 
ATOM     57  C   UNL A   1      44.717  32.143  29.600  1.00  0.00     0.029 A 
ATOM     58  C   UNL A   1      45.544  31.120  28.972  1.00  0.00     0.049 A 
ATOM     59  H   UNL A   1      44.967  29.206  28.390  1.00  0.00     0.167 HD
ATOM     60  C   UNL A   1      43.764  25.131  27.454  1.00  0.00     0.031 A 
ATOM     61  C   UNL A   1      46.849  31.267  28.680  1.00  0.00     0.031 A 
ATOM     62  C   UNL A   1      45.160  25.190  27.103  1.00  0.00     0.049 A 
ATOM     63  C   UNL A   1      47.610  30.108  28.109  1.00  0.00     0.074 A 
ATOM     64  C   UNL A   1      45.946  24.209  26.520  1.00  0.00     0.029 A 
ATOM     65  N   UNL A   1      45.976  26.295  27.290  1.00  0.00    -0.354 N 
ATOM     66  N   UNL A   1      47.180  28.908  27.809  1.00  0.00    -0.248 NA
ATOM     67  C   UNL A   1      49.041  30.321  27.854  1.00  0.00     0.031 C 
ATOM     68  C   UNL A   1      47.249  24.705  26.401  1.00  0.00     0.029 A 
ATOM     69  C   UNL A   1      47.262  26.014  26.857  1.00  0.00     0.049 A 
ATOM     70  H   UNL A   1      45.685  27.154  27.673  1.00  0.00     0.167 HD
ATOM     71  C   UNL A   1      48.284  28.222  27.323  1.00  0.00     0.074 A 
ATOM     72  C   UNL A   1      49.399  29.148  27.348  1.00  0.00     0.031 C 
ATOM     73  C   UNL A   1      48.365  26.937  26.900  1.00  0.00     0.031 A 
BRANCH  60  74
ATOM     74  C   UNL A   1      43.038  23.824  27.268  1.00  0.00    -0.014 A 
ATOM     75  C   UNL A   1      42.912  22.890  28.308  1.00  0.00     0.009 A 
ATOM     76  C   UNL A   1      42.457  23.534  26.023  1.00  0.00     0.009 A 
ATOM     77  C   UNL A   1      42.260  21.672  28.088  1.00  0.00     0.001 A 
ATOM     78  C   UNL A   1      41.779  22.332  25.816  1.00  0.00     0.001 A 
ATOM     79  C   UNL A   1      41.692  21.396  26.845  1.00  0.00     0.000 A 
ENDBRANCH  60  74
BRANCH  61  80
ATOM     80  C   UNL A   1      47.523  32.558  28.980  1.00  0.00    -0.014 A 
ATOM     81  C   UNL A   1      47.557  33.585  28.026  1.00  0.00     0.009 A 
ATOM     82  C   UNL A   1      48.091  32.784  30.245  1.00  0.00     0.009 A 
ATOM     83  C   UNL A   1      48.151  34.813  28.334  1.00  0.00     0.001 A 
ATOM     84  C   UNL A   1      48.656  34.021  30.559  1.00  0.00     0.001 A 
ATOM     85  C   UNL A   1      48.689  35.032  29.603  1.00  0.00     0.000 A 
ENDBRANCH  61  80
BRANCH  73  86
ATOM     86  C   UNL A   1      49.704  26.467  26.407  1.00  0.00    -0.014 A 
ATOM     87  C   UNL A   1      50.574  25.747  27.240  1.00  0.00     0.009 A 
ATOM     88  C   UNL A   1      50.087  26.726  25.081  1.00  0.00     0.009 A 
ATOM     89  C   UNL A   1      51.817  25.324  26.763  1.00  0.00     0.001 A 
ATOM     90  C   UNL A   1      51.318  26.279  24.600  1.00  0.00     0.001 A 
ATOM     91  C   UNL A   1      52.185  25.586  25.444  1.00  0.00     0.000 A 
ENDBRANCH  73  86
ENDBRANCH  47  48
ENDBRANCH  40  42
ENDBRANCH  39  40
ENDBRANCH  38  39
ENDBRANCH   1  38
TORSDOF 18
ENDMDL
MODEL 3
REMARK VINA RESULT:      -9.1      6.623     12.569
REMARK SMILES COc1cc([C@H]2CC(c3ccc(S(C)(=O)=O)cc3)=NN2c2ccc(C(=O)OCCOC(=O)c3ccc(-c4c5nc(c(-c6ccccc6)c6ccc([nH]6)c(-c6ccccc6)c6nc(c(-c7ccccc7)c7ccc4[nH]7)C=C6)C=C5)cc3)cc2)cc(OC)c1OC
REMARK SMILES IDX 28 1 27 2 25 3 26 4 24 5 21 6 22 7 82 8 23 9 81 10 20 11
REMARK SMILES IDX 6 12 7 13 8 14 19 15 5 16 3 17 4 18 87 19 84 20 83 21 2 22
REMARK SMILES IDX 1 23 88 24 89 25 85 26 86 27 9 28 10 29 18 30 11 31 17 32
REMARK SMILES IDX 12 33 13 34 14 35 15 36 16 37 29 38 30 39 31 40 32 41 33 42
REMARK SMILES IDX 34 43 80 44 35 45 79 46 36 47 37 48 38 49 73 50 39 51 78 52
REMARK SMILES IDX 72 53 74 54 40 55 77 56 71 57 70 58 41 60 63 61 48 62 62 63
REMARK SMILES IDX 49 64 52 65 61 66 75 67 50 68 51 69 60 71 76 72 53 73 42 74
REMARK SMILES IDX 43 75 47 76 44 77 46 78 45 79 64 80 65 81 69 82 66 83 68 84
REMARK SMILES IDX 67 85 54 86 55 87 59 88 56 89 58 90 57 91
REMARK H PARENT 74 59 52 70
REMARK Flexibility Score: inf
ROOT
ATOM      1  C   UNL A   1      36.258  31.956  28.409  1.00  0.00     0.275 C 
ENDROOT
BRANCH   1   2
ATOM      2  O   UNL A   1      35.506  30.757  28.126  1.00  0.00    -0.458 OA
BRANCH   2   3
ATOM      3  C   UNL A   1      34.311  30.955  27.510  1.00  0.00     0.338 C 
ATOM      4  O   UNL A   1      33.856  32.018  27.133  1.00  0.00    -0.246 OA
BRANCH   3   5
ATOM      5  C   UNL A   1      33.632  29.663  27.262  1.00  0.00     0.060 A 
ATOM      6  C   UNL A   1      32.383  27.234  26.588  1.00  0.00     0.060 A 
ATOM      7  C   UNL A   1      33.735  27.443  26.305  1.00  0.00     0.029 A 
ATOM      8  C   UNL A   1      31.672  28.251  27.240  1.00  0.00     0.029 A 
ATOM      9  C   UNL A   1      34.338  28.660  26.596  1.00  0.00     0.018 A 
ATOM     10  C   UNL A   1      32.295  29.454  27.601  1.00  0.00     0.018 A 
BRANCH   6  11
ATOM     11  N   UNL A   1      31.772  26.056  26.178  1.00  0.00    -0.257 N 
ATOM     12  C   UNL A   1      30.469  26.019  25.500  1.00  0.00     0.144 C 
ATOM     13  C   UNL A   1      30.434  24.583  24.940  1.00  0.00     0.091 C 
ATOM     14  C   UNL A   1      31.816  24.109  25.307  1.00  0.00     0.071 C 
ATOM     15  N   UNL A   1      32.538  24.951  25.974  1.00  0.00    -0.176 NA
BRANCH  12  16
ATOM     16  C   UNL A   1      30.307  27.128  24.462  1.00  0.00    -0.015 A 
ATOM     17  C   UNL A   1      31.319  28.695  22.869  1.00  0.00     0.164 A 
ATOM     18  C   UNL A   1      31.437  27.735  23.893  1.00  0.00     0.056 A 
ATOM     19  C   UNL A   1      30.060  29.075  22.370  1.00  0.00     0.203 A 
ATOM     20  C   UNL A   1      28.919  28.471  22.937  1.00  0.00     0.164 A 
ATOM     21  C   UNL A   1      29.057  27.511  23.960  1.00  0.00     0.056 A 
BRANCH  17  22
ATOM     22  O   UNL A   1      32.481  29.130  22.280  1.00  0.00    -0.493 OA
ATOM     23  C   UNL A   1      33.485  28.115  22.253  1.00  0.00     0.278 C 
ENDBRANCH  17  22
BRANCH  19  24
ATOM     24  O   UNL A   1      29.839  29.959  21.350  1.00  0.00    -0.490 OA
ATOM     25  C   UNL A   1      29.290  31.241  21.602  1.00  0.00     0.278 C 
ENDBRANCH  19  24
BRANCH  20  26
ATOM     26  O   UNL A   1      27.596  28.685  22.632  1.00  0.00    -0.493 OA
ATOM     27  C   UNL A   1      26.594  28.236  23.530  1.00  0.00     0.278 C 
ENDBRANCH  20  26
ENDBRANCH  12  16
BRANCH  14  28
ATOM     28  C   UNL A   1      32.286  22.743  25.012  1.00  0.00    -0.002 A 
ATOM     29  C   UNL A   1      32.783  21.978  26.076  1.00  0.00     0.011 A 
ATOM     30  C   UNL A   1      32.232  22.207  23.723  1.00  0.00     0.011 A 
ATOM     31  C   UNL A   1      33.193  20.661  25.865  1.00  0.00     0.021 A 
ATOM     32  C   UNL A   1      32.669  20.895  23.502  1.00  0.00     0.021 A 
ATOM     33  C   UNL A   1      33.138  20.126  24.575  1.00  0.00     0.067 A 
BRANCH  33  34
ATOM     34  S   UNL A   1      33.604  18.427  24.323  1.00  0.00     0.175 S 
ATOM     35  C   UNL A   1      32.877  17.550  25.682  1.00  0.00     0.163 C 
ATOM     36  O   UNL A   1      32.950  17.997  23.103  1.00  0.00    -0.224 OA
ATOM     37  O   UNL A   1      35.044  18.342  24.468  1.00  0.00    -0.224 OA
ENDBRANCH  33  34
ENDBRANCH  14  28
ENDBRANCH   6  11
ENDBRANCH   3   5
ENDBRANCH   2   3
ENDBRANCH   1   2
BRANCH   1  38
ATOM     38  C   UNL A   1      36.582  32.078  29.898  1.00  0.00     0.275 C 
BRANCH  38  39
ATOM     39  O   UNL A   1      36.815  33.455  30.249  1.00  0.00    -0.458 OA
BRANCH  39  40
ATOM     40  C   UNL A   1      37.706  33.660  31.244  1.00  0.00     0.338 C 
ATOM     41  O   UNL A   1      37.562  33.431  32.434  1.00  0.00    -0.246 OA
BRANCH  40  42
ATOM     42  C   UNL A   1      38.960  34.200  30.697  1.00  0.00     0.060 A 
ATOM     43  C   UNL A   1      38.995  34.601  29.367  1.00  0.00     0.016 A 
ATOM     44  C   UNL A   1      40.139  34.142  31.435  1.00  0.00     0.016 A 
ATOM     45  C   UNL A   1      40.213  34.798  28.724  1.00  0.00     0.010 A 
ATOM     46  C   UNL A   1      41.353  34.480  30.823  1.00  0.00     0.010 A 
ATOM     47  C   UNL A   1      41.414  34.760  29.445  1.00  0.00    -0.014 A 
BRANCH  47  48
ATOM     48  C   UNL A   1      42.722  34.986  28.759  1.00  0.00     0.031 A 
ATOM     49  C   UNL A   1      43.672  33.837  28.520  1.00  0.00     0.074 A 
ATOM     50  C   UNL A   1      43.073  36.220  28.341  1.00  0.00     0.049 A 
ATOM     51  N   UNL A   1      44.917  33.863  28.111  1.00  0.00    -0.248 NA
ATOM     52  C   UNL A   1      43.163  32.485  28.797  1.00  0.00     0.031 C 
ATOM     53  C   UNL A   1      42.250  37.426  28.461  1.00  0.00     0.029 A 
ATOM     54  N   UNL A   1      44.217  36.664  27.724  1.00  0.00    -0.354 N 
ATOM     55  C   UNL A   1      45.359  32.545  28.153  1.00  0.00     0.074 A 
ATOM     56  C   UNL A   1      44.251  31.746  28.629  1.00  0.00     0.031 C 
ATOM     57  C   UNL A   1      42.892  38.456  27.894  1.00  0.00     0.029 A 
ATOM     58  C   UNL A   1      44.212  38.014  27.465  1.00  0.00     0.049 A 
ATOM     59  H   UNL A   1      44.969  36.073  27.490  1.00  0.00     0.167 HD
ATOM     60  C   UNL A   1      46.577  32.046  27.831  1.00  0.00     0.031 A 
ATOM     61  C   UNL A   1      45.172  38.827  26.985  1.00  0.00     0.031 A 
ATOM     62  C   UNL A   1      47.666  32.831  27.308  1.00  0.00     0.049 A 
ATOM     63  C   UNL A   1      46.520  38.260  26.656  1.00  0.00     0.074 A 
ATOM     64  C   UNL A   1      48.926  32.408  26.916  1.00  0.00     0.029 A 
ATOM     65  N   UNL A   1      47.620  34.200  27.091  1.00  0.00    -0.354 N 
ATOM     66  N   UNL A   1      46.935  37.021  26.742  1.00  0.00    -0.248 NA
ATOM     67  C   UNL A   1      47.535  39.208  26.179  1.00  0.00     0.031 C 
ATOM     68  C   UNL A   1      49.658  33.529  26.510  1.00  0.00     0.029 A 
ATOM     69  C   UNL A   1      48.836  34.642  26.595  1.00  0.00     0.049 A 
ATOM     70  H   UNL A   1      46.839  34.774  27.264  1.00  0.00     0.167 HD
ATOM     71  C   UNL A   1      48.259  37.036  26.325  1.00  0.00     0.074 A 
ATOM     72  C   UNL A   1      48.569  38.405  25.964  1.00  0.00     0.031 C 
ATOM     73  C   UNL A   1      49.138  36.007  26.253  1.00  0.00     0.031 A 
BRANCH  60  74
ATOM     74  C   UNL A   1      46.818  30.582  28.092  1.00  0.00    -0.014 A 
ATOM     75  C   UNL A   1      47.247  30.110  29.342  1.00  0.00     0.009 A 
ATOM     76  C   UNL A   1      46.593  29.656  27.060  1.00  0.00     0.009 A 
ATOM     77  C   UNL A   1      47.492  28.747  29.537  1.00  0.00     0.001 A 
ATOM     78  C   UNL A   1      46.807  28.292  27.267  1.00  0.00     0.001 A 
ATOM     79  C   UNL A   1      47.269  27.840  28.501  1.00  0.00     0.000 A 
ENDBRANCH  60  74
BRANCH  61  80
ATOM     80  C   UNL A   1      44.892  40.280  26.845  1.00  0.00    -0.014 A 
ATOM     81  C   UNL A   1      45.212  41.173  27.878  1.00  0.00     0.009 A 
ATOM     82  C   UNL A   1      44.348  40.785  25.652  1.00  0.00     0.009 A 
ATOM     83  C   UNL A   1      44.989  42.544  27.718  1.00  0.00     0.001 A 
ATOM     84  C   UNL A   1      44.156  42.158  25.486  1.00  0.00     0.001 A 
ATOM     85  C   UNL A   1      44.472  43.035  26.519  1.00  0.00     0.000 A 
ENDBRANCH  61  80
BRANCH  73  86
ATOM     86  C   UNL A   1      50.514  36.324  25.742  1.00  0.00    -0.014 A 
ATOM     87  C   UNL A   1      51.537  36.732  26.613  1.00  0.00     0.009 A 
ATOM     88  C   UNL A   1      50.798  36.185  24.374  1.00  0.00     0.009 A 
ATOM     89  C   UNL A   1      52.809  37.027  26.117  1.00  0.00     0.001 A 
ATOM     90  C   UNL A   1      52.077  36.455  23.886  1.00  0.00     0.001 A 
ATOM     91  C   UNL A   1      53.078  36.883  24.756  1.00  0.00     0.000 A 
ENDBRANCH  73  86
ENDBRANCH  47  48
ENDBRANCH  40  42
ENDBRANCH  39  40
ENDBRANCH  38  39
ENDBRANCH   1  38
TORSDOF 18
ENDMDL
