MODEL 1
REMARK VINA RESULT:     -12.8      0.000      0.000
REMARK SMILES O=C(N/N=C/c1ccc(C(=O)OCCOC(=O)c2ccc(-c3c4nc(c(-c5ccccc5)c5ccc([nH]5)c(-c5ccccc5)c5nc(c(-c6ccccc6)c6ccc3[nH]6)C=C5)C=C4)cc2)cc1)C(=O)Nc1ccc2c(c1)OCO2
REMARK SMILES IDX 13 1 12 2 10 3 11 4 9 5 6 6 7 7 67 8 8 9 66 10 5 11 4 12
REMARK SMILES IDX 3 13 1 14 2 15 68 17 69 18 70 19 71 21 72 22 76 23 73 24
REMARK SMILES IDX 75 25 74 26 77 27 79 28 78 29 14 30 15 31 16 32 17 33 18 34
REMARK SMILES IDX 19 35 65 36 20 37 64 38 21 39 22 40 23 41 58 42 24 43 63 44
REMARK SMILES IDX 57 45 59 46 25 47 62 48 56 49 55 50 26 52 48 53 33 54 47 55
REMARK SMILES IDX 34 56 37 57 46 58 60 59 35 60 36 61 45 63 61 64 38 65 27 66
REMARK SMILES IDX 28 67 32 68 29 69 31 70 30 71 49 72 50 73 54 74 51 75 53 76
REMARK SMILES IDX 52 77 39 78 40 79 44 80 41 81 43 82 42 83
REMARK H PARENT 3 16 70 20 59 51 37 62
REMARK Flexibility Score: inf
ROOT
ATOM      1  C   UNL A   1      34.297  34.486  30.098  1.00  0.00     0.275 C 
ENDROOT
BRANCH   1   2
ATOM      2  O   UNL A   1      33.637  33.454  29.336  1.00  0.00    -0.458 OA
BRANCH   2   3
ATOM      3  C   UNL A   1      34.325  33.031  28.254  1.00  0.00     0.338 C 
ATOM      4  O   UNL A   1      35.200  33.646  27.662  1.00  0.00    -0.246 OA
BRANCH   3   5
ATOM      5  C   UNL A   1      33.937  31.668  27.851  1.00  0.00     0.060 A 
ATOM      6  C   UNL A   1      33.533  29.043  26.274  1.00  0.00    -0.005 A 
ATOM      7  C   UNL A   1      34.678  29.445  27.152  1.00  0.00     0.010 A 
ATOM      8  C   UNL A   1      32.524  30.142  26.632  1.00  0.00     0.010 A 
ATOM      9  C   UNL A   1      34.874  30.660  27.852  1.00  0.00     0.016 A 
ATOM     10  C   UNL A   1      32.710  31.372  27.329  1.00  0.00     0.016 A 
BRANCH   6  11
ATOM     11  C   UNL A   1      33.423  27.457  24.844  1.00  0.00     0.141 C 
ATOM     12  N   UNL A   1      33.548  26.086  24.864  1.00  0.00    -0.180 NA
BRANCH  12  13
ATOM     13  N   UNL A   1      33.985  25.559  23.700  1.00  0.00    -0.239 N 
ATOM     14  O   UNL A   1      33.659  24.882  21.572  1.00  0.00    -0.262 OA
ATOM     15  C   UNL A   1      33.149  25.230  22.640  1.00  0.00     0.329 C 
ATOM     16  H   UNL A   1      34.952  25.398  23.597  1.00  0.00     0.194 HD
BRANCH  15  17
ATOM     17  C   UNL A   1      31.596  25.337  22.707  1.00  0.00     0.315 C 
ATOM     18  O   UNL A   1      31.083  26.440  22.501  1.00  0.00    -0.263 OA
ATOM     19  N   UNL A   1      30.754  24.230  22.782  1.00  0.00    -0.318 N 
ATOM     20  H   UNL A   1      29.967  24.207  22.190  1.00  0.00     0.170 HD
BRANCH  19  21
ATOM     21  C   UNL A   1      30.954  23.146  23.649  1.00  0.00     0.045 A 
ATOM     22  C   UNL A   1      32.071  21.828  22.999  1.00  0.00     0.030 A 
ATOM     23  C   UNL A   1      30.837  23.458  25.449  1.00  0.00     0.076 A 
ATOM     24  C   UNL A   1      33.178  20.937  24.158  1.00  0.00     0.053 A 
ATOM     25  C   UNL A   1      32.030  22.632  26.539  1.00  0.00     0.167 A 
ATOM     26  C   UNL A   1      33.206  21.436  25.885  1.00  0.00     0.165 A 
ATOM     27  O   UNL A   1      32.402  22.869  27.821  1.00  0.00    -0.454 OA
ATOM     28  O   UNL A   1      34.051  21.137  26.899  1.00  0.00    -0.454 OA
ATOM     29  C   UNL A   1      33.709  22.182  27.891  1.00  0.00     0.468 C 
ENDBRANCH  19  21
ENDBRANCH  15  17
ENDBRANCH  12  13
ENDBRANCH   6  11
ENDBRANCH   3   5
ENDBRANCH   2   3
ENDBRANCH   1   2
BRANCH   1  30
ATOM     30  C   UNL A   1      34.355  34.119  31.585  1.00  0.00     0.275 C 
BRANCH  30  31
ATOM     31  O   UNL A   1      34.459  32.694  31.784  1.00  0.00    -0.458 OA
BRANCH  31  32
ATOM     32  C   UNL A   1      35.496  32.301  32.556  1.00  0.00     0.338 C 
ATOM     33  O   UNL A   1      35.635  32.478  33.757  1.00  0.00    -0.246 OA
BRANCH  32  34
ATOM     34  C   UNL A   1      36.485  31.538  31.781  1.00  0.00     0.060 A 
ATOM     35  C   UNL A   1      37.312  30.648  32.457  1.00  0.00     0.016 A 
ATOM     36  C   UNL A   1      36.775  31.891  30.466  1.00  0.00     0.016 A 
ATOM     37  C   UNL A   1      38.520  30.256  31.897  1.00  0.00     0.010 A 
ATOM     38  C   UNL A   1      37.907  31.351  29.843  1.00  0.00     0.010 A 
ATOM     39  C   UNL A   1      38.824  30.565  30.565  1.00  0.00    -0.014 A 
BRANCH  39  40
ATOM     40  C   UNL A   1      40.083  30.061  29.942  1.00  0.00     0.031 A 
ATOM     41  C   UNL A   1      41.302  30.945  29.839  1.00  0.00     0.074 A 
ATOM     42  C   UNL A   1      40.143  28.801  29.459  1.00  0.00     0.049 A 
ATOM     43  N   UNL A   1      42.405  30.758  29.156  1.00  0.00    -0.248 NA
ATOM     44  C   UNL A   1      41.272  32.213  30.587  1.00  0.00     0.031 C 
ATOM     45  C   UNL A   1      39.070  27.805  29.534  1.00  0.00     0.029 A 
ATOM     46  N   UNL A   1      41.156  28.135  28.813  1.00  0.00    -0.354 N 
ATOM     47  C   UNL A   1      43.169  31.906  29.340  1.00  0.00     0.074 A 
ATOM     48  C   UNL A   1      42.399  32.788  30.192  1.00  0.00     0.031 C 
ATOM     49  C   UNL A   1      39.499  26.647  29.015  1.00  0.00     0.029 A 
ATOM     50  C   UNL A   1      40.826  26.850  28.454  1.00  0.00     0.049 A 
ATOM     51  H   UNL A   1      42.035  28.541  28.626  1.00  0.00     0.167 HD
ATOM     52  C   UNL A   1      44.394  32.201  28.841  1.00  0.00     0.031 A 
ATOM     53  C   UNL A   1      41.482  25.945  27.705  1.00  0.00     0.031 A 
ATOM     54  C   UNL A   1      45.168  31.308  28.018  1.00  0.00     0.049 A 
ATOM     55  C   UNL A   1      42.799  26.324  27.097  1.00  0.00     0.074 A 
ATOM     56  C   UNL A   1      46.423  31.509  27.466  1.00  0.00     0.029 A 
ATOM     57  N   UNL A   1      44.765  30.037  27.634  1.00  0.00    -0.354 N 
ATOM     58  N   UNL A   1      43.481  27.435  27.231  1.00  0.00    -0.248 NA
ATOM     59  C   UNL A   1      43.428  25.328  26.221  1.00  0.00     0.031 C 
ATOM     60  C   UNL A   1      46.754  30.382  26.706  1.00  0.00     0.029 A 
ATOM     61  C   UNL A   1      45.736  29.452  26.837  1.00  0.00     0.049 A 
ATOM     62  H   UNL A   1      43.915  29.613  27.891  1.00  0.00     0.167 HD
ATOM     63  C   UNL A   1      44.632  27.263  26.475  1.00  0.00     0.074 A 
ATOM     64  C   UNL A   1      44.562  25.934  25.902  1.00  0.00     0.031 C 
ATOM     65  C   UNL A   1      45.654  28.129  26.274  1.00  0.00     0.031 A 
BRANCH  52  66
ATOM     66  C   UNL A   1      44.955  33.569  29.132  1.00  0.00    -0.014 A 
ATOM     67  C   UNL A   1      45.910  33.781  30.138  1.00  0.00     0.009 A 
ATOM     68  C   UNL A   1      44.535  34.666  28.360  1.00  0.00     0.009 A 
ATOM     69  C   UNL A   1      46.398  35.065  30.394  1.00  0.00     0.001 A 
ATOM     70  C   UNL A   1      45.048  35.943  28.596  1.00  0.00     0.001 A 
ATOM     71  C   UNL A   1      45.970  36.143  29.621  1.00  0.00     0.000 A 
ENDBRANCH  52  66
BRANCH  53  72
ATOM     72  C   UNL A   1      40.871  24.615  27.442  1.00  0.00    -0.014 A 
ATOM     73  C   UNL A   1      41.382  23.465  28.061  1.00  0.00     0.009 A 
ATOM     74  C   UNL A   1      39.766  24.489  26.583  1.00  0.00     0.009 A 
ATOM     75  C   UNL A   1      40.811  22.214  27.810  1.00  0.00     0.001 A 
ATOM     76  C   UNL A   1      39.174  23.245  26.364  1.00  0.00     0.001 A 
ATOM     77  C   UNL A   1      39.703  22.107  26.970  1.00  0.00     0.000 A 
ENDBRANCH  53  72
BRANCH  65  78
ATOM     78  C   UNL A   1      46.804  27.642  25.437  1.00  0.00    -0.014 A 
ATOM     79  C   UNL A   1      46.879  27.916  24.063  1.00  0.00     0.009 A 
ATOM     80  C   UNL A   1      47.838  26.912  26.045  1.00  0.00     0.009 A 
ATOM     81  C   UNL A   1      47.950  27.436  23.307  1.00  0.00     0.001 A 
ATOM     82  C   UNL A   1      48.923  26.463  25.293  1.00  0.00     0.001 A 
ATOM     83  C   UNL A   1      48.972  26.714  23.923  1.00  0.00     0.000 A 
ENDBRANCH  65  78
ENDBRANCH  39  40
ENDBRANCH  32  34
ENDBRANCH  31  32
ENDBRANCH  30  31
ENDBRANCH   1  30
TORSDOF 15
ENDMDL
MODEL 2
REMARK VINA RESULT:     -12.6      4.248      9.438
REMARK SMILES O=C(N/N=C/c1ccc(C(=O)OCCOC(=O)c2ccc(-c3c4nc(c(-c5ccccc5)c5ccc([nH]5)c(-c5ccccc5)c5nc(c(-c6ccccc6)c6ccc3[nH]6)C=C5)C=C4)cc2)cc1)C(=O)Nc1ccc2c(c1)OCO2
REMARK SMILES IDX 13 1 12 2 10 3 11 4 9 5 6 6 7 7 67 8 8 9 66 10 5 11 4 12
REMARK SMILES IDX 3 13 1 14 2 15 68 17 69 18 70 19 71 21 72 22 76 23 73 24
REMARK SMILES IDX 75 25 74 26 77 27 79 28 78 29 14 30 15 31 16 32 17 33 18 34
REMARK SMILES IDX 19 35 65 36 20 37 64 38 21 39 22 40 23 41 58 42 24 43 63 44
REMARK SMILES IDX 57 45 59 46 25 47 62 48 56 49 55 50 26 52 48 53 33 54 47 55
REMARK SMILES IDX 34 56 37 57 46 58 60 59 35 60 36 61 45 63 61 64 38 65 27 66
REMARK SMILES IDX 28 67 32 68 29 69 31 70 30 71 49 72 50 73 54 74 51 75 53 76
REMARK SMILES IDX 52 77 39 78 40 79 44 80 41 81 43 82 42 83
REMARK H PARENT 3 16 70 20 59 51 37 62
REMARK Flexibility Score: inf
ROOT
ATOM      1  C   UNL A   1      40.965  20.295  26.369  1.00  0.00     0.275 C 
ENDROOT
BRANCH   1   2
ATOM      2  O   UNL A   1      39.775  21.067  26.109  1.00  0.00    -0.458 OA
BRANCH   2   3
ATOM      3  C   UNL A   1      38.807  20.398  25.446  1.00  0.00     0.338 C 
ATOM      4  O   UNL A   1      38.856  19.237  25.066  1.00  0.00    -0.246 OA
BRANCH   3   5
ATOM      5  C   UNL A   1      37.603  21.223  25.245  1.00  0.00     0.060 A 
ATOM      6  C   UNL A   1      35.138  22.623  24.022  1.00  0.00    -0.005 A 
ATOM      7  C   UNL A   1      35.225  21.280  24.678  1.00  0.00     0.010 A 
ATOM      8  C   UNL A   1      36.506  23.199  24.408  1.00  0.00     0.010 A 
ATOM      9  C   UNL A   1      36.362  20.628  25.214  1.00  0.00     0.016 A 
ATOM     10  C   UNL A   1      37.660  22.553  24.941  1.00  0.00     0.016 A 
BRANCH   6  11
ATOM     11  C   UNL A   1      33.581  23.424  22.794  1.00  0.00     0.141 C 
ATOM     12  N   UNL A   1      33.486  24.350  21.780  1.00  0.00    -0.180 NA
BRANCH  12  13
ATOM     13  N   UNL A   1      32.284  24.960  21.705  1.00  0.00    -0.239 N 
ATOM     14  O   UNL A   1      30.983  26.803  21.674  1.00  0.00    -0.262 OA
ATOM     15  C   UNL A   1      32.096  26.324  21.898  1.00  0.00     0.329 C 
ATOM     16  H   UNL A   1      31.494  24.406  21.503  1.00  0.00     0.194 HD
BRANCH  15  17
ATOM     17  C   UNL A   1      33.240  27.295  22.321  1.00  0.00     0.315 C 
ATOM     18  O   UNL A   1      34.118  27.550  21.495  1.00  0.00    -0.263 OA
ATOM     19  N   UNL A   1      33.213  28.041  23.497  1.00  0.00    -0.318 N 
ATOM     20  H   UNL A   1      33.455  28.995  23.444  1.00  0.00     0.170 HD
BRANCH  19  21
ATOM     21  C   UNL A   1      32.865  27.522  24.752  1.00  0.00     0.045 A 
ATOM     22  C   UNL A   1      31.059  27.550  25.132  1.00  0.00     0.030 A 
ATOM     23  C   UNL A   1      33.944  26.228  25.471  1.00  0.00     0.076 A 
ATOM     24  C   UNL A   1      30.325  26.183  26.109  1.00  0.00     0.053 A 
ATOM     25  C   UNL A   1      33.155  24.841  26.334  1.00  0.00     0.167 A 
ATOM     26  C   UNL A   1      31.375  24.807  26.596  1.00  0.00     0.165 A 
ATOM     27  O   UNL A   1      33.616  23.619  26.696  1.00  0.00    -0.454 OA
ATOM     28  O   UNL A   1      31.086  23.587  27.104  1.00  0.00    -0.454 OA
ATOM     29  C   UNL A   1      32.360  22.863  26.886  1.00  0.00     0.468 C 
ENDBRANCH  19  21
ENDBRANCH  15  17
ENDBRANCH  12  13
ENDBRANCH   6  11
ENDBRANCH   3   5
ENDBRANCH   2   3
ENDBRANCH   1   2
BRANCH   1  30
ATOM     30  C   UNL A   1      42.227  21.117  26.087  1.00  0.00     0.275 C 
BRANCH  30  31
ATOM     31  O   UNL A   1      41.936  22.303  25.319  1.00  0.00    -0.458 OA
BRANCH  31  32
ATOM     32  C   UNL A   1      42.812  23.318  25.484  1.00  0.00     0.338 C 
ATOM     33  O   UNL A   1      43.934  23.414  25.009  1.00  0.00    -0.246 OA
BRANCH  32  34
ATOM     34  C   UNL A   1      42.235  24.400  26.294  1.00  0.00     0.060 A 
ATOM     35  C   UNL A   1      42.806  25.665  26.211  1.00  0.00     0.016 A 
ATOM     36  C   UNL A   1      41.331  24.112  27.312  1.00  0.00     0.016 A 
ATOM     37  C   UNL A   1      42.624  26.581  27.240  1.00  0.00     0.010 A 
ATOM     38  C   UNL A   1      41.015  25.103  28.251  1.00  0.00     0.010 A 
ATOM     39  C   UNL A   1      41.695  26.335  28.258  1.00  0.00    -0.014 A 
BRANCH  39  40
ATOM     40  C   UNL A   1      41.438  27.364  29.309  1.00  0.00     0.031 A 
ATOM     41  C   UNL A   1      42.293  27.431  30.550  1.00  0.00     0.074 A 
ATOM     42  C   UNL A   1      40.429  28.249  29.157  1.00  0.00     0.049 A 
ATOM     43  N   UNL A   1      42.099  28.111  31.654  1.00  0.00    -0.248 NA
ATOM     44  C   UNL A   1      43.519  26.615  30.561  1.00  0.00     0.031 C 
ATOM     45  C   UNL A   1      39.548  28.351  27.990  1.00  0.00     0.029 A 
ATOM     46  N   UNL A   1      39.975  29.242  29.991  1.00  0.00    -0.354 N 
ATOM     47  C   UNL A   1      43.138  27.757  32.509  1.00  0.00     0.074 A 
ATOM     48  C   UNL A   1      43.955  26.796  31.800  1.00  0.00     0.031 C 
ATOM     49  C   UNL A   1      38.707  29.380  28.154  1.00  0.00     0.029 A 
ATOM     50  C   UNL A   1      38.898  29.931  29.487  1.00  0.00     0.049 A 
ATOM     51  H   UNL A   1      40.384  29.442  30.865  1.00  0.00     0.167 HD
ATOM     52  C   UNL A   1      43.384  28.189  33.770  1.00  0.00     0.031 A 
ATOM     53  C   UNL A   1      38.103  30.861  30.046  1.00  0.00     0.031 A 
ATOM     54  C   UNL A   1      42.584  29.168  34.461  1.00  0.00     0.049 A 
ATOM     55  C   UNL A   1      38.346  31.263  31.470  1.00  0.00     0.074 A 
ATOM     56  C   UNL A   1      42.752  29.677  35.738  1.00  0.00     0.029 A 
ATOM     57  N   UNL A   1      41.468  29.795  33.927  1.00  0.00    -0.354 N 
ATOM     58  N   UNL A   1      39.295  30.876  32.286  1.00  0.00    -0.248 NA
ATOM     59  C   UNL A   1      37.396  32.219  32.053  1.00  0.00     0.031 C 
ATOM     60  C   UNL A   1      41.707  30.571  35.996  1.00  0.00     0.029 A 
ATOM     61  C   UNL A   1      40.926  30.669  34.856  1.00  0.00     0.049 A 
ATOM     62  H   UNL A   1      41.113  29.642  33.022  1.00  0.00     0.167 HD
ATOM     63  C   UNL A   1      39.072  31.560  33.473  1.00  0.00     0.074 A 
ATOM     64  C   UNL A   1      37.909  32.397  33.263  1.00  0.00     0.031 C 
ATOM     65  C   UNL A   1      39.768  31.497  34.634  1.00  0.00     0.031 A 
BRANCH  52  66
ATOM     66  C   UNL A   1      44.542  27.566  34.507  1.00  0.00    -0.014 A 
ATOM     67  C   UNL A   1      45.835  28.110  34.452  1.00  0.00     0.009 A 
ATOM     68  C   UNL A   1      44.324  26.424  35.297  1.00  0.00     0.009 A 
ATOM     69  C   UNL A   1      46.891  27.498  35.133  1.00  0.00     0.001 A 
ATOM     70  C   UNL A   1      45.375  25.834  36.002  1.00  0.00     0.001 A 
ATOM     71  C   UNL A   1      46.660  26.364  35.910  1.00  0.00     0.000 A 
ENDBRANCH  52  66
BRANCH  53  72
ATOM     72  C   UNL A   1      36.967  31.431  29.273  1.00  0.00    -0.014 A 
ATOM     73  C   UNL A   1      37.063  32.711  28.709  1.00  0.00     0.009 A 
ATOM     74  C   UNL A   1      35.786  30.693  29.083  1.00  0.00     0.009 A 
ATOM     75  C   UNL A   1      35.994  33.247  27.986  1.00  0.00     0.001 A 
ATOM     76  C   UNL A   1      34.735  31.216  28.329  1.00  0.00     0.001 A 
ATOM     77  C   UNL A   1      34.835  32.496  27.790  1.00  0.00     0.000 A 
ENDBRANCH  53  72
BRANCH  65  78
ATOM     78  C   UNL A   1      39.317  32.400  35.747  1.00  0.00    -0.014 A 
ATOM     79  C   UNL A   1      38.350  31.990  36.677  1.00  0.00     0.009 A 
ATOM     80  C   UNL A   1      39.888  33.676  35.874  1.00  0.00     0.009 A 
ATOM     81  C   UNL A   1      37.936  32.856  37.692  1.00  0.00     0.001 A 
ATOM     82  C   UNL A   1      39.497  34.526  36.908  1.00  0.00     0.001 A 
ATOM     83  C   UNL A   1      38.513  34.120  37.809  1.00  0.00     0.000 A 
ENDBRANCH  65  78
ENDBRANCH  39  40
ENDBRANCH  32  34
ENDBRANCH  31  32
ENDBRANCH  30  31
ENDBRANCH   1  30
TORSDOF 15
ENDMDL
MODEL 3
REMARK VINA RESULT:     -12.6      2.073      8.016
REMARK SMILES O=C(N/N=C/c1ccc(C(=O)OCCOC(=O)c2ccc(-c3c4nc(c(-c5ccccc5)c5ccc([nH]5)c(-c5ccccc5)c5nc(c(-c6ccccc6)c6ccc3[nH]6)C=C5)C=C4)cc2)cc1)C(=O)Nc1ccc2c(c1)OCO2
REMARK SMILES IDX 13 1 12 2 10 3 11 4 9 5 6 6 7 7 67 8 8 9 66 10 5 11 4 12
REMARK SMILES IDX 3 13 1 14 2 15 68 17 69 18 70 19 71 21 72 22 76 23 73 24
REMARK SMILES IDX 75 25 74 26 77 27 79 28 78 29 14 30 15 31 16 32 17 33 18 34
REMARK SMILES IDX 19 35 65 36 20 37 64 38 21 39 22 40 23 41 58 42 24 43 63 44
REMARK SMILES IDX 57 45 59 46 25 47 62 48 56 49 55 50 26 52 48 53 33 54 47 55
REMARK SMILES IDX 34 56 37 57 46 58 60 59 35 60 36 61 45 63 61 64 38 65 27 66
REMARK SMILES IDX 28 67 32 68 29 69 31 70 30 71 49 72 50 73 54 74 51 75 53 76
REMARK SMILES IDX 52 77 39 78 40 79 44 80 41 81 43 82 42 83
REMARK H PARENT 3 16 70 20 59 51 37 62
REMARK Flexibility Score: inf
ROOT
ATOM      1  C   UNL A   1      35.173  21.219  24.774  1.00  0.00     0.275 C 
ENDROOT
BRANCH   1   2
ATOM      2  O   UNL A   1      34.725  22.028  25.881  1.00  0.00    -0.458 OA
BRANCH   2   3
ATOM      3  C   UNL A   1      34.502  23.324  25.572  1.00  0.00     0.338 C 
ATOM      4  O   UNL A   1      35.350  24.184  25.385  1.00  0.00    -0.246 OA
BRANCH   3   5
ATOM      5  C   UNL A   1      33.065  23.619  25.432  1.00  0.00     0.060 A 
ATOM      6  C   UNL A   1      30.363  24.984  24.819  1.00  0.00    -0.005 A 
ATOM      7  C   UNL A   1      31.215  24.142  23.920  1.00  0.00     0.010 A 
ATOM      8  C   UNL A   1      31.046  24.712  26.165  1.00  0.00     0.010 A 
ATOM      9  C   UNL A   1      32.467  23.539  24.195  1.00  0.00     0.016 A 
ATOM     10  C   UNL A   1      32.308  24.114  26.455  1.00  0.00     0.016 A 
BRANCH   6  11
ATOM     11  C   UNL A   1      28.744  26.284  24.310  1.00  0.00     0.141 C 
ATOM     12  N   UNL A   1      28.357  27.013  23.208  1.00  0.00    -0.180 NA
BRANCH  12  13
ATOM     13  N   UNL A   1      27.634  28.113  23.504  1.00  0.00    -0.239 N 
ATOM     14  O   UNL A   1      27.208  30.323  23.334  1.00  0.00    -0.262 OA
ATOM     15  C   UNL A   1      28.002  29.402  23.135  1.00  0.00     0.329 C 
ATOM     16  H   UNL A   1      26.798  27.997  24.012  1.00  0.00     0.194 HD
BRANCH  15  17
ATOM     17  C   UNL A   1      29.346  29.737  22.419  1.00  0.00     0.315 C 
ATOM     18  O   UNL A   1      29.337  29.845  21.191  1.00  0.00    -0.263 OA
ATOM     19  N   UNL A   1      30.500  30.120  23.099  1.00  0.00    -0.318 N 
ATOM     20  H   UNL A   1      31.003  30.895  22.756  1.00  0.00     0.170 HD
BRANCH  19  21
ATOM     21  C   UNL A   1      30.994  29.471  24.239  1.00  0.00     0.045 A 
ATOM     22  C   UNL A   1      31.988  27.952  23.901  1.00  0.00     0.030 A 
ATOM     23  C   UNL A   1      31.333  30.489  25.723  1.00  0.00     0.076 A 
ATOM     24  C   UNL A   1      33.418  27.556  24.979  1.00  0.00     0.053 A 
ATOM     25  C   UNL A   1      32.822  30.120  26.691  1.00  0.00     0.167 A 
ATOM     26  C   UNL A   1      33.864  28.709  26.284  1.00  0.00     0.165 A 
ATOM     27  O   UNL A   1      33.501  30.837  27.620  1.00  0.00    -0.454 OA
ATOM     28  O   UNL A   1      34.963  28.807  27.067  1.00  0.00    -0.454 OA
ATOM     29  C   UNL A   1      34.823  30.178  27.608  1.00  0.00     0.468 C 
ENDBRANCH  19  21
ENDBRANCH  15  17
ENDBRANCH  12  13
ENDBRANCH   6  11
ENDBRANCH   3   5
ENDBRANCH   2   3
ENDBRANCH   1   2
BRANCH   1  30
ATOM     30  C   UNL A   1      36.511  20.545  25.091  1.00  0.00     0.275 C 
BRANCH  30  31
ATOM     31  O   UNL A   1      37.617  21.466  24.981  1.00  0.00    -0.458 OA
BRANCH  31  32
ATOM     32  C   UNL A   1      38.707  21.136  25.708  1.00  0.00     0.338 C 
ATOM     33  O   UNL A   1      39.259  20.048  25.764  1.00  0.00    -0.246 OA
BRANCH  32  34
ATOM     34  C   UNL A   1      39.243  22.299  26.430  1.00  0.00     0.060 A 
ATOM     35  C   UNL A   1      38.707  23.552  26.157  1.00  0.00     0.016 A 
ATOM     36  C   UNL A   1      40.428  22.193  27.153  1.00  0.00     0.016 A 
ATOM     37  C   UNL A   1      39.438  24.699  26.439  1.00  0.00     0.010 A 
ATOM     38  C   UNL A   1      41.073  23.358  27.590  1.00  0.00     0.010 A 
ATOM     39  C   UNL A   1      40.614  24.629  27.195  1.00  0.00    -0.014 A 
BRANCH  39  40
ATOM     40  C   UNL A   1      41.344  25.875  27.573  1.00  0.00     0.031 A 
ATOM     41  C   UNL A   1      40.718  26.887  28.502  1.00  0.00     0.074 A 
ATOM     42  C   UNL A   1      42.580  26.111  27.081  1.00  0.00     0.049 A 
ATOM     43  N   UNL A   1      41.106  28.107  28.778  1.00  0.00    -0.248 NA
ATOM     44  C   UNL A   1      39.487  26.479  29.199  1.00  0.00     0.031 C 
ATOM     45  C   UNL A   1      43.345  25.206  26.218  1.00  0.00     0.029 A 
ATOM     46  N   UNL A   1      43.419  27.186  27.244  1.00  0.00    -0.354 N 
ATOM     47  C   UNL A   1      40.136  28.634  29.626  1.00  0.00     0.074 A 
ATOM     48  C   UNL A   1      39.138  27.602  29.812  1.00  0.00     0.031 C 
ATOM     49  C   UNL A   1      44.552  25.732  25.978  1.00  0.00     0.029 A 
ATOM     50  C   UNL A   1      44.605  27.065  26.559  1.00  0.00     0.049 A 
ATOM     51  H   UNL A   1      43.193  27.969  27.799  1.00  0.00     0.167 HD
ATOM     52  C   UNL A   1      40.080  29.864  30.192  1.00  0.00     0.031 A 
ATOM     53  C   UNL A   1      45.605  27.942  26.360  1.00  0.00     0.031 A 
ATOM     54  C   UNL A   1      41.091  30.877  30.027  1.00  0.00     0.049 A 
ATOM     55  C   UNL A   1      45.483  29.324  26.929  1.00  0.00     0.074 A 
ATOM     56  C   UNL A   1      41.131  32.154  30.563  1.00  0.00     0.029 A 
ATOM     57  N   UNL A   1      42.247  30.725  29.277  1.00  0.00    -0.354 N 
ATOM     58  N   UNL A   1      44.533  29.827  27.679  1.00  0.00    -0.248 NA
ATOM     59  C   UNL A   1      46.565  30.263  26.609  1.00  0.00     0.031 C 
ATOM     60  C   UNL A   1      42.284  32.792  30.092  1.00  0.00     0.029 A 
ATOM     61  C   UNL A   1      42.996  31.891  29.318  1.00  0.00     0.049 A 
ATOM     62  H   UNL A   1      42.499  29.910  28.787  1.00  0.00     0.167 HD
ATOM     63  C   UNL A   1      44.914  31.135  27.942  1.00  0.00     0.074 A 
ATOM     64  C   UNL A   1      46.189  31.340  27.285  1.00  0.00     0.031 C 
ATOM     65  C   UNL A   1      44.263  32.081  28.661  1.00  0.00     0.031 A 
BRANCH  52  66
ATOM     66  C   UNL A   1      38.858  30.202  31.006  1.00  0.00    -0.014 A 
ATOM     67  C   UNL A   1      37.701  30.739  30.420  1.00  0.00     0.009 A 
ATOM     68  C   UNL A   1      38.857  29.950  32.389  1.00  0.00     0.009 A 
ATOM     69  C   UNL A   1      36.590  31.058  31.206  1.00  0.00     0.001 A 
ATOM     70  C   UNL A   1      37.734  30.239  33.166  1.00  0.00     0.001 A 
ATOM     71  C   UNL A   1      36.606  30.804  32.576  1.00  0.00     0.000 A 
ENDBRANCH  52  66
BRANCH  53  72
ATOM     72  C   UNL A   1      46.781  27.555  25.537  1.00  0.00    -0.014 A 
ATOM     73  C   UNL A   1      47.856  26.864  26.116  1.00  0.00     0.009 A 
ATOM     74  C   UNL A   1      46.831  27.860  24.166  1.00  0.00     0.009 A 
ATOM     75  C   UNL A   1      48.964  26.504  25.342  1.00  0.00     0.001 A 
ATOM     76  C   UNL A   1      47.920  27.466  23.389  1.00  0.00     0.001 A 
ATOM     77  C   UNL A   1      48.990  26.797  23.979  1.00  0.00     0.000 A 
ENDBRANCH  53  72
BRANCH  65  78
ATOM     78  C   UNL A   1      44.951  33.408  28.817  1.00  0.00    -0.014 A 
ATOM     79  C   UNL A   1      45.813  33.666  29.893  1.00  0.00     0.009 A 
ATOM     80  C   UNL A   1      44.743  34.410  27.855  1.00  0.00     0.009 A 
ATOM     81  C   UNL A   1      46.425  34.915  30.023  1.00  0.00     0.001 A 
ATOM     82  C   UNL A   1      45.382  35.644  27.969  1.00  0.00     0.001 A 
ATOM     83  C   UNL A   1      46.212  35.900  29.059  1.00  0.00     0.000 A 
ENDBRANCH  65  78
ENDBRANCH  39  40
ENDBRANCH  32  34
ENDBRANCH  31  32
ENDBRANCH  30  31
ENDBRANCH   1  30
TORSDOF 15
ENDMDL
