MODEL 1
REMARK VINA RESULT:      -9.4      0.000      0.000
REMARK SMILES COc1nc(C(F)(F)F)ccc1C(=O)OCCOC(=O)c1ccc(-c2c3nc(c(-c4ccccc4)c4ccc([nH]4)c(-c4ccccc4)c4nc(c(-c5ccccc5)c5ccc2[nH]5)C=C4)C=C3)cc1
REMARK SMILES IDX 17 1 16 2 15 3 13 4 14 5 12 6 3 7 4 8 5 9 11 10 10 11 2 12
REMARK SMILES IDX 1 13 6 14 7 15 8 16 9 17 18 18 19 19 20 20 21 21 22 22 68 23
REMARK SMILES IDX 23 24 67 25 24 26 25 27 26 28 61 29 27 30 66 31 60 32 62 33
REMARK SMILES IDX 28 34 65 35 59 36 58 37 29 39 51 40 36 41 50 42 37 43 40 44
REMARK SMILES IDX 49 45 63 46 38 47 39 48 48 50 64 51 41 52 30 53 31 54 35 55
REMARK SMILES IDX 32 56 34 57 33 58 52 59 53 60 57 61 54 62 56 63 55 64 42 65
REMARK SMILES IDX 43 66 47 67 44 68 46 69 45 70
REMARK H PARENT 62 38 40 49
REMARK Flexibility Score: inf
ROOT
ATOM      1  C   UNL A   1      33.070  33.595  27.748  1.00  0.00     0.275 C 
ENDROOT
BRANCH   1   2
ATOM      2  C   UNL A   1      33.860  34.816  28.218  1.00  0.00     0.275 C 
BRANCH   2   3
ATOM      3  O   UNL A   1      34.485  34.583  29.500  1.00  0.00    -0.458 OA
BRANCH   3   4
ATOM      4  C   UNL A   1      33.714  34.875  30.575  1.00  0.00     0.343 C 
ATOM      5  O   UNL A   1      32.657  35.487  30.576  1.00  0.00    -0.246 OA
BRANCH   4   6
ATOM      6  C   UNL A   1      34.366  34.439  31.813  1.00  0.00     0.122 A 
ATOM      7  C   UNL A   1      34.914  35.352  32.697  1.00  0.00     0.228 A 
ATOM      8  N   UNL A   1      35.746  35.019  33.709  1.00  0.00    -0.208 NA
ATOM      9  C   UNL A   1      36.028  33.703  33.896  1.00  0.00     0.148 A 
ATOM     10  C   UNL A   1      34.593  33.086  32.055  1.00  0.00     0.023 A 
ATOM     11  C   UNL A   1      35.428  32.714  33.112  1.00  0.00     0.034 A 
BRANCH   7  12
ATOM     12  O   UNL A   1      34.612  36.679  32.627  1.00  0.00    -0.480 OA
ATOM     13  C   UNL A   1      33.735  37.009  33.705  1.00  0.00     0.280 C 
ENDBRANCH   7  12
BRANCH   9  14
ATOM     14  C   UNL A   1      37.068  33.339  34.947  1.00  0.00     0.433 C 
ATOM     15  F   UNL A   1      37.337  32.001  34.975  1.00  0.00    -0.165 F 
ATOM     16  F   UNL A   1      38.266  33.961  34.764  1.00  0.00    -0.165 F 
ATOM     17  F   UNL A   1      36.679  33.659  36.215  1.00  0.00    -0.165 F 
ENDBRANCH   9  14
ENDBRANCH   4   6
ENDBRANCH   3   4
ENDBRANCH   2   3
ENDBRANCH   1   2
BRANCH   1  18
ATOM     18  O   UNL A   1      33.538  32.419  28.429  1.00  0.00    -0.458 OA
BRANCH  18  19
ATOM     19  C   UNL A   1      33.871  31.374  27.636  1.00  0.00     0.338 C 
ATOM     20  O   UNL A   1      33.178  30.851  26.783  1.00  0.00    -0.246 OA
BRANCH  19  21
ATOM     21  C   UNL A   1      35.266  30.948  27.884  1.00  0.00     0.060 A 
ATOM     22  C   UNL A   1      35.548  29.629  28.217  1.00  0.00     0.016 A 
ATOM     23  C   UNL A   1      36.266  31.916  27.996  1.00  0.00     0.016 A 
ATOM     24  C   UNL A   1      36.763  29.314  28.825  1.00  0.00     0.010 A 
ATOM     25  C   UNL A   1      37.536  31.558  28.469  1.00  0.00     0.010 A 
ATOM     26  C   UNL A   1      37.789  30.262  28.947  1.00  0.00    -0.014 A 
BRANCH  26  27
ATOM     27  C   UNL A   1      39.102  29.910  29.575  1.00  0.00     0.031 A 
ATOM     28  C   UNL A   1      40.008  28.865  28.962  1.00  0.00     0.074 A 
ATOM     29  C   UNL A   1      39.496  30.508  30.718  1.00  0.00     0.049 A 
ATOM     30  N   UNL A   1      41.035  28.244  29.490  1.00  0.00    -0.248 NA
ATOM     31  C   UNL A   1      39.707  28.449  27.584  1.00  0.00     0.031 C 
ATOM     32  C   UNL A   1      38.774  31.574  31.416  1.00  0.00     0.029 A 
ATOM     33  N   UNL A   1      40.604  30.294  31.505  1.00  0.00    -0.354 N 
ATOM     34  C   UNL A   1      41.452  27.315  28.542  1.00  0.00     0.074 A 
ATOM     35  C   UNL A   1      40.568  27.456  27.404  1.00  0.00     0.031 C 
ATOM     36  C   UNL A   1      39.470  31.947  32.496  1.00  0.00     0.029 A 
ATOM     37  C   UNL A   1      40.613  31.058  32.646  1.00  0.00     0.049 A 
ATOM     38  H   UNL A   1      41.318  29.658  31.272  1.00  0.00     0.167 HD
ATOM     39  C   UNL A   1      42.468  26.419  28.619  1.00  0.00     0.031 A 
ATOM     40  C   UNL A   1      41.389  31.009  33.745  1.00  0.00     0.031 A 
ATOM     41  C   UNL A   1      43.378  26.313  29.734  1.00  0.00     0.049 A 
ATOM     42  C   UNL A   1      42.470  29.980  33.840  1.00  0.00     0.074 A 
ATOM     43  C   UNL A   1      44.461  25.463  29.887  1.00  0.00     0.029 A 
ATOM     44  N   UNL A   1      43.317  27.088  30.883  1.00  0.00    -0.354 N 
ATOM     45  N   UNL A   1      42.812  29.063  32.968  1.00  0.00    -0.248 NA
ATOM     46  C   UNL A   1      43.261  29.968  35.077  1.00  0.00     0.031 C 
ATOM     47  C   UNL A   1      45.016  25.679  31.154  1.00  0.00     0.029 A 
ATOM     48  C   UNL A   1      44.323  26.713  31.762  1.00  0.00     0.049 A 
ATOM     49  H   UNL A   1      42.658  27.799  31.050  1.00  0.00     0.167 HD
ATOM     50  C   UNL A   1      43.864  28.369  33.546  1.00  0.00     0.074 A 
ATOM     51  C   UNL A   1      44.117  28.986  34.833  1.00  0.00     0.031 C 
ATOM     52  C   UNL A   1      44.555  27.313  33.050  1.00  0.00     0.031 A 
BRANCH  39  53
ATOM     53  C   UNL A   1      42.614  25.426  27.492  1.00  0.00    -0.014 A 
ATOM     54  C   UNL A   1      43.381  25.693  26.349  1.00  0.00     0.009 A 
ATOM     55  C   UNL A   1      41.989  24.170  27.604  1.00  0.00     0.009 A 
ATOM     56  C   UNL A   1      43.481  24.747  25.324  1.00  0.00     0.001 A 
ATOM     57  C   UNL A   1      42.118  23.214  26.594  1.00  0.00     0.001 A 
ATOM     58  C   UNL A   1      42.853  23.509  25.449  1.00  0.00     0.000 A 
ENDBRANCH  39  53
BRANCH  40  59
ATOM     59  C   UNL A   1      41.085  31.924  34.877  1.00  0.00    -0.014 A 
ATOM     60  C   UNL A   1      40.297  31.499  35.954  1.00  0.00     0.009 A 
ATOM     61  C   UNL A   1      41.662  33.206  34.918  1.00  0.00     0.009 A 
ATOM     62  C   UNL A   1      40.096  32.338  37.052  1.00  0.00     0.001 A 
ATOM     63  C   UNL A   1      41.489  34.028  36.033  1.00  0.00     0.001 A 
ATOM     64  C   UNL A   1      40.703  33.594  37.097  1.00  0.00     0.000 A 
ENDBRANCH  40  59
BRANCH  52  65
ATOM     65  C   UNL A   1      45.674  26.777  33.899  1.00  0.00    -0.014 A 
ATOM     66  C   UNL A   1      45.460  25.738  34.819  1.00  0.00     0.009 A 
ATOM     67  C   UNL A   1      46.963  27.314  33.769  1.00  0.00     0.009 A 
ATOM     68  C   UNL A   1      46.507  25.276  35.618  1.00  0.00     0.001 A 
ATOM     69  C   UNL A   1      48.015  26.829  34.547  1.00  0.00     0.001 A 
ATOM     70  C   UNL A   1      47.784  25.818  35.479  1.00  0.00     0.000 A 
ENDBRANCH  52  65
ENDBRANCH  26  27
ENDBRANCH  19  21
ENDBRANCH  18  19
ENDBRANCH   1  18
TORSDOF 13
ENDMDL
MODEL 2
REMARK VINA RESULT:      -9.1      4.312      6.548
REMARK SMILES COc1nc(C(F)(F)F)ccc1C(=O)OCCOC(=O)c1ccc(-c2c3nc(c(-c4ccccc4)c4ccc([nH]4)c(-c4ccccc4)c4nc(c(-c5ccccc5)c5ccc2[nH]5)C=C4)C=C3)cc1
REMARK SMILES IDX 17 1 16 2 15 3 13 4 14 5 12 6 3 7 4 8 5 9 11 10 10 11 2 12
REMARK SMILES IDX 1 13 6 14 7 15 8 16 9 17 18 18 19 19 20 20 21 21 22 22 68 23
REMARK SMILES IDX 23 24 67 25 24 26 25 27 26 28 61 29 27 30 66 31 60 32 62 33
REMARK SMILES IDX 28 34 65 35 59 36 58 37 29 39 51 40 36 41 50 42 37 43 40 44
REMARK SMILES IDX 49 45 63 46 38 47 39 48 48 50 64 51 41 52 30 53 31 54 35 55
REMARK SMILES IDX 32 56 34 57 33 58 52 59 53 60 57 61 54 62 56 63 55 64 42 65
REMARK SMILES IDX 43 66 47 67 44 68 46 69 45 70
REMARK H PARENT 62 38 40 49
REMARK Flexibility Score: inf
ROOT
ATOM      1  C   UNL A   1      31.629  30.389  25.728  1.00  0.00     0.275 C 
ENDROOT
BRANCH   1   2
ATOM      2  C   UNL A   1      32.457  29.470  24.831  1.00  0.00     0.275 C 
BRANCH   2   3
ATOM      3  O   UNL A   1      32.767  28.222  25.490  1.00  0.00    -0.458 OA
BRANCH   3   4
ATOM      4  C   UNL A   1      32.324  27.111  24.854  1.00  0.00     0.343 C 
ATOM      5  O   UNL A   1      31.168  26.840  24.570  1.00  0.00    -0.246 OA
BRANCH   4   6
ATOM      6  C   UNL A   1      33.427  26.175  24.617  1.00  0.00     0.122 A 
ATOM      7  C   UNL A   1      33.781  25.792  23.335  1.00  0.00     0.228 A 
ATOM      8  N   UNL A   1      34.598  24.752  23.055  1.00  0.00    -0.208 NA
ATOM      9  C   UNL A   1      35.137  24.066  24.096  1.00  0.00     0.148 A 
ATOM     10  C   UNL A   1      34.043  25.523  25.682  1.00  0.00     0.023 A 
ATOM     11  C   UNL A   1      34.913  24.460  25.419  1.00  0.00     0.034 A 
BRANCH   7  12
ATOM     12  O   UNL A   1      33.347  26.481  22.241  1.00  0.00    -0.480 OA
ATOM     13  C   UNL A   1      32.553  25.609  21.434  1.00  0.00     0.280 C 
ENDBRANCH   7  12
BRANCH   9  14
ATOM     14  C   UNL A   1      35.946  22.815  23.784  1.00  0.00     0.433 C 
ATOM     15  F   UNL A   1      37.144  22.790  24.438  1.00  0.00    -0.165 F 
ATOM     16  F   UNL A   1      35.308  21.659  24.119  1.00  0.00    -0.165 F 
ATOM     17  F   UNL A   1      36.252  22.694  22.459  1.00  0.00    -0.165 F 
ENDBRANCH   9  14
ENDBRANCH   4   6
ENDBRANCH   3   4
ENDBRANCH   2   3
ENDBRANCH   1   2
BRANCH   1  18
ATOM     18  O   UNL A   1      32.245  30.491  27.023  1.00  0.00    -0.458 OA
BRANCH  18  19
ATOM     19  C   UNL A   1      32.966  31.615  27.244  1.00  0.00     0.338 C 
ATOM     20  O   UNL A   1      32.562  32.762  27.212  1.00  0.00    -0.246 OA
BRANCH  19  21
ATOM     21  C   UNL A   1      34.359  31.282  27.613  1.00  0.00     0.060 A 
ATOM     22  C   UNL A   1      34.726  29.963  27.852  1.00  0.00     0.016 A 
ATOM     23  C   UNL A   1      35.248  32.312  27.930  1.00  0.00     0.016 A 
ATOM     24  C   UNL A   1      35.892  29.688  28.566  1.00  0.00     0.010 A 
ATOM     25  C   UNL A   1      36.488  32.013  28.511  1.00  0.00     0.010 A 
ATOM     26  C   UNL A   1      36.807  30.699  28.893  1.00  0.00    -0.014 A 
BRANCH  26  27
ATOM     27  C   UNL A   1      38.071  30.393  29.634  1.00  0.00     0.031 A 
ATOM     28  C   UNL A   1      39.151  29.531  29.017  1.00  0.00     0.074 A 
ATOM     29  C   UNL A   1      38.265  30.868  30.882  1.00  0.00     0.049 A 
ATOM     30  N   UNL A   1      40.175  28.946  29.591  1.00  0.00    -0.248 NA
ATOM     31  C   UNL A   1      39.055  29.276  27.572  1.00  0.00     0.031 C 
ATOM     32  C   UNL A   1      37.356  31.757  31.608  1.00  0.00     0.029 A 
ATOM     33  N   UNL A   1      39.295  30.657  31.770  1.00  0.00    -0.354 N 
ATOM     34  C   UNL A   1      40.795  28.196  28.597  1.00  0.00     0.074 A 
ATOM     35  C   UNL A   1      40.035  28.403  27.382  1.00  0.00     0.031 C 
ATOM     36  C   UNL A   1      37.881  32.046  32.804  1.00  0.00     0.029 A 
ATOM     37  C   UNL A   1      39.090  31.258  32.987  1.00  0.00     0.049 A 
ATOM     38  H   UNL A   1      40.096  30.129  31.553  1.00  0.00     0.167 HD
ATOM     39  C   UNL A   1      41.889  27.398  28.692  1.00  0.00     0.031 A 
ATOM     40  C   UNL A   1      39.739  31.137  34.161  1.00  0.00     0.031 A 
ATOM     41  C   UNL A   1      42.675  27.232  29.892  1.00  0.00     0.049 A 
ATOM     42  C   UNL A   1      40.909  30.213  34.265  1.00  0.00     0.074 A 
ATOM     43  C   UNL A   1      43.821  26.476  30.075  1.00  0.00     0.029 A 
ATOM     44  N   UNL A   1      42.399  27.837  31.109  1.00  0.00    -0.354 N 
ATOM     45  N   UNL A   1      41.447  29.458  33.339  1.00  0.00    -0.248 NA
ATOM     46  C   UNL A   1      41.553  30.111  35.581  1.00  0.00     0.031 C 
ATOM     47  C   UNL A   1      44.202  26.573  31.419  1.00  0.00     0.029 A 
ATOM     48  C   UNL A   1      43.335  27.445  32.055  1.00  0.00     0.049 A 
ATOM     49  H   UNL A   1      41.651  28.452  31.277  1.00  0.00     0.167 HD
ATOM     50  C   UNL A   1      42.498  28.796  33.956  1.00  0.00     0.074 A 
ATOM     51  C   UNL A   1      42.534  29.256  35.330  1.00  0.00     0.031 C 
ATOM     52  C   UNL A   1      43.353  27.887  33.427  1.00  0.00     0.031 A 
BRANCH  39  53
ATOM     53  C   UNL A   1      42.270  26.583  27.481  1.00  0.00    -0.014 A 
ATOM     54  C   UNL A   1      41.766  25.294  27.253  1.00  0.00     0.009 A 
ATOM     55  C   UNL A   1      43.134  27.146  26.524  1.00  0.00     0.009 A 
ATOM     56  C   UNL A   1      42.154  24.571  26.121  1.00  0.00     0.001 A 
ATOM     57  C   UNL A   1      43.493  26.435  25.377  1.00  0.00     0.001 A 
ATOM     58  C   UNL A   1      43.013  25.142  25.184  1.00  0.00     0.000 A 
ENDBRANCH  39  53
BRANCH  40  59
ATOM     59  C   UNL A   1      39.210  31.859  35.348  1.00  0.00    -0.014 A 
ATOM     60  C   UNL A   1      38.291  31.249  36.211  1.00  0.00     0.009 A 
ATOM     61  C   UNL A   1      39.696  33.140  35.666  1.00  0.00     0.009 A 
ATOM     62  C   UNL A   1      37.873  31.905  37.371  1.00  0.00     0.001 A 
ATOM     63  C   UNL A   1      39.305  33.777  36.844  1.00  0.00     0.001 A 
ATOM     64  C   UNL A   1      38.391  33.160  37.694  1.00  0.00     0.000 A 
ENDBRANCH  40  59
BRANCH  52  65
ATOM     65  C   UNL A   1      44.421  27.351  34.338  1.00  0.00    -0.014 A 
ATOM     66  C   UNL A   1      44.231  26.170  35.072  1.00  0.00     0.009 A 
ATOM     67  C   UNL A   1      45.641  28.034  34.455  1.00  0.00     0.009 A 
ATOM     68  C   UNL A   1      45.226  25.707  35.935  1.00  0.00     0.001 A 
ATOM     69  C   UNL A   1      46.646  27.553  35.296  1.00  0.00     0.001 A 
ATOM     70  C   UNL A   1      46.433  26.395  36.043  1.00  0.00     0.000 A 
ENDBRANCH  52  65
ENDBRANCH  26  27
ENDBRANCH  19  21
ENDBRANCH  18  19
ENDBRANCH   1  18
TORSDOF 13
ENDMDL
MODEL 3
REMARK VINA RESULT:      -9.1      6.655     11.197
REMARK SMILES COc1nc(C(F)(F)F)ccc1C(=O)OCCOC(=O)c1ccc(-c2c3nc(c(-c4ccccc4)c4ccc([nH]4)c(-c4ccccc4)c4nc(c(-c5ccccc5)c5ccc2[nH]5)C=C4)C=C3)cc1
REMARK SMILES IDX 17 1 16 2 15 3 13 4 14 5 12 6 3 7 4 8 5 9 11 10 10 11 2 12
REMARK SMILES IDX 1 13 6 14 7 15 8 16 9 17 18 18 19 19 20 20 21 21 22 22 68 23
REMARK SMILES IDX 23 24 67 25 24 26 25 27 26 28 61 29 27 30 66 31 60 32 62 33
REMARK SMILES IDX 28 34 65 35 59 36 58 37 29 39 51 40 36 41 50 42 37 43 40 44
REMARK SMILES IDX 49 45 63 46 38 47 39 48 48 50 64 51 41 52 30 53 31 54 35 55
REMARK SMILES IDX 32 56 34 57 33 58 52 59 53 60 57 61 54 62 56 63 55 64 42 65
REMARK SMILES IDX 43 66 47 67 44 68 46 69 45 70
REMARK H PARENT 62 38 40 49
REMARK Flexibility Score: inf
ROOT
ATOM      1  C   UNL A   1      44.630  19.578  23.891  1.00  0.00     0.275 C 
ENDROOT
BRANCH   1   2
ATOM      2  C   UNL A   1      43.912  18.695  24.912  1.00  0.00     0.275 C 
BRANCH   2   3
ATOM      3  O   UNL A   1      42.595  19.204  25.221  1.00  0.00    -0.458 OA
BRANCH   3   4
ATOM      4  C   UNL A   1      42.299  19.262  26.541  1.00  0.00     0.343 C 
ATOM      5  O   UNL A   1      42.645  18.473  27.407  1.00  0.00    -0.246 OA
BRANCH   4   6
ATOM      6  C   UNL A   1      41.391  20.378  26.820  1.00  0.00     0.122 A 
ATOM      7  C   UNL A   1      40.149  20.463  26.216  1.00  0.00     0.228 A 
ATOM      8  N   UNL A   1      39.379  21.574  26.221  1.00  0.00    -0.208 NA
ATOM      9  C   UNL A   1      39.835  22.662  26.894  1.00  0.00     0.148 A 
ATOM     10  C   UNL A   1      41.820  21.467  27.575  1.00  0.00     0.023 A 
ATOM     11  C   UNL A   1      41.030  22.620  27.618  1.00  0.00     0.034 A 
BRANCH   7  12
ATOM     12  O   UNL A   1      39.587  19.388  25.593  1.00  0.00    -0.480 OA
ATOM     13  C   UNL A   1      38.297  19.763  25.106  1.00  0.00     0.280 C 
ENDBRANCH   7  12
BRANCH   9  14
ATOM     14  C   UNL A   1      39.036  23.954  26.786  1.00  0.00     0.433 C 
ATOM     15  F   UNL A   1      38.877  24.572  27.993  1.00  0.00    -0.165 F 
ATOM     16  F   UNL A   1      39.603  24.876  25.960  1.00  0.00    -0.165 F 
ATOM     17  F   UNL A   1      37.772  23.761  26.307  1.00  0.00    -0.165 F 
ENDBRANCH   9  14
ENDBRANCH   4   6
ENDBRANCH   3   4
ENDBRANCH   2   3
ENDBRANCH   1   2
BRANCH   1  18
ATOM     18  O   UNL A   1      44.457  20.962  24.236  1.00  0.00    -0.458 OA
BRANCH  18  19
ATOM     19  C   UNL A   1      45.341  21.460  25.132  1.00  0.00     0.338 C 
ATOM     20  O   UNL A   1      46.414  20.981  25.446  1.00  0.00    -0.246 OA
BRANCH  19  21
ATOM     21  C   UNL A   1      44.868  22.753  25.674  1.00  0.00     0.060 A 
ATOM     22  C   UNL A   1      44.420  23.752  24.818  1.00  0.00     0.016 A 
ATOM     23  C   UNL A   1      45.076  23.046  27.024  1.00  0.00     0.016 A 
ATOM     24  C   UNL A   1      44.353  25.070  25.268  1.00  0.00     0.010 A 
ATOM     25  C   UNL A   1      44.860  24.346  27.500  1.00  0.00     0.010 A 
ATOM     26  C   UNL A   1      44.550  25.395  26.617  1.00  0.00    -0.014 A 
BRANCH  26  27
ATOM     27  C   UNL A   1      44.449  26.808  27.099  1.00  0.00     0.031 A 
ATOM     28  C   UNL A   1      45.679  27.677  27.238  1.00  0.00     0.074 A 
ATOM     29  C   UNL A   1      43.253  27.332  27.441  1.00  0.00     0.049 A 
ATOM     30  N   UNL A   1      45.826  28.813  27.879  1.00  0.00    -0.248 NA
ATOM     31  C   UNL A   1      46.910  27.198  26.591  1.00  0.00     0.031 C 
ATOM     32  C   UNL A   1      41.960  26.656  27.320  1.00  0.00     0.029 A 
ATOM     33  N   UNL A   1      42.932  28.559  27.973  1.00  0.00    -0.354 N 
ATOM     34  C   UNL A   1      47.174  29.140  27.776  1.00  0.00     0.074 A 
ATOM     35  C   UNL A   1      47.803  28.085  27.008  1.00  0.00     0.031 C 
ATOM     36  C   UNL A   1      40.989  27.482  27.723  1.00  0.00     0.029 A 
ATOM     37  C   UNL A   1      41.596  28.691  28.260  1.00  0.00     0.049 A 
ATOM     38  H   UNL A   1      43.594  29.270  28.132  1.00  0.00     0.167 HD
ATOM     39  C   UNL A   1      47.830  30.214  28.287  1.00  0.00     0.031 A 
ATOM     40  C   UNL A   1      40.922  29.628  28.954  1.00  0.00     0.031 A 
ATOM     41  C   UNL A   1      47.194  31.289  29.009  1.00  0.00     0.049 A 
ATOM     42  C   UNL A   1      41.665  30.777  29.557  1.00  0.00     0.074 A 
ATOM     43  C   UNL A   1      47.767  32.436  29.531  1.00  0.00     0.029 A 
ATOM     44  N   UNL A   1      45.840  31.353  29.304  1.00  0.00    -0.354 N 
ATOM     45  N   UNL A   1      42.947  31.041  29.512  1.00  0.00    -0.248 NA
ATOM     46  C   UNL A   1      40.870  31.746  30.321  1.00  0.00     0.031 C 
ATOM     47  C   UNL A   1      46.773  33.163  30.197  1.00  0.00     0.029 A 
ATOM     48  C   UNL A   1      45.566  32.503  30.029  1.00  0.00     0.049 A 
ATOM     49  H   UNL A   1      45.172  30.681  29.039  1.00  0.00     0.167 HD
ATOM     50  C   UNL A   1      43.115  32.214  30.234  1.00  0.00     0.074 A 
ATOM     51  C   UNL A   1      41.798  32.619  30.687  1.00  0.00     0.031 C 
ATOM     52  C   UNL A   1      44.260  32.890  30.497  1.00  0.00     0.031 A 
BRANCH  39  53
ATOM     53  C   UNL A   1      49.331  30.251  28.143  1.00  0.00    -0.014 A 
ATOM     54  C   UNL A   1      49.969  30.923  27.090  1.00  0.00     0.009 A 
ATOM     55  C   UNL A   1      50.126  29.623  29.119  1.00  0.00     0.009 A 
ATOM     56  C   UNL A   1      51.364  30.924  26.990  1.00  0.00     0.001 A 
ATOM     57  C   UNL A   1      51.520  29.655  29.036  1.00  0.00     0.001 A 
ATOM     58  C   UNL A   1      52.137  30.293  27.965  1.00  0.00     0.000 A 
ENDBRANCH  39  53
BRANCH  40  59
ATOM     59  C   UNL A   1      39.464  29.440  29.178  1.00  0.00    -0.014 A 
ATOM     60  C   UNL A   1      38.987  28.871  30.366  1.00  0.00     0.009 A 
ATOM     61  C   UNL A   1      38.540  29.915  28.230  1.00  0.00     0.009 A 
ATOM     62  C   UNL A   1      37.613  28.785  30.602  1.00  0.00     0.001 A 
ATOM     63  C   UNL A   1      37.169  29.861  28.485  1.00  0.00     0.001 A 
ATOM     64  C   UNL A   1      36.707  29.293  29.670  1.00  0.00     0.000 A 
ENDBRANCH  40  59
BRANCH  52  65
ATOM     65  C   UNL A   1      44.130  34.158  31.293  1.00  0.00    -0.014 A 
ATOM     66  C   UNL A   1      43.873  35.390  30.668  1.00  0.00     0.009 A 
ATOM     67  C   UNL A   1      44.259  34.119  32.689  1.00  0.00     0.009 A 
ATOM     68  C   UNL A   1      43.787  36.560  31.425  1.00  0.00     0.001 A 
ATOM     69  C   UNL A   1      44.142  35.286  33.446  1.00  0.00     0.001 A 
ATOM     70  C   UNL A   1      43.917  36.507  32.812  1.00  0.00     0.000 A 
ENDBRANCH  52  65
ENDBRANCH  26  27
ENDBRANCH  19  21
ENDBRANCH  18  19
ENDBRANCH   1  18
TORSDOF 13
ENDMDL
