MODEL 1
REMARK VINA RESULT:     -12.2      0.000      0.000
REMARK SMILES O=C(CCC1CC[NH+]([C@H]2CCO[C@]3(CCSC3)C2)CC1)OCCOC(=O)c1ccc(-c2c3nc(c(-c4ccccc4)c4ccc([nH]4)c(-c4ccccc4)c4nc(c(-c5ccccc5)c5ccc2[nH]5)C=C4)C=C3)cc1
REMARK SMILES IDX 22 1 21 2 2 3 1 4 3 5 4 6 5 7 6 8 20 9 7 10 19 11 8 12 9 14
REMARK SMILES IDX 10 15 18 16 11 17 13 18 12 19 14 20 17 21 15 22 16 23 23 24
REMARK SMILES IDX 24 25 25 26 26 27 27 28 28 29 74 30 29 31 73 32 30 33 31 34
REMARK SMILES IDX 32 35 67 36 33 37 72 38 66 39 68 40 34 41 71 42 65 43 64 44
REMARK SMILES IDX 35 46 57 47 42 48 56 49 43 50 46 51 55 52 69 53 44 54 45 55
REMARK SMILES IDX 54 57 70 58 47 59 36 60 37 61 41 62 38 63 40 64 39 65 58 66
REMARK SMILES IDX 59 67 63 68 60 69 62 70 61 71 48 72 49 73 53 74 50 75 52 76
REMARK SMILES IDX 51 77
REMARK H PARENT 8 13 68 45 46 56
REMARK Flexibility Score: inf
ROOT
ATOM      1  C   UNL A   1      43.325  20.193  25.383  1.00  0.00     0.274 C 
ENDROOT
BRANCH   1   2
ATOM      2  O   UNL A   1      41.573  20.864  25.908  1.00  0.00    -0.462 OA
BRANCH   2   3
ATOM      3  C   UNL A   1      40.519  21.359  26.781  1.00  0.00     0.305 C 
ATOM      4  O   UNL A   1      40.410  20.963  27.940  1.00  0.00    -0.252 OA
BRANCH   3   5
ATOM      5  C   UNL A   1      39.459  22.314  26.200  1.00  0.00     0.123 C 
BRANCH   5   6
ATOM      6  C   UNL A   1      38.389  21.544  25.512  1.00  0.00     0.016 C 
BRANCH   6   7
ATOM      7  C   UNL A   1      37.218  22.461  25.610  1.00  0.00     0.001 C 
ATOM      8  C   UNL A   1      35.640  21.448  26.293  1.00  0.00     0.065 C 
ATOM      9  C   UNL A   1      36.982  23.295  23.878  1.00  0.00     0.065 C 
ATOM     10  C   UNL A   1      34.011  21.483  25.097  1.00  0.00     0.262 C 
ATOM     11  C   UNL A   1      35.397  22.990  22.892  1.00  0.00     0.262 C 
ATOM     12  N   UNL A   1      33.899  22.608  23.632  1.00  0.00    -0.332 N 
ATOM     13  H   UNL A   1      33.329  21.919  23.142  1.00  0.00     0.348 HD
BRANCH  12  14
ATOM     14  C   UNL A   1      32.978  23.881  23.538  1.00  0.00     0.189 C 
ATOM     15  C   UNL A   1      31.455  23.615  23.262  1.00  0.00     0.093 C 
ATOM     16  C   UNL A   1      33.000  24.742  24.864  1.00  0.00     0.101 C 
ATOM     17  C   UNL A   1      30.431  24.686  23.494  1.00  0.00     0.167 C 
ATOM     18  C   UNL A   1      31.850  25.819  25.020  1.00  0.00     0.084 C 
ATOM     19  O   UNL A   1      30.571  25.211  24.788  1.00  0.00    -0.374 OA
ATOM     20  C   UNL A   1      31.996  27.047  24.081  1.00  0.00     0.047 C 
ATOM     21  C   UNL A   1      31.741  26.341  26.468  1.00  0.00     0.105 C 
ATOM     22  C   UNL A   1      32.131  28.349  24.857  1.00  0.00     0.072 C 
ATOM     23  S   UNL A   1      32.650  27.891  26.510  1.00  0.00    -0.159 SA
ENDBRANCH  12  14
ENDBRANCH   6   7
ENDBRANCH   5   6
ENDBRANCH   3   5
ENDBRANCH   2   3
ENDBRANCH   1   2
BRANCH   1  24
ATOM     24  C   UNL A   1      44.808  21.114  25.168  1.00  0.00     0.275 C 
BRANCH  24  25
ATOM     25  O   UNL A   1      44.934  22.368  25.955  1.00  0.00    -0.458 OA
BRANCH  25  26
ATOM     26  C   UNL A   1      44.856  23.626  25.380  1.00  0.00     0.338 C 
ATOM     27  O   UNL A   1      45.065  23.916  24.243  1.00  0.00    -0.246 OA
BRANCH  26  28
ATOM     28  C   UNL A   1      44.137  24.539  26.360  1.00  0.00     0.060 A 
ATOM     29  C   UNL A   1      44.452  25.914  26.384  1.00  0.00     0.016 A 
ATOM     30  C   UNL A   1      43.046  24.090  27.103  1.00  0.00     0.016 A 
ATOM     31  C   UNL A   1      43.658  26.828  27.107  1.00  0.00     0.010 A 
ATOM     32  C   UNL A   1      42.281  24.996  27.862  1.00  0.00     0.010 A 
ATOM     33  C   UNL A   1      42.579  26.373  27.882  1.00  0.00    -0.014 A 
BRANCH  33  34
ATOM     34  C   UNL A   1      41.980  27.247  28.941  1.00  0.00     0.031 A 
ATOM     35  C   UNL A   1      42.647  27.220  30.296  1.00  0.00     0.074 A 
ATOM     36  C   UNL A   1      40.889  28.024  28.773  1.00  0.00     0.049 A 
ATOM     37  N   UNL A   1      42.327  27.842  31.403  1.00  0.00    -0.248 NA
ATOM     38  C   UNL A   1      43.837  26.362  30.410  1.00  0.00     0.031 C 
ATOM     39  C   UNL A   1      40.141  28.206  27.533  1.00  0.00     0.029 A 
ATOM     40  N   UNL A   1      40.217  28.817  29.683  1.00  0.00    -0.354 N 
ATOM     41  C   UNL A   1      43.273  27.445  32.341  1.00  0.00     0.074 A 
ATOM     42  C   UNL A   1      44.155  26.506  31.684  1.00  0.00     0.031 C 
ATOM     43  C   UNL A   1      39.114  29.050  27.759  1.00  0.00     0.029 A 
ATOM     44  C   UNL A   1      39.111  29.455  29.168  1.00  0.00     0.049 A 
ATOM     45  H   UNL A   1      40.503  28.916  30.620  1.00  0.00     0.167 HD
ATOM     46  C   UNL A   1      43.415  27.822  33.633  1.00  0.00     0.031 A 
ATOM     47  C   UNL A   1      38.202  30.262  29.759  1.00  0.00     0.031 A 
ATOM     48  C   UNL A   1      42.538  28.726  34.323  1.00  0.00     0.049 A 
ATOM     49  C   UNL A   1      38.327  30.601  31.229  1.00  0.00     0.074 A 
ATOM     50  C   UNL A   1      42.617  29.169  35.632  1.00  0.00     0.029 A 
ATOM     51  N   UNL A   1      41.413  29.312  33.768  1.00  0.00    -0.354 N 
ATOM     52  N   UNL A   1      39.256  30.256  32.087  1.00  0.00    -0.248 NA
ATOM     53  C   UNL A   1      37.276  31.458  31.807  1.00  0.00     0.031 C 
ATOM     54  C   UNL A   1      41.503  29.975  35.889  1.00  0.00     0.029 A 
ATOM     55  C   UNL A   1      40.773  30.091  34.717  1.00  0.00     0.049 A 
ATOM     56  H   UNL A   1      41.115  29.194  32.838  1.00  0.00     0.167 HD
ATOM     57  C   UNL A   1      38.927  30.889  33.284  1.00  0.00     0.074 A 
ATOM     58  C   UNL A   1      37.718  31.645  33.041  1.00  0.00     0.031 C 
ATOM     59  C   UNL A   1      39.576  30.853  34.475  1.00  0.00     0.031 A 
BRANCH  46  60
ATOM     60  C   UNL A   1      44.552  27.206  34.398  1.00  0.00    -0.014 A 
ATOM     61  C   UNL A   1      44.393  25.995  35.093  1.00  0.00     0.009 A 
ATOM     62  C   UNL A   1      45.799  27.848  34.425  1.00  0.00     0.009 A 
ATOM     63  C   UNL A   1      45.449  25.465  35.837  1.00  0.00     0.001 A 
ATOM     64  C   UNL A   1      46.862  27.298  35.142  1.00  0.00     0.001 A 
ATOM     65  C   UNL A   1      46.682  26.115  35.856  1.00  0.00     0.000 A 
ENDBRANCH  46  60
BRANCH  47  66
ATOM     66  C   UNL A   1      37.063  30.832  28.980  1.00  0.00    -0.014 A 
ATOM     67  C   UNL A   1      37.043  32.193  28.631  1.00  0.00     0.009 A 
ATOM     68  C   UNL A   1      35.951  30.039  28.652  1.00  0.00     0.009 A 
ATOM     69  C   UNL A   1      35.926  32.753  28.004  1.00  0.00     0.001 A 
ATOM     70  C   UNL A   1      34.848  30.595  27.995  1.00  0.00     0.001 A 
ATOM     71  C   UNL A   1      34.831  31.953  27.682  1.00  0.00     0.000 A 
ENDBRANCH  47  66
BRANCH  59  72
ATOM     72  C   UNL A   1      39.040  31.703  35.597  1.00  0.00    -0.014 A 
ATOM     73  C   UNL A   1      38.150  31.193  36.555  1.00  0.00     0.009 A 
ATOM     74  C   UNL A   1      39.478  33.033  35.724  1.00  0.00     0.009 A 
ATOM     75  C   UNL A   1      37.676  32.009  37.587  1.00  0.00     0.001 A 
ATOM     76  C   UNL A   1      39.031  33.835  36.776  1.00  0.00     0.001 A 
ATOM     77  C   UNL A   1      38.121  33.326  37.700  1.00  0.00     0.000 A 
ENDBRANCH  59  72
ENDBRANCH  33  34
ENDBRANCH  26  28
ENDBRANCH  25  26
ENDBRANCH  24  25
ENDBRANCH   1  24
TORSDOF 14
ENDMDL
MODEL 2
REMARK VINA RESULT:     -12.0      3.449      7.316
REMARK SMILES O=C(CCC1CC[NH+]([C@H]2CCO[C@]3(CCSC3)C2)CC1)OCCOC(=O)c1ccc(-c2c3nc(c(-c4ccccc4)c4ccc([nH]4)c(-c4ccccc4)c4nc(c(-c5ccccc5)c5ccc2[nH]5)C=C4)C=C3)cc1
REMARK SMILES IDX 22 1 21 2 2 3 1 4 3 5 4 6 5 7 6 8 20 9 7 10 19 11 8 12 9 14
REMARK SMILES IDX 10 15 18 16 11 17 13 18 12 19 14 20 17 21 15 22 16 23 23 24
REMARK SMILES IDX 24 25 25 26 26 27 27 28 28 29 74 30 29 31 73 32 30 33 31 34
REMARK SMILES IDX 32 35 67 36 33 37 72 38 66 39 68 40 34 41 71 42 65 43 64 44
REMARK SMILES IDX 35 46 57 47 42 48 56 49 43 50 46 51 55 52 69 53 44 54 45 55
REMARK SMILES IDX 54 57 70 58 47 59 36 60 37 61 41 62 38 63 40 64 39 65 58 66
REMARK SMILES IDX 59 67 63 68 60 69 62 70 61 71 48 72 49 73 53 74 50 75 52 76
REMARK SMILES IDX 51 77
REMARK H PARENT 8 13 68 45 46 56
REMARK Flexibility Score: inf
ROOT
ATOM      1  C   UNL A   1      36.931  20.311  25.006  1.00  0.00     0.274 C 
ENDROOT
BRANCH   1   2
ATOM      2  O   UNL A   1      35.495  19.047  24.637  1.00  0.00    -0.462 OA
BRANCH   2   3
ATOM      3  C   UNL A   1      34.136  18.547  24.491  1.00  0.00     0.305 C 
ATOM      4  O   UNL A   1      33.872  17.630  23.717  1.00  0.00    -0.252 OA
BRANCH   3   5
ATOM      5  C   UNL A   1      32.995  19.261  25.243  1.00  0.00     0.123 C 
BRANCH   5   6
ATOM      6  C   UNL A   1      32.274  20.188  24.331  1.00  0.00     0.016 C 
BRANCH   6   7
ATOM      7  C   UNL A   1      32.701  21.527  24.829  1.00  0.00     0.001 C 
ATOM      8  C   UNL A   1      31.098  22.546  25.440  1.00  0.00     0.065 C 
ATOM      9  C   UNL A   1      33.735  22.370  23.426  1.00  0.00     0.065 C 
ATOM     10  C   UNL A   1      30.819  24.334  24.537  1.00  0.00     0.262 C 
ATOM     11  C   UNL A   1      33.117  23.970  22.629  1.00  0.00     0.262 C 
ATOM     12  N   UNL A   1      32.110  25.089  23.447  1.00  0.00    -0.332 N 
ATOM     13  H   UNL A   1      31.381  25.522  22.880  1.00  0.00     0.348 HD
BRANCH  12  14
ATOM     14  C   UNL A   1      32.986  26.342  23.819  1.00  0.00     0.189 C 
ATOM     15  C   UNL A   1      33.542  27.181  22.613  1.00  0.00     0.093 C 
ATOM     16  C   UNL A   1      32.199  27.389  24.706  1.00  0.00     0.101 C 
ATOM     17  C   UNL A   1      34.082  28.565  22.821  1.00  0.00     0.167 C 
ATOM     18  C   UNL A   1      32.842  28.831  24.825  1.00  0.00     0.084 C 
ATOM     19  O   UNL A   1      33.147  29.344  23.520  1.00  0.00    -0.374 OA
ATOM     20  C   UNL A   1      34.127  28.884  25.695  1.00  0.00     0.047 C 
ATOM     21  C   UNL A   1      31.844  29.862  25.392  1.00  0.00     0.105 C 
ATOM     22  C   UNL A   1      33.968  29.804  26.897  1.00  0.00     0.072 C 
ATOM     23  S   UNL A   1      32.204  29.993  27.148  1.00  0.00    -0.159 SA
ENDBRANCH  12  14
ENDBRANCH   6   7
ENDBRANCH   5   6
ENDBRANCH   3   5
ENDBRANCH   2   3
ENDBRANCH   1   2
BRANCH   1  24
ATOM     24  C   UNL A   1      36.783  21.994  25.497  1.00  0.00     0.275 C 
BRANCH  24  25
ATOM     25  O   UNL A   1      38.025  22.809  25.466  1.00  0.00    -0.458 OA
BRANCH  25  26
ATOM     26  C   UNL A   1      39.110  22.556  26.287  1.00  0.00     0.338 C 
ATOM     27  O   UNL A   1      39.772  21.565  26.327  1.00  0.00    -0.246 OA
BRANCH  26  28
ATOM     28  C   UNL A   1      39.539  23.875  26.909  1.00  0.00     0.060 A 
ATOM     29  C   UNL A   1      40.199  24.834  26.112  1.00  0.00     0.016 A 
ATOM     30  C   UNL A   1      39.134  24.237  28.193  1.00  0.00     0.016 A 
ATOM     31  C   UNL A   1      40.408  26.147  26.581  1.00  0.00     0.010 A 
ATOM     32  C   UNL A   1      39.385  25.535  28.678  1.00  0.00     0.010 A 
ATOM     33  C   UNL A   1      40.031  26.504  27.885  1.00  0.00    -0.014 A 
BRANCH  33  34
ATOM     34  C   UNL A   1      40.582  27.740  28.526  1.00  0.00     0.031 A 
ATOM     35  C   UNL A   1      39.617  28.887  28.721  1.00  0.00     0.074 A 
ATOM     36  C   UNL A   1      41.864  27.903  28.914  1.00  0.00     0.049 A 
ATOM     37  N   UNL A   1      39.821  30.083  29.213  1.00  0.00    -0.248 NA
ATOM     38  C   UNL A   1      38.232  28.642  28.288  1.00  0.00     0.031 C 
ATOM     39  C   UNL A   1      42.921  26.899  28.842  1.00  0.00     0.029 A 
ATOM     40  N   UNL A   1      42.493  29.007  29.455  1.00  0.00    -0.354 N 
ATOM     41  C   UNL A   1      38.593  30.730  29.144  1.00  0.00     0.074 A 
ATOM     42  C   UNL A   1      37.661  29.808  28.532  1.00  0.00     0.031 C 
ATOM     43  C   UNL A   1      44.066  27.432  29.315  1.00  0.00     0.029 A 
ATOM     44  C   UNL A   1      43.836  28.826  29.703  1.00  0.00     0.049 A 
ATOM     45  H   UNL A   1      42.024  29.851  29.644  1.00  0.00     0.167 HD
ATOM     46  C   UNL A   1      38.250  31.974  29.552  1.00  0.00     0.031 A 
ATOM     47  C   UNL A   1      44.768  29.681  30.181  1.00  0.00     0.031 A 
ATOM     48  C   UNL A   1      39.159  32.924  30.132  1.00  0.00     0.049 A 
ATOM     49  C   UNL A   1      44.385  31.098  30.549  1.00  0.00     0.074 A 
ATOM     50  C   UNL A   1      38.890  34.205  30.583  1.00  0.00     0.029 A 
ATOM     51  N   UNL A   1      40.512  32.705  30.325  1.00  0.00    -0.354 N 
ATOM     52  N   UNL A   1      43.209  31.676  30.522  1.00  0.00    -0.248 NA
ATOM     53  C   UNL A   1      45.466  31.978  31.028  1.00  0.00     0.031 C 
ATOM     54  C   UNL A   1      40.095  34.785  30.992  1.00  0.00     0.029 A 
ATOM     55  C   UNL A   1      41.098  33.838  30.863  1.00  0.00     0.049 A 
ATOM     56  H   UNL A   1      40.986  31.869  30.114  1.00  0.00     0.167 HD
ATOM     57  C   UNL A   1      43.402  32.962  31.023  1.00  0.00     0.074 A 
ATOM     58  C   UNL A   1      44.805  33.079  31.352  1.00  0.00     0.031 C 
ATOM     59  C   UNL A   1      42.493  33.953  31.202  1.00  0.00     0.031 A 
BRANCH  46  60
ATOM     60  C   UNL A   1      36.824  32.390  29.335  1.00  0.00    -0.014 A 
ATOM     61  C   UNL A   1      36.394  32.908  28.102  1.00  0.00     0.009 A 
ATOM     62  C   UNL A   1      35.898  32.266  30.381  1.00  0.00     0.009 A 
ATOM     63  C   UNL A   1      35.074  33.334  27.937  1.00  0.00     0.001 A 
ATOM     64  C   UNL A   1      34.571  32.661  30.202  1.00  0.00     0.001 A 
ATOM     65  C   UNL A   1      34.165  33.205  28.985  1.00  0.00     0.000 A 
ENDBRANCH  46  60
BRANCH  47  66
ATOM     66  C   UNL A   1      46.187  29.248  30.353  1.00  0.00    -0.014 A 
ATOM     67  C   UNL A   1      47.109  29.378  29.300  1.00  0.00     0.009 A 
ATOM     68  C   UNL A   1      46.608  28.626  31.539  1.00  0.00     0.009 A 
ATOM     69  C   UNL A   1      48.406  28.869  29.419  1.00  0.00     0.001 A 
ATOM     70  C   UNL A   1      47.916  28.147  31.667  1.00  0.00     0.001 A 
ATOM     71  C   UNL A   1      48.810  28.258  30.604  1.00  0.00     0.000 A 
ENDBRANCH  47  66
BRANCH  59  72
ATOM     72  C   UNL A   1      42.961  35.234  31.841  1.00  0.00    -0.014 A 
ATOM     73  C   UNL A   1      43.577  36.253  31.098  1.00  0.00     0.009 A 
ATOM     74  C   UNL A   1      42.735  35.442  33.213  1.00  0.00     0.009 A 
ATOM     75  C   UNL A   1      43.995  37.432  31.723  1.00  0.00     0.001 A 
ATOM     76  C   UNL A   1      43.121  36.635  33.828  1.00  0.00     0.001 A 
ATOM     77  C   UNL A   1      43.762  37.625  33.085  1.00  0.00     0.000 A 
ENDBRANCH  59  72
ENDBRANCH  33  34
ENDBRANCH  26  28
ENDBRANCH  25  26
ENDBRANCH  24  25
ENDBRANCH   1  24
TORSDOF 14
ENDMDL
MODEL 3
REMARK VINA RESULT:     -11.8      5.041     11.845
REMARK SMILES O=C(CCC1CC[NH+]([C@H]2CCO[C@]3(CCSC3)C2)CC1)OCCOC(=O)c1ccc(-c2c3nc(c(-c4ccccc4)c4ccc([nH]4)c(-c4ccccc4)c4nc(c(-c5ccccc5)c5ccc2[nH]5)C=C4)C=C3)cc1
REMARK SMILES IDX 22 1 21 2 2 3 1 4 3 5 4 6 5 7 6 8 20 9 7 10 19 11 8 12 9 14
REMARK SMILES IDX 10 15 18 16 11 17 13 18 12 19 14 20 17 21 15 22 16 23 23 24
REMARK SMILES IDX 24 25 25 26 26 27 27 28 28 29 74 30 29 31 73 32 30 33 31 34
REMARK SMILES IDX 32 35 67 36 33 37 72 38 66 39 68 40 34 41 71 42 65 43 64 44
REMARK SMILES IDX 35 46 57 47 42 48 56 49 43 50 46 51 55 52 69 53 44 54 45 55
REMARK SMILES IDX 54 57 70 58 47 59 36 60 37 61 41 62 38 63 40 64 39 65 58 66
REMARK SMILES IDX 59 67 63 68 60 69 62 70 61 71 48 72 49 73 53 74 50 75 52 76
REMARK SMILES IDX 51 77
REMARK H PARENT 8 13 68 45 46 56
REMARK Flexibility Score: inf
ROOT
ATOM      1  C   UNL A   1      34.173  36.507  33.018  1.00  0.00     0.274 C 
ENDROOT
BRANCH   1   2
ATOM      2  O   UNL A   1      35.034  35.189  34.166  1.00  0.00    -0.462 OA
BRANCH   2   3
ATOM      3  C   UNL A   1      35.617  33.917  34.566  1.00  0.00     0.305 C 
ATOM      4  O   UNL A   1      35.243  32.857  34.067  1.00  0.00    -0.252 OA
BRANCH   3   5
ATOM      5  C   UNL A   1      36.644  33.896  35.715  1.00  0.00     0.123 C 
BRANCH   5   6
ATOM      6  C   UNL A   1      38.024  33.777  35.175  1.00  0.00     0.016 C 
BRANCH   6   7
ATOM      7  C   UNL A   1      38.515  32.527  35.821  1.00  0.00     0.001 C 
ATOM      8  C   UNL A   1      40.135  32.939  36.912  1.00  0.00     0.065 C 
ATOM      9  C   UNL A   1      38.768  31.208  34.426  1.00  0.00     0.065 C 
ATOM     10  C   UNL A   1      41.789  31.882  36.430  1.00  0.00     0.262 C 
ATOM     11  C   UNL A   1      40.496  30.523  34.077  1.00  0.00     0.262 C 
ATOM     12  N   UNL A   1      41.724  30.442  35.270  1.00  0.00    -0.332 N 
ATOM     13  H   UNL A   1      42.667  30.656  34.946  1.00  0.00     0.348 HD
BRANCH  12  14
ATOM     14  C   UNL A   1      41.885  28.934  35.691  1.00  0.00     0.189 C 
ATOM     15  C   UNL A   1      41.519  27.866  34.598  1.00  0.00     0.093 C 
ATOM     16  C   UNL A   1      43.369  28.580  36.113  1.00  0.00     0.101 C 
ATOM     17  C   UNL A   1      41.952  26.437  34.741  1.00  0.00     0.167 C 
ATOM     18  C   UNL A   1      43.726  27.040  36.195  1.00  0.00     0.084 C 
ATOM     19  O   UNL A   1      43.333  26.378  34.985  1.00  0.00    -0.374 OA
ATOM     20  C   UNL A   1      43.082  26.301  37.400  1.00  0.00     0.047 C 
ATOM     21  C   UNL A   1      45.249  26.804  36.255  1.00  0.00     0.105 C 
ATOM     22  C   UNL A   1      44.127  25.705  38.332  1.00  0.00     0.072 C 
ATOM     23  S   UNL A   1      45.653  26.581  37.992  1.00  0.00    -0.159 SA
ENDBRANCH  12  14
ENDBRANCH   6   7
ENDBRANCH   5   6
ENDBRANCH   3   5
ENDBRANCH   2   3
ENDBRANCH   1   2
BRANCH   1  24
ATOM     24  C   UNL A   1      32.886  36.238  31.850  1.00  0.00     0.275 C 
BRANCH  24  25
ATOM     25  O   UNL A   1      33.265  36.305  30.415  1.00  0.00    -0.458 OA
BRANCH  25  26
ATOM     26  C   UNL A   1      33.193  35.212  29.567  1.00  0.00     0.338 C 
ATOM     27  O   UNL A   1      32.408  35.029  28.688  1.00  0.00    -0.246 OA
BRANCH  26  28
ATOM     28  C   UNL A   1      34.484  34.424  29.716  1.00  0.00     0.060 A 
ATOM     29  C   UNL A   1      34.575  33.425  30.708  1.00  0.00     0.016 A 
ATOM     30  C   UNL A   1      35.512  34.533  28.781  1.00  0.00     0.016 A 
ATOM     31  C   UNL A   1      35.659  32.523  30.734  1.00  0.00     0.010 A 
ATOM     32  C   UNL A   1      36.617  33.662  28.834  1.00  0.00     0.010 A 
ATOM     33  C   UNL A   1      36.711  32.653  29.813  1.00  0.00    -0.014 A 
BRANCH  33  34
ATOM     34  C   UNL A   1      38.025  31.976  30.058  1.00  0.00     0.031 A 
ATOM     35  C   UNL A   1      39.028  32.733  30.897  1.00  0.00     0.074 A 
ATOM     36  C   UNL A   1      38.373  30.768  29.569  1.00  0.00     0.049 A 
ATOM     37  N   UNL A   1      40.250  32.412  31.240  1.00  0.00    -0.248 NA
ATOM     38  C   UNL A   1      38.582  34.039  31.409  1.00  0.00     0.031 C 
ATOM     39  C   UNL A   1      37.527  29.880  28.778  1.00  0.00     0.029 A 
ATOM     40  N   UNL A   1      39.566  30.078  29.677  1.00  0.00    -0.354 N 
ATOM     41  C   UNL A   1      40.716  33.477  32.002  1.00  0.00     0.074 A 
ATOM     42  C   UNL A   1      39.661  34.465  32.042  1.00  0.00     0.031 C 
ATOM     43  C   UNL A   1      38.225  28.768  28.469  1.00  0.00     0.029 A 
ATOM     44  C   UNL A   1      39.580  28.869  29.018  1.00  0.00     0.049 A 
ATOM     45  H   UNL A   1      40.338  30.422  30.180  1.00  0.00     0.167 HD
ATOM     46  C   UNL A   1      41.907  33.633  32.625  1.00  0.00     0.031 A 
ATOM     47  C   UNL A   1      40.566  27.957  28.868  1.00  0.00     0.031 A 
ATOM     48  C   UNL A   1      42.986  32.687  32.577  1.00  0.00     0.049 A 
ATOM     49  C   UNL A   1      41.922  28.191  29.499  1.00  0.00     0.074 A 
ATOM     50  C   UNL A   1      44.225  32.764  33.190  1.00  0.00     0.029 A 
ATOM     51  N   UNL A   1      42.964  31.500  31.865  1.00  0.00    -0.354 N 
ATOM     52  N   UNL A   1      42.328  29.181  30.256  1.00  0.00    -0.248 NA
ATOM     53  C   UNL A   1      42.954  27.166  29.260  1.00  0.00     0.031 C 
ATOM     54  C   UNL A   1      44.978  31.652  32.797  1.00  0.00     0.029 A 
ATOM     55  C   UNL A   1      44.179  30.849  32.000  1.00  0.00     0.049 A 
ATOM     56  H   UNL A   1      42.199  31.168  31.343  1.00  0.00     0.167 HD
ATOM     57  C   UNL A   1      43.639  28.873  30.619  1.00  0.00     0.074 A 
ATOM     58  C   UNL A   1      43.957  27.603  30.006  1.00  0.00     0.031 C 
ATOM     59  C   UNL A   1      44.495  29.579  31.400  1.00  0.00     0.031 A 
BRANCH  46  60
ATOM     60  C   UNL A   1      42.115  34.916  33.379  1.00  0.00    -0.014 A 
ATOM     61  C   UNL A   1      41.487  35.146  34.615  1.00  0.00     0.009 A 
ATOM     62  C   UNL A   1      42.949  35.908  32.843  1.00  0.00     0.009 A 
ATOM     63  C   UNL A   1      41.656  36.365  35.275  1.00  0.00     0.001 A 
ATOM     64  C   UNL A   1      43.142  37.112  33.522  1.00  0.00     0.001 A 
ATOM     65  C   UNL A   1      42.487  37.343  34.730  1.00  0.00     0.000 A 
ENDBRANCH  46  60
BRANCH  47  66
ATOM     66  C   UNL A   1      40.340  26.707  28.083  1.00  0.00    -0.014 A 
ATOM     67  C   UNL A   1      40.782  26.607  26.752  1.00  0.00     0.009 A 
ATOM     68  C   UNL A   1      39.611  25.639  28.629  1.00  0.00     0.009 A 
ATOM     69  C   UNL A   1      40.470  25.484  25.979  1.00  0.00     0.001 A 
ATOM     70  C   UNL A   1      39.329  24.503  27.864  1.00  0.00     0.001 A 
ATOM     71  C   UNL A   1      39.749  24.431  26.536  1.00  0.00     0.000 A 
ENDBRANCH  47  66
BRANCH  59  72
ATOM     72  C   UNL A   1      45.841  28.972  31.698  1.00  0.00    -0.014 A 
ATOM     73  C   UNL A   1      46.018  28.017  32.710  1.00  0.00     0.009 A 
ATOM     74  C   UNL A   1      46.949  29.335  30.911  1.00  0.00     0.009 A 
ATOM     75  C   UNL A   1      47.282  27.470  32.956  1.00  0.00     0.001 A 
ATOM     76  C   UNL A   1      48.203  28.762  31.136  1.00  0.00     0.001 A 
ATOM     77  C   UNL A   1      48.371  27.839  32.166  1.00  0.00     0.000 A 
ENDBRANCH  59  72
ENDBRANCH  33  34
ENDBRANCH  26  28
ENDBRANCH  25  26
ENDBRANCH  24  25
ENDBRANCH   1  24
TORSDOF 14
ENDMDL
