MODEL 1
REMARK VINA RESULT:     -10.8      0.000      0.000
REMARK SMILES O=C(CC1CCN(C(=O)NCc2ccccn2)CC1)OCCOC(=O)c1ccc(-c2c3nc(c(-c4ccccc4)c4ccc([nH]4)c(-c4ccccc4)c4nc(c(-c5ccccc5)c5ccc2[nH]5)C=C4)C=C3)cc1
REMARK SMILES IDX 21 1 20 2 2 3 1 4 3 5 4 6 5 7 19 8 6 9 18 10 7 11 8 12 9 13
REMARK SMILES IDX 10 14 11 16 12 17 13 18 17 19 14 20 16 21 15 22 22 23 23 24
REMARK SMILES IDX 24 25 25 26 26 27 27 28 73 29 28 30 72 31 29 32 30 33 31 34
REMARK SMILES IDX 66 35 32 36 71 37 65 38 67 39 33 40 70 41 64 42 63 43 34 45
REMARK SMILES IDX 56 46 41 47 55 48 42 49 45 50 54 51 68 52 43 53 44 54 53 56
REMARK SMILES IDX 69 57 46 58 35 59 36 60 40 61 37 62 39 63 38 64 57 65 58 66
REMARK SMILES IDX 62 67 59 68 61 69 60 70 47 71 48 72 52 73 49 74 51 75 50 76
REMARK H PARENT 10 15 67 44 45 55
REMARK Flexibility Score: inf
ROOT
ATOM      1  C   UNL A   1      32.813  31.619  27.445  1.00  0.00     0.274 C 
ENDROOT
BRANCH   1   2
ATOM      2  O   UNL A   1      34.192  31.275  27.256  1.00  0.00    -0.462 OA
BRANCH   2   3
ATOM      3  C   UNL A   1      34.477  29.958  27.430  1.00  0.00     0.306 C 
ATOM      4  O   UNL A   1      34.888  29.507  28.491  1.00  0.00    -0.252 OA
BRANCH   3   5
ATOM      5  C   UNL A   1      34.372  29.136  26.161  1.00  0.00     0.126 C 
BRANCH   5   6
ATOM      6  C   UNL A   1      33.368  27.967  26.247  1.00  0.00     0.003 C 
ATOM      7  C   UNL A   1      33.649  26.911  25.158  1.00  0.00     0.026 C 
ATOM      8  C   UNL A   1      31.893  28.400  26.099  1.00  0.00     0.026 C 
ATOM      9  C   UNL A   1      33.216  27.360  23.758  1.00  0.00     0.121 C 
ATOM     10  C   UNL A   1      31.583  28.893  24.692  1.00  0.00     0.121 C 
ATOM     11  N   UNL A   1      31.832  27.846  23.725  1.00  0.00    -0.325 N 
ATOM     12  C   UNL A   1      31.040  27.440  22.692  1.00  0.00     0.317 C 
ATOM     13  O   UNL A   1      31.467  26.676  21.818  1.00  0.00    -0.249 OA
ATOM     14  N   UNL A   1      29.765  27.813  22.529  1.00  0.00    -0.332 N 
ATOM     15  H   UNL A   1      29.418  27.469  21.675  1.00  0.00     0.165 HD
BRANCH  14  16
ATOM     16  C   UNL A   1      28.732  28.569  23.219  1.00  0.00     0.174 C 
BRANCH  16  17
ATOM     17  C   UNL A   1      28.600  29.974  22.664  1.00  0.00     0.060 A 
ATOM     18  C   UNL A   1      28.651  31.089  23.497  1.00  0.00     0.026 A 
ATOM     19  N   UNL A   1      28.329  30.081  21.335  1.00  0.00    -0.259 NA
ATOM     20  C   UNL A   1      28.429  32.351  22.946  1.00  0.00     0.004 A 
ATOM     21  C   UNL A   1      28.123  31.316  20.829  1.00  0.00     0.111 A 
ATOM     22  C   UNL A   1      28.159  32.470  21.588  1.00  0.00     0.020 A 
ENDBRANCH  16  17
ENDBRANCH  14  16
ENDBRANCH   5   6
ENDBRANCH   3   5
ENDBRANCH   2   3
ENDBRANCH   1   2
BRANCH   1  23
ATOM     23  C   UNL A   1      32.568  33.122  27.255  1.00  0.00     0.275 C 
BRANCH  23  24
ATOM     24  O   UNL A   1      32.420  33.812  28.510  1.00  0.00    -0.458 OA
BRANCH  24  25
ATOM     25  C   UNL A   1      33.399  34.721  28.781  1.00  0.00     0.338 C 
ATOM     26  O   UNL A   1      33.300  35.936  28.740  1.00  0.00    -0.246 OA
BRANCH  25  27
ATOM     27  C   UNL A   1      34.590  34.025  29.315  1.00  0.00     0.060 A 
ATOM     28  C   UNL A   1      34.399  33.075  30.326  1.00  0.00     0.016 A 
ATOM     29  C   UNL A   1      35.872  34.261  28.810  1.00  0.00     0.016 A 
ATOM     30  C   UNL A   1      35.485  32.352  30.828  1.00  0.00     0.010 A 
ATOM     31  C   UNL A   1      36.956  33.524  29.301  1.00  0.00     0.010 A 
ATOM     32  C   UNL A   1      36.775  32.577  30.327  1.00  0.00    -0.014 A 
BRANCH  32  33
ATOM     33  C   UNL A   1      37.956  31.917  30.940  1.00  0.00     0.031 A 
ATOM     34  C   UNL A   1      38.634  30.800  30.198  1.00  0.00     0.074 A 
ATOM     35  C   UNL A   1      38.416  32.274  32.154  1.00  0.00     0.049 A 
ATOM     36  N   UNL A   1      39.643  30.051  30.568  1.00  0.00    -0.248 NA
ATOM     37  C   UNL A   1      38.115  30.490  28.856  1.00  0.00     0.031 C 
ATOM     38  C   UNL A   1      37.891  33.361  32.973  1.00  0.00     0.029 A 
ATOM     39  N   UNL A   1      39.417  31.730  32.924  1.00  0.00    -0.354 N 
ATOM     40  C   UNL A   1      39.880  29.189  29.509  1.00  0.00     0.074 A 
ATOM     41  C   UNL A   1      38.889  29.478  28.493  1.00  0.00     0.031 C 
ATOM     42  C   UNL A   1      38.523  33.365  34.160  1.00  0.00     0.029 A 
ATOM     43  C   UNL A   1      39.502  32.282  34.180  1.00  0.00     0.049 A 
ATOM     44  H   UNL A   1      40.014  31.016  32.606  1.00  0.00     0.167 HD
ATOM     45  C   UNL A   1      40.846  28.251  29.380  1.00  0.00     0.031 A 
ATOM     46  C   UNL A   1      40.264  31.938  35.237  1.00  0.00     0.031 A 
ATOM     47  C   UNL A   1      41.833  27.950  30.380  1.00  0.00     0.049 A 
ATOM     48  C   UNL A   1      41.255  30.812  35.111  1.00  0.00     0.074 A 
ATOM     49  C   UNL A   1      42.894  27.065  30.301  1.00  0.00     0.029 A 
ATOM     50  N   UNL A   1      41.867  28.507  31.646  1.00  0.00    -0.354 N 
ATOM     51  N   UNL A   1      41.536  30.072  34.066  1.00  0.00    -0.248 NA
ATOM     52  C   UNL A   1      42.048  30.485  36.307  1.00  0.00     0.031 C 
ATOM     53  C   UNL A   1      43.538  27.044  31.543  1.00  0.00     0.029 A 
ATOM     54  C   UNL A   1      42.903  27.950  32.377  1.00  0.00     0.049 A 
ATOM     55  H   UNL A   1      41.248  29.196  31.979  1.00  0.00     0.167 HD
ATOM     56  C   UNL A   1      42.557  29.221  34.468  1.00  0.00     0.074 A 
ATOM     57  C   UNL A   1      42.852  29.535  35.849  1.00  0.00     0.031 C 
ATOM     58  C   UNL A   1      43.198  28.269  33.747  1.00  0.00     0.031 A 
BRANCH  45  59
ATOM     59  C   UNL A   1      40.873  27.465  28.104  1.00  0.00    -0.014 A 
ATOM     60  C   UNL A   1      41.602  27.916  26.993  1.00  0.00     0.009 A 
ATOM     61  C   UNL A   1      40.196  26.238  28.028  1.00  0.00     0.009 A 
ATOM     62  C   UNL A   1      41.630  27.164  25.819  1.00  0.00     0.001 A 
ATOM     63  C   UNL A   1      40.244  25.479  26.859  1.00  0.00     0.001 A 
ATOM     64  C   UNL A   1      40.954  25.945  25.753  1.00  0.00     0.000 A 
ENDBRANCH  45  59
BRANCH  46  65
ATOM     65  C   UNL A   1      40.114  32.649  36.533  1.00  0.00    -0.014 A 
ATOM     66  C   UNL A   1      38.994  32.424  37.349  1.00  0.00     0.009 A 
ATOM     67  C   UNL A   1      41.068  33.597  36.934  1.00  0.00     0.009 A 
ATOM     68  C   UNL A   1      38.818  33.159  38.524  1.00  0.00     0.001 A 
ATOM     69  C   UNL A   1      40.899  34.314  38.120  1.00  0.00     0.001 A 
ATOM     70  C   UNL A   1      39.769  34.103  38.909  1.00  0.00     0.000 A 
ENDBRANCH  46  65
BRANCH  58  71
ATOM     71  C   UNL A   1      44.309  27.517  34.422  1.00  0.00    -0.014 A 
ATOM     72  C   UNL A   1      45.598  28.062  34.521  1.00  0.00     0.009 A 
ATOM     73  C   UNL A   1      44.046  26.273  35.017  1.00  0.00     0.009 A 
ATOM     74  C   UNL A   1      46.607  27.366  35.190  1.00  0.00     0.001 A 
ATOM     75  C   UNL A   1      45.050  25.591  35.706  1.00  0.00     0.001 A 
ATOM     76  C   UNL A   1      46.331  26.135  35.786  1.00  0.00     0.000 A 
ENDBRANCH  58  71
ENDBRANCH  32  33
ENDBRANCH  25  27
ENDBRANCH  24  25
ENDBRANCH  23  24
ENDBRANCH   1  23
TORSDOF 14
ENDMDL
MODEL 2
REMARK VINA RESULT:     -10.8      4.506      9.809
REMARK SMILES O=C(CC1CCN(C(=O)NCc2ccccn2)CC1)OCCOC(=O)c1ccc(-c2c3nc(c(-c4ccccc4)c4ccc([nH]4)c(-c4ccccc4)c4nc(c(-c5ccccc5)c5ccc2[nH]5)C=C4)C=C3)cc1
REMARK SMILES IDX 21 1 20 2 2 3 1 4 3 5 4 6 5 7 19 8 6 9 18 10 7 11 8 12 9 13
REMARK SMILES IDX 10 14 11 16 12 17 13 18 17 19 14 20 16 21 15 22 22 23 23 24
REMARK SMILES IDX 24 25 25 26 26 27 27 28 73 29 28 30 72 31 29 32 30 33 31 34
REMARK SMILES IDX 66 35 32 36 71 37 65 38 67 39 33 40 70 41 64 42 63 43 34 45
REMARK SMILES IDX 56 46 41 47 55 48 42 49 45 50 54 51 68 52 43 53 44 54 53 56
REMARK SMILES IDX 69 57 46 58 35 59 36 60 40 61 37 62 39 63 38 64 57 65 58 66
REMARK SMILES IDX 62 67 59 68 61 69 60 70 47 71 48 72 52 73 49 74 51 75 50 76
REMARK H PARENT 10 15 67 44 45 55
REMARK Flexibility Score: inf
ROOT
ATOM      1  C   UNL A   1      33.729  34.425  28.571  1.00  0.00     0.274 C 
ENDROOT
BRANCH   1   2
ATOM      2  O   UNL A   1      32.859  34.600  29.696  1.00  0.00    -0.462 OA
BRANCH   2   3
ATOM      3  C   UNL A   1      33.374  35.359  30.699  1.00  0.00     0.306 C 
ATOM      4  O   UNL A   1      32.983  36.495  30.932  1.00  0.00    -0.252 OA
BRANCH   3   5
ATOM      5  C   UNL A   1      34.556  34.724  31.402  1.00  0.00     0.126 C 
BRANCH   5   6
ATOM      6  C   UNL A   1      34.222  33.410  32.140  1.00  0.00     0.003 C 
ATOM      7  C   UNL A   1      34.283  33.600  33.670  1.00  0.00     0.026 C 
ATOM      8  C   UNL A   1      35.162  32.239  31.783  1.00  0.00     0.026 C 
ATOM      9  C   UNL A   1      35.714  33.698  34.208  1.00  0.00     0.121 C 
ATOM     10  C   UNL A   1      36.576  32.465  32.302  1.00  0.00     0.121 C 
ATOM     11  N   UNL A   1      36.567  32.597  33.743  1.00  0.00    -0.325 N 
ATOM     12  C   UNL A   1      37.388  32.001  34.655  1.00  0.00     0.317 C 
ATOM     13  O   UNL A   1      37.405  32.364  35.837  1.00  0.00    -0.249 OA
ATOM     14  N   UNL A   1      38.226  30.997  34.370  1.00  0.00    -0.332 N 
ATOM     15  H   UNL A   1      38.777  30.782  35.156  1.00  0.00     0.165 HD
BRANCH  14  16
ATOM     16  C   UNL A   1      38.577  30.124  33.262  1.00  0.00     0.174 C 
BRANCH  16  17
ATOM     17  C   UNL A   1      39.989  29.590  33.394  1.00  0.00     0.060 A 
ATOM     18  C   UNL A   1      40.312  28.291  33.007  1.00  0.00     0.026 A 
ATOM     19  N   UNL A   1      40.895  30.404  34.001  1.00  0.00    -0.259 NA
ATOM     20  C   UNL A   1      41.604  27.821  33.240  1.00  0.00     0.004 A 
ATOM     21  C   UNL A   1      42.139  29.924  34.209  1.00  0.00     0.111 A 
ATOM     22  C   UNL A   1      42.537  28.649  33.852  1.00  0.00     0.020 A 
ENDBRANCH  16  17
ENDBRANCH  14  16
ENDBRANCH   5   6
ENDBRANCH   3   5
ENDBRANCH   2   3
ENDBRANCH   1   2
BRANCH   1  23
ATOM     23  C   UNL A   1      33.632  33.009  27.987  1.00  0.00     0.275 C 
BRANCH  23  24
ATOM     24  O   UNL A   1      34.476  32.073  28.685  1.00  0.00    -0.458 OA
BRANCH  24  25
ATOM     25  C   UNL A   1      34.590  30.854  28.090  1.00  0.00     0.338 C 
ATOM     26  O   UNL A   1      33.777  30.320  27.353  1.00  0.00    -0.246 OA
BRANCH  25  27
ATOM     27  C   UNL A   1      35.947  30.311  28.321  1.00  0.00     0.060 A 
ATOM     28  C   UNL A   1      36.226  29.749  29.573  1.00  0.00     0.016 A 
ATOM     29  C   UNL A   1      36.922  30.310  27.320  1.00  0.00     0.016 A 
ATOM     30  C   UNL A   1      37.476  29.175  29.824  1.00  0.00     0.010 A 
ATOM     31  C   UNL A   1      38.167  29.720  27.568  1.00  0.00     0.010 A 
ATOM     32  C   UNL A   1      38.461  29.164  28.827  1.00  0.00    -0.014 A 
BRANCH  32  33
ATOM     33  C   UNL A   1      39.835  28.681  29.120  1.00  0.00     0.031 A 
ATOM     34  C   UNL A   1      40.832  29.636  29.716  1.00  0.00     0.074 A 
ATOM     35  C   UNL A   1      40.218  27.421  28.839  1.00  0.00     0.049 A 
ATOM     36  N   UNL A   1      42.095  29.444  30.001  1.00  0.00    -0.248 NA
ATOM     37  C   UNL A   1      40.338  30.983  30.044  1.00  0.00     0.031 C 
ATOM     38  C   UNL A   1      39.358  26.374  28.300  1.00  0.00     0.029 A 
ATOM     39  N   UNL A   1      41.450  26.820  28.942  1.00  0.00    -0.354 N 
ATOM     40  C   UNL A   1      42.545  30.638  30.542  1.00  0.00     0.074 A 
ATOM     41  C   UNL A   1      41.431  31.564  30.516  1.00  0.00     0.031 C 
ATOM     42  C   UNL A   1      40.097  25.280  28.052  1.00  0.00     0.029 A 
ATOM     43  C   UNL A   1      41.484  25.549  28.420  1.00  0.00     0.049 A 
ATOM     44  H   UNL A   1      42.232  27.258  29.349  1.00  0.00     0.167 HD
ATOM     45  C   UNL A   1      43.768  30.937  31.037  1.00  0.00     0.031 A 
ATOM     46  C   UNL A   1      42.519  24.705  28.238  1.00  0.00     0.031 A 
ATOM     47  C   UNL A   1      44.882  30.031  31.067  1.00  0.00     0.049 A 
ATOM     48  C   UNL A   1      43.898  25.103  28.689  1.00  0.00     0.074 A 
ATOM     49  C   UNL A   1      46.136  30.229  31.618  1.00  0.00     0.029 A 
ATOM     50  N   UNL A   1      44.885  28.767  30.504  1.00  0.00    -0.354 N 
ATOM     51  N   UNL A   1      44.285  26.200  29.294  1.00  0.00    -0.248 NA
ATOM     52  C   UNL A   1      44.982  24.136  28.451  1.00  0.00     0.031 C 
ATOM     53  C   UNL A   1      46.919  29.104  31.337  1.00  0.00     0.029 A 
ATOM     54  C   UNL A   1      46.135  28.190  30.652  1.00  0.00     0.049 A 
ATOM     55  H   UNL A   1      44.114  28.340  30.065  1.00  0.00     0.167 HD
ATOM     56  C   UNL A   1      45.643  26.040  29.537  1.00  0.00     0.074 A 
ATOM     57  C   UNL A   1      46.016  24.741  29.021  1.00  0.00     0.031 C 
ATOM     58  C   UNL A   1      46.501  26.896  30.144  1.00  0.00     0.031 A 
BRANCH  45  59
ATOM     59  C   UNL A   1      43.968  32.320  31.579  1.00  0.00    -0.014 A 
ATOM     60  C   UNL A   1      43.759  32.601  32.938  1.00  0.00     0.009 A 
ATOM     61  C   UNL A   1      44.414  33.343  30.728  1.00  0.00     0.009 A 
ATOM     62  C   UNL A   1      43.967  33.890  33.429  1.00  0.00     0.001 A 
ATOM     63  C   UNL A   1      44.641  34.625  31.227  1.00  0.00     0.001 A 
ATOM     64  C   UNL A   1      44.411  34.900  32.575  1.00  0.00     0.000 A 
ENDBRANCH  45  59
BRANCH  46  65
ATOM     65  C   UNL A   1      42.308  23.394  27.569  1.00  0.00    -0.014 A 
ATOM     66  C   UNL A   1      41.905  22.270  28.306  1.00  0.00     0.009 A 
ATOM     67  C   UNL A   1      42.561  23.253  26.196  1.00  0.00     0.009 A 
ATOM     68  C   UNL A   1      41.792  21.023  27.686  1.00  0.00     0.001 A 
ATOM     69  C   UNL A   1      42.426  22.009  25.575  1.00  0.00     0.001 A 
ATOM     70  C   UNL A   1      42.053  20.894  26.322  1.00  0.00     0.000 A 
ENDBRANCH  46  65
BRANCH  58  71
ATOM     71  C   UNL A   1      47.923  26.447  30.319  1.00  0.00    -0.014 A 
ATOM     72  C   UNL A   1      48.341  25.806  31.495  1.00  0.00     0.009 A 
ATOM     73  C   UNL A   1      48.840  26.613  29.270  1.00  0.00     0.009 A 
ATOM     74  C   UNL A   1      49.657  25.358  31.623  1.00  0.00     0.001 A 
ATOM     75  C   UNL A   1      50.147  26.142  29.390  1.00  0.00     0.001 A 
ATOM     76  C   UNL A   1      50.557  25.520  30.569  1.00  0.00     0.000 A 
ENDBRANCH  58  71
ENDBRANCH  32  33
ENDBRANCH  25  27
ENDBRANCH  24  25
ENDBRANCH  23  24
ENDBRANCH   1  23
TORSDOF 14
ENDMDL
MODEL 3
REMARK VINA RESULT:     -10.7      5.455     10.135
REMARK SMILES O=C(CC1CCN(C(=O)NCc2ccccn2)CC1)OCCOC(=O)c1ccc(-c2c3nc(c(-c4ccccc4)c4ccc([nH]4)c(-c4ccccc4)c4nc(c(-c5ccccc5)c5ccc2[nH]5)C=C4)C=C3)cc1
REMARK SMILES IDX 21 1 20 2 2 3 1 4 3 5 4 6 5 7 19 8 6 9 18 10 7 11 8 12 9 13
REMARK SMILES IDX 10 14 11 16 12 17 13 18 17 19 14 20 16 21 15 22 22 23 23 24
REMARK SMILES IDX 24 25 25 26 26 27 27 28 73 29 28 30 72 31 29 32 30 33 31 34
REMARK SMILES IDX 66 35 32 36 71 37 65 38 67 39 33 40 70 41 64 42 63 43 34 45
REMARK SMILES IDX 56 46 41 47 55 48 42 49 45 50 54 51 68 52 43 53 44 54 53 56
REMARK SMILES IDX 69 57 46 58 35 59 36 60 40 61 37 62 39 63 38 64 57 65 58 66
REMARK SMILES IDX 62 67 59 68 61 69 60 70 47 71 48 72 52 73 49 74 51 75 50 76
REMARK H PARENT 10 15 67 44 45 55
REMARK Flexibility Score: inf
ROOT
ATOM      1  C   UNL A   1      38.369  19.809  25.004  1.00  0.00     0.274 C 
ENDROOT
BRANCH   1   2
ATOM      2  O   UNL A   1      37.609  20.983  25.320  1.00  0.00    -0.462 OA
BRANCH   2   3
ATOM      3  C   UNL A   1      36.289  20.907  25.004  1.00  0.00     0.306 C 
ATOM      4  O   UNL A   1      35.673  19.849  25.000  1.00  0.00    -0.252 OA
BRANCH   3   5
ATOM      5  C   UNL A   1      35.697  22.218  24.530  1.00  0.00     0.126 C 
BRANCH   5   6
ATOM      6  C   UNL A   1      35.626  23.310  25.619  1.00  0.00     0.003 C 
ATOM      7  C   UNL A   1      34.741  22.864  26.800  1.00  0.00     0.026 C 
ATOM      8  C   UNL A   1      35.073  24.659  25.112  1.00  0.00     0.026 C 
ATOM      9  C   UNL A   1      33.244  22.897  26.477  1.00  0.00     0.121 C 
ATOM     10  C   UNL A   1      33.596  24.569  24.753  1.00  0.00     0.121 C 
ATOM     11  N   UNL A   1      32.819  24.183  25.910  1.00  0.00    -0.325 N 
ATOM     12  C   UNL A   1      31.657  24.729  26.374  1.00  0.00     0.317 C 
ATOM     13  O   UNL A   1      30.991  24.168  27.252  1.00  0.00    -0.249 OA
ATOM     14  N   UNL A   1      31.145  25.887  25.940  1.00  0.00    -0.332 N 
ATOM     15  H   UNL A   1      30.264  26.042  26.351  1.00  0.00     0.165 HD
BRANCH  14  16
ATOM     16  C   UNL A   1      31.481  26.987  25.053  1.00  0.00     0.174 C 
BRANCH  16  17
ATOM     17  C   UNL A   1      32.216  28.093  25.783  1.00  0.00     0.060 A 
ATOM     18  C   UNL A   1      33.446  27.865  26.396  1.00  0.00     0.026 A 
ATOM     19  N   UNL A   1      31.568  29.285  25.896  1.00  0.00    -0.259 NA
ATOM     20  C   UNL A   1      34.031  28.893  27.136  1.00  0.00     0.004 A 
ATOM     21  C   UNL A   1      32.160  30.263  26.613  1.00  0.00     0.111 A 
ATOM     22  C   UNL A   1      33.379  30.115  27.249  1.00  0.00     0.020 A 
ENDBRANCH  16  17
ENDBRANCH  14  16
ENDBRANCH   5   6
ENDBRANCH   3   5
ENDBRANCH   2   3
ENDBRANCH   1   2
BRANCH   1  23
ATOM     23  C   UNL A   1      39.526  19.595  25.989  1.00  0.00     0.275 C 
BRANCH  23  24
ATOM     24  O   UNL A   1      40.730  19.161  25.328  1.00  0.00    -0.458 OA
BRANCH  24  25
ATOM     25  C   UNL A   1      41.829  19.096  26.130  1.00  0.00     0.338 C 
ATOM     26  O   UNL A   1      42.486  18.101  26.392  1.00  0.00    -0.246 OA
BRANCH  25  27
ATOM     27  C   UNL A   1      42.244  20.462  26.519  1.00  0.00     0.060 A 
ATOM     28  C   UNL A   1      42.583  21.361  25.501  1.00  0.00     0.016 A 
ATOM     29  C   UNL A   1      42.260  20.877  27.854  1.00  0.00     0.016 A 
ATOM     30  C   UNL A   1      42.931  22.680  25.813  1.00  0.00     0.010 A 
ATOM     31  C   UNL A   1      42.591  22.201  28.163  1.00  0.00     0.010 A 
ATOM     32  C   UNL A   1      42.947  23.109  27.147  1.00  0.00    -0.014 A 
BRANCH  32  33
ATOM     33  C   UNL A   1      43.442  24.463  27.506  1.00  0.00     0.031 A 
ATOM     34  C   UNL A   1      42.448  25.531  27.866  1.00  0.00     0.074 A 
ATOM     35  C   UNL A   1      44.754  24.764  27.489  1.00  0.00     0.049 A 
ATOM     36  N   UNL A   1      42.654  26.791  28.158  1.00  0.00    -0.248 NA
ATOM     37  C   UNL A   1      41.033  25.125  27.914  1.00  0.00     0.031 C 
ATOM     38  C   UNL A   1      45.835  23.829  27.201  1.00  0.00     0.029 A 
ATOM     39  N   UNL A   1      45.396  25.963  27.689  1.00  0.00    -0.354 N 
ATOM     40  C   UNL A   1      41.403  27.324  28.426  1.00  0.00     0.074 A 
ATOM     41  C   UNL A   1      40.436  26.264  28.229  1.00  0.00     0.031 C 
ATOM     42  C   UNL A   1      47.001  24.496  27.173  1.00  0.00     0.029 A 
ATOM     43  C   UNL A   1      46.747  25.908  27.447  1.00  0.00     0.049 A 
ATOM     44  H   UNL A   1      44.932  26.782  27.978  1.00  0.00     0.167 HD
ATOM     45  C   UNL A   1      41.083  28.578  28.821  1.00  0.00     0.031 A 
ATOM     46  C   UNL A   1      47.674  26.887  27.424  1.00  0.00     0.031 A 
ATOM     47  C   UNL A   1      42.031  29.640  29.017  1.00  0.00     0.049 A 
ATOM     48  C   UNL A   1      47.277  28.301  27.753  1.00  0.00     0.074 A 
ATOM     49  C   UNL A   1      41.800  30.922  29.487  1.00  0.00     0.029 A 
ATOM     50  N   UNL A   1      43.383  29.553  28.734  1.00  0.00    -0.354 N 
ATOM     51  N   UNL A   1      46.104  28.769  28.104  1.00  0.00    -0.248 NA
ATOM     52  C   UNL A   1      48.337  29.320  27.700  1.00  0.00     0.031 C 
ATOM     53  C   UNL A   1      43.006  31.629  29.433  1.00  0.00     0.029 A 
ATOM     54  C   UNL A   1      43.993  30.773  28.972  1.00  0.00     0.049 A 
ATOM     55  H   UNL A   1      43.843  28.745  28.410  1.00  0.00     0.167 HD
ATOM     56  C   UNL A   1      46.293  30.123  28.346  1.00  0.00     0.074 A 
ATOM     57  C   UNL A   1      47.692  30.405  28.108  1.00  0.00     0.031 C 
ATOM     58  C   UNL A   1      45.384  31.048  28.741  1.00  0.00     0.031 A 
BRANCH  45  59
ATOM     59  C   UNL A   1      39.633  28.875  29.055  1.00  0.00    -0.014 A 
ATOM     60  C   UNL A   1      39.049  28.677  30.316  1.00  0.00     0.009 A 
ATOM     61  C   UNL A   1      38.853  29.399  28.013  1.00  0.00     0.009 A 
ATOM     62  C   UNL A   1      37.702  28.974  30.520  1.00  0.00     0.001 A 
ATOM     63  C   UNL A   1      37.512  29.714  28.228  1.00  0.00     0.001 A 
ATOM     64  C   UNL A   1      36.935  29.496  29.478  1.00  0.00     0.000 A 
ENDBRANCH  45  59
BRANCH  46  65
ATOM     65  C   UNL A   1      49.079  26.581  27.051  1.00  0.00    -0.014 A 
ATOM     66  C   UNL A   1      50.016  26.212  28.029  1.00  0.00     0.009 A 
ATOM     67  C   UNL A   1      49.500  26.707  25.718  1.00  0.00     0.009 A 
ATOM     68  C   UNL A   1      51.354  26.009  27.682  1.00  0.00     0.001 A 
ATOM     69  C   UNL A   1      50.834  26.481  25.373  1.00  0.00     0.001 A 
ATOM     70  C   UNL A   1      51.762  26.144  26.356  1.00  0.00     0.000 A 
ENDBRANCH  46  65
BRANCH  58  71
ATOM     71  C   UNL A   1      45.874  32.448  28.977  1.00  0.00    -0.014 A 
ATOM     72  C   UNL A   1      45.776  33.428  27.978  1.00  0.00     0.009 A 
ATOM     73  C   UNL A   1      46.384  32.804  30.235  1.00  0.00     0.009 A 
ATOM     74  C   UNL A   1      46.197  34.735  28.231  1.00  0.00     0.001 A 
ATOM     75  C   UNL A   1      46.781  34.116  30.493  1.00  0.00     0.001 A 
ATOM     76  C   UNL A   1      46.693  35.080  29.488  1.00  0.00     0.000 A 
ENDBRANCH  58  71
ENDBRANCH  32  33
ENDBRANCH  25  27
ENDBRANCH  24  25
ENDBRANCH  23  24
ENDBRANCH   1  23
TORSDOF 14
ENDMDL
