MODEL 1
REMARK VINA RESULT:     -11.2      0.000      0.000
REMARK SMILES C#Cc1cc(Cl)c2c(c1)C=C(C(=O)OCCOC(=O)c1ccc(-c3c4nc(c(-c5ccccc5)c5ccc([nH]5)c(-c5ccccc5)c5nc(c(-c6ccccc6)c6ccc3[nH]6)C=C5)C=C4)cc1)[C@@H](C(F)(F)F)O2
REMARK SMILES IDX 16 1 15 2 14 3 12 4 13 5 11 6 3 7 4 8 9 9 5 10 8 11 6 12
REMARK SMILES IDX 7 13 10 14 73 15 68 16 2 17 1 18 69 19 70 20 71 21 72 22
REMARK SMILES IDX 17 23 18 24 19 25 20 26 21 27 67 28 22 29 66 30 23 31 24 32
REMARK SMILES IDX 25 33 60 34 26 35 65 36 59 37 61 38 27 39 64 40 58 41 57 42
REMARK SMILES IDX 28 44 50 45 35 46 49 47 36 48 39 49 48 50 62 51 37 52 38 53
REMARK SMILES IDX 47 55 63 56 40 57 29 58 30 59 34 60 31 61 33 62 32 63 51 64
REMARK SMILES IDX 52 65 56 66 53 67 55 68 54 69 41 70 42 71 46 72 43 73 45 74
REMARK SMILES IDX 44 75
REMARK H PARENT 61 43 39 54
REMARK Flexibility Score: inf
ROOT
ATOM      1  C   UNL A   1      31.987  29.808  25.205  1.00  0.00     0.275 C 
ENDROOT
BRANCH   1   2
ATOM      2  C   UNL A   1      31.546  28.405  24.781  1.00  0.00     0.275 C 
BRANCH   2   3
ATOM      3  O   UNL A   1      32.320  27.382  25.446  1.00  0.00    -0.459 OA
BRANCH   3   4
ATOM      4  C   UNL A   1      31.606  26.472  26.145  1.00  0.00     0.338 C 
ATOM      5  O   UNL A   1      30.655  26.702  26.876  1.00  0.00    -0.246 OA
BRANCH   4   6
ATOM      6  C   UNL A   1      32.111  25.105  25.907  1.00  0.00     0.087 C 
ATOM      7  C   UNL A   1      35.929  22.191  25.503  1.00  0.00     0.027 A 
ATOM      8  C   UNL A   1      35.138  21.224  24.884  1.00  0.00     0.041 A 
ATOM      9  C   UNL A   1      35.343  23.370  25.958  1.00  0.00     0.029 A 
ATOM     10  C   UNL A   1      33.763  21.441  24.725  1.00  0.00     0.084 A 
ATOM     11  C   UNL A   1      33.970  23.591  25.777  1.00  0.00     0.020 A 
ATOM     12  Cl  UNL A   1      32.829  20.214  23.948  1.00  0.00    -0.080 Cl
ATOM     13  C   UNL A   1      33.167  22.632  25.163  1.00  0.00     0.146 A 
ATOM     14  C   UNL A   1      33.394  24.854  26.184  1.00  0.00     0.027 C 
ATOM     15  O   UNL A   1      31.819  22.806  24.986  1.00  0.00    -0.474 OA
ATOM     16  C   UNL A   1      31.226  24.119  25.207  1.00  0.00     0.316 C 
BRANCH   7  17
ATOM     17  C   UNL A   1      37.339  21.999  25.656  1.00  0.00    -0.070 C 
ATOM     18  C   UNL A   1      38.525  21.830  25.751  1.00  0.00     0.010 C 
ENDBRANCH   7  17
BRANCH  16  19
ATOM     19  C   UNL A   1      30.729  24.683  23.866  1.00  0.00     0.430 C 
ATOM     20  F   UNL A   1      31.720  25.317  23.197  1.00  0.00    -0.167 F 
ATOM     21  F   UNL A   1      30.277  23.701  23.050  1.00  0.00    -0.167 F 
ATOM     22  F   UNL A   1      29.718  25.566  24.033  1.00  0.00    -0.167 F 
ENDBRANCH  16  19
ENDBRANCH   4   6
ENDBRANCH   3   4
ENDBRANCH   2   3
ENDBRANCH   1   2
BRANCH   1  23
ATOM     23  O   UNL A   1      32.361  29.833  26.596  1.00  0.00    -0.458 OA
BRANCH  23  24
ATOM     24  C   UNL A   1      32.923  30.991  27.003  1.00  0.00     0.338 C 
ATOM     25  O   UNL A   1      32.374  32.070  27.161  1.00  0.00    -0.246 OA
BRANCH  24  26
ATOM     26  C   UNL A   1      34.325  30.780  27.379  1.00  0.00     0.060 A 
ATOM     27  C   UNL A   1      34.733  29.478  27.626  1.00  0.00     0.016 A 
ATOM     28  C   UNL A   1      35.139  31.846  27.744  1.00  0.00     0.016 A 
ATOM     29  C   UNL A   1      35.837  29.236  28.429  1.00  0.00     0.010 A 
ATOM     30  C   UNL A   1      36.358  31.586  28.383  1.00  0.00     0.010 A 
ATOM     31  C   UNL A   1      36.694  30.282  28.790  1.00  0.00    -0.014 A 
BRANCH  31  32
ATOM     32  C   UNL A   1      37.920  29.996  29.587  1.00  0.00     0.031 A 
ATOM     33  C   UNL A   1      39.038  29.168  29.002  1.00  0.00     0.074 A 
ATOM     34  C   UNL A   1      38.045  30.497  30.835  1.00  0.00     0.049 A 
ATOM     35  N   UNL A   1      40.094  28.672  29.599  1.00  0.00    -0.248 NA
ATOM     36  C   UNL A   1      38.960  28.843  27.568  1.00  0.00     0.031 C 
ATOM     37  C   UNL A   1      37.074  31.368  31.506  1.00  0.00     0.029 A 
ATOM     38  N   UNL A   1      39.048  30.360  31.764  1.00  0.00    -0.354 N 
ATOM     39  C   UNL A   1      40.771  27.939  28.630  1.00  0.00     0.074 A 
ATOM     40  C   UNL A   1      40.000  28.036  27.410  1.00  0.00     0.031 C 
ATOM     41  C   UNL A   1      37.555  31.736  32.702  1.00  0.00     0.029 A 
ATOM     42  C   UNL A   1      38.801  31.025  32.943  1.00  0.00     0.049 A 
ATOM     43  H   UNL A   1      39.866  29.837  31.602  1.00  0.00     0.167 HD
ATOM     44  C   UNL A   1      41.932  27.253  28.748  1.00  0.00     0.031 A 
ATOM     45  C   UNL A   1      39.464  31.027  34.114  1.00  0.00     0.031 A 
ATOM     46  C   UNL A   1      42.711  27.192  29.957  1.00  0.00     0.049 A 
ATOM     47  C   UNL A   1      40.695  30.181  34.243  1.00  0.00     0.074 A 
ATOM     48  C   UNL A   1      43.904  26.526  30.177  1.00  0.00     0.029 A 
ATOM     49  N   UNL A   1      42.384  27.830  31.143  1.00  0.00    -0.354 N 
ATOM     50  N   UNL A   1      41.299  29.460  33.330  1.00  0.00    -0.248 NA
ATOM     51  C   UNL A   1      41.330  30.137  35.567  1.00  0.00     0.031 C 
ATOM     52  C   UNL A   1      44.265  26.708  31.513  1.00  0.00     0.029 A 
ATOM     53  C   UNL A   1      43.339  27.550  32.105  1.00  0.00     0.049 A 
ATOM     54  H   UNL A   1      41.591  28.399  31.281  1.00  0.00     0.167 HD
ATOM     55  C   UNL A   1      42.398  28.897  33.962  1.00  0.00     0.074 A 
ATOM     56  C   UNL A   1      42.392  29.380  35.327  1.00  0.00     0.031 C 
ATOM     57  C   UNL A   1      43.324  28.048  33.457  1.00  0.00     0.031 A 
BRANCH  44  58
ATOM     58  C   UNL A   1      42.436  26.488  27.554  1.00  0.00    -0.014 A 
ATOM     59  C   UNL A   1      42.052  25.159  27.319  1.00  0.00     0.009 A 
ATOM     60  C   UNL A   1      43.225  27.144  26.594  1.00  0.00     0.009 A 
ATOM     61  C   UNL A   1      42.457  24.501  26.155  1.00  0.00     0.001 A 
ATOM     62  C   UNL A   1      43.603  26.495  25.418  1.00  0.00     0.001 A 
ATOM     63  C   UNL A   1      43.221  25.172  25.201  1.00  0.00     0.000 A 
ENDBRANCH  44  58
BRANCH  45  64
ATOM     64  C   UNL A   1      38.944  31.812  35.267  1.00  0.00    -0.014 A 
ATOM     65  C   UNL A   1      39.228  33.180  35.384  1.00  0.00     0.009 A 
ATOM     66  C   UNL A   1      38.155  31.201  36.258  1.00  0.00     0.009 A 
ATOM     67  C   UNL A   1      38.754  33.913  36.475  1.00  0.00     0.001 A 
ATOM     68  C   UNL A   1      37.647  31.944  37.324  1.00  0.00     0.001 A 
ATOM     69  C   UNL A   1      37.957  33.296  37.439  1.00  0.00     0.000 A 
ENDBRANCH  45  64
BRANCH  57  70
ATOM     70  C   UNL A   1      44.435  27.611  34.370  1.00  0.00    -0.014 A 
ATOM     71  C   UNL A   1      44.336  26.431  35.122  1.00  0.00     0.009 A 
ATOM     72  C   UNL A   1      45.624  28.355  34.419  1.00  0.00     0.009 A 
ATOM     73  C   UNL A   1      45.400  26.017  35.924  1.00  0.00     0.001 A 
ATOM     74  C   UNL A   1      46.700  27.918  35.193  1.00  0.00     0.001 A 
ATOM     75  C   UNL A   1      46.584  26.754  35.950  1.00  0.00     0.000 A 
ENDBRANCH  57  70
ENDBRANCH  31  32
ENDBRANCH  24  26
ENDBRANCH  23  24
ENDBRANCH   1  23
TORSDOF 13
ENDMDL
MODEL 2
REMARK VINA RESULT:     -11.1      5.195      9.659
REMARK SMILES C#Cc1cc(Cl)c2c(c1)C=C(C(=O)OCCOC(=O)c1ccc(-c3c4nc(c(-c5ccccc5)c5ccc([nH]5)c(-c5ccccc5)c5nc(c(-c6ccccc6)c6ccc3[nH]6)C=C5)C=C4)cc1)[C@@H](C(F)(F)F)O2
REMARK SMILES IDX 16 1 15 2 14 3 12 4 13 5 11 6 3 7 4 8 9 9 5 10 8 11 6 12
REMARK SMILES IDX 7 13 10 14 73 15 68 16 2 17 1 18 69 19 70 20 71 21 72 22
REMARK SMILES IDX 17 23 18 24 19 25 20 26 21 27 67 28 22 29 66 30 23 31 24 32
REMARK SMILES IDX 25 33 60 34 26 35 65 36 59 37 61 38 27 39 64 40 58 41 57 42
REMARK SMILES IDX 28 44 50 45 35 46 49 47 36 48 39 49 48 50 62 51 37 52 38 53
REMARK SMILES IDX 47 55 63 56 40 57 29 58 30 59 34 60 31 61 33 62 32 63 51 64
REMARK SMILES IDX 52 65 56 66 53 67 55 68 54 69 41 70 42 71 46 72 43 73 45 74
REMARK SMILES IDX 44 75
REMARK H PARENT 61 43 39 54
REMARK Flexibility Score: inf
ROOT
ATOM      1  C   UNL A   1      33.778  33.312  28.413  1.00  0.00     0.275 C 
ENDROOT
BRANCH   1   2
ATOM      2  C   UNL A   1      34.309  34.583  29.082  1.00  0.00     0.275 C 
BRANCH   2   3
ATOM      3  O   UNL A   1      34.129  34.543  30.516  1.00  0.00    -0.459 OA
BRANCH   3   4
ATOM      4  C   UNL A   1      34.779  33.546  31.157  1.00  0.00     0.338 C 
ATOM      5  O   UNL A   1      34.387  32.399  31.300  1.00  0.00    -0.246 OA
BRANCH   4   6
ATOM      6  C   UNL A   1      36.081  34.010  31.676  1.00  0.00     0.087 C 
ATOM      7  C   UNL A   1      40.884  33.916  31.287  1.00  0.00     0.027 A 
ATOM      8  C   UNL A   1      41.009  34.425  32.579  1.00  0.00     0.041 A 
ATOM      9  C   UNL A   1      39.617  33.746  30.735  1.00  0.00     0.029 A 
ATOM     10  C   UNL A   1      39.863  34.764  33.311  1.00  0.00     0.084 A 
ATOM     11  C   UNL A   1      38.473  34.067  31.480  1.00  0.00     0.020 A 
ATOM     12  Cl  UNL A   1      40.072  35.387  34.909  1.00  0.00    -0.080 Cl
ATOM     13  C   UNL A   1      38.583  34.580  32.771  1.00  0.00     0.146 A 
ATOM     14  C   UNL A   1      37.165  33.810  30.920  1.00  0.00     0.027 C 
ATOM     15  O   UNL A   1      37.488  34.922  33.522  1.00  0.00    -0.474 OA
ATOM     16  C   UNL A   1      36.158  34.517  33.084  1.00  0.00     0.316 C 
BRANCH   7  17
ATOM     17  C   UNL A   1      42.040  33.543  30.531  1.00  0.00    -0.070 C 
ATOM     18  C   UNL A   1      43.016  33.204  29.917  1.00  0.00     0.010 C 
ENDBRANCH   7  17
BRANCH  16  19
ATOM     19  C   UNL A   1      35.594  33.482  34.071  1.00  0.00     0.430 C 
ATOM     20  F   UNL A   1      34.244  33.415  34.003  1.00  0.00    -0.167 F 
ATOM     21  F   UNL A   1      36.056  32.236  33.805  1.00  0.00    -0.167 F 
ATOM     22  F   UNL A   1      35.926  33.770  35.351  1.00  0.00    -0.167 F 
ENDBRANCH  16  19
ENDBRANCH   4   6
ENDBRANCH   3   4
ENDBRANCH   2   3
ENDBRANCH   1   2
BRANCH   1  23
ATOM     23  O   UNL A   1      34.799  32.686  27.612  1.00  0.00    -0.458 OA
BRANCH  23  24
ATOM     24  C   UNL A   1      34.857  31.343  27.731  1.00  0.00     0.338 C 
ATOM     25  O   UNL A   1      34.184  30.513  27.140  1.00  0.00    -0.246 OA
BRANCH  24  26
ATOM     26  C   UNL A   1      35.964  30.949  28.609  1.00  0.00     0.060 A 
ATOM     27  C   UNL A   1      37.206  31.518  28.368  1.00  0.00     0.016 A 
ATOM     28  C   UNL A   1      35.852  29.856  29.460  1.00  0.00     0.016 A 
ATOM     29  C   UNL A   1      38.359  30.874  28.791  1.00  0.00     0.010 A 
ATOM     30  C   UNL A   1      37.008  29.327  30.047  1.00  0.00     0.010 A 
ATOM     31  C   UNL A   1      38.283  29.789  29.672  1.00  0.00    -0.014 A 
BRANCH  31  32
ATOM     32  C   UNL A   1      39.534  29.157  30.180  1.00  0.00     0.031 A 
ATOM     33  C   UNL A   1      40.189  29.661  31.442  1.00  0.00     0.074 A 
ATOM     34  C   UNL A   1      40.076  28.111  29.519  1.00  0.00     0.049 A 
ATOM     35  N   UNL A   1      41.361  29.355  31.939  1.00  0.00    -0.248 NA
ATOM     36  C   UNL A   1      39.440  30.641  32.247  1.00  0.00     0.031 C 
ATOM     37  C   UNL A   1      39.516  27.474  28.321  1.00  0.00     0.029 A 
ATOM     38  N   UNL A   1      41.214  27.383  29.766  1.00  0.00    -0.354 N 
ATOM     39  C   UNL A   1      41.510  30.140  33.077  1.00  0.00     0.074 A 
ATOM     40  C   UNL A   1      40.318  30.951  33.191  1.00  0.00     0.031 C 
ATOM     41  C   UNL A   1      40.272  26.422  27.980  1.00  0.00     0.029 A 
ATOM     42  C   UNL A   1      41.440  26.385  28.847  1.00  0.00     0.049 A 
ATOM     43  H   UNL A   1      41.812  27.558  30.529  1.00  0.00     0.167 HD
ATOM     44  C   UNL A   1      42.545  30.175  33.950  1.00  0.00     0.031 A 
ATOM     45  C   UNL A   1      42.490  25.561  28.674  1.00  0.00     0.031 A 
ATOM     46  C   UNL A   1      43.712  29.338  33.847  1.00  0.00     0.049 A 
ATOM     47  C   UNL A   1      43.663  25.690  29.599  1.00  0.00     0.074 A 
ATOM     48  C   UNL A   1      44.813  29.296  34.684  1.00  0.00     0.029 A 
ATOM     49  N   UNL A   1      43.921  28.388  32.860  1.00  0.00    -0.354 N 
ATOM     50  N   UNL A   1      43.806  26.466  30.645  1.00  0.00    -0.248 NA
ATOM     51  C   UNL A   1      44.826  24.839  29.313  1.00  0.00     0.031 C 
ATOM     52  C   UNL A   1      45.718  28.368  34.167  1.00  0.00     0.029 A 
ATOM     53  C   UNL A   1      45.148  27.776  33.053  1.00  0.00     0.049 A 
ATOM     54  H   UNL A   1      43.292  28.179  32.132  1.00  0.00     0.167 HD
ATOM     55  C   UNL A   1      45.063  26.180  31.157  1.00  0.00     0.074 A 
ATOM     56  C   UNL A   1      45.631  25.142  30.322  1.00  0.00     0.031 C 
ATOM     57  C   UNL A   1      45.693  26.735  32.219  1.00  0.00     0.031 A 
BRANCH  44  58
ATOM     58  C   UNL A   1      42.490  31.161  35.086  1.00  0.00    -0.014 A 
ATOM     59  C   UNL A   1      42.040  30.785  36.360  1.00  0.00     0.009 A 
ATOM     60  C   UNL A   1      42.996  32.459  34.902  1.00  0.00     0.009 A 
ATOM     61  C   UNL A   1      42.086  31.692  37.422  1.00  0.00     0.001 A 
ATOM     62  C   UNL A   1      43.070  33.353  35.971  1.00  0.00     0.001 A 
ATOM     63  C   UNL A   1      42.612  32.970  37.230  1.00  0.00     0.000 A 
ENDBRANCH  44  58
BRANCH  45  64
ATOM     64  C   UNL A   1      42.499  24.586  27.549  1.00  0.00    -0.014 A 
ATOM     65  C   UNL A   1      41.936  23.311  27.706  1.00  0.00     0.009 A 
ATOM     66  C   UNL A   1      43.066  24.923  26.308  1.00  0.00     0.009 A 
ATOM     67  C   UNL A   1      41.959  22.390  26.656  1.00  0.00     0.001 A 
ATOM     68  C   UNL A   1      43.051  24.017  25.246  1.00  0.00     0.001 A 
ATOM     69  C   UNL A   1      42.509  22.747  25.425  1.00  0.00     0.000 A 
ENDBRANCH  45  64
BRANCH  57  70
ATOM     70  C   UNL A   1      47.057  26.209  32.568  1.00  0.00    -0.014 A 
ATOM     71  C   UNL A   1      48.215  26.754  31.994  1.00  0.00     0.009 A 
ATOM     72  C   UNL A   1      47.184  25.205  33.540  1.00  0.00     0.009 A 
ATOM     73  C   UNL A   1      49.474  26.286  32.371  1.00  0.00     0.001 A 
ATOM     74  C   UNL A   1      48.445  24.765  33.943  1.00  0.00     0.001 A 
ATOM     75  C   UNL A   1      49.588  25.300  33.352  1.00  0.00     0.000 A 
ENDBRANCH  57  70
ENDBRANCH  31  32
ENDBRANCH  24  26
ENDBRANCH  23  24
ENDBRANCH   1  23
TORSDOF 13
ENDMDL
MODEL 3
REMARK VINA RESULT:     -11.1      3.773      8.626
REMARK SMILES C#Cc1cc(Cl)c2c(c1)C=C(C(=O)OCCOC(=O)c1ccc(-c3c4nc(c(-c5ccccc5)c5ccc([nH]5)c(-c5ccccc5)c5nc(c(-c6ccccc6)c6ccc3[nH]6)C=C5)C=C4)cc1)[C@@H](C(F)(F)F)O2
REMARK SMILES IDX 16 1 15 2 14 3 12 4 13 5 11 6 3 7 4 8 9 9 5 10 8 11 6 12
REMARK SMILES IDX 7 13 10 14 73 15 68 16 2 17 1 18 69 19 70 20 71 21 72 22
REMARK SMILES IDX 17 23 18 24 19 25 20 26 21 27 67 28 22 29 66 30 23 31 24 32
REMARK SMILES IDX 25 33 60 34 26 35 65 36 59 37 61 38 27 39 64 40 58 41 57 42
REMARK SMILES IDX 28 44 50 45 35 46 49 47 36 48 39 49 48 50 62 51 37 52 38 53
REMARK SMILES IDX 47 55 63 56 40 57 29 58 30 59 34 60 31 61 33 62 32 63 51 64
REMARK SMILES IDX 52 65 56 66 53 67 55 68 54 69 41 70 42 71 46 72 43 73 45 74
REMARK SMILES IDX 44 75
REMARK H PARENT 61 43 39 54
REMARK Flexibility Score: inf
ROOT
ATOM      1  C   UNL A   1      36.345  20.837  24.999  1.00  0.00     0.275 C 
ENDROOT
BRANCH   1   2
ATOM      2  C   UNL A   1      35.010  21.586  25.034  1.00  0.00     0.275 C 
BRANCH   2   3
ATOM      3  O   UNL A   1      35.192  23.005  24.827  1.00  0.00    -0.459 OA
BRANCH   3   4
ATOM      4  C   UNL A   1      34.940  23.448  23.575  1.00  0.00     0.338 C 
ATOM      5  O   UNL A   1      35.392  22.990  22.538  1.00  0.00    -0.246 OA
BRANCH   4   6
ATOM      6  C   UNL A   1      34.003  24.590  23.596  1.00  0.00     0.087 C 
ATOM      7  C   UNL A   1      32.660  28.714  25.699  1.00  0.00     0.027 A 
ATOM      8  C   UNL A   1      31.420  28.645  25.065  1.00  0.00     0.041 A 
ATOM      9  C   UNL A   1      33.623  27.742  25.433  1.00  0.00     0.029 A 
ATOM     10  C   UNL A   1      31.150  27.603  24.167  1.00  0.00     0.084 A 
ATOM     11  C   UNL A   1      33.339  26.690  24.551  1.00  0.00     0.020 A 
ATOM     12  Cl  UNL A   1      29.597  27.560  23.413  1.00  0.00    -0.080 Cl
ATOM     13  C   UNL A   1      32.105  26.610  23.908  1.00  0.00     0.146 A 
ATOM     14  C   UNL A   1      34.320  25.647  24.348  1.00  0.00     0.027 C 
ATOM     15  O   UNL A   1      31.799  25.607  23.025  1.00  0.00    -0.474 OA
ATOM     16  C   UNL A   1      32.671  24.443  22.925  1.00  0.00     0.316 C 
BRANCH   7  17
ATOM     17  C   UNL A   1      32.949  29.756  26.635  1.00  0.00    -0.070 C 
ATOM     18  C   UNL A   1      33.159  30.635  27.428  1.00  0.00     0.010 C 
ENDBRANCH   7  17
BRANCH  16  19
ATOM     19  C   UNL A   1      31.925  23.205  23.451  1.00  0.00     0.430 C 
ATOM     20  F   UNL A   1      32.063  23.075  24.791  1.00  0.00    -0.167 F 
ATOM     21  F   UNL A   1      30.595  23.283  23.205  1.00  0.00    -0.167 F 
ATOM     22  F   UNL A   1      32.375  22.064  22.880  1.00  0.00    -0.167 F 
ENDBRANCH  16  19
ENDBRANCH   4   6
ENDBRANCH   3   4
ENDBRANCH   2   3
ENDBRANCH   1   2
BRANCH   1  23
ATOM     23  O   UNL A   1      37.453  21.758  24.991  1.00  0.00    -0.458 OA
BRANCH  23  24
ATOM     24  C   UNL A   1      38.519  21.357  25.717  1.00  0.00     0.338 C 
ATOM     25  O   UNL A   1      39.052  20.259  25.711  1.00  0.00    -0.246 OA
BRANCH  24  26
ATOM     26  C   UNL A   1      39.083  22.482  26.471  1.00  0.00     0.060 A 
ATOM     27  C   UNL A   1      38.543  23.739  26.245  1.00  0.00     0.016 A 
ATOM     28  C   UNL A   1      40.278  22.352  27.167  1.00  0.00     0.016 A 
ATOM     29  C   UNL A   1      39.292  24.875  26.512  1.00  0.00     0.010 A 
ATOM     30  C   UNL A   1      40.938  23.505  27.612  1.00  0.00     0.010 A 
ATOM     31  C   UNL A   1      40.486  24.783  27.237  1.00  0.00    -0.014 A 
BRANCH  31  32
ATOM     32  C   UNL A   1      41.241  26.020  27.584  1.00  0.00     0.031 A 
ATOM     33  C   UNL A   1      40.644  27.045  28.518  1.00  0.00     0.074 A 
ATOM     34  C   UNL A   1      42.477  26.220  27.077  1.00  0.00     0.049 A 
ATOM     35  N   UNL A   1      41.071  28.251  28.797  1.00  0.00    -0.248 NA
ATOM     36  C   UNL A   1      39.405  26.676  29.223  1.00  0.00     0.031 C 
ATOM     37  C   UNL A   1      43.207  25.285  26.214  1.00  0.00     0.029 A 
ATOM     38  N   UNL A   1      43.351  27.269  27.225  1.00  0.00    -0.354 N 
ATOM     39  C   UNL A   1      40.130  28.798  29.662  1.00  0.00     0.074 A 
ATOM     40  C   UNL A   1      39.098  27.804  29.849  1.00  0.00     0.031 C 
ATOM     41  C   UNL A   1      44.431  25.771  25.964  1.00  0.00     0.029 A 
ATOM     42  C   UNL A   1      44.529  27.106  26.533  1.00  0.00     0.049 A 
ATOM     43  H   UNL A   1      43.154  28.063  27.774  1.00  0.00     0.167 HD
ATOM     44  C   UNL A   1      40.131  30.019  30.249  1.00  0.00     0.031 A 
ATOM     45  C   UNL A   1      45.557  27.949  26.324  1.00  0.00     0.031 A 
ATOM     46  C   UNL A   1      41.181  30.990  30.084  1.00  0.00     0.049 A 
ATOM     47  C   UNL A   1      45.485  29.328  26.908  1.00  0.00     0.074 A 
ATOM     48  C   UNL A   1      41.277  32.253  30.640  1.00  0.00     0.029 A 
ATOM     49  N   UNL A   1      42.322  30.800  29.321  1.00  0.00    -0.354 N 
ATOM     50  N   UNL A   1      44.568  29.845  27.689  1.00  0.00    -0.248 NA
ATOM     51  C   UNL A   1      46.582  30.246  26.574  1.00  0.00     0.031 C 
ATOM     52  C   UNL A   1      42.442  32.853  30.162  1.00  0.00     0.029 A 
ATOM     53  C   UNL A   1      43.113  31.936  29.369  1.00  0.00     0.049 A 
ATOM     54  H   UNL A   1      42.539  29.980  28.819  1.00  0.00     0.167 HD
ATOM     55  C   UNL A   1      44.990  31.139  27.959  1.00  0.00     0.074 A 
ATOM     56  C   UNL A   1      46.256  31.319  27.280  1.00  0.00     0.031 C 
ATOM     57  C   UNL A   1      44.377  32.094  28.697  1.00  0.00     0.031 A 
BRANCH  44  58
ATOM     58  C   UNL A   1      38.958  30.399  31.111  1.00  0.00    -0.014 A 
ATOM     59  C   UNL A   1      37.798  30.966  30.561  1.00  0.00     0.009 A 
ATOM     60  C   UNL A   1      38.975  30.088  32.481  1.00  0.00     0.009 A 
ATOM     61  C   UNL A   1      36.686  31.224  31.368  1.00  0.00     0.001 A 
ATOM     62  C   UNL A   1      37.853  30.318  33.278  1.00  0.00     0.001 A 
ATOM     63  C   UNL A   1      36.710  30.889  32.722  1.00  0.00     0.000 A 
ENDBRANCH  44  58
BRANCH  45  64
ATOM     64  C   UNL A   1      46.710  27.529  25.480  1.00  0.00    -0.014 A 
ATOM     65  C   UNL A   1      47.755  26.773  26.029  1.00  0.00     0.009 A 
ATOM     66  C   UNL A   1      46.771  27.877  24.120  1.00  0.00     0.009 A 
ATOM     67  C   UNL A   1      48.845  26.393  25.241  1.00  0.00     0.001 A 
ATOM     68  C   UNL A   1      47.839  27.460  23.324  1.00  0.00     0.001 A 
ATOM     69  C   UNL A   1      48.882  26.729  23.888  1.00  0.00     0.000 A 
ENDBRANCH  45  64
BRANCH  57  70
ATOM     70  C   UNL A   1      45.080  33.414  28.844  1.00  0.00    -0.014 A 
ATOM     71  C   UNL A   1      44.823  34.477  27.966  1.00  0.00     0.009 A 
ATOM     72  C   UNL A   1      45.957  33.615  29.922  1.00  0.00     0.009 A 
ATOM     73  C   UNL A   1      45.449  35.711  28.152  1.00  0.00     0.001 A 
ATOM     74  C   UNL A   1      46.552  34.860  30.127  1.00  0.00     0.001 A 
ATOM     75  C   UNL A   1      46.303  35.904  29.238  1.00  0.00     0.000 A 
ENDBRANCH  57  70
ENDBRANCH  31  32
ENDBRANCH  24  26
ENDBRANCH  23  24
ENDBRANCH   1  23
TORSDOF 13
ENDMDL
