MODEL 1
REMARK VINA RESULT:     -10.0      0.000      0.000
REMARK SMILES CC(C)(C)OC(=O)N1CC2(C[C@@H](C(=O)OCCOC(=O)c3ccc(-c4c5nc(c(-c6ccccc6)c6ccc([nH]6)c(-c6ccccc6)c6nc(c(-c7ccccc7)c7ccc4[nH]7)C=C6)C=C5)cc3)CO2)C1
REMARK SMILES IDX 16 1 15 2 13 3 14 4 12 5 6 6 7 7 8 8 9 9 71 10 10 11 11 12
REMARK SMILES IDX 70 13 69 14 5 15 2 16 1 17 3 18 4 19 17 20 18 21 19 22 20 23
REMARK SMILES IDX 21 24 22 25 68 26 23 27 67 28 24 29 25 30 26 31 61 32 27 33
REMARK SMILES IDX 66 34 60 35 62 36 28 37 65 38 59 39 58 40 29 42 51 43 36 44
REMARK SMILES IDX 50 45 37 46 40 47 49 48 63 49 38 50 39 51 48 53 64 54 41 55
REMARK SMILES IDX 30 56 31 57 35 58 32 59 34 60 33 61 52 62 53 63 57 64 54 65
REMARK SMILES IDX 56 66 55 67 42 68 43 69 47 70 44 71 46 72 45 73
REMARK H PARENT 62 41 40 52
REMARK Flexibility Score: inf
ROOT
ATOM      1  C   UNL A   1      37.808  21.950  25.656  1.00  0.00     0.274 C 
ENDROOT
BRANCH   1   2
ATOM      2  O   UNL A   1      36.381  21.801  25.523  1.00  0.00    -0.462 OA
BRANCH   2   3
ATOM      3  C   UNL A   1      35.662  22.928  25.753  1.00  0.00     0.311 C 
ATOM      4  O   UNL A   1      35.164  23.233  26.831  1.00  0.00    -0.252 OA
BRANCH   3   5
ATOM      5  C   UNL A   1      35.385  23.719  24.509  1.00  0.00     0.128 C 
ATOM      6  C   UNL A   1      31.451  26.247  24.873  1.00  0.00     0.410 C 
ATOM      7  O   UNL A   1      30.321  25.857  25.138  1.00  0.00    -0.224 OA
ATOM      8  N   UNL A   1      32.021  26.053  23.628  1.00  0.00    -0.302 N 
ATOM      9  C   UNL A   1      32.077  24.710  23.030  1.00  0.00     0.160 C 
ATOM     10  C   UNL A   1      33.387  26.331  23.142  1.00  0.00     0.160 C 
ATOM     11  C   UNL A   1      33.609  24.807  23.319  1.00  0.00     0.104 C 
ATOM     12  C   UNL A   1      34.100  24.487  24.726  1.00  0.00     0.057 C 
ATOM     13  O   UNL A   1      34.468  24.051  22.425  1.00  0.00    -0.370 OA
ATOM     14  C   UNL A   1      35.152  23.026  23.189  1.00  0.00     0.176 C 
BRANCH   6  15
ATOM     15  O   UNL A   1      32.349  26.726  25.770  1.00  0.00    -0.444 OA
BRANCH  15  16
ATOM     16  C   UNL A   1      32.349  28.093  26.283  1.00  0.00     0.106 C 
ATOM     17  C   UNL A   1      33.802  28.479  26.547  1.00  0.00     0.056 C 
ATOM     18  C   UNL A   1      31.595  28.042  27.625  1.00  0.00     0.056 C 
ATOM     19  C   UNL A   1      31.659  29.152  25.411  1.00  0.00     0.056 C 
ENDBRANCH  15  16
ENDBRANCH   6  15
ENDBRANCH   3   5
ENDBRANCH   2   3
ENDBRANCH   1   2
BRANCH   1  20
ATOM     20  C   UNL A   1      38.579  20.691  25.244  1.00  0.00     0.275 C 
BRANCH  20  21
ATOM     21  O   UNL A   1      39.253  20.068  26.354  1.00  0.00    -0.458 OA
BRANCH  21  22
ATOM     22  C   UNL A   1      40.594  19.957  26.209  1.00  0.00     0.338 C 
ATOM     23  O   UNL A   1      41.202  19.060  25.645  1.00  0.00    -0.246 OA
BRANCH  22  24
ATOM     24  C   UNL A   1      41.261  21.189  26.665  1.00  0.00     0.060 A 
ATOM     25  C   UNL A   1      41.193  21.487  28.031  1.00  0.00     0.016 A 
ATOM     26  C   UNL A   1      41.883  22.070  25.778  1.00  0.00     0.016 A 
ATOM     27  C   UNL A   1      41.737  22.668  28.520  1.00  0.00     0.010 A 
ATOM     28  C   UNL A   1      42.413  23.268  26.266  1.00  0.00     0.010 A 
ATOM     29  C   UNL A   1      42.327  23.577  27.635  1.00  0.00    -0.014 A 
BRANCH  29  30
ATOM     30  C   UNL A   1      42.754  24.895  28.150  1.00  0.00     0.031 A 
ATOM     31  C   UNL A   1      41.721  25.954  28.400  1.00  0.00     0.074 A 
ATOM     32  C   UNL A   1      44.045  25.116  28.453  1.00  0.00     0.049 A 
ATOM     33  N   UNL A   1      41.880  27.178  28.833  1.00  0.00    -0.248 NA
ATOM     34  C   UNL A   1      40.322  25.582  28.136  1.00  0.00     0.031 C 
ATOM     35  C   UNL A   1      45.124  24.138  28.320  1.00  0.00     0.029 A 
ATOM     36  N   UNL A   1      44.661  26.236  28.947  1.00  0.00    -0.354 N 
ATOM     37  C   UNL A   1      40.606  27.727  28.880  1.00  0.00     0.074 A 
ATOM     38  C   UNL A   1      39.685  26.708  28.422  1.00  0.00     0.031 C 
ATOM     39  C   UNL A   1      46.273  24.702  28.727  1.00  0.00     0.029 A 
ATOM     40  C   UNL A   1      46.015  26.088  29.111  1.00  0.00     0.049 A 
ATOM     41  H   UNL A   1      44.179  27.067  29.163  1.00  0.00     0.167 HD
ATOM     42  C   UNL A   1      40.237  28.969  29.269  1.00  0.00     0.031 A 
ATOM     43  C   UNL A   1      46.943  26.978  29.508  1.00  0.00     0.031 A 
ATOM     44  C   UNL A   1      41.153  29.983  29.716  1.00  0.00     0.049 A 
ATOM     45  C   UNL A   1      46.517  28.375  29.860  1.00  0.00     0.074 A 
ATOM     46  C   UNL A   1      40.879  31.278  30.121  1.00  0.00     0.029 A 
ATOM     47  N   UNL A   1      42.525  29.813  29.814  1.00  0.00    -0.354 N 
ATOM     48  N   UNL A   1      45.312  28.890  29.886  1.00  0.00    -0.248 NA
ATOM     49  C   UNL A   1      47.583  29.317  30.234  1.00  0.00     0.031 C 
ATOM     50  C   UNL A   1      42.092  31.905  30.425  1.00  0.00     0.029 A 
ATOM     51  C   UNL A   1      43.116  30.986  30.252  1.00  0.00     0.049 A 
ATOM     52  H   UNL A   1      43.009  28.982  29.603  1.00  0.00     0.167 HD
ATOM     53  C   UNL A   1      45.470  30.207  30.293  1.00  0.00     0.074 A 
ATOM     54  C   UNL A   1      46.887  30.409  30.519  1.00  0.00     0.031 C 
ATOM     55  C   UNL A   1      44.527  31.166  30.465  1.00  0.00     0.031 A 
BRANCH  42  56
ATOM     56  C   UNL A   1      38.778  29.309  29.182  1.00  0.00    -0.014 A 
ATOM     57  C   UNL A   1      37.927  29.157  30.288  1.00  0.00     0.009 A 
ATOM     58  C   UNL A   1      38.251  29.803  27.979  1.00  0.00     0.009 A 
ATOM     59  C   UNL A   1      36.569  29.466  30.181  1.00  0.00     0.001 A 
ATOM     60  C   UNL A   1      36.898  30.131  27.881  1.00  0.00     0.001 A 
ATOM     61  C   UNL A   1      36.057  29.955  28.979  1.00  0.00     0.000 A 
ENDBRANCH  42  56
BRANCH  43  62
ATOM     62  C   UNL A   1      48.374  26.583  29.562  1.00  0.00    -0.014 A 
ATOM     63  C   UNL A   1      48.923  26.038  30.731  1.00  0.00     0.009 A 
ATOM     64  C   UNL A   1      49.200  26.760  28.440  1.00  0.00     0.009 A 
ATOM     65  C   UNL A   1      50.277  25.694  30.782  1.00  0.00     0.001 A 
ATOM     66  C   UNL A   1      50.546  26.393  28.486  1.00  0.00     0.001 A 
ATOM     67  C   UNL A   1      51.085  25.868  29.659  1.00  0.00     0.000 A 
ENDBRANCH  43  62
BRANCH  55  68
ATOM     68  C   UNL A   1      44.999  32.509  30.941  1.00  0.00    -0.014 A 
ATOM     69  C   UNL A   1      45.317  33.528  30.029  1.00  0.00     0.009 A 
ATOM     70  C   UNL A   1      45.088  32.768  32.316  1.00  0.00     0.009 A 
ATOM     71  C   UNL A   1      45.744  34.775  30.490  1.00  0.00     0.001 A 
ATOM     72  C   UNL A   1      45.493  34.023  32.774  1.00  0.00     0.001 A 
ATOM     73  C   UNL A   1      45.828  35.022  31.861  1.00  0.00     0.000 A 
ENDBRANCH  55  68
ENDBRANCH  29  30
ENDBRANCH  22  24
ENDBRANCH  21  22
ENDBRANCH  20  21
ENDBRANCH   1  20
TORSDOF 13
ENDMDL
MODEL 2
REMARK VINA RESULT:     -10.0      1.973      3.478
REMARK SMILES CC(C)(C)OC(=O)N1CC2(C[C@@H](C(=O)OCCOC(=O)c3ccc(-c4c5nc(c(-c6ccccc6)c6ccc([nH]6)c(-c6ccccc6)c6nc(c(-c7ccccc7)c7ccc4[nH]7)C=C6)C=C5)cc3)CO2)C1
REMARK SMILES IDX 16 1 15 2 13 3 14 4 12 5 6 6 7 7 8 8 9 9 71 10 10 11 11 12
REMARK SMILES IDX 70 13 69 14 5 15 2 16 1 17 3 18 4 19 17 20 18 21 19 22 20 23
REMARK SMILES IDX 21 24 22 25 68 26 23 27 67 28 24 29 25 30 26 31 61 32 27 33
REMARK SMILES IDX 66 34 60 35 62 36 28 37 65 38 59 39 58 40 29 42 51 43 36 44
REMARK SMILES IDX 50 45 37 46 40 47 49 48 63 49 38 50 39 51 48 53 64 54 41 55
REMARK SMILES IDX 30 56 31 57 35 58 32 59 34 60 33 61 52 62 53 63 57 64 54 65
REMARK SMILES IDX 56 66 55 67 42 68 43 69 47 70 44 71 46 72 45 73
REMARK H PARENT 62 41 40 52
REMARK Flexibility Score: inf
ROOT
ATOM      1  C   UNL A   1      38.018  22.069  25.778  1.00  0.00     0.274 C 
ENDROOT
BRANCH   1   2
ATOM      2  O   UNL A   1      37.932  23.066  24.741  1.00  0.00    -0.462 OA
BRANCH   2   3
ATOM      3  C   UNL A   1      36.782  23.049  24.022  1.00  0.00     0.311 C 
ATOM      4  O   UNL A   1      36.718  23.148  22.802  1.00  0.00    -0.252 OA
BRANCH   3   5
ATOM      5  C   UNL A   1      35.548  23.057  24.876  1.00  0.00     0.128 C 
ATOM      6  C   UNL A   1      32.568  19.635  23.687  1.00  0.00     0.410 C 
ATOM      7  O   UNL A   1      32.072  19.408  22.591  1.00  0.00    -0.224 OA
ATOM      8  N   UNL A   1      32.128  20.670  24.492  1.00  0.00    -0.302 N 
ATOM      9  C   UNL A   1      32.047  22.043  23.970  1.00  0.00     0.160 C 
ATOM     10  C   UNL A   1      32.655  21.183  25.771  1.00  0.00     0.160 C 
ATOM     11  C   UNL A   1      33.268  22.314  24.905  1.00  0.00     0.104 C 
ATOM     12  C   UNL A   1      34.656  21.928  24.408  1.00  0.00     0.057 C 
ATOM     13  O   UNL A   1      33.395  23.672  25.400  1.00  0.00    -0.370 OA
ATOM     14  C   UNL A   1      34.621  24.247  24.881  1.00  0.00     0.176 C 
BRANCH   6  15
ATOM     15  O   UNL A   1      33.699  19.065  24.172  1.00  0.00    -0.444 OA
BRANCH  15  16
ATOM     16  C   UNL A   1      33.902  17.624  24.305  1.00  0.00     0.106 C 
ATOM     17  C   UNL A   1      32.856  17.108  25.290  1.00  0.00     0.056 C 
ATOM     18  C   UNL A   1      35.301  17.449  24.926  1.00  0.00     0.056 C 
ATOM     19  C   UNL A   1      33.872  16.805  23.007  1.00  0.00     0.056 C 
ENDBRANCH  15  16
ENDBRANCH   6  15
ENDBRANCH   3   5
ENDBRANCH   2   3
ENDBRANCH   1   2
BRANCH   1  20
ATOM     20  C   UNL A   1      38.639  20.756  25.290  1.00  0.00     0.275 C 
BRANCH  20  21
ATOM     21  O   UNL A   1      39.324  20.044  26.338  1.00  0.00    -0.458 OA
BRANCH  21  22
ATOM     22  C   UNL A   1      40.666  19.960  26.179  1.00  0.00     0.338 C 
ATOM     23  O   UNL A   1      41.284  19.081  25.598  1.00  0.00    -0.246 OA
BRANCH  22  24
ATOM     24  C   UNL A   1      41.315  21.198  26.644  1.00  0.00     0.060 A 
ATOM     25  C   UNL A   1      41.236  21.489  28.011  1.00  0.00     0.016 A 
ATOM     26  C   UNL A   1      41.930  22.090  25.764  1.00  0.00     0.016 A 
ATOM     27  C   UNL A   1      41.763  22.674  28.508  1.00  0.00     0.010 A 
ATOM     28  C   UNL A   1      42.442  23.293  26.260  1.00  0.00     0.010 A 
ATOM     29  C   UNL A   1      42.345  23.595  27.630  1.00  0.00    -0.014 A 
BRANCH  29  30
ATOM     30  C   UNL A   1      42.754  24.915  28.152  1.00  0.00     0.031 A 
ATOM     31  C   UNL A   1      41.709  25.968  28.380  1.00  0.00     0.074 A 
ATOM     32  C   UNL A   1      44.037  25.145  28.482  1.00  0.00     0.049 A 
ATOM     33  N   UNL A   1      41.852  27.193  28.816  1.00  0.00    -0.248 NA
ATOM     34  C   UNL A   1      40.318  25.587  28.088  1.00  0.00     0.031 C 
ATOM     35  C   UNL A   1      45.124  24.173  28.372  1.00  0.00     0.029 A 
ATOM     36  N   UNL A   1      44.636  26.269  28.987  1.00  0.00    -0.354 N 
ATOM     37  C   UNL A   1      40.573  27.734  28.836  1.00  0.00     0.074 A 
ATOM     38  C   UNL A   1      39.669  26.709  28.360  1.00  0.00     0.031 C 
ATOM     39  C   UNL A   1      46.262  24.746  28.802  1.00  0.00     0.029 A 
ATOM     40  C   UNL A   1      45.987  26.130  29.180  1.00  0.00     0.049 A 
ATOM     41  H   UNL A   1      44.144  27.097  29.193  1.00  0.00     0.167 HD
ATOM     42  C   UNL A   1      40.188  28.974  29.217  1.00  0.00     0.031 A 
ATOM     43  C   UNL A   1      46.901  27.026  29.595  1.00  0.00     0.031 A 
ATOM     44  C   UNL A   1      41.088  29.994  29.682  1.00  0.00     0.049 A 
ATOM     45  C   UNL A   1      46.459  28.421  29.937  1.00  0.00     0.074 A 
ATOM     46  C   UNL A   1      40.798  31.287  30.081  1.00  0.00     0.029 A 
ATOM     47  N   UNL A   1      42.459  29.833  29.808  1.00  0.00    -0.354 N 
ATOM     48  N   UNL A   1      45.250  28.927  29.938  1.00  0.00    -0.248 NA
ATOM     49  C   UNL A   1      47.510  29.369  30.332  1.00  0.00     0.031 C 
ATOM     50  C   UNL A   1      42.000  31.922  30.409  1.00  0.00     0.029 A 
ATOM     51  C   UNL A   1      43.033  31.010  30.258  1.00  0.00     0.049 A 
ATOM     52  H   UNL A   1      42.952  29.005  29.607  1.00  0.00     0.167 HD
ATOM     53  C   UNL A   1      45.391  30.246  30.348  1.00  0.00     0.074 A 
ATOM     54  C   UNL A   1      46.801  30.457  30.603  1.00  0.00     0.031 C 
ATOM     55  C   UNL A   1      44.438  31.199  30.499  1.00  0.00     0.031 A 
BRANCH  42  56
ATOM     56  C   UNL A   1      38.729  29.304  29.100  1.00  0.00    -0.014 A 
ATOM     57  C   UNL A   1      37.870  29.215  30.206  1.00  0.00     0.009 A 
ATOM     58  C   UNL A   1      38.210  29.727  27.866  1.00  0.00     0.009 A 
ATOM     59  C   UNL A   1      36.512  29.513  30.071  1.00  0.00     0.001 A 
ATOM     60  C   UNL A   1      36.858  30.045  27.740  1.00  0.00     0.001 A 
ATOM     61  C   UNL A   1      36.008  29.931  28.839  1.00  0.00     0.000 A 
ENDBRANCH  42  56
BRANCH  43  62
ATOM     62  C   UNL A   1      48.333  26.641  29.679  1.00  0.00    -0.014 A 
ATOM     63  C   UNL A   1      49.194  26.843  28.591  1.00  0.00     0.009 A 
ATOM     64  C   UNL A   1      48.841  26.059  30.851  1.00  0.00     0.009 A 
ATOM     65  C   UNL A   1      50.534  26.453  28.670  1.00  0.00     0.001 A 
ATOM     66  C   UNL A   1      50.185  25.694  30.936  1.00  0.00     0.001 A 
ATOM     67  C   UNL A   1      51.029  25.883  29.843  1.00  0.00     0.000 A 
ENDBRANCH  43  62
BRANCH  55  68
ATOM     68  C   UNL A   1      44.892  32.546  30.984  1.00  0.00    -0.014 A 
ATOM     69  C   UNL A   1      45.243  33.559  30.079  1.00  0.00     0.009 A 
ATOM     70  C   UNL A   1      44.930  32.813  32.360  1.00  0.00     0.009 A 
ATOM     71  C   UNL A   1      45.652  34.809  30.547  1.00  0.00     0.001 A 
ATOM     72  C   UNL A   1      45.318  34.070  32.825  1.00  0.00     0.001 A 
ATOM     73  C   UNL A   1      45.685  35.065  31.919  1.00  0.00     0.000 A 
ENDBRANCH  55  68
ENDBRANCH  29  30
ENDBRANCH  22  24
ENDBRANCH  21  22
ENDBRANCH  20  21
ENDBRANCH   1  20
TORSDOF 13
ENDMDL
MODEL 3
REMARK VINA RESULT:     -10.0      2.149      7.114
REMARK SMILES CC(C)(C)OC(=O)N1CC2(C[C@@H](C(=O)OCCOC(=O)c3ccc(-c4c5nc(c(-c6ccccc6)c6ccc([nH]6)c(-c6ccccc6)c6nc(c(-c7ccccc7)c7ccc4[nH]7)C=C6)C=C5)cc3)CO2)C1
REMARK SMILES IDX 16 1 15 2 13 3 14 4 12 5 6 6 7 7 8 8 9 9 71 10 10 11 11 12
REMARK SMILES IDX 70 13 69 14 5 15 2 16 1 17 3 18 4 19 17 20 18 21 19 22 20 23
REMARK SMILES IDX 21 24 22 25 68 26 23 27 67 28 24 29 25 30 26 31 61 32 27 33
REMARK SMILES IDX 66 34 60 35 62 36 28 37 65 38 59 39 58 40 29 42 51 43 36 44
REMARK SMILES IDX 50 45 37 46 40 47 49 48 63 49 38 50 39 51 48 53 64 54 41 55
REMARK SMILES IDX 30 56 31 57 35 58 32 59 34 60 33 61 52 62 53 63 57 64 54 65
REMARK SMILES IDX 56 66 55 67 42 68 43 69 47 70 44 71 46 72 45 73
REMARK H PARENT 62 41 40 52
REMARK Flexibility Score: inf
ROOT
ATOM      1  C   UNL A   1      38.687  21.228  25.601  1.00  0.00     0.274 C 
ENDROOT
BRANCH   1   2
ATOM      2  O   UNL A   1      37.633  21.486  24.653  1.00  0.00    -0.462 OA
BRANCH   2   3
ATOM      3  C   UNL A   1      36.888  22.591  24.909  1.00  0.00     0.311 C 
ATOM      4  O   UNL A   1      37.183  23.729  24.561  1.00  0.00    -0.252 OA
BRANCH   3   5
ATOM      5  C   UNL A   1      35.720  22.324  25.811  1.00  0.00     0.128 C 
ATOM      6  C   UNL A   1      32.738  19.218  23.951  1.00  0.00     0.410 C 
ATOM      7  O   UNL A   1      32.168  19.268  22.868  1.00  0.00    -0.224 OA
ATOM      8  N   UNL A   1      32.335  19.986  25.028  1.00  0.00    -0.302 N 
ATOM      9  C   UNL A   1      32.185  21.443  24.895  1.00  0.00     0.160 C 
ATOM     10  C   UNL A   1      32.941  20.165  26.361  1.00  0.00     0.160 C 
ATOM     11  C   UNL A   1      33.465  21.508  25.788  1.00  0.00     0.104 C 
ATOM     12  C   UNL A   1      34.821  21.323  25.119  1.00  0.00     0.057 C 
ATOM     13  O   UNL A   1      33.597  22.692  26.617  1.00  0.00    -0.370 OA
ATOM     14  C   UNL A   1      34.769  23.432  26.192  1.00  0.00     0.176 C 
BRANCH   6  15
ATOM     15  O   UNL A   1      33.913  18.587  24.194  1.00  0.00    -0.444 OA
BRANCH  15  16
ATOM     16  C   UNL A   1      34.054  17.140  24.342  1.00  0.00     0.106 C 
ATOM     17  C   UNL A   1      35.382  16.883  25.051  1.00  0.00     0.056 C 
ATOM     18  C   UNL A   1      34.135  16.574  22.912  1.00  0.00     0.056 C 
ATOM     19  C   UNL A   1      32.909  16.410  25.059  1.00  0.00     0.056 C 
ENDBRANCH  15  16
ENDBRANCH   6  15
ENDBRANCH   3   5
ENDBRANCH   2   3
ENDBRANCH   1   2
BRANCH   1  20
ATOM     20  C   UNL A   1      39.358  19.868  25.388  1.00  0.00     0.275 C 
BRANCH  20  21
ATOM     21  O   UNL A   1      40.347  19.575  26.394  1.00  0.00    -0.458 OA
BRANCH  21  22
ATOM     22  C   UNL A   1      41.627  19.788  26.006  1.00  0.00     0.338 C 
ATOM     23  O   UNL A   1      42.285  19.108  25.235  1.00  0.00    -0.246 OA
BRANCH  22  24
ATOM     24  C   UNL A   1      42.097  21.095  26.496  1.00  0.00     0.060 A 
ATOM     25  C   UNL A   1      42.031  21.325  27.875  1.00  0.00     0.016 A 
ATOM     26  C   UNL A   1      42.534  22.100  25.631  1.00  0.00     0.016 A 
ATOM     27  C   UNL A   1      42.391  22.561  28.399  1.00  0.00     0.010 A 
ATOM     28  C   UNL A   1      42.877  23.350  26.155  1.00  0.00     0.010 A 
ATOM     29  C   UNL A   1      42.790  23.588  27.538  1.00  0.00    -0.014 A 
BRANCH  29  30
ATOM     30  C   UNL A   1      43.014  24.938  28.097  1.00  0.00     0.031 A 
ATOM     31  C   UNL A   1      44.409  25.364  28.445  1.00  0.00     0.074 A 
ATOM     32  C   UNL A   1      41.986  25.795  28.225  1.00  0.00     0.049 A 
ATOM     33  N   UNL A   1      44.824  26.493  28.959  1.00  0.00    -0.248 NA
ATOM     34  C   UNL A   1      45.481  24.393  28.172  1.00  0.00     0.031 C 
ATOM     35  C   UNL A   1      40.601  25.516  27.850  1.00  0.00     0.029 A 
ATOM     36  N   UNL A   1      41.957  27.081  28.698  1.00  0.00    -0.354 N 
ATOM     37  C   UNL A   1      46.202  26.365  29.083  1.00  0.00     0.074 A 
ATOM     38  C   UNL A   1      46.551  25.045  28.602  1.00  0.00     0.031 C 
ATOM     39  C   UNL A   1      39.854  26.603  28.107  1.00  0.00     0.029 A 
ATOM     40  C   UNL A   1      40.703  27.637  28.696  1.00  0.00     0.049 A 
ATOM     41  H   UNL A   1      42.759  27.560  29.010  1.00  0.00     0.167 HD
ATOM     42  C   UNL A   1      47.094  27.265  29.556  1.00  0.00     0.031 A 
ATOM     43  C   UNL A   1      40.285  28.837  29.138  1.00  0.00     0.031 A 
ATOM     44  C   UNL A   1      46.744  28.572  30.042  1.00  0.00     0.049 A 
ATOM     45  C   UNL A   1      41.285  29.789  29.732  1.00  0.00     0.074 A 
ATOM     46  C   UNL A   1      47.574  29.555  30.553  1.00  0.00     0.029 A 
ATOM     47  N   UNL A   1      45.454  29.077  30.076  1.00  0.00    -0.354 N 
ATOM     48  N   UNL A   1      42.582  29.652  29.859  1.00  0.00    -0.248 NA
ATOM     49  C   UNL A   1      40.760  31.062  30.247  1.00  0.00     0.031 C 
ATOM     50  C   UNL A   1      46.779  30.640  30.936  1.00  0.00     0.029 A 
ATOM     51  C   UNL A   1      45.460  30.350  30.621  1.00  0.00     0.049 A 
ATOM     52  H   UNL A   1      44.651  28.602  29.761  1.00  0.00     0.167 HD
ATOM     53  C   UNL A   1      43.031  30.823  30.453  1.00  0.00     0.074 A 
ATOM     54  C   UNL A   1      41.870  31.667  30.646  1.00  0.00     0.031 C 
ATOM     55  C   UNL A   1      44.293  31.170  30.808  1.00  0.00     0.031 A 
BRANCH  42  56
ATOM     56  C   UNL A   1      48.532  26.841  29.611  1.00  0.00    -0.014 A 
ATOM     57  C   UNL A   1      49.414  27.113  28.553  1.00  0.00     0.009 A 
ATOM     58  C   UNL A   1      49.015  26.171  30.746  1.00  0.00     0.009 A 
ATOM     59  C   UNL A   1      50.745  26.696  28.620  1.00  0.00     0.001 A 
ATOM     60  C   UNL A   1      50.350  25.775  30.818  1.00  0.00     0.001 A 
ATOM     61  C   UNL A   1      51.213  26.030  29.753  1.00  0.00     0.000 A 
ENDBRANCH  42  56
BRANCH  43  62
ATOM     62  C   UNL A   1      38.845  29.194  29.067  1.00  0.00    -0.014 A 
ATOM     63  C   UNL A   1      38.001  28.988  30.167  1.00  0.00     0.009 A 
ATOM     64  C   UNL A   1      38.308  29.736  27.888  1.00  0.00     0.009 A 
ATOM     65  C   UNL A   1      36.642  29.303  30.082  1.00  0.00     0.001 A 
ATOM     66  C   UNL A   1      36.956  30.071  27.814  1.00  0.00     0.001 A 
ATOM     67  C   UNL A   1      36.122  29.848  28.908  1.00  0.00     0.000 A 
ENDBRANCH  43  62
BRANCH  55  68
ATOM     68  C   UNL A   1      44.481  32.529  31.419  1.00  0.00    -0.014 A 
ATOM     69  C   UNL A   1      44.421  32.711  32.809  1.00  0.00     0.009 A 
ATOM     70  C   UNL A   1      44.758  33.629  30.595  1.00  0.00     0.009 A 
ATOM     71  C   UNL A   1      44.609  33.980  33.360  1.00  0.00     0.001 A 
ATOM     72  C   UNL A   1      44.967  34.892  31.150  1.00  0.00     0.001 A 
ATOM     73  C   UNL A   1      44.886  35.068  32.531  1.00  0.00     0.000 A 
ENDBRANCH  55  68
ENDBRANCH  29  30
ENDBRANCH  22  24
ENDBRANCH  21  22
ENDBRANCH  20  21
ENDBRANCH   1  20
TORSDOF 13
ENDMDL
