MODEL 1
REMARK VINA RESULT:     -11.5      0.000      0.000
REMARK SMILES O=C(OCCOC(=O)c1ccc(-c2c3nc(c(-c4ccccc4)c4ccc([nH]4)c(-c4ccccc4)c4nc(c(-c5ccccc5)c5ccc2[nH]5)C=C4)C=C3)cc1)C1=Cc2cc(S(F)(F)(F)(F)F)ccc2O[C@H]1C(F)(F)F
REMARK SMILES IDX 5 1 4 2 3 3 2 4 1 5 57 6 58 7 72 8 59 9 71 10 60 11 70 12
REMARK SMILES IDX 61 13 69 14 68 15 73 16 74 17 75 18 76 19 62 20 63 21 64 22
REMARK SMILES IDX 65 23 66 24 67 25 6 26 7 27 8 28 9 29 10 30 56 31 11 32
REMARK SMILES IDX 55 33 12 34 13 35 14 36 49 37 15 38 54 39 48 40 50 41 16 42
REMARK SMILES IDX 53 43 47 44 46 45 17 47 39 48 24 49 38 50 25 51 28 52 37 53
REMARK SMILES IDX 51 54 26 55 27 56 36 58 52 59 29 60 18 61 19 62 23 63 20 64
REMARK SMILES IDX 22 65 21 66 40 67 41 68 45 69 42 70 44 71 43 72 30 73 31 74
REMARK SMILES IDX 35 75 32 76 34 77 33 78
REMARK H PARENT 50 46 28 57
REMARK Flexibility Score: inf
ROOT
ATOM      1  C   UNL A   1      37.325  21.944  24.601  1.00  0.00     0.275 C 
ENDROOT
BRANCH   1   2
ATOM      2  C   UNL A   1      36.484  22.903  23.775  1.00  0.00     0.275 C 
BRANCH   2   3
ATOM      3  O   UNL A   1      35.385  23.356  24.551  1.00  0.00    -0.459 OA
BRANCH   3   4
ATOM      4  C   UNL A   1      34.057  23.074  24.134  1.00  0.00     0.338 C 
ATOM      5  O   UNL A   1      33.816  22.813  22.913  1.00  0.00    -0.246 OA
BRANCH   4   6
ATOM      6  C   UNL A   1      32.924  23.083  25.147  1.00  0.00     0.087 C 
ATOM      7  C   UNL A   1      32.446  24.265  25.622  1.00  0.00     0.027 C 
ATOM      8  C   UNL A   1      32.324  21.772  25.629  1.00  0.00     0.316 C 
ATOM      9  C   UNL A   1      33.045  25.576  25.141  1.00  0.00     0.019 A 
ATOM     10  O   UNL A   1      33.165  24.702  22.934  1.00  0.00    -0.475 OA
ATOM     11  C   UNL A   1      33.303  26.557  26.084  1.00  0.00     0.036 A 
ATOM     12  C   UNL A   1      33.286  25.780  23.852  1.00  0.00     0.128 A 
ATOM     13  C   UNL A   1      33.546  27.836  25.528  1.00  0.00     0.107 A 
ATOM     14  C   UNL A   1      33.653  27.023  23.396  1.00  0.00     0.048 A 
ATOM     15  C   UNL A   1      33.867  28.055  24.267  1.00  0.00     0.028 A 
BRANCH   8  16
ATOM     16  C   UNL A   1      33.032  20.611  24.948  1.00  0.00     0.430 C 
ATOM     17  F   UNL A   1      32.531  19.532  25.543  1.00  0.00    -0.167 F 
ATOM     18  F   UNL A   1      32.816  20.537  23.638  1.00  0.00    -0.167 F 
ATOM     19  F   UNL A   1      34.341  20.676  25.179  1.00  0.00    -0.167 F 
ENDBRANCH   8  16
BRANCH  13  20
ATOM     20  S   UNL A   1      33.408  29.270  26.624  1.00  0.00     0.310 S 
ATOM     21  F   UNL A   1      33.149  28.352  27.891  1.00  0.00    -0.094 F 
ATOM     22  F   UNL A   1      31.850  29.264  26.386  1.00  0.00    -0.094 F 
ATOM     23  F   UNL A   1      33.288  30.501  27.567  1.00  0.00    -0.094 F 
ATOM     24  F   UNL A   1      34.948  29.174  26.959  1.00  0.00    -0.094 F 
ATOM     25  F   UNL A   1      33.529  27.952  25.759  1.00  0.00    -0.094 F 
ENDBRANCH  13  20
ENDBRANCH   4   6
ENDBRANCH   3   4
ENDBRANCH   2   3
ENDBRANCH   1   2
BRANCH   1  26
ATOM     26  O   UNL A   1      37.660  22.555  25.839  1.00  0.00    -0.458 OA
BRANCH  26  27
ATOM     27  C   UNL A   1      39.022  22.758  26.185  1.00  0.00     0.338 C 
ATOM     28  O   UNL A   1      39.872  21.833  25.992  1.00  0.00    -0.246 OA
BRANCH  27  29
ATOM     29  C   UNL A   1      39.465  24.083  26.786  1.00  0.00     0.060 A 
ATOM     30  C   UNL A   1      39.150  24.293  28.118  1.00  0.00     0.016 A 
ATOM     31  C   UNL A   1      40.142  24.986  26.086  1.00  0.00     0.016 A 
ATOM     32  C   UNL A   1      39.345  25.627  28.549  1.00  0.00     0.010 A 
ATOM     33  C   UNL A   1      40.417  26.221  26.620  1.00  0.00     0.010 A 
ATOM     34  C   UNL A   1      40.081  26.520  27.912  1.00  0.00    -0.014 A 
BRANCH  34  35
ATOM     35  C   UNL A   1      40.531  27.809  28.578  1.00  0.00     0.031 A 
ATOM     36  C   UNL A   1      41.832  27.930  29.070  1.00  0.00     0.074 A 
ATOM     37  C   UNL A   1      39.569  28.798  28.685  1.00  0.00     0.049 A 
ATOM     38  N   UNL A   1      42.379  28.986  29.676  1.00  0.00    -0.248 NA
ATOM     39  C   UNL A   1      42.846  26.868  28.987  1.00  0.00     0.031 C 
ATOM     40  C   UNL A   1      38.257  28.687  28.185  1.00  0.00     0.029 A 
ATOM     41  N   UNL A   1      39.690  30.036  29.277  1.00  0.00    -0.354 N 
ATOM     42  C   UNL A   1      43.652  28.731  29.985  1.00  0.00     0.074 A 
ATOM     43  C   UNL A   1      43.969  27.364  29.553  1.00  0.00     0.031 C 
ATOM     44  C   UNL A   1      37.594  29.836  28.481  1.00  0.00     0.029 A 
ATOM     45  C   UNL A   1      38.481  30.686  29.170  1.00  0.00     0.049 A 
ATOM     46  H   UNL A   1      40.503  30.395  29.702  1.00  0.00     0.167 HD
ATOM     47  C   UNL A   1      44.561  29.587  30.609  1.00  0.00     0.031 A 
ATOM     48  C   UNL A   1      38.149  31.946  29.642  1.00  0.00     0.031 A 
ATOM     49  C   UNL A   1      44.242  30.864  31.043  1.00  0.00     0.049 A 
ATOM     50  C   UNL A   1      39.042  32.780  30.319  1.00  0.00     0.074 A 
ATOM     51  C   UNL A   1      45.148  31.742  31.667  1.00  0.00     0.029 A 
ATOM     52  N   UNL A   1      43.025  31.504  30.958  1.00  0.00    -0.354 N 
ATOM     53  N   UNL A   1      40.326  32.541  30.593  1.00  0.00    -0.248 NA
ATOM     54  C   UNL A   1      38.693  34.103  30.851  1.00  0.00     0.031 C 
ATOM     55  C   UNL A   1      44.485  32.892  31.962  1.00  0.00     0.029 A 
ATOM     56  C   UNL A   1      43.152  32.751  31.529  1.00  0.00     0.049 A 
ATOM     57  H   UNL A   1      42.204  31.134  30.558  1.00  0.00     0.167 HD
ATOM     58  C   UNL A   1      40.860  33.581  31.236  1.00  0.00     0.074 A 
ATOM     59  C   UNL A   1      39.815  34.598  31.419  1.00  0.00     0.031 C 
ATOM     60  C   UNL A   1      42.177  33.725  31.675  1.00  0.00     0.031 A 
BRANCH  47  61
ATOM     61  C   UNL A   1      45.981  29.091  30.825  1.00  0.00    -0.014 A 
ATOM     62  C   UNL A   1      46.316  28.410  31.983  1.00  0.00     0.009 A 
ATOM     63  C   UNL A   1      46.861  29.254  29.843  1.00  0.00     0.009 A 
ATOM     64  C   UNL A   1      47.704  28.183  32.135  1.00  0.00     0.001 A 
ATOM     65  C   UNL A   1      48.174  28.886  30.013  1.00  0.00     0.001 A 
ATOM     66  C   UNL A   1      48.587  28.261  31.156  1.00  0.00     0.000 A 
ENDBRANCH  47  61
BRANCH  48  67
ATOM     67  C   UNL A   1      36.733  32.448  29.411  1.00  0.00    -0.014 A 
ATOM     68  C   UNL A   1      36.439  33.168  28.265  1.00  0.00     0.009 A 
ATOM     69  C   UNL A   1      35.823  32.259  30.359  1.00  0.00     0.009 A 
ATOM     70  C   UNL A   1      35.230  33.901  28.343  1.00  0.00     0.001 A 
ATOM     71  C   UNL A   1      34.610  32.900  30.301  1.00  0.00     0.001 A 
ATOM     72  C   UNL A   1      34.275  33.677  29.227  1.00  0.00     0.000 A 
ENDBRANCH  48  67
BRANCH  60  73
ATOM     73  C   UNL A   1      42.565  35.027  32.355  1.00  0.00    -0.014 A 
ATOM     74  C   UNL A   1      43.236  35.978  31.604  1.00  0.00     0.009 A 
ATOM     75  C   UNL A   1      42.261  35.245  33.629  1.00  0.00     0.009 A 
ATOM     76  C   UNL A   1      43.803  37.021  32.374  1.00  0.00     0.001 A 
ATOM     77  C   UNL A   1      42.739  36.355  34.283  1.00  0.00     0.001 A 
ATOM     78  C   UNL A   1      43.460  37.307  33.616  1.00  0.00     0.000 A 
ENDBRANCH  60  73
ENDBRANCH  34  35
ENDBRANCH  27  29
ENDBRANCH  26  27
ENDBRANCH   1  26
TORSDOF 13
ENDMDL
MODEL 2
REMARK VINA RESULT:     -11.5      2.870      7.779
REMARK SMILES O=C(OCCOC(=O)c1ccc(-c2c3nc(c(-c4ccccc4)c4ccc([nH]4)c(-c4ccccc4)c4nc(c(-c5ccccc5)c5ccc2[nH]5)C=C4)C=C3)cc1)C1=Cc2cc(S(F)(F)(F)(F)F)ccc2O[C@H]1C(F)(F)F
REMARK SMILES IDX 5 1 4 2 3 3 2 4 1 5 57 6 58 7 72 8 59 9 71 10 60 11 70 12
REMARK SMILES IDX 61 13 69 14 68 15 73 16 74 17 75 18 76 19 62 20 63 21 64 22
REMARK SMILES IDX 65 23 66 24 67 25 6 26 7 27 8 28 9 29 10 30 56 31 11 32
REMARK SMILES IDX 55 33 12 34 13 35 14 36 49 37 15 38 54 39 48 40 50 41 16 42
REMARK SMILES IDX 53 43 47 44 46 45 17 47 39 48 24 49 38 50 25 51 28 52 37 53
REMARK SMILES IDX 51 54 26 55 27 56 36 58 52 59 29 60 18 61 19 62 23 63 20 64
REMARK SMILES IDX 22 65 21 66 40 67 41 68 45 69 42 70 44 71 43 72 30 73 31 74
REMARK SMILES IDX 35 75 32 76 34 77 33 78
REMARK H PARENT 50 46 28 57
REMARK Flexibility Score: inf
ROOT
ATOM      1  C   UNL A   1      32.287  29.664  27.241  1.00  0.00     0.275 C 
ENDROOT
BRANCH   1   2
ATOM      2  C   UNL A   1      32.105  28.158  27.333  1.00  0.00     0.275 C 
BRANCH   2   3
ATOM      3  O   UNL A   1      32.679  27.542  26.189  1.00  0.00    -0.459 OA
BRANCH   3   4
ATOM      4  C   UNL A   1      31.842  26.942  25.211  1.00  0.00     0.338 C 
ATOM      5  O   UNL A   1      30.649  26.618  25.508  1.00  0.00    -0.246 OA
BRANCH   4   6
ATOM      6  C   UNL A   1      32.372  26.688  23.810  1.00  0.00     0.087 C 
ATOM      7  C   UNL A   1      33.263  25.684  23.591  1.00  0.00     0.027 C 
ATOM      8  C   UNL A   1      31.906  27.556  22.651  1.00  0.00     0.316 C 
ATOM      9  C   UNL A   1      33.729  24.816  24.749  1.00  0.00     0.019 A 
ATOM     10  O   UNL A   1      31.516  24.793  25.613  1.00  0.00    -0.475 OA
ATOM     11  C   UNL A   1      35.079  24.517  24.834  1.00  0.00     0.036 A 
ATOM     12  C   UNL A   1      32.862  24.339  25.632  1.00  0.00     0.128 A 
ATOM     13  C   UNL A   1      35.377  23.461  25.728  1.00  0.00     0.107 A 
ATOM     14  C   UNL A   1      33.253  23.410  26.567  1.00  0.00     0.048 A 
ATOM     15  C   UNL A   1      34.561  23.024  26.668  1.00  0.00     0.028 A 
BRANCH   8  16
ATOM     16  C   UNL A   1      30.919  28.594  23.162  1.00  0.00     0.430 C 
ATOM     17  F   UNL A   1      30.677  29.359  22.101  1.00  0.00    -0.167 F 
ATOM     18  F   UNL A   1      29.777  28.082  23.610  1.00  0.00    -0.167 F 
ATOM     19  F   UNL A   1      31.483  29.328  24.118  1.00  0.00    -0.167 F 
ENDBRANCH   8  16
BRANCH  13  20
ATOM     20  S   UNL A   1      36.990  22.655  25.571  1.00  0.00     0.310 S 
ATOM     21  F   UNL A   1      37.394  23.570  24.339  1.00  0.00    -0.094 F 
ATOM     22  F   UNL A   1      36.356  21.654  24.532  1.00  0.00    -0.094 F 
ATOM     23  F   UNL A   1      38.376  21.963  25.434  1.00  0.00    -0.094 F 
ATOM     24  F   UNL A   1      37.639  23.751  26.504  1.00  0.00    -0.094 F 
ATOM     25  F   UNL A   1      35.617  23.436  25.633  1.00  0.00    -0.094 F 
ENDBRANCH  13  20
ENDBRANCH   4   6
ENDBRANCH   3   4
ENDBRANCH   2   3
ENDBRANCH   1   2
BRANCH   1  26
ATOM     26  O   UNL A   1      33.631  29.958  26.889  1.00  0.00    -0.458 OA
BRANCH  26  27
ATOM     27  C   UNL A   1      34.436  30.743  27.757  1.00  0.00     0.338 C 
ATOM     28  O   UNL A   1      34.009  31.863  28.179  1.00  0.00    -0.246 OA
BRANCH  27  29
ATOM     29  C   UNL A   1      35.808  30.243  28.181  1.00  0.00     0.060 A 
ATOM     30  C   UNL A   1      36.834  30.400  27.264  1.00  0.00     0.016 A 
ATOM     31  C   UNL A   1      36.027  29.707  29.376  1.00  0.00     0.016 A 
ATOM     32  C   UNL A   1      38.012  29.690  27.596  1.00  0.00     0.010 A 
ATOM     33  C   UNL A   1      37.247  29.153  29.680  1.00  0.00     0.010 A 
ATOM     34  C   UNL A   1      38.289  29.218  28.798  1.00  0.00    -0.014 A 
BRANCH  34  35
ATOM     35  C   UNL A   1      39.691  28.773  29.180  1.00  0.00     0.031 A 
ATOM     36  C   UNL A   1      40.536  29.635  29.882  1.00  0.00     0.074 A 
ATOM     37  C   UNL A   1      40.056  27.507  28.757  1.00  0.00     0.049 A 
ATOM     38  N   UNL A   1      41.784  29.398  30.290  1.00  0.00    -0.248 NA
ATOM     39  C   UNL A   1      40.162  30.993  30.303  1.00  0.00     0.031 C 
ATOM     40  C   UNL A   1      39.207  26.628  28.056  1.00  0.00     0.029 A 
ATOM     41  N   UNL A   1      41.268  26.875  28.926  1.00  0.00    -0.354 N 
ATOM     42  C   UNL A   1      42.262  30.456  30.948  1.00  0.00     0.074 A 
ATOM     43  C   UNL A   1      41.229  31.499  30.961  1.00  0.00     0.031 C 
ATOM     44  C   UNL A   1      39.901  25.489  27.796  1.00  0.00     0.029 A 
ATOM     45  C   UNL A   1      41.195  25.635  28.331  1.00  0.00     0.049 A 
ATOM     46  H   UNL A   1      42.052  27.246  29.393  1.00  0.00     0.167 HD
ATOM     47  C   UNL A   1      43.519  30.589  31.541  1.00  0.00     0.031 A 
ATOM     48  C   UNL A   1      42.189  24.674  28.247  1.00  0.00     0.031 A 
ATOM     49  C   UNL A   1      44.499  29.611  31.494  1.00  0.00     0.049 A 
ATOM     50  C   UNL A   1      43.467  24.831  28.789  1.00  0.00     0.074 A 
ATOM     51  C   UNL A   1      45.768  29.726  32.092  1.00  0.00     0.029 A 
ATOM     52  N   UNL A   1      44.434  28.381  30.878  1.00  0.00    -0.354 N 
ATOM     53  N   UNL A   1      43.931  25.872  29.482  1.00  0.00    -0.248 NA
ATOM     54  C   UNL A   1      44.538  23.832  28.679  1.00  0.00     0.031 C 
ATOM     55  C   UNL A   1      46.462  28.586  31.833  1.00  0.00     0.029 A 
ATOM     56  C   UNL A   1      45.638  27.739  31.066  1.00  0.00     0.049 A 
ATOM     57  H   UNL A   1      43.660  28.021  30.386  1.00  0.00     0.167 HD
ATOM     58  C   UNL A   1      45.194  25.651  29.853  1.00  0.00     0.074 A 
ATOM     59  C   UNL A   1      45.605  24.339  29.335  1.00  0.00     0.031 C 
ATOM     60  C   UNL A   1      46.018  26.489  30.606  1.00  0.00     0.031 A 
BRANCH  47  61
ATOM     61  C   UNL A   1      43.830  31.881  32.278  1.00  0.00    -0.014 A 
ATOM     62  C   UNL A   1      43.571  31.994  33.633  1.00  0.00     0.009 A 
ATOM     63  C   UNL A   1      44.431  32.859  31.608  1.00  0.00     0.009 A 
ATOM     64  C   UNL A   1      43.726  33.305  34.141  1.00  0.00     0.001 A 
ATOM     65  C   UNL A   1      44.672  34.071  32.207  1.00  0.00     0.001 A 
ATOM     66  C   UNL A   1      44.388  34.272  33.529  1.00  0.00     0.000 A 
ENDBRANCH  47  61
BRANCH  48  67
ATOM     67  C   UNL A   1      41.871  23.375  27.524  1.00  0.00    -0.014 A 
ATOM     68  C   UNL A   1      41.220  22.355  28.198  1.00  0.00     0.009 A 
ATOM     69  C   UNL A   1      42.304  23.212  26.279  1.00  0.00     0.009 A 
ATOM     70  C   UNL A   1      41.328  21.092  27.570  1.00  0.00     0.001 A 
ATOM     71  C   UNL A   1      42.254  21.978  25.678  1.00  0.00     0.001 A 
ATOM     72  C   UNL A   1      41.678  20.911  26.309  1.00  0.00     0.000 A 
ENDBRANCH  48  67
BRANCH  60  73
ATOM     73  C   UNL A   1      47.418  26.001  30.939  1.00  0.00    -0.014 A 
ATOM     74  C   UNL A   1      47.650  25.512  32.214  1.00  0.00     0.009 A 
ATOM     75  C   UNL A   1      48.385  26.037  30.030  1.00  0.00     0.009 A 
ATOM     76  C   UNL A   1      49.021  25.350  32.526  1.00  0.00     0.001 A 
ATOM     77  C   UNL A   1      49.681  25.735  30.373  1.00  0.00     0.001 A 
ATOM     78  C   UNL A   1      49.992  25.302  31.633  1.00  0.00     0.000 A 
ENDBRANCH  60  73
ENDBRANCH  34  35
ENDBRANCH  27  29
ENDBRANCH  26  27
ENDBRANCH   1  26
TORSDOF 13
ENDMDL
MODEL 3
REMARK VINA RESULT:     -11.4      0.464      5.885
REMARK SMILES O=C(OCCOC(=O)c1ccc(-c2c3nc(c(-c4ccccc4)c4ccc([nH]4)c(-c4ccccc4)c4nc(c(-c5ccccc5)c5ccc2[nH]5)C=C4)C=C3)cc1)C1=Cc2cc(S(F)(F)(F)(F)F)ccc2O[C@H]1C(F)(F)F
REMARK SMILES IDX 5 1 4 2 3 3 2 4 1 5 57 6 58 7 72 8 59 9 71 10 60 11 70 12
REMARK SMILES IDX 61 13 69 14 68 15 73 16 74 17 75 18 76 19 62 20 63 21 64 22
REMARK SMILES IDX 65 23 66 24 67 25 6 26 7 27 8 28 9 29 10 30 56 31 11 32
REMARK SMILES IDX 55 33 12 34 13 35 14 36 49 37 15 38 54 39 48 40 50 41 16 42
REMARK SMILES IDX 53 43 47 44 46 45 17 47 39 48 24 49 38 50 25 51 28 52 37 53
REMARK SMILES IDX 51 54 26 55 27 56 36 58 52 59 29 60 18 61 19 62 23 63 20 64
REMARK SMILES IDX 22 65 21 66 40 67 41 68 45 69 42 70 44 71 43 72 30 73 31 74
REMARK SMILES IDX 35 75 32 76 34 77 33 78
REMARK H PARENT 50 46 28 57
REMARK Flexibility Score: inf
ROOT
ATOM      1  C   UNL A   1      37.188  21.967  24.418  1.00  0.00     0.275 C 
ENDROOT
BRANCH   1   2
ATOM      2  C   UNL A   1      36.358  22.878  23.528  1.00  0.00     0.275 C 
BRANCH   2   3
ATOM      3  O   UNL A   1      35.247  23.371  24.263  1.00  0.00    -0.459 OA
BRANCH   3   4
ATOM      4  C   UNL A   1      33.926  23.134  23.796  1.00  0.00     0.338 C 
ATOM      5  O   UNL A   1      33.715  22.937  22.559  1.00  0.00    -0.246 OA
BRANCH   4   6
ATOM      6  C   UNL A   1      32.766  23.116  24.777  1.00  0.00     0.087 C 
ATOM      7  C   UNL A   1      32.311  24.280  25.315  1.00  0.00     0.027 C 
ATOM      8  C   UNL A   1      32.113  21.797  25.158  1.00  0.00     0.316 C 
ATOM      9  C   UNL A   1      32.964  25.598  24.935  1.00  0.00     0.019 A 
ATOM     10  O   UNL A   1      33.119  24.863  22.680  1.00  0.00    -0.475 OA
ATOM     11  C   UNL A   1      33.224  26.510  25.945  1.00  0.00     0.036 A 
ATOM     12  C   UNL A   1      33.247  25.876  23.668  1.00  0.00     0.128 A 
ATOM     13  C   UNL A   1      33.522  27.812  25.480  1.00  0.00     0.107 A 
ATOM     14  C   UNL A   1      33.665  27.133  23.303  1.00  0.00     0.048 A 
ATOM     15  C   UNL A   1      33.885  28.101  24.244  1.00  0.00     0.028 A 
BRANCH   8  16
ATOM     16  C   UNL A   1      32.804  20.659  24.423  1.00  0.00     0.430 C 
ATOM     17  F   UNL A   1      32.278  19.561  24.959  1.00  0.00    -0.167 F 
ATOM     18  F   UNL A   1      32.595  20.656  23.110  1.00  0.00    -0.167 F 
ATOM     19  F   UNL A   1      34.112  20.688  24.665  1.00  0.00    -0.167 F 
ENDBRANCH   8  16
BRANCH  13  20
ATOM     20  S   UNL A   1      33.397  29.178  26.661  1.00  0.00     0.310 S 
ATOM     21  F   UNL A   1      32.881  28.214  27.811  1.00  0.00    -0.094 F 
ATOM     22  F   UNL A   1      31.891  29.367  26.237  1.00  0.00    -0.094 F 
ATOM     23  F   UNL A   1      33.287  30.350  27.677  1.00  0.00    -0.094 F 
ATOM     24  F   UNL A   1      34.861  28.883  27.171  1.00  0.00    -0.094 F 
ATOM     25  F   UNL A   1      33.488  27.914  25.715  1.00  0.00    -0.094 F 
ENDBRANCH  13  20
ENDBRANCH   4   6
ENDBRANCH   3   4
ENDBRANCH   2   3
ENDBRANCH   1   2
BRANCH   1  26
ATOM     26  O   UNL A   1      37.442  22.617  25.655  1.00  0.00    -0.458 OA
BRANCH  26  27
ATOM     27  C   UNL A   1      38.778  22.797  26.100  1.00  0.00     0.338 C 
ATOM     28  O   UNL A   1      39.634  21.873  25.934  1.00  0.00    -0.246 OA
BRANCH  27  29
ATOM     29  C   UNL A   1      39.185  24.097  26.776  1.00  0.00     0.060 A 
ATOM     30  C   UNL A   1      39.854  25.020  25.989  1.00  0.00     0.016 A 
ATOM     31  C   UNL A   1      38.894  24.355  28.046  1.00  0.00     0.016 A 
ATOM     32  C   UNL A   1      40.435  26.083  26.722  1.00  0.00     0.010 A 
ATOM     33  C   UNL A   1      39.385  25.482  28.660  1.00  0.00     0.010 A 
ATOM     34  C   UNL A   1      40.105  26.409  27.958  1.00  0.00    -0.014 A 
BRANCH  34  35
ATOM     35  C   UNL A   1      40.503  27.743  28.567  1.00  0.00     0.031 A 
ATOM     36  C   UNL A   1      39.559  28.762  28.709  1.00  0.00     0.074 A 
ATOM     37  C   UNL A   1      41.835  27.868  28.921  1.00  0.00     0.049 A 
ATOM     38  N   UNL A   1      39.746  29.979  29.221  1.00  0.00    -0.248 NA
ATOM     39  C   UNL A   1      38.150  28.641  28.303  1.00  0.00     0.031 C 
ATOM     40  C   UNL A   1      42.792  26.843  28.789  1.00  0.00     0.029 A 
ATOM     41  N   UNL A   1      42.470  28.971  29.448  1.00  0.00    -0.354 N 
ATOM     42  C   UNL A   1      38.601  30.666  29.206  1.00  0.00     0.074 A 
ATOM     43  C   UNL A   1      37.560  29.818  28.611  1.00  0.00     0.031 C 
ATOM     44  C   UNL A   1      43.988  27.325  29.220  1.00  0.00     0.029 A 
ATOM     45  C   UNL A   1      43.799  28.658  29.629  1.00  0.00     0.049 A 
ATOM     46  H   UNL A   1      42.046  29.834  29.660  1.00  0.00     0.167 HD
ATOM     47  C   UNL A   1      38.385  31.965  29.669  1.00  0.00     0.031 A 
ATOM     48  C   UNL A   1      44.805  29.476  30.119  1.00  0.00     0.031 A 
ATOM     49  C   UNL A   1      39.382  32.768  30.199  1.00  0.00     0.049 A 
ATOM     50  C   UNL A   1      44.600  30.797  30.527  1.00  0.00     0.074 A 
ATOM     51  C   UNL A   1      39.179  34.077  30.677  1.00  0.00     0.029 A 
ATOM     52  N   UNL A   1      40.716  32.464  30.357  1.00  0.00    -0.354 N 
ATOM     53  N   UNL A   1      43.448  31.469  30.550  1.00  0.00    -0.248 NA
ATOM     54  C   UNL A   1      45.664  31.682  31.018  1.00  0.00     0.031 C 
ATOM     55  C   UNL A   1      40.376  34.558  31.108  1.00  0.00     0.029 A 
ATOM     56  C   UNL A   1      41.346  33.558  30.905  1.00  0.00     0.049 A 
ATOM     57  H   UNL A   1      41.146  31.610  30.118  1.00  0.00     0.167 HD
ATOM     58  C   UNL A   1      43.645  32.701  31.023  1.00  0.00     0.074 A 
ATOM     59  C   UNL A   1      45.074  32.859  31.323  1.00  0.00     0.031 C 
ATOM     60  C   UNL A   1      42.689  33.699  31.219  1.00  0.00     0.031 A 
BRANCH  47  61
ATOM     61  C   UNL A   1      36.977  32.530  29.587  1.00  0.00    -0.014 A 
ATOM     62  C   UNL A   1      36.576  33.252  28.475  1.00  0.00     0.009 A 
ATOM     63  C   UNL A   1      36.124  32.242  30.564  1.00  0.00     0.009 A 
ATOM     64  C   UNL A   1      35.317  33.880  28.621  1.00  0.00     0.001 A 
ATOM     65  C   UNL A   1      34.862  32.783  30.573  1.00  0.00     0.001 A 
ATOM     66  C   UNL A   1      34.420  33.555  29.535  1.00  0.00     0.000 A 
ENDBRANCH  47  61
BRANCH  48  67
ATOM     67  C   UNL A   1      46.210  28.905  30.216  1.00  0.00    -0.014 A 
ATOM     68  C   UNL A   1      46.632  28.318  31.398  1.00  0.00     0.009 A 
ATOM     69  C   UNL A   1      47.037  29.057  29.189  1.00  0.00     0.009 A 
ATOM     70  C   UNL A   1      48.037  28.184  31.502  1.00  0.00     0.001 A 
ATOM     71  C   UNL A   1      48.375  28.777  29.322  1.00  0.00     0.001 A 
ATOM     72  C   UNL A   1      48.872  28.252  30.482  1.00  0.00     0.000 A 
ENDBRANCH  48  67
BRANCH  60  73
ATOM     73  C   UNL A   1      43.149  35.021  31.811  1.00  0.00    -0.014 A 
ATOM     74  C   UNL A   1      43.061  35.184  33.184  1.00  0.00     0.009 A 
ATOM     75  C   UNL A   1      43.626  35.985  31.033  1.00  0.00     0.009 A 
ATOM     76  C   UNL A   1      43.235  36.520  33.615  1.00  0.00     0.001 A 
ATOM     77  C   UNL A   1      43.902  37.229  31.548  1.00  0.00     0.001 A 
ATOM     78  C   UNL A   1      43.781  37.478  32.887  1.00  0.00     0.000 A 
ENDBRANCH  60  73
ENDBRANCH  34  35
ENDBRANCH  27  29
ENDBRANCH  26  27
ENDBRANCH   1  26
TORSDOF 13
ENDMDL
