MODEL 1
REMARK VINA RESULT:     -11.4      0.000      0.000
REMARK SMILES O=C(Nc1ccc2c(c1)OCO2)N[C@H]1C=C[C@@H](C(=O)OCCOC(=O)c2ccc(-c3c4nc(c(-c5ccccc5)c5ccc([nH]5)c(-c5ccccc5)c5nc(c(-c6ccccc6)c6ccc3[nH]6)C=C5)C=C4)cc2)C1
REMARK SMILES IDX 21 1 20 2 18 3 19 4 17 5 14 6 15 7 74 8 16 9 13 10 1 11 2 12
REMARK SMILES IDX 3 13 4 16 5 17 9 18 6 19 8 20 7 21 10 22 12 23 11 24 22 25
REMARK SMILES IDX 23 26 24 27 25 28 26 29 27 30 73 31 28 32 72 33 29 34 30 35
REMARK SMILES IDX 31 36 66 37 32 38 71 39 65 40 67 41 33 42 70 43 64 44 63 45
REMARK SMILES IDX 34 47 56 48 41 49 55 50 42 51 45 52 54 53 68 54 43 55 44 56
REMARK SMILES IDX 53 58 69 59 46 60 35 61 36 62 40 63 37 64 39 65 38 66 57 67
REMARK SMILES IDX 58 68 62 69 59 70 61 71 60 72 47 73 48 74 52 75 49 76 51 77
REMARK SMILES IDX 50 78
REMARK H PARENT 3 14 13 15 67 46 45 57
REMARK Flexibility Score: inf
ROOT
ATOM      1  C   UNL A   1      31.546  31.488  26.226  1.00  0.00     0.274 C 
ENDROOT
BRANCH   1   2
ATOM      2  O   UNL A   1      32.055  30.682  27.305  1.00  0.00    -0.462 OA
BRANCH   2   3
ATOM      3  C   UNL A   1      33.279  30.122  27.138  1.00  0.00     0.312 C 
ATOM      4  O   UNL A   1      34.310  30.751  26.922  1.00  0.00    -0.252 OA
BRANCH   3   5
ATOM      5  C   UNL A   1      33.266  28.600  27.260  1.00  0.00     0.124 C 
ATOM      6  C   UNL A   1      31.818  26.724  26.586  1.00  0.00     0.107 C 
ATOM      7  C   UNL A   1      33.028  26.858  25.714  1.00  0.00    -0.006 C 
ATOM      8  C   UNL A   1      31.901  27.946  27.508  1.00  0.00     0.048 C 
ATOM      9  C   UNL A   1      33.792  27.903  26.047  1.00  0.00    -0.014 C 
BRANCH   6  10
ATOM     10  N   UNL A   1      30.674  26.717  25.714  1.00  0.00    -0.332 N 
ATOM     11  O   UNL A   1      30.801  24.541  25.004  1.00  0.00    -0.248 OA
ATOM     12  C   UNL A   1      30.284  25.650  24.953  1.00  0.00     0.319 C 
ATOM     13  N   UNL A   1      29.156  25.874  24.206  1.00  0.00    -0.308 N 
ATOM     14  H   UNL A   1      28.568  25.097  24.061  1.00  0.00     0.171 HD
ATOM     15  H   UNL A   1      30.135  27.538  25.660  1.00  0.00     0.165 HD
BRANCH  13  16
ATOM     16  C   UNL A   1      28.743  27.085  23.626  1.00  0.00     0.046 A 
ATOM     17  C   UNL A   1      27.408  27.531  23.747  1.00  0.00     0.030 A 
ATOM     18  C   UNL A   1      29.688  27.866  22.958  1.00  0.00     0.076 A 
ATOM     19  C   UNL A   1      26.999  28.736  23.174  1.00  0.00     0.053 A 
ATOM     20  C   UNL A   1      29.245  29.033  22.369  1.00  0.00     0.167 A 
ATOM     21  C   UNL A   1      27.940  29.455  22.476  1.00  0.00     0.165 A 
ATOM     22  O   UNL A   1      30.001  29.882  21.622  1.00  0.00    -0.454 OA
ATOM     23  O   UNL A   1      27.716  30.627  21.824  1.00  0.00    -0.454 OA
ATOM     24  C   UNL A   1      29.014  30.865  21.243  1.00  0.00     0.468 C 
ENDBRANCH  13  16
ENDBRANCH   6  10
ENDBRANCH   3   5
ENDBRANCH   2   3
ENDBRANCH   1   2
BRANCH   1  25
ATOM     25  C   UNL A   1      31.833  32.968  26.495  1.00  0.00     0.275 C 
BRANCH  25  26
ATOM     26  O   UNL A   1      31.984  33.221  27.907  1.00  0.00    -0.458 OA
BRANCH  26  27
ATOM     27  C   UNL A   1      32.861  34.201  28.224  1.00  0.00     0.338 C 
ATOM     28  O   UNL A   1      32.651  35.398  28.286  1.00  0.00    -0.246 OA
BRANCH  27  29
ATOM     29  C   UNL A   1      34.143  33.605  28.620  1.00  0.00     0.060 A 
ATOM     30  C   UNL A   1      34.160  32.747  29.722  1.00  0.00     0.016 A 
ATOM     31  C   UNL A   1      35.330  33.961  27.981  1.00  0.00     0.016 A 
ATOM     32  C   UNL A   1      35.363  32.234  30.194  1.00  0.00     0.010 A 
ATOM     33  C   UNL A   1      36.540  33.443  28.453  1.00  0.00     0.010 A 
ATOM     34  C   UNL A   1      36.563  32.584  29.566  1.00  0.00    -0.014 A 
BRANCH  34  35
ATOM     35  C   UNL A   1      37.849  32.084  30.104  1.00  0.00     0.031 A 
ATOM     36  C   UNL A   1      38.459  30.832  29.543  1.00  0.00     0.074 A 
ATOM     37  C   UNL A   1      38.473  32.761  31.084  1.00  0.00     0.049 A 
ATOM     38  N   UNL A   1      39.515  30.175  29.948  1.00  0.00    -0.248 NA
ATOM     39  C   UNL A   1      37.792  30.244  28.371  1.00  0.00     0.031 C 
ATOM     40  C   UNL A   1      38.014  34.023  31.666  1.00  0.00     0.029 A 
ATOM     41  N   UNL A   1      39.629  32.477  31.765  1.00  0.00    -0.354 N 
ATOM     42  C   UNL A   1      39.631  29.087  29.093  1.00  0.00     0.074 A 
ATOM     43  C   UNL A   1      38.531  29.164  28.157  1.00  0.00     0.031 C 
ATOM     44  C   UNL A   1      38.881  34.403  32.619  1.00  0.00     0.029 A 
ATOM     45  C   UNL A   1      39.923  33.389  32.749  1.00  0.00     0.049 A 
ATOM     46  H   UNL A   1      40.195  31.695  31.567  1.00  0.00     0.167 HD
ATOM     47  C   UNL A   1      40.570  28.111  29.093  1.00  0.00     0.031 A 
ATOM     48  C   UNL A   1      40.901  33.388  33.672  1.00  0.00     0.031 A 
ATOM     49  C   UNL A   1      41.660  28.033  30.030  1.00  0.00     0.049 A 
ATOM     50  C   UNL A   1      41.880  32.248  33.705  1.00  0.00     0.074 A 
ATOM     51  C   UNL A   1      42.655  27.076  30.118  1.00  0.00     0.029 A 
ATOM     52  N   UNL A   1      41.897  28.953  31.038  1.00  0.00    -0.354 N 
ATOM     53  N   UNL A   1      41.965  31.209  32.910  1.00  0.00    -0.248 NA
ATOM     54  C   UNL A   1      42.895  32.278  34.768  1.00  0.00     0.031 C 
ATOM     55  C   UNL A   1      43.474  27.396  31.208  1.00  0.00     0.029 A 
ATOM     56  C   UNL A   1      43.013  28.577  31.767  1.00  0.00     0.049 A 
ATOM     57  H   UNL A   1      41.353  29.755  31.212  1.00  0.00     0.167 HD
ATOM     58  C   UNL A   1      43.051  30.473  33.364  1.00  0.00     0.074 A 
ATOM     59  C   UNL A   1      43.602  31.190  34.495  1.00  0.00     0.031 C 
ATOM     60  C   UNL A   1      43.547  29.306  32.887  1.00  0.00     0.031 A 
BRANCH  47  61
ATOM     61  C   UNL A   1      40.433  27.023  28.067  1.00  0.00    -0.014 A 
ATOM     62  C   UNL A   1      41.090  27.103  26.830  1.00  0.00     0.009 A 
ATOM     63  C   UNL A   1      39.656  25.891  28.355  1.00  0.00     0.009 A 
ATOM     64  C   UNL A   1      40.948  26.080  25.889  1.00  0.00     0.001 A 
ATOM     65  C   UNL A   1      39.535  24.859  27.422  1.00  0.00     0.001 A 
ATOM     66  C   UNL A   1      40.174  24.959  26.188  1.00  0.00     0.000 A 
ENDBRANCH  47  61
BRANCH  48  67
ATOM     67  C   UNL A   1      40.980  34.484  34.672  1.00  0.00    -0.014 A 
ATOM     68  C   UNL A   1      40.248  34.415  35.866  1.00  0.00     0.009 A 
ATOM     69  C   UNL A   1      41.782  35.610  34.428  1.00  0.00     0.009 A 
ATOM     70  C   UNL A   1      40.305  35.462  36.790  1.00  0.00     0.001 A 
ATOM     71  C   UNL A   1      41.856  36.643  35.365  1.00  0.00     0.001 A 
ATOM     72  C   UNL A   1      41.111  36.572  36.541  1.00  0.00     0.000 A 
ENDBRANCH  48  67
BRANCH  60  73
ATOM     73  C   UNL A   1      44.766  28.754  33.566  1.00  0.00    -0.014 A 
ATOM     74  C   UNL A   1      44.657  27.798  34.587  1.00  0.00     0.009 A 
ATOM     75  C   UNL A   1      46.040  29.169  33.151  1.00  0.00     0.009 A 
ATOM     76  C   UNL A   1      45.804  27.287  35.197  1.00  0.00     0.001 A 
ATOM     77  C   UNL A   1      47.185  28.640  33.747  1.00  0.00     0.001 A 
ATOM     78  C   UNL A   1      47.066  27.706  34.774  1.00  0.00     0.000 A 
ENDBRANCH  60  73
ENDBRANCH  34  35
ENDBRANCH  27  29
ENDBRANCH  26  27
ENDBRANCH  25  26
ENDBRANCH   1  25
TORSDOF 13
ENDMDL
MODEL 2
REMARK VINA RESULT:     -11.2      0.442      5.981
REMARK SMILES O=C(Nc1ccc2c(c1)OCO2)N[C@H]1C=C[C@@H](C(=O)OCCOC(=O)c2ccc(-c3c4nc(c(-c5ccccc5)c5ccc([nH]5)c(-c5ccccc5)c5nc(c(-c6ccccc6)c6ccc3[nH]6)C=C5)C=C4)cc2)C1
REMARK SMILES IDX 21 1 20 2 18 3 19 4 17 5 14 6 15 7 74 8 16 9 13 10 1 11 2 12
REMARK SMILES IDX 3 13 4 16 5 17 9 18 6 19 8 20 7 21 10 22 12 23 11 24 22 25
REMARK SMILES IDX 23 26 24 27 25 28 26 29 27 30 73 31 28 32 72 33 29 34 30 35
REMARK SMILES IDX 31 36 66 37 32 38 71 39 65 40 67 41 33 42 70 43 64 44 63 45
REMARK SMILES IDX 34 47 56 48 41 49 55 50 42 51 45 52 54 53 68 54 43 55 44 56
REMARK SMILES IDX 53 58 69 59 46 60 35 61 36 62 40 63 37 64 39 65 38 66 57 67
REMARK SMILES IDX 58 68 62 69 59 70 61 71 60 72 47 73 48 74 52 75 49 76 51 77
REMARK SMILES IDX 50 78
REMARK H PARENT 3 14 13 15 67 46 45 57
REMARK Flexibility Score: inf
ROOT
ATOM      1  C   UNL A   1      31.814  31.752  26.490  1.00  0.00     0.274 C 
ENDROOT
BRANCH   1   2
ATOM      2  O   UNL A   1      32.056  30.534  27.216  1.00  0.00    -0.462 OA
BRANCH   2   3
ATOM      3  C   UNL A   1      33.315  30.029  27.180  1.00  0.00     0.312 C 
ATOM      4  O   UNL A   1      34.336  30.708  27.130  1.00  0.00    -0.252 OA
BRANCH   3   5
ATOM      5  C   UNL A   1      33.353  28.504  27.225  1.00  0.00     0.124 C 
ATOM      6  C   UNL A   1      31.955  26.617  26.480  1.00  0.00     0.107 C 
ATOM      7  C   UNL A   1      33.144  26.835  25.596  1.00  0.00    -0.006 C 
ATOM      8  C   UNL A   1      32.015  27.793  27.462  1.00  0.00     0.048 C 
ATOM      9  C   UNL A   1      33.880  27.886  25.969  1.00  0.00    -0.014 C 
BRANCH   6  10
ATOM     10  N   UNL A   1      30.796  26.616  25.628  1.00  0.00    -0.332 N 
ATOM     11  O   UNL A   1      30.955  24.468  24.841  1.00  0.00    -0.248 OA
ATOM     12  C   UNL A   1      30.414  25.568  24.838  1.00  0.00     0.319 C 
ATOM     13  N   UNL A   1      29.269  25.793  24.118  1.00  0.00    -0.308 N 
ATOM     14  H   UNL A   1      28.694  25.010  23.956  1.00  0.00     0.171 HD
ATOM     15  H   UNL A   1      30.240  27.427  25.612  1.00  0.00     0.165 HD
BRANCH  13  16
ATOM     16  C   UNL A   1      28.821  27.014  23.587  1.00  0.00     0.046 A 
ATOM     17  C   UNL A   1      27.492  27.450  23.786  1.00  0.00     0.030 A 
ATOM     18  C   UNL A   1      29.728  27.816  22.890  1.00  0.00     0.076 A 
ATOM     19  C   UNL A   1      27.049  28.665  23.262  1.00  0.00     0.053 A 
ATOM     20  C   UNL A   1      29.250  28.993  22.350  1.00  0.00     0.167 A 
ATOM     21  C   UNL A   1      27.950  29.405  22.533  1.00  0.00     0.165 A 
ATOM     22  O   UNL A   1      29.963  29.862  21.585  1.00  0.00    -0.454 OA
ATOM     23  O   UNL A   1      27.688  30.589  21.920  1.00  0.00    -0.454 OA
ATOM     24  C   UNL A   1      28.953  30.848  21.279  1.00  0.00     0.468 C 
ENDBRANCH  13  16
ENDBRANCH   6  10
ENDBRANCH   3   5
ENDBRANCH   2   3
ENDBRANCH   1   2
BRANCH   1  25
ATOM     25  C   UNL A   1      31.601  32.912  27.466  1.00  0.00     0.275 C 
BRANCH  25  26
ATOM     26  O   UNL A   1      32.548  33.974  27.229  1.00  0.00    -0.458 OA
BRANCH  26  27
ATOM     27  C   UNL A   1      33.080  34.529  28.342  1.00  0.00     0.338 C 
ATOM     28  O   UNL A   1      32.629  35.442  29.009  1.00  0.00    -0.246 OA
BRANCH  27  29
ATOM     29  C   UNL A   1      34.280  33.781  28.739  1.00  0.00     0.060 A 
ATOM     30  C   UNL A   1      34.199  32.951  29.860  1.00  0.00     0.016 A 
ATOM     31  C   UNL A   1      35.495  33.969  28.081  1.00  0.00     0.016 A 
ATOM     32  C   UNL A   1      35.332  32.298  30.332  1.00  0.00     0.010 A 
ATOM     33  C   UNL A   1      36.634  33.310  28.554  1.00  0.00     0.010 A 
ATOM     34  C   UNL A   1      36.560  32.478  29.686  1.00  0.00    -0.014 A 
BRANCH  34  35
ATOM     35  C   UNL A   1      37.777  31.828  30.223  1.00  0.00     0.031 A 
ATOM     36  C   UNL A   1      38.534  32.473  31.348  1.00  0.00     0.074 A 
ATOM     37  C   UNL A   1      38.191  30.655  29.713  1.00  0.00     0.049 A 
ATOM     38  N   UNL A   1      39.676  32.122  31.882  1.00  0.00    -0.248 NA
ATOM     39  C   UNL A   1      37.926  33.670  31.950  1.00  0.00     0.031 C 
ATOM     40  C   UNL A   1      37.505  29.899  28.665  1.00  0.00     0.029 A 
ATOM     41  N   UNL A   1      39.295  29.896  30.008  1.00  0.00    -0.354 N 
ATOM     42  C   UNL A   1      39.933  33.063  32.871  1.00  0.00     0.074 A 
ATOM     43  C   UNL A   1      38.836  34.007  32.853  1.00  0.00     0.031 C 
ATOM     44  C   UNL A   1      38.205  28.783  28.403  1.00  0.00     0.029 A 
ATOM     45  C   UNL A   1      39.412  28.773  29.226  1.00  0.00     0.049 A 
ATOM     46  H   UNL A   1      39.940  30.133  30.713  1.00  0.00     0.167 HD
ATOM     47  C   UNL A   1      40.990  33.133  33.715  1.00  0.00     0.031 A 
ATOM     48  C   UNL A   1      40.396  27.859  29.157  1.00  0.00     0.031 A 
ATOM     49  C   UNL A   1      42.082  32.196  33.726  1.00  0.00     0.049 A 
ATOM     50  C   UNL A   1      41.600  28.007  30.044  1.00  0.00     0.074 A 
ATOM     51  C   UNL A   1      43.205  32.189  34.535  1.00  0.00     0.029 A 
ATOM     52  N   UNL A   1      42.184  31.097  32.888  1.00  0.00    -0.354 N 
ATOM     53  N   UNL A   1      41.846  28.916  30.957  1.00  0.00    -0.248 NA
ATOM     54  C   UNL A   1      42.665  27.007  29.887  1.00  0.00     0.031 C 
ATOM     55  C   UNL A   1      44.008  31.106  34.159  1.00  0.00     0.029 A 
ATOM     56  C   UNL A   1      43.361  30.414  33.148  1.00  0.00     0.049 A 
ATOM     57  H   UNL A   1      41.519  30.839  32.210  1.00  0.00     0.167 HD
ATOM     58  C   UNL A   1      43.083  28.587  31.495  1.00  0.00     0.074 A 
ATOM     59  C   UNL A   1      43.531  27.388  30.817  1.00  0.00     0.031 C 
ATOM     60  C   UNL A   1      43.786  29.221  32.464  1.00  0.00     0.031 A 
BRANCH  47  61
ATOM     61  C   UNL A   1      41.031  34.289  34.672  1.00  0.00    -0.014 A 
ATOM     62  C   UNL A   1      41.635  35.505  34.319  1.00  0.00     0.009 A 
ATOM     63  C   UNL A   1      40.432  34.166  35.935  1.00  0.00     0.009 A 
ATOM     64  C   UNL A   1      41.663  36.568  35.224  1.00  0.00     0.001 A 
ATOM     65  C   UNL A   1      40.441  35.239  36.829  1.00  0.00     0.001 A 
ATOM     66  C   UNL A   1      41.063  36.434  36.476  1.00  0.00     0.000 A 
ENDBRANCH  47  61
BRANCH  48  67
ATOM     67  C   UNL A   1      40.307  26.744  28.181  1.00  0.00    -0.014 A 
ATOM     68  C   UNL A   1      40.867  26.867  26.901  1.00  0.00     0.009 A 
ATOM     69  C   UNL A   1      39.650  25.551  28.524  1.00  0.00     0.009 A 
ATOM     70  C   UNL A   1      40.754  25.825  25.978  1.00  0.00     0.001 A 
ATOM     71  C   UNL A   1      39.562  24.502  27.608  1.00  0.00     0.001 A 
ATOM     72  C   UNL A   1      40.108  24.642  26.334  1.00  0.00     0.000 A 
ENDBRANCH  48  67
BRANCH  60  73
ATOM     73  C   UNL A   1      45.094  28.609  32.870  1.00  0.00    -0.014 A 
ATOM     74  C   UNL A   1      46.298  28.999  32.263  1.00  0.00     0.009 A 
ATOM     75  C   UNL A   1      45.125  27.658  33.901  1.00  0.00     0.009 A 
ATOM     76  C   UNL A   1      47.506  28.426  32.665  1.00  0.00     0.001 A 
ATOM     77  C   UNL A   1      46.337  27.104  34.316  1.00  0.00     0.001 A 
ATOM     78  C   UNL A   1      47.524  27.483  33.692  1.00  0.00     0.000 A 
ENDBRANCH  60  73
ENDBRANCH  34  35
ENDBRANCH  27  29
ENDBRANCH  26  27
ENDBRANCH  25  26
ENDBRANCH   1  25
TORSDOF 13
ENDMDL
MODEL 3
REMARK VINA RESULT:     -11.0      4.747      9.320
REMARK SMILES O=C(Nc1ccc2c(c1)OCO2)N[C@H]1C=C[C@@H](C(=O)OCCOC(=O)c2ccc(-c3c4nc(c(-c5ccccc5)c5ccc([nH]5)c(-c5ccccc5)c5nc(c(-c6ccccc6)c6ccc3[nH]6)C=C5)C=C4)cc2)C1
REMARK SMILES IDX 21 1 20 2 18 3 19 4 17 5 14 6 15 7 74 8 16 9 13 10 1 11 2 12
REMARK SMILES IDX 3 13 4 16 5 17 9 18 6 19 8 20 7 21 10 22 12 23 11 24 22 25
REMARK SMILES IDX 23 26 24 27 25 28 26 29 27 30 73 31 28 32 72 33 29 34 30 35
REMARK SMILES IDX 31 36 66 37 32 38 71 39 65 40 67 41 33 42 70 43 64 44 63 45
REMARK SMILES IDX 34 47 56 48 41 49 55 50 42 51 45 52 54 53 68 54 43 55 44 56
REMARK SMILES IDX 53 58 69 59 46 60 35 61 36 62 40 63 37 64 39 65 38 66 57 67
REMARK SMILES IDX 58 68 62 69 59 70 61 71 60 72 47 73 48 74 52 75 49 76 51 77
REMARK SMILES IDX 50 78
REMARK H PARENT 3 14 13 15 67 46 45 57
REMARK Flexibility Score: inf
ROOT
ATOM      1  C   UNL A   1      37.622  20.109  25.237  1.00  0.00     0.274 C 
ENDROOT
BRANCH   1   2
ATOM      2  O   UNL A   1      37.822  21.379  24.590  1.00  0.00    -0.462 OA
BRANCH   2   3
ATOM      3  C   UNL A   1      37.842  22.482  25.379  1.00  0.00     0.312 C 
ATOM      4  O   UNL A   1      38.534  22.606  26.385  1.00  0.00    -0.252 OA
BRANCH   3   5
ATOM      5  C   UNL A   1      36.918  23.591  24.886  1.00  0.00     0.124 C 
ATOM      6  C   UNL A   1      34.828  23.792  23.596  1.00  0.00     0.107 C 
ATOM      7  C   UNL A   1      34.615  23.975  25.067  1.00  0.00    -0.006 C 
ATOM      8  C   UNL A   1      36.308  23.403  23.491  1.00  0.00     0.048 C 
ATOM      9  C   UNL A   1      35.738  23.820  25.775  1.00  0.00    -0.014 C 
BRANCH   6  10
ATOM     10  N   UNL A   1      33.915  22.767  23.167  1.00  0.00    -0.332 N 
ATOM     11  O   UNL A   1      32.064  24.079  22.832  1.00  0.00    -0.248 OA
ATOM     12  C   UNL A   1      32.597  22.976  22.869  1.00  0.00     0.319 C 
ATOM     13  N   UNL A   1      31.924  21.849  22.472  1.00  0.00    -0.308 N 
ATOM     14  H   UNL A   1      31.208  21.980  21.808  1.00  0.00     0.171 HD
ATOM     15  H   UNL A   1      34.263  21.850  23.082  1.00  0.00     0.165 HD
BRANCH  13  16
ATOM     16  C   UNL A   1      32.140  20.529  22.902  1.00  0.00     0.046 A 
ATOM     17  C   UNL A   1      32.218  19.466  21.976  1.00  0.00     0.030 A 
ATOM     18  C   UNL A   1      32.321  20.289  24.266  1.00  0.00     0.076 A 
ATOM     19  C   UNL A   1      32.437  18.156  22.403  1.00  0.00     0.053 A 
ATOM     20  C   UNL A   1      32.497  18.978  24.661  1.00  0.00     0.167 A 
ATOM     21  C   UNL A   1      32.555  17.943  23.756  1.00  0.00     0.165 A 
ATOM     22  O   UNL A   1      32.618  18.546  25.945  1.00  0.00    -0.454 OA
ATOM     23  O   UNL A   1      32.734  16.737  24.355  1.00  0.00    -0.454 OA
ATOM     24  C   UNL A   1      32.722  17.120  25.745  1.00  0.00     0.468 C 
ENDBRANCH  13  16
ENDBRANCH   6  10
ENDBRANCH   3   5
ENDBRANCH   2   3
ENDBRANCH   1   2
BRANCH   1  25
ATOM     25  C   UNL A   1      38.924  19.304  25.231  1.00  0.00     0.275 C 
BRANCH  25  26
ATOM     26  O   UNL A   1      39.714  19.582  26.405  1.00  0.00    -0.458 OA
BRANCH  26  27
ATOM     27  C   UNL A   1      41.046  19.682  26.192  1.00  0.00     0.338 C 
ATOM     28  O   UNL A   1      41.773  18.884  25.629  1.00  0.00    -0.246 OA
BRANCH  27  29
ATOM     29  C   UNL A   1      41.520  20.996  26.644  1.00  0.00     0.060 A 
ATOM     30  C   UNL A   1      41.413  21.304  28.002  1.00  0.00     0.016 A 
ATOM     31  C   UNL A   1      41.970  21.951  25.733  1.00  0.00     0.016 A 
ATOM     32  C   UNL A   1      41.758  22.570  28.463  1.00  0.00     0.010 A 
ATOM     33  C   UNL A   1      42.320  23.223  26.197  1.00  0.00     0.010 A 
ATOM     34  C   UNL A   1      42.209  23.541  27.562  1.00  0.00    -0.014 A 
BRANCH  34  35
ATOM     35  C   UNL A   1      42.521  24.906  28.045  1.00  0.00     0.031 A 
ATOM     36  C   UNL A   1      43.932  25.265  28.410  1.00  0.00     0.074 A 
ATOM     37  C   UNL A   1      41.542  25.822  28.141  1.00  0.00     0.049 A 
ATOM     38  N   UNL A   1      44.390  26.365  28.951  1.00  0.00    -0.248 NA
ATOM     39  C   UNL A   1      44.964  24.255  28.126  1.00  0.00     0.031 C 
ATOM     40  C   UNL A   1      40.146  25.613  27.755  1.00  0.00     0.029 A 
ATOM     41  N   UNL A   1      41.575  27.115  28.597  1.00  0.00    -0.354 N 
ATOM     42  C   UNL A   1      45.758  26.173  29.091  1.00  0.00     0.074 A 
ATOM     43  C   UNL A   1      46.054  24.848  28.590  1.00  0.00     0.031 C 
ATOM     44  C   UNL A   1      39.455  26.740  27.993  1.00  0.00     0.029 A 
ATOM     45  C   UNL A   1      40.346  27.728  28.594  1.00  0.00     0.049 A 
ATOM     46  H   UNL A   1      42.400  27.561  28.897  1.00  0.00     0.167 HD
ATOM     47  C   UNL A   1      46.682  27.026  29.594  1.00  0.00     0.031 A 
ATOM     48  C   UNL A   1      39.975  28.936  29.055  1.00  0.00     0.031 A 
ATOM     49  C   UNL A   1      46.384  28.341  30.097  1.00  0.00     0.049 A 
ATOM     50  C   UNL A   1      41.004  29.830  29.688  1.00  0.00     0.074 A 
ATOM     51  C   UNL A   1      47.251  29.275  30.638  1.00  0.00     0.029 A 
ATOM     52  N   UNL A   1      45.120  28.907  30.116  1.00  0.00    -0.354 N 
ATOM     53  N   UNL A   1      42.291  29.628  29.840  1.00  0.00    -0.248 NA
ATOM     54  C   UNL A   1      40.528  31.115  30.218  1.00  0.00     0.031 C 
ATOM     55  C   UNL A   1      46.502  30.394  31.022  1.00  0.00     0.029 A 
ATOM     56  C   UNL A   1      45.179  30.173  30.677  1.00  0.00     0.049 A 
ATOM     57  H   UNL A   1      44.302  28.476  29.781  1.00  0.00     0.167 HD
ATOM     58  C   UNL A   1      42.781  30.767  30.465  1.00  0.00     0.074 A 
ATOM     59  C   UNL A   1      41.657  31.660  30.652  1.00  0.00     0.031 C 
ATOM     60  C   UNL A   1      44.049  31.047  30.851  1.00  0.00     0.031 A 
BRANCH  47  61
ATOM     61  C   UNL A   1      48.102  26.542  29.660  1.00  0.00    -0.014 A 
ATOM     62  C   UNL A   1      48.576  25.825  30.769  1.00  0.00     0.009 A 
ATOM     63  C   UNL A   1      48.969  26.784  28.583  1.00  0.00     0.009 A 
ATOM     64  C   UNL A   1      49.901  25.383  30.809  1.00  0.00     0.001 A 
ATOM     65  C   UNL A   1      50.286  26.321  28.616  1.00  0.00     0.001 A 
ATOM     66  C   UNL A   1      50.752  25.629  29.732  1.00  0.00     0.000 A 
ENDBRANCH  47  61
BRANCH  48  67
ATOM     67  C   UNL A   1      38.553  29.356  28.976  1.00  0.00    -0.014 A 
ATOM     68  C   UNL A   1      38.054  29.977  27.822  1.00  0.00     0.009 A 
ATOM     69  C   UNL A   1      37.689  29.145  30.063  1.00  0.00     0.009 A 
ATOM     70  C   UNL A   1      36.722  30.396  27.765  1.00  0.00     0.001 A 
ATOM     71  C   UNL A   1      36.352  29.541  29.993  1.00  0.00     0.001 A 
ATOM     72  C   UNL A   1      35.872  30.173  28.847  1.00  0.00     0.000 A 
ENDBRANCH  48  67
BRANCH  60  73
ATOM     73  C   UNL A   1      44.291  32.387  31.480  1.00  0.00    -0.014 A 
ATOM     74  C   UNL A   1      44.230  32.558  32.872  1.00  0.00     0.009 A 
ATOM     75  C   UNL A   1      44.622  33.485  30.671  1.00  0.00     0.009 A 
ATOM     76  C   UNL A   1      44.470  33.810  33.439  1.00  0.00     0.001 A 
ATOM     77  C   UNL A   1      44.884  34.731  31.243  1.00  0.00     0.001 A 
ATOM     78  C   UNL A   1      44.801  34.894  32.624  1.00  0.00     0.000 A 
ENDBRANCH  60  73
ENDBRANCH  34  35
ENDBRANCH  27  29
ENDBRANCH  26  27
ENDBRANCH  25  26
ENDBRANCH   1  25
TORSDOF 13
ENDMDL
