MODEL 1
REMARK VINA RESULT:     -12.7      0.000      0.000
REMARK SMILES COc1ccccc1[C@@H]1C[N@@H+](Cc2cn3cc(C)ccc3n2)C[C@H]1C(=O)OCCOC(=O)c1ccc(-c2c3nc(c(-c4ccccc4)c4ccc([nH]4)c(-c4ccccc4)c4nc(c(-c5ccccc5)c5ccc2[nH]5)C=C4)C=C3)cc1
REMARK SMILES IDX 28 1 27 2 25 3 26 4 24 5 9 6 10 7 11 8 23 9 8 11 3 12 4 13
REMARK SMILES IDX 5 14 7 15 6 16 2 17 1 18 12 19 13 20 14 21 22 22 15 23 21 24
REMARK SMILES IDX 16 25 20 26 17 27 19 28 18 29 29 30 30 31 31 32 32 33 33 34
REMARK SMILES IDX 34 35 80 36 35 37 79 38 36 39 37 40 38 41 73 42 39 43 78 44
REMARK SMILES IDX 72 45 74 46 40 47 77 48 71 49 70 50 41 52 63 53 48 54 62 55
REMARK SMILES IDX 49 56 52 57 61 58 75 59 50 60 51 61 60 63 76 64 53 65 42 66
REMARK SMILES IDX 43 67 47 68 44 69 46 70 45 71 64 72 65 73 69 74 66 75 68 76
REMARK SMILES IDX 67 77 54 78 55 79 59 80 56 81 58 82 57 83
REMARK H PARENT 11 10 74 51 52 62
REMARK Flexibility Score: inf
ROOT
ATOM      1  C   UNL A   1      32.537  29.700  27.201  1.00  0.00     0.274 C 
ENDROOT
BRANCH   1   2
ATOM      2  O   UNL A   1      33.177  28.413  27.282  1.00  0.00    -0.462 OA
BRANCH   2   3
ATOM      3  C   UNL A   1      32.603  27.374  26.622  1.00  0.00     0.315 C 
ATOM      4  O   UNL A   1      31.457  26.982  26.816  1.00  0.00    -0.252 OA
BRANCH   3   5
ATOM      5  C   UNL A   1      33.553  26.671  25.674  1.00  0.00     0.167 C 
ATOM      6  C   UNL A   1      33.187  25.268  25.188  1.00  0.00     0.098 C 
ATOM      7  C   UNL A   1      33.943  25.200  23.851  1.00  0.00     0.272 C 
ATOM      8  N   UNL A   1      33.860  26.541  23.264  1.00  0.00    -0.329 N 
ATOM      9  C   UNL A   1      33.716  27.487  24.383  1.00  0.00     0.278 C 
ATOM     10  H   UNL A   1      34.714  26.741  22.744  1.00  0.00     0.348 HD
BRANCH   6  11
ATOM     11  C   UNL A   1      33.450  24.037  26.041  1.00  0.00     0.004 A 
ATOM     12  C   UNL A   1      32.529  23.448  26.922  1.00  0.00     0.122 A 
ATOM     13  C   UNL A   1      32.888  22.344  27.712  1.00  0.00     0.047 A 
ATOM     14  C   UNL A   1      34.179  21.820  27.651  1.00  0.00     0.004 A 
ATOM     15  C   UNL A   1      34.759  23.507  26.028  1.00  0.00     0.008 A 
ATOM     16  C   UNL A   1      35.122  22.413  26.820  1.00  0.00     0.001 A 
BRANCH  12  17
ATOM     17  O   UNL A   1      31.336  24.061  27.192  1.00  0.00    -0.496 OA
ATOM     18  C   UNL A   1      30.205  23.287  26.806  1.00  0.00     0.278 C 
ENDBRANCH  12  17
ENDBRANCH   6  11
BRANCH   8  19
ATOM     19  C   UNL A   1      32.835  26.689  22.213  1.00  0.00     0.321 C 
BRANCH  19  20
ATOM     20  C   UNL A   1      31.633  27.491  22.616  1.00  0.00     0.114 A 
ATOM     21  C   UNL A   1      31.528  28.865  22.744  1.00  0.00     0.122 A 
ATOM     22  N   UNL A   1      30.414  26.895  22.871  1.00  0.00    -0.228 NA
ATOM     23  N   UNL A   1      30.200  29.120  22.960  1.00  0.00    -0.306 N 
ATOM     24  C   UNL A   1      29.568  27.889  23.053  1.00  0.00     0.137 A 
ATOM     25  C   UNL A   1      29.539  30.342  23.051  1.00  0.00     0.096 A 
ATOM     26  C   UNL A   1      28.165  27.905  23.283  1.00  0.00     0.048 A 
ATOM     27  C   UNL A   1      28.206  30.362  23.249  1.00  0.00    -0.034 A 
ATOM     28  C   UNL A   1      27.509  29.080  23.365  1.00  0.00     0.009 A 
ATOM     29  C   UNL A   1      27.401  31.619  23.342  1.00  0.00     0.046 C 
ENDBRANCH  19  20
ENDBRANCH   8  19
ENDBRANCH   3   5
ENDBRANCH   2   3
ENDBRANCH   1   2
BRANCH   1  30
ATOM     30  C   UNL A   1      33.518  30.867  27.261  1.00  0.00     0.275 C 
BRANCH  30  31
ATOM     31  O   UNL A   1      34.867  30.428  27.413  1.00  0.00    -0.458 OA
BRANCH  31  32
ATOM     32  C   UNL A   1      35.662  31.354  27.986  1.00  0.00     0.338 C 
ATOM     33  O   UNL A   1      35.639  32.566  27.820  1.00  0.00    -0.246 OA
BRANCH  32  34
ATOM     34  C   UNL A   1      36.709  30.705  28.761  1.00  0.00     0.060 A 
ATOM     35  C   UNL A   1      37.946  31.340  28.870  1.00  0.00     0.016 A 
ATOM     36  C   UNL A   1      36.532  29.368  29.122  1.00  0.00     0.016 A 
ATOM     37  C   UNL A   1      39.060  30.590  29.196  1.00  0.00     0.010 A 
ATOM     38  C   UNL A   1      37.640  28.625  29.471  1.00  0.00     0.010 A 
ATOM     39  C   UNL A   1      38.906  29.222  29.429  1.00  0.00    -0.014 A 
BRANCH  39  40
ATOM     40  C   UNL A   1      40.101  28.425  29.677  1.00  0.00     0.031 A 
ATOM     41  C   UNL A   1      40.579  28.391  31.081  1.00  0.00     0.074 A 
ATOM     42  C   UNL A   1      40.607  27.599  28.738  1.00  0.00     0.049 A 
ATOM     43  N   UNL A   1      41.785  28.530  31.528  1.00  0.00    -0.248 NA
ATOM     44  C   UNL A   1      39.560  28.203  32.130  1.00  0.00     0.031 C 
ATOM     45  C   UNL A   1      40.018  27.306  27.427  1.00  0.00     0.029 A 
ATOM     46  N   UNL A   1      41.653  26.724  28.819  1.00  0.00    -0.354 N 
ATOM     47  C   UNL A   1      41.705  28.291  32.897  1.00  0.00     0.074 A 
ATOM     48  C   UNL A   1      40.307  28.200  33.230  1.00  0.00     0.031 C 
ATOM     49  C   UNL A   1      40.550  26.161  26.954  1.00  0.00     0.029 A 
ATOM     50  C   UNL A   1      41.596  25.721  27.864  1.00  0.00     0.049 A 
ATOM     51  H   UNL A   1      42.373  26.798  29.487  1.00  0.00     0.167 HD
ATOM     52  C   UNL A   1      42.787  27.949  33.641  1.00  0.00     0.031 A 
ATOM     53  C   UNL A   1      42.293  24.563  27.844  1.00  0.00     0.031 A 
ATOM     54  C   UNL A   1      44.032  28.264  33.004  1.00  0.00     0.049 A 
ATOM     55  C   UNL A   1      43.457  24.681  28.745  1.00  0.00     0.074 A 
ATOM     56  C   UNL A   1      44.730  29.410  32.697  1.00  0.00     0.029 A 
ATOM     57  N   UNL A   1      44.627  27.235  32.325  1.00  0.00    -0.354 N 
ATOM     58  N   UNL A   1      44.477  25.457  28.519  1.00  0.00    -0.248 NA
ATOM     59  C   UNL A   1      43.397  24.105  30.083  1.00  0.00     0.031 C 
ATOM     60  C   UNL A   1      45.569  29.072  31.597  1.00  0.00     0.029 A 
ATOM     61  C   UNL A   1      45.335  27.737  31.266  1.00  0.00     0.049 A 
ATOM     62  H   UNL A   1      44.556  26.281  32.562  1.00  0.00     0.167 HD
ATOM     63  C   UNL A   1      44.946  25.791  29.776  1.00  0.00     0.074 A 
ATOM     64  C   UNL A   1      44.378  24.795  30.671  1.00  0.00     0.031 C 
ATOM     65  C   UNL A   1      45.486  27.019  30.017  1.00  0.00     0.031 A 
BRANCH  52  66
ATOM     66  C   UNL A   1      42.714  26.943  34.762  1.00  0.00    -0.014 A 
ATOM     67  C   UNL A   1      42.735  25.573  34.453  1.00  0.00     0.009 A 
ATOM     68  C   UNL A   1      42.328  27.297  36.071  1.00  0.00     0.009 A 
ATOM     69  C   UNL A   1      42.358  24.610  35.398  1.00  0.00     0.001 A 
ATOM     70  C   UNL A   1      41.992  26.337  37.028  1.00  0.00     0.001 A 
ATOM     71  C   UNL A   1      41.986  24.993  36.684  1.00  0.00     0.000 A 
ENDBRANCH  52  66
BRANCH  53  72
ATOM     72  C   UNL A   1      41.903  23.282  27.224  1.00  0.00    -0.014 A 
ATOM     73  C   UNL A   1      42.866  22.434  26.659  1.00  0.00     0.009 A 
ATOM     74  C   UNL A   1      40.595  22.784  27.377  1.00  0.00     0.009 A 
ATOM     75  C   UNL A   1      42.534  21.128  26.278  1.00  0.00     0.001 A 
ATOM     76  C   UNL A   1      40.261  21.485  26.987  1.00  0.00     0.001 A 
ATOM     77  C   UNL A   1      41.235  20.652  26.447  1.00  0.00     0.000 A 
ENDBRANCH  53  72
BRANCH  65  78
ATOM     78  C   UNL A   1      46.000  27.794  28.835  1.00  0.00    -0.014 A 
ATOM     79  C   UNL A   1      45.186  28.647  28.073  1.00  0.00     0.009 A 
ATOM     80  C   UNL A   1      47.372  27.738  28.545  1.00  0.00     0.009 A 
ATOM     81  C   UNL A   1      45.725  29.395  27.024  1.00  0.00     0.001 A 
ATOM     82  C   UNL A   1      47.914  28.503  27.512  1.00  0.00     0.001 A 
ATOM     83  C   UNL A   1      47.089  29.326  26.746  1.00  0.00     0.000 A 
ENDBRANCH  65  78
ENDBRANCH  39  40
ENDBRANCH  32  34
ENDBRANCH  31  32
ENDBRANCH  30  31
ENDBRANCH   1  30
TORSDOF 15
ENDMDL
MODEL 2
REMARK VINA RESULT:     -12.5      3.566      8.349
REMARK SMILES COc1ccccc1[C@@H]1C[N@@H+](Cc2cn3cc(C)ccc3n2)C[C@H]1C(=O)OCCOC(=O)c1ccc(-c2c3nc(c(-c4ccccc4)c4ccc([nH]4)c(-c4ccccc4)c4nc(c(-c5ccccc5)c5ccc2[nH]5)C=C4)C=C3)cc1
REMARK SMILES IDX 28 1 27 2 25 3 26 4 24 5 9 6 10 7 11 8 23 9 8 11 3 12 4 13
REMARK SMILES IDX 5 14 7 15 6 16 2 17 1 18 12 19 13 20 14 21 22 22 15 23 21 24
REMARK SMILES IDX 16 25 20 26 17 27 19 28 18 29 29 30 30 31 31 32 32 33 33 34
REMARK SMILES IDX 34 35 80 36 35 37 79 38 36 39 37 40 38 41 73 42 39 43 78 44
REMARK SMILES IDX 72 45 74 46 40 47 77 48 71 49 70 50 41 52 63 53 48 54 62 55
REMARK SMILES IDX 49 56 52 57 61 58 75 59 50 60 51 61 60 63 76 64 53 65 42 66
REMARK SMILES IDX 43 67 47 68 44 69 46 70 45 71 64 72 65 73 69 74 66 75 68 76
REMARK SMILES IDX 67 77 54 78 55 79 59 80 56 81 58 82 57 83
REMARK H PARENT 11 10 74 51 52 62
REMARK Flexibility Score: inf
ROOT
ATOM      1  C   UNL A   1      37.392  21.917  24.391  1.00  0.00     0.274 C 
ENDROOT
BRANCH   1   2
ATOM      2  O   UNL A   1      37.021  23.305  24.290  1.00  0.00    -0.462 OA
BRANCH   2   3
ATOM      3  C   UNL A   1      35.738  23.597  23.954  1.00  0.00     0.315 C 
ATOM      4  O   UNL A   1      35.239  23.359  22.859  1.00  0.00    -0.252 OA
BRANCH   3   5
ATOM      5  C   UNL A   1      34.992  24.344  25.042  1.00  0.00     0.167 C 
ATOM      6  C   UNL A   1      33.661  25.007  24.685  1.00  0.00     0.098 C 
ATOM      7  C   UNL A   1      32.957  25.037  26.051  1.00  0.00     0.272 C 
ATOM      8  N   UNL A   1      33.331  23.793  26.732  1.00  0.00    -0.329 N 
ATOM      9  C   UNL A   1      34.641  23.391  26.194  1.00  0.00     0.278 C 
ATOM     10  H   UNL A   1      33.400  23.960  27.736  1.00  0.00     0.348 HD
BRANCH   6  11
ATOM     11  C   UNL A   1      33.608  26.363  23.999  1.00  0.00     0.004 A 
ATOM     12  C   UNL A   1      33.531  26.571  22.613  1.00  0.00     0.122 A 
ATOM     13  C   UNL A   1      33.545  27.866  22.073  1.00  0.00     0.047 A 
ATOM     14  C   UNL A   1      33.656  28.979  22.906  1.00  0.00     0.004 A 
ATOM     15  C   UNL A   1      33.755  27.507  24.814  1.00  0.00     0.008 A 
ATOM     16  C   UNL A   1      33.778  28.799  24.279  1.00  0.00     0.001 A 
BRANCH  12  17
ATOM     17  O   UNL A   1      33.657  25.520  21.745  1.00  0.00    -0.496 OA
ATOM     18  C   UNL A   1      32.660  25.504  20.730  1.00  0.00     0.278 C 
ENDBRANCH  12  17
ENDBRANCH   6  11
BRANCH   8  19
ATOM     19  C   UNL A   1      32.306  22.733  26.681  1.00  0.00     0.321 C 
BRANCH  19  20
ATOM     20  C   UNL A   1      32.629  21.590  25.765  1.00  0.00     0.114 A 
ATOM     21  C   UNL A   1      33.479  20.523  26.000  1.00  0.00     0.122 A 
ATOM     22  N   UNL A   1      32.032  21.459  24.527  1.00  0.00    -0.228 NA
ATOM     23  N   UNL A   1      33.304  19.667  24.946  1.00  0.00    -0.306 N 
ATOM     24  C   UNL A   1      32.433  20.292  24.065  1.00  0.00     0.137 A 
ATOM     25  C   UNL A   1      33.837  18.397  24.741  1.00  0.00     0.096 A 
ATOM     26  C   UNL A   1      32.103  19.582  22.878  1.00  0.00     0.048 A 
ATOM     27  C   UNL A   1      33.512  17.713  23.626  1.00  0.00    -0.034 A 
ATOM     28  C   UNL A   1      32.605  18.348  22.670  1.00  0.00     0.009 A 
ATOM     29  C   UNL A   1      34.015  16.337  23.323  1.00  0.00     0.046 C 
ENDBRANCH  19  20
ENDBRANCH   8  19
ENDBRANCH   3   5
ENDBRANCH   2   3
ENDBRANCH   1   2
BRANCH   1  30
ATOM     30  C   UNL A   1      38.275  21.615  25.597  1.00  0.00     0.275 C 
BRANCH  30  31
ATOM     31  O   UNL A   1      38.548  22.783  26.371  1.00  0.00    -0.458 OA
BRANCH  31  32
ATOM     32  C   UNL A   1      39.759  22.754  26.963  1.00  0.00     0.338 C 
ATOM     33  O   UNL A   1      40.357  21.779  27.395  1.00  0.00    -0.246 OA
BRANCH  32  34
ATOM     34  C   UNL A   1      40.246  24.109  27.174  1.00  0.00     0.060 A 
ATOM     35  C   UNL A   1      41.419  24.287  27.907  1.00  0.00     0.016 A 
ATOM     36  C   UNL A   1      39.389  25.172  26.884  1.00  0.00     0.016 A 
ATOM     37  C   UNL A   1      41.665  25.513  28.495  1.00  0.00     0.010 A 
ATOM     38  C   UNL A   1      39.647  26.403  27.451  1.00  0.00     0.010 A 
ATOM     39  C   UNL A   1      40.740  26.543  28.315  1.00  0.00    -0.014 A 
BRANCH  39  40
ATOM     40  C   UNL A   1      40.961  27.801  29.018  1.00  0.00     0.031 A 
ATOM     41  C   UNL A   1      41.994  28.695  28.439  1.00  0.00     0.074 A 
ATOM     42  C   UNL A   1      40.132  28.219  29.996  1.00  0.00     0.049 A 
ATOM     43  N   UNL A   1      42.941  29.335  29.046  1.00  0.00    -0.248 NA
ATOM     44  C   UNL A   1      41.981  28.873  26.976  1.00  0.00     0.031 C 
ATOM     45  C   UNL A   1      38.887  27.569  30.420  1.00  0.00     0.029 A 
ATOM     46  N   UNL A   1      40.133  29.392  30.697  1.00  0.00    -0.354 N 
ATOM     47  C   UNL A   1      43.545  30.120  28.068  1.00  0.00     0.074 A 
ATOM     48  C   UNL A   1      42.990  29.722  26.801  1.00  0.00     0.031 C 
ATOM     49  C   UNL A   1      38.137  28.460  31.098  1.00  0.00     0.029 A 
ATOM     50  C   UNL A   1      38.901  29.687  31.260  1.00  0.00     0.049 A 
ATOM     51  H   UNL A   1      40.925  29.968  30.791  1.00  0.00     0.167 HD
ATOM     52  C   UNL A   1      44.293  31.211  28.371  1.00  0.00     0.031 A 
ATOM     53  C   UNL A   1      38.487  30.873  31.759  1.00  0.00     0.031 A 
ATOM     54  C   UNL A   1      44.742  31.229  29.732  1.00  0.00     0.049 A 
ATOM     55  C   UNL A   1      39.664  31.723  32.032  1.00  0.00     0.074 A 
ATOM     56  C   UNL A   1      45.646  30.522  30.491  1.00  0.00     0.029 A 
ATOM     57  N   UNL A   1      43.976  31.964  30.597  1.00  0.00    -0.354 N 
ATOM     58  N   UNL A   1      40.537  31.480  32.966  1.00  0.00    -0.248 NA
ATOM     59  C   UNL A   1      40.044  32.760  31.080  1.00  0.00     0.031 C 
ATOM     60  C   UNL A   1      45.202  30.641  31.839  1.00  0.00     0.029 A 
ATOM     61  C   UNL A   1      44.033  31.402  31.845  1.00  0.00     0.049 A 
ATOM     62  H   UNL A   1      43.465  32.771  30.359  1.00  0.00     0.167 HD
ATOM     63  C   UNL A   1      41.717  32.021  32.489  1.00  0.00     0.074 A 
ATOM     64  C   UNL A   1      41.316  32.945  31.440  1.00  0.00     0.031 C 
ATOM     65  C   UNL A   1      42.916  31.435  32.768  1.00  0.00     0.031 A 
BRANCH  52  66
ATOM     66  C   UNL A   1      44.263  32.470  27.541  1.00  0.00    -0.014 A 
ATOM     67  C   UNL A   1      43.745  33.648  28.105  1.00  0.00     0.009 A 
ATOM     68  C   UNL A   1      44.449  32.459  26.143  1.00  0.00     0.009 A 
ATOM     69  C   UNL A   1      43.401  34.745  27.304  1.00  0.00     0.001 A 
ATOM     70  C   UNL A   1      44.146  33.566  25.348  1.00  0.00     0.001 A 
ATOM     71  C   UNL A   1      43.601  34.703  25.927  1.00  0.00     0.000 A 
ENDBRANCH  52  66
BRANCH  53  72
ATOM     72  C   UNL A   1      37.107  31.389  31.843  1.00  0.00    -0.014 A 
ATOM     73  C   UNL A   1      36.596  31.884  33.051  1.00  0.00     0.009 A 
ATOM     74  C   UNL A   1      36.350  31.597  30.674  1.00  0.00     0.009 A 
ATOM     75  C   UNL A   1      35.379  32.577  33.083  1.00  0.00     0.001 A 
ATOM     76  C   UNL A   1      35.132  32.278  30.708  1.00  0.00     0.001 A 
ATOM     77  C   UNL A   1      34.651  32.779  31.912  1.00  0.00     0.000 A 
ENDBRANCH  53  72
BRANCH  65  78
ATOM     78  C   UNL A   1      42.981  30.522  33.960  1.00  0.00    -0.014 A 
ATOM     79  C   UNL A   1      43.164  30.992  35.269  1.00  0.00     0.009 A 
ATOM     80  C   UNL A   1      42.749  29.151  33.765  1.00  0.00     0.009 A 
ATOM     81  C   UNL A   1      43.152  30.109  36.352  1.00  0.00     0.001 A 
ATOM     82  C   UNL A   1      42.715  28.273  34.849  1.00  0.00     0.001 A 
ATOM     83  C   UNL A   1      42.925  28.750  36.141  1.00  0.00     0.000 A 
ENDBRANCH  65  78
ENDBRANCH  39  40
ENDBRANCH  32  34
ENDBRANCH  31  32
ENDBRANCH  30  31
ENDBRANCH   1  30
TORSDOF 15
ENDMDL
MODEL 3
REMARK VINA RESULT:     -12.1      1.469      4.719
REMARK SMILES COc1ccccc1[C@@H]1C[N@@H+](Cc2cn3cc(C)ccc3n2)C[C@H]1C(=O)OCCOC(=O)c1ccc(-c2c3nc(c(-c4ccccc4)c4ccc([nH]4)c(-c4ccccc4)c4nc(c(-c5ccccc5)c5ccc2[nH]5)C=C4)C=C3)cc1
REMARK SMILES IDX 28 1 27 2 25 3 26 4 24 5 9 6 10 7 11 8 23 9 8 11 3 12 4 13
REMARK SMILES IDX 5 14 7 15 6 16 2 17 1 18 12 19 13 20 14 21 22 22 15 23 21 24
REMARK SMILES IDX 16 25 20 26 17 27 19 28 18 29 29 30 30 31 31 32 32 33 33 34
REMARK SMILES IDX 34 35 80 36 35 37 79 38 36 39 37 40 38 41 73 42 39 43 78 44
REMARK SMILES IDX 72 45 74 46 40 47 77 48 71 49 70 50 41 52 63 53 48 54 62 55
REMARK SMILES IDX 49 56 52 57 61 58 75 59 50 60 51 61 60 63 76 64 53 65 42 66
REMARK SMILES IDX 43 67 47 68 44 69 46 70 45 71 64 72 65 73 69 74 66 75 68 76
REMARK SMILES IDX 67 77 54 78 55 79 59 80 56 81 58 82 57 83
REMARK H PARENT 11 10 74 51 52 62
REMARK Flexibility Score: inf
ROOT
ATOM      1  C   UNL A   1      33.941  28.903  26.983  1.00  0.00     0.274 C 
ENDROOT
BRANCH   1   2
ATOM      2  O   UNL A   1      32.854  28.645  26.074  1.00  0.00    -0.462 OA
BRANCH   2   3
ATOM      3  C   UNL A   1      31.815  27.894  26.522  1.00  0.00     0.315 C 
ATOM      4  O   UNL A   1      31.465  27.828  27.696  1.00  0.00    -0.252 OA
BRANCH   3   5
ATOM      5  C   UNL A   1      31.173  27.056  25.435  1.00  0.00     0.167 C 
ATOM      6  C   UNL A   1      31.040  27.659  24.036  1.00  0.00     0.098 C 
ATOM      7  C   UNL A   1      31.007  26.397  23.158  1.00  0.00     0.272 C 
ATOM      8  N   UNL A   1      31.932  25.443  23.778  1.00  0.00    -0.329 N 
ATOM      9  C   UNL A   1      31.980  25.767  25.213  1.00  0.00     0.278 C 
ATOM     10  H   UNL A   1      31.585  24.493  23.644  1.00  0.00     0.348 HD
BRANCH   6  11
ATOM     11  C   UNL A   1      29.908  28.612  23.686  1.00  0.00     0.004 A 
ATOM     12  C   UNL A   1      29.957  30.010  23.805  1.00  0.00     0.122 A 
ATOM     13  C   UNL A   1      28.836  30.801  23.511  1.00  0.00     0.047 A 
ATOM     14  C   UNL A   1      27.638  30.210  23.110  1.00  0.00     0.004 A 
ATOM     15  C   UNL A   1      28.672  28.041  23.312  1.00  0.00     0.008 A 
ATOM     16  C   UNL A   1      27.550  28.825  23.027  1.00  0.00     0.001 A 
BRANCH  12  17
ATOM     17  O   UNL A   1      31.021  30.619  24.414  1.00  0.00    -0.496 OA
ATOM     18  C   UNL A   1      30.661  31.346  25.583  1.00  0.00     0.278 C 
ENDBRANCH  12  17
ENDBRANCH   6  11
BRANCH   8  19
ATOM     19  C   UNL A   1      33.257  25.365  23.133  1.00  0.00     0.321 C 
BRANCH  19  20
ATOM     20  C   UNL A   1      34.211  24.399  23.770  1.00  0.00     0.114 A 
ATOM     21  C   UNL A   1      34.321  23.037  23.549  1.00  0.00     0.122 A 
ATOM     22  N   UNL A   1      35.171  24.813  24.671  1.00  0.00    -0.228 NA
ATOM     23  N   UNL A   1      35.440  22.637  24.228  1.00  0.00    -0.306 N 
ATOM     24  C   UNL A   1      35.908  23.748  24.914  1.00  0.00     0.137 A 
ATOM     25  C   UNL A   1      36.061  21.391  24.252  1.00  0.00     0.096 A 
ATOM     26  C   UNL A   1      37.078  23.569  25.703  1.00  0.00     0.048 A 
ATOM     27  C   UNL A   1      37.181  21.221  24.983  1.00  0.00    -0.034 A 
ATOM     28  C   UNL A   1      37.694  22.370  25.729  1.00  0.00     0.009 A 
ATOM     29  C   UNL A   1      37.932  19.930  25.060  1.00  0.00     0.046 C 
ENDBRANCH  19  20
ENDBRANCH   8  19
ENDBRANCH   3   5
ENDBRANCH   2   3
ENDBRANCH   1   2
BRANCH   1  30
ATOM     30  C   UNL A   1      33.996  30.349  27.465  1.00  0.00     0.275 C 
BRANCH  30  31
ATOM     31  O   UNL A   1      35.310  30.897  27.369  1.00  0.00    -0.458 OA
BRANCH  31  32
ATOM     32  C   UNL A   1      35.931  30.990  28.563  1.00  0.00     0.338 C 
ATOM     33  O   UNL A   1      35.562  31.606  29.552  1.00  0.00    -0.246 OA
BRANCH  32  34
ATOM     34  C   UNL A   1      37.241  30.358  28.496  1.00  0.00     0.060 A 
ATOM     35  C   UNL A   1      37.317  29.032  28.070  1.00  0.00     0.016 A 
ATOM     36  C   UNL A   1      38.316  30.997  29.115  1.00  0.00     0.016 A 
ATOM     37  C   UNL A   1      38.427  28.281  28.407  1.00  0.00     0.010 A 
ATOM     38  C   UNL A   1      39.434  30.254  29.429  1.00  0.00     0.010 A 
ATOM     39  C   UNL A   1      39.449  28.883  29.142  1.00  0.00    -0.014 A 
BRANCH  39  40
ATOM     40  C   UNL A   1      40.569  28.056  29.573  1.00  0.00     0.031 A 
ATOM     41  C   UNL A   1      40.870  28.077  31.027  1.00  0.00     0.074 A 
ATOM     42  C   UNL A   1      41.152  27.167  28.744  1.00  0.00     0.049 A 
ATOM     43  N   UNL A   1      42.017  28.196  31.613  1.00  0.00    -0.248 NA
ATOM     44  C   UNL A   1      39.723  27.979  31.948  1.00  0.00     0.031 C 
ATOM     45  C   UNL A   1      40.716  26.829  27.384  1.00  0.00     0.029 A 
ATOM     46  N   UNL A   1      42.143  26.260  28.995  1.00  0.00    -0.354 N 
ATOM     47  C   UNL A   1      41.759  28.029  32.971  1.00  0.00     0.074 A 
ATOM     48  C   UNL A   1      40.329  28.005  33.132  1.00  0.00     0.031 C 
ATOM     49  C   UNL A   1      41.254  25.643  27.035  1.00  0.00     0.029 A 
ATOM     50  C   UNL A   1      42.162  25.213  28.087  1.00  0.00     0.049 A 
ATOM     51  H   UNL A   1      42.778  26.342  29.743  1.00  0.00     0.167 HD
ATOM     52  C   UNL A   1      42.727  27.687  33.859  1.00  0.00     0.031 A 
ATOM     53  C   UNL A   1      42.806  24.031  28.207  1.00  0.00     0.031 A 
ATOM     54  C   UNL A   1      44.053  27.925  33.368  1.00  0.00     0.049 A 
ATOM     55  C   UNL A   1      43.855  24.153  29.240  1.00  0.00     0.074 A 
ATOM     56  C   UNL A   1      44.830  29.028  33.098  1.00  0.00     0.029 A 
ATOM     57  N   UNL A   1      44.683  26.842  32.817  1.00  0.00    -0.354 N 
ATOM     58  N   UNL A   1      44.927  24.879  29.107  1.00  0.00    -0.248 NA
ATOM     59  C   UNL A   1      43.608  23.648  30.585  1.00  0.00     0.031 C 
ATOM     60  C   UNL A   1      45.783  28.604  32.128  1.00  0.00     0.029 A 
ATOM     61  C   UNL A   1      45.535  27.264  31.832  1.00  0.00     0.049 A 
ATOM     62  H   UNL A   1      44.544  25.904  33.087  1.00  0.00     0.167 HD
ATOM     63  C   UNL A   1      45.251  25.259  30.397  1.00  0.00     0.074 A 
ATOM     64  C   UNL A   1      44.537  24.331  31.259  1.00  0.00     0.031 C 
ATOM     65  C   UNL A   1      45.809  26.478  30.646  1.00  0.00     0.031 A 
BRANCH  52  66
ATOM     66  C   UNL A   1      42.475  26.743  35.007  1.00  0.00    -0.014 A 
ATOM     67  C   UNL A   1      42.445  25.360  34.761  1.00  0.00     0.009 A 
ATOM     68  C   UNL A   1      41.976  27.181  36.251  1.00  0.00     0.009 A 
ATOM     69  C   UNL A   1      41.912  24.467  35.700  1.00  0.00     0.001 A 
ATOM     70  C   UNL A   1      41.483  26.289  37.206  1.00  0.00     0.001 A 
ATOM     71  C   UNL A   1      41.431  24.932  36.921  1.00  0.00     0.000 A 
ENDBRANCH  52  66
BRANCH  53  72
ATOM     72  C   UNL A   1      42.442  22.734  27.604  1.00  0.00    -0.014 A 
ATOM     73  C   UNL A   1      41.254  22.082  27.964  1.00  0.00     0.009 A 
ATOM     74  C   UNL A   1      43.162  22.231  26.503  1.00  0.00     0.009 A 
ATOM     75  C   UNL A   1      40.796  20.977  27.237  1.00  0.00     0.001 A 
ATOM     76  C   UNL A   1      42.710  21.122  25.785  1.00  0.00     0.001 A 
ATOM     77  C   UNL A   1      41.520  20.501  26.145  1.00  0.00     0.000 A 
ENDBRANCH  53  72
BRANCH  65  78
ATOM     78  C   UNL A   1      46.495  27.173  29.503  1.00  0.00    -0.014 A 
ATOM     79  C   UNL A   1      45.840  28.089  28.666  1.00  0.00     0.009 A 
ATOM     80  C   UNL A   1      47.874  26.971  29.329  1.00  0.00     0.009 A 
ATOM     81  C   UNL A   1      46.538  28.758  27.657  1.00  0.00     0.001 A 
ATOM     82  C   UNL A   1      48.575  27.657  28.337  1.00  0.00     0.001 A 
ATOM     83  C   UNL A   1      47.906  28.544  27.495  1.00  0.00     0.000 A 
ENDBRANCH  65  78
ENDBRANCH  39  40
ENDBRANCH  32  34
ENDBRANCH  31  32
ENDBRANCH  30  31
ENDBRANCH   1  30
TORSDOF 15
ENDMDL
