MODEL 1
REMARK VINA RESULT:     -13.1      0.000      0.000
REMARK SMILES Cc1c(CC(=O)OCCOC(=O)c2ccc(-c3c4nc(c(-c5ccccc5)c5ccc([nH]5)c(-c5ccccc5)c5nc(c(-c6ccccc6)c6ccc3[nH]6)C=C5)C=C4)cc2)cc(-c2ccccc2)cc1-c1ccccc1
REMARK SMILES IDX 8 1 7 2 5 3 6 4 4 5 3 6 1 7 2 8 70 9 61 10 69 11 62 12 71 13
REMARK SMILES IDX 72 14 76 15 73 16 75 17 74 18 63 19 64 20 68 21 65 22 67 23
REMARK SMILES IDX 66 24 9 25 10 26 11 27 12 28 13 29 14 30 60 31 15 32 59 33
REMARK SMILES IDX 16 34 17 35 18 36 53 37 19 38 58 39 52 40 54 41 20 42 57 43
REMARK SMILES IDX 51 44 50 45 21 47 43 48 28 49 42 50 29 51 32 52 41 53 55 54
REMARK SMILES IDX 30 55 31 56 40 58 56 59 33 60 22 61 23 62 27 63 24 64 26 65
REMARK SMILES IDX 25 66 44 67 45 68 49 69 46 70 48 71 47 72 34 73 35 74 39 75
REMARK SMILES IDX 36 76 38 77 37 78
REMARK H PARENT 54 46 32 57
REMARK Flexibility Score: inf
ROOT
ATOM      1  C   UNL A   1      41.545  20.568  26.898  1.00  0.00     0.274 C 
ENDROOT
BRANCH   1   2
ATOM      2  O   UNL A   1      40.313  21.305  26.928  1.00  0.00    -0.462 OA
BRANCH   2   3
ATOM      3  C   UNL A   1      39.264  20.865  26.028  1.00  0.00     0.310 C 
ATOM      4  O   UNL A   1      39.566  19.662  25.759  1.00  0.00    -0.252 OA
BRANCH   3   5
ATOM      5  C   UNL A   1      37.568  22.079  25.416  1.00  0.00     0.158 C 
BRANCH   5   6
ATOM      6  C   UNL A   1      35.924  21.743  24.974  1.00  0.00    -0.033 A 
ATOM      7  C   UNL A   1      35.310  24.223  24.830  1.00  0.00     0.045 C 
ATOM      8  C   UNL A   1      34.934  22.762  24.857  1.00  0.00    -0.039 A 
ATOM      9  C   UNL A   1      33.569  22.381  24.721  1.00  0.00    -0.015 A 
ATOM     10  C   UNL A   1      35.543  20.436  24.621  1.00  0.00     0.013 A 
ATOM     11  C   UNL A   1      33.233  21.015  24.733  1.00  0.00     0.017 A 
ATOM     12  C   UNL A   1      34.212  20.030  24.684  1.00  0.00    -0.017 A 
BRANCH   9  13
ATOM     13  C   UNL A   1      32.473  23.354  24.571  1.00  0.00    -0.018 A 
ATOM     14  C   UNL A   1      32.006  23.727  23.303  1.00  0.00     0.009 A 
ATOM     15  C   UNL A   1      31.882  23.943  25.702  1.00  0.00     0.009 A 
ATOM     16  C   UNL A   1      30.959  24.641  23.170  1.00  0.00     0.001 A 
ATOM     17  C   UNL A   1      30.822  24.842  25.571  1.00  0.00     0.001 A 
ATOM     18  C   UNL A   1      30.361  25.189  24.305  1.00  0.00     0.000 A 
ENDBRANCH   9  13
BRANCH  12  19
ATOM     19  C   UNL A   1      33.909  18.602  24.801  1.00  0.00    -0.018 A 
ATOM     20  C   UNL A   1      34.794  17.654  24.250  1.00  0.00     0.009 A 
ATOM     21  C   UNL A   1      32.740  18.139  25.407  1.00  0.00     0.009 A 
ATOM     22  C   UNL A   1      34.498  16.292  24.254  1.00  0.00     0.001 A 
ATOM     23  C   UNL A   1      32.451  16.772  25.433  1.00  0.00     0.001 A 
ATOM     24  C   UNL A   1      33.322  15.852  24.848  1.00  0.00     0.000 A 
ENDBRANCH  12  19
ENDBRANCH   5   6
ENDBRANCH   3   5
ENDBRANCH   2   3
ENDBRANCH   1   2
BRANCH   1  25
ATOM     25  C   UNL A   1      42.441  21.152  25.799  1.00  0.00     0.275 C 
BRANCH  25  26
ATOM     26  O   UNL A   1      42.347  22.590  25.591  1.00  0.00    -0.458 OA
BRANCH  26  27
ATOM     27  C   UNL A   1      42.418  23.575  26.528  1.00  0.00     0.338 C 
ATOM     28  O   UNL A   1      43.184  23.522  27.480  1.00  0.00    -0.246 OA
BRANCH  27  29
ATOM     29  C   UNL A   1      41.285  24.522  26.591  1.00  0.00     0.060 A 
ATOM     30  C   UNL A   1      41.552  25.967  25.537  1.00  0.00     0.016 A 
ATOM     31  C   UNL A   1      40.298  24.658  28.095  1.00  0.00     0.016 A 
ATOM     32  C   UNL A   1      41.066  27.606  26.145  1.00  0.00     0.010 A 
ATOM     33  C   UNL A   1      39.772  26.287  28.666  1.00  0.00     0.010 A 
ATOM     34  C   UNL A   1      40.280  27.757  27.741  1.00  0.00    -0.014 A 
BRANCH  34  35
ATOM     35  C   UNL A   1      40.538  28.892  28.611  1.00  0.00     0.031 A 
ATOM     36  C   UNL A   1      39.433  29.837  28.768  1.00  0.00     0.074 A 
ATOM     37  C   UNL A   1      41.662  28.906  29.375  1.00  0.00     0.049 A 
ATOM     38  N   UNL A   1      39.580  31.047  29.157  1.00  0.00    -0.248 NA
ATOM     39  C   UNL A   1      38.052  29.541  28.384  1.00  0.00     0.031 C 
ATOM     40  C   UNL A   1      41.938  29.689  30.580  1.00  0.00     0.029 A 
ATOM     41  N   UNL A   1      42.866  28.236  29.209  1.00  0.00    -0.354 N 
ATOM     42  C   UNL A   1      38.323  31.504  29.469  1.00  0.00     0.074 A 
ATOM     43  C   UNL A   1      37.414  30.646  28.768  1.00  0.00     0.031 C 
ATOM     44  C   UNL A   1      43.265  29.679  30.821  1.00  0.00     0.029 A 
ATOM     45  C   UNL A   1      43.912  29.005  29.711  1.00  0.00     0.049 A 
ATOM     46  H   UNL A   1      42.966  27.346  28.798  1.00  0.00     0.167 HD
ATOM     47  C   UNL A   1      38.213  32.425  30.460  1.00  0.00     0.031 A 
ATOM     48  C   UNL A   1      44.857  29.548  28.883  1.00  0.00     0.031 A 
ATOM     49  C   UNL A   1      39.546  32.873  30.882  1.00  0.00     0.049 A 
ATOM     50  C   UNL A   1      44.647  31.053  28.737  1.00  0.00     0.074 A 
ATOM     51  C   UNL A   1      40.345  32.621  31.983  1.00  0.00     0.029 A 
ATOM     52  N   UNL A   1      40.403  33.349  29.900  1.00  0.00    -0.354 N 
ATOM     53  N   UNL A   1      43.645  31.698  29.274  1.00  0.00    -0.248 NA
ATOM     54  C   UNL A   1      45.494  31.945  27.947  1.00  0.00     0.031 C 
ATOM     55  C   UNL A   1      41.699  32.925  31.622  1.00  0.00     0.029 A 
ATOM     56  C   UNL A   1      41.715  33.406  30.324  1.00  0.00     0.049 A 
ATOM     57  H   UNL A   1      40.108  33.618  29.000  1.00  0.00     0.167 HD
ATOM     58  C   UNL A   1      43.670  33.018  28.933  1.00  0.00     0.074 A 
ATOM     59  C   UNL A   1      44.832  33.114  28.058  1.00  0.00     0.031 C 
ATOM     60  C   UNL A   1      42.726  33.903  29.386  1.00  0.00     0.031 A 
BRANCH  47  61
ATOM     61  C   UNL A   1      36.933  32.746  31.188  1.00  0.00    -0.014 A 
ATOM     62  C   UNL A   1      35.882  33.337  30.470  1.00  0.00     0.009 A 
ATOM     63  C   UNL A   1      36.708  32.567  32.569  1.00  0.00     0.009 A 
ATOM     64  C   UNL A   1      34.689  33.731  31.091  1.00  0.00     0.001 A 
ATOM     65  C   UNL A   1      35.511  32.939  33.193  1.00  0.00     0.001 A 
ATOM     66  C   UNL A   1      34.500  33.528  32.452  1.00  0.00     0.000 A 
ENDBRANCH  47  61
BRANCH  48  67
ATOM     67  C   UNL A   1      45.323  28.589  27.828  1.00  0.00    -0.014 A 
ATOM     68  C   UNL A   1      45.862  27.363  28.283  1.00  0.00     0.009 A 
ATOM     69  C   UNL A   1      44.860  28.653  26.508  1.00  0.00     0.009 A 
ATOM     70  C   UNL A   1      45.735  26.193  27.528  1.00  0.00     0.001 A 
ATOM     71  C   UNL A   1      44.778  27.480  25.735  1.00  0.00     0.001 A 
ATOM     72  C   UNL A   1      45.155  26.248  26.269  1.00  0.00     0.000 A 
ENDBRANCH  48  67
BRANCH  60  73
ATOM     73  C   UNL A   1      42.627  35.350  28.949  1.00  0.00    -0.014 A 
ATOM     74  C   UNL A   1      43.063  36.425  29.726  1.00  0.00     0.009 A 
ATOM     75  C   UNL A   1      42.008  35.686  27.721  1.00  0.00     0.009 A 
ATOM     76  C   UNL A   1      43.007  37.740  29.245  1.00  0.00     0.001 A 
ATOM     77  C   UNL A   1      41.923  36.993  27.246  1.00  0.00     0.001 A 
ATOM     78  C   UNL A   1      42.452  38.023  28.000  1.00  0.00     0.000 A 
ENDBRANCH  60  73
ENDBRANCH  34  35
ENDBRANCH  27  29
ENDBRANCH  26  27
ENDBRANCH  25  26
ENDBRANCH   1  25
TORSDOF 14
ENDMDL
MODEL 2
REMARK VINA RESULT:     -13.0      6.217      9.890
REMARK SMILES Cc1c(CC(=O)OCCOC(=O)c2ccc(-c3c4nc(c(-c5ccccc5)c5ccc([nH]5)c(-c5ccccc5)c5nc(c(-c6ccccc6)c6ccc3[nH]6)C=C5)C=C4)cc2)cc(-c2ccccc2)cc1-c1ccccc1
REMARK SMILES IDX 8 1 7 2 5 3 6 4 4 5 3 6 1 7 2 8 70 9 61 10 69 11 62 12 71 13
REMARK SMILES IDX 72 14 76 15 73 16 75 17 74 18 63 19 64 20 68 21 65 22 67 23
REMARK SMILES IDX 66 24 9 25 10 26 11 27 12 28 13 29 14 30 60 31 15 32 59 33
REMARK SMILES IDX 16 34 17 35 18 36 53 37 19 38 58 39 52 40 54 41 20 42 57 43
REMARK SMILES IDX 51 44 50 45 21 47 43 48 28 49 42 50 29 51 32 52 41 53 55 54
REMARK SMILES IDX 30 55 31 56 40 58 56 59 33 60 22 61 23 62 27 63 24 64 26 65
REMARK SMILES IDX 25 66 44 67 45 68 49 69 46 70 48 71 47 72 34 73 35 74 39 75
REMARK SMILES IDX 36 76 38 77 37 78
REMARK H PARENT 54 46 32 57
REMARK Flexibility Score: inf
ROOT
ATOM      1  C   UNL A   1      33.277  35.878  32.248  1.00  0.00     0.274 C 
ENDROOT
BRANCH   1   2
ATOM      2  O   UNL A   1      33.010  34.939  31.195  1.00  0.00    -0.462 OA
BRANCH   2   3
ATOM      3  C   UNL A   1      33.082  35.439  29.835  1.00  0.00     0.310 C 
ATOM      4  O   UNL A   1      33.041  36.702  29.963  1.00  0.00    -0.252 OA
BRANCH   3   5
ATOM      5  C   UNL A   1      33.288  34.193  28.067  1.00  0.00     0.158 C 
BRANCH   5   6
ATOM      6  C   UNL A   1      33.753  32.546  27.783  1.00  0.00    -0.033 A 
ATOM      7  C   UNL A   1      31.563  31.987  26.583  1.00  0.00     0.045 C 
ATOM      8  C   UNL A   1      32.866  31.579  27.225  1.00  0.00    -0.039 A 
ATOM      9  C   UNL A   1      33.246  30.208  27.241  1.00  0.00    -0.015 A 
ATOM     10  C   UNL A   1      35.079  32.139  28.016  1.00  0.00     0.013 A 
ATOM     11  C   UNL A   1      34.470  29.841  27.831  1.00  0.00     0.017 A 
ATOM     12  C   UNL A   1      35.397  30.799  28.224  1.00  0.00    -0.017 A 
BRANCH   9  13
ATOM     13  C   UNL A   1      32.413  29.134  26.672  1.00  0.00    -0.018 A 
ATOM     14  C   UNL A   1      32.164  29.067  25.294  1.00  0.00     0.009 A 
ATOM     15  C   UNL A   1      31.835  28.161  27.505  1.00  0.00     0.009 A 
ATOM     16  C   UNL A   1      31.382  28.040  24.762  1.00  0.00     0.001 A 
ATOM     17  C   UNL A   1      31.070  27.123  26.972  1.00  0.00     0.001 A 
ATOM     18  C   UNL A   1      30.845  27.063  25.600  1.00  0.00     0.000 A 
ENDBRANCH   9  13
BRANCH  12  19
ATOM     19  C   UNL A   1      36.633  30.464  28.935  1.00  0.00    -0.018 A 
ATOM     20  C   UNL A   1      37.800  31.218  28.699  1.00  0.00     0.009 A 
ATOM     21  C   UNL A   1      36.712  29.384  29.816  1.00  0.00     0.009 A 
ATOM     22  C   UNL A   1      39.019  30.876  29.280  1.00  0.00     0.001 A 
ATOM     23  C   UNL A   1      37.929  29.051  30.418  1.00  0.00     0.001 A 
ATOM     24  C   UNL A   1      39.082  29.787  30.142  1.00  0.00     0.000 A 
ENDBRANCH  12  19
ENDBRANCH   5   6
ENDBRANCH   3   5
ENDBRANCH   2   3
ENDBRANCH   1   2
BRANCH   1  25
ATOM     25  C   UNL A   1      34.603  35.502  32.919  1.00  0.00     0.275 C 
BRANCH  25  26
ATOM     26  O   UNL A   1      34.865  34.078  33.068  1.00  0.00    -0.458 OA
BRANCH  26  27
ATOM     27  C   UNL A   1      35.001  33.147  32.085  1.00  0.00     0.338 C 
ATOM     28  O   UNL A   1      34.136  32.318  31.841  1.00  0.00    -0.246 OA
BRANCH  27  29
ATOM     29  C   UNL A   1      36.368  32.905  31.575  1.00  0.00     0.060 A 
ATOM     30  C   UNL A   1      37.280  31.739  32.614  1.00  0.00     0.016 A 
ATOM     31  C   UNL A   1      37.240  34.198  30.669  1.00  0.00     0.016 A 
ATOM     32  C   UNL A   1      39.033  32.051  32.963  1.00  0.00     0.010 A 
ATOM     33  C   UNL A   1      38.997  34.468  30.981  1.00  0.00     0.010 A 
ATOM     34  C   UNL A   1      39.840  33.465  32.229  1.00  0.00    -0.014 A 
BRANCH  34  35
ATOM     35  C   UNL A   1      40.854  34.219  32.947  1.00  0.00     0.031 A 
ATOM     36  C   UNL A   1      40.418  34.844  34.194  1.00  0.00     0.074 A 
ATOM     37  C   UNL A   1      42.153  34.131  32.557  1.00  0.00     0.049 A 
ATOM     38  N   UNL A   1      41.020  35.829  34.746  1.00  0.00    -0.248 NA
ATOM     39  C   UNL A   1      39.178  34.492  34.887  1.00  0.00     0.031 C 
ATOM     40  C   UNL A   1      43.361  34.443  33.322  1.00  0.00     0.029 A 
ATOM     41  N   UNL A   1      42.698  33.777  31.330  1.00  0.00    -0.354 N 
ATOM     42  C   UNL A   1      40.509  35.926  36.018  1.00  0.00     0.074 A 
ATOM     43  C   UNL A   1      39.243  35.255  35.978  1.00  0.00     0.031 C 
ATOM     44  C   UNL A   1      44.405  34.560  32.476  1.00  0.00     0.029 A 
ATOM     45  C   UNL A   1      43.891  34.463  31.123  1.00  0.00     0.049 A 
ATOM     46  H   UNL A   1      42.300  33.133  30.699  1.00  0.00     0.167 HD
ATOM     47  C   UNL A   1      41.332  36.380  36.997  1.00  0.00     0.031 A 
ATOM     48  C   UNL A   1      44.001  35.421  30.152  1.00  0.00     0.031 A 
ATOM     49  C   UNL A   1      42.595  36.850  36.416  1.00  0.00     0.049 A 
ATOM     50  C   UNL A   1      44.031  36.817  30.770  1.00  0.00     0.074 A 
ATOM     51  C   UNL A   1      43.880  36.340  36.361  1.00  0.00     0.029 A 
ATOM     52  N   UNL A   1      42.523  37.790  35.398  1.00  0.00    -0.354 N 
ATOM     53  N   UNL A   1      43.886  37.042  32.049  1.00  0.00    -0.248 NA
ATOM     54  C   UNL A   1      44.168  38.063  30.020  1.00  0.00     0.031 C 
ATOM     55  C   UNL A   1      44.558  36.973  35.267  1.00  0.00     0.029 A 
ATOM     56  C   UNL A   1      43.703  37.898  34.692  1.00  0.00     0.049 A 
ATOM     57  H   UNL A   1      41.719  38.323  35.201  1.00  0.00     0.167 HD
ATOM     58  C   UNL A   1      43.893  38.380  32.316  1.00  0.00     0.074 A 
ATOM     59  C   UNL A   1      44.029  38.982  30.996  1.00  0.00     0.031 C 
ATOM     60  C   UNL A   1      43.768  38.866  33.593  1.00  0.00     0.031 A 
BRANCH  47  61
ATOM     61  C   UNL A   1      41.086  36.194  38.472  1.00  0.00    -0.014 A 
ATOM     62  C   UNL A   1      41.619  35.060  39.104  1.00  0.00     0.009 A 
ATOM     63  C   UNL A   1      40.298  37.035  39.284  1.00  0.00     0.009 A 
ATOM     64  C   UNL A   1      41.374  34.780  40.455  1.00  0.00     0.001 A 
ATOM     65  C   UNL A   1      40.065  36.773  40.641  1.00  0.00     0.001 A 
ATOM     66  C   UNL A   1      40.601  35.638  41.226  1.00  0.00     0.000 A 
ENDBRANCH  47  61
BRANCH  48  67
ATOM     67  C   UNL A   1      43.358  35.014  28.859  1.00  0.00    -0.014 A 
ATOM     68  C   UNL A   1      42.225  35.758  28.457  1.00  0.00     0.009 A 
ATOM     69  C   UNL A   1      44.050  34.291  27.880  1.00  0.00     0.009 A 
ATOM     70  C   UNL A   1      41.931  35.953  27.104  1.00  0.00     0.001 A 
ATOM     71  C   UNL A   1      43.720  34.453  26.522  1.00  0.00     0.001 A 
ATOM     72  C   UNL A   1      42.706  35.330  26.136  1.00  0.00     0.000 A 
ENDBRANCH  48  67
BRANCH  60  73
ATOM     73  C   UNL A   1      43.646  40.335  33.943  1.00  0.00    -0.014 A 
ATOM     74  C   UNL A   1      44.498  40.991  34.833  1.00  0.00     0.009 A 
ATOM     75  C   UNL A   1      42.588  41.112  33.412  1.00  0.00     0.009 A 
ATOM     76  C   UNL A   1      44.380  42.368  35.071  1.00  0.00     0.001 A 
ATOM     77  C   UNL A   1      42.446  42.475  33.663  1.00  0.00     0.001 A 
ATOM     78  C   UNL A   1      43.365  43.112  34.475  1.00  0.00     0.000 A 
ENDBRANCH  60  73
ENDBRANCH  34  35
ENDBRANCH  27  29
ENDBRANCH  26  27
ENDBRANCH  25  26
ENDBRANCH   1  25
TORSDOF 14
ENDMDL
MODEL 3
REMARK VINA RESULT:     -13.0      2.879      5.890
REMARK SMILES Cc1c(CC(=O)OCCOC(=O)c2ccc(-c3c4nc(c(-c5ccccc5)c5ccc([nH]5)c(-c5ccccc5)c5nc(c(-c6ccccc6)c6ccc3[nH]6)C=C5)C=C4)cc2)cc(-c2ccccc2)cc1-c1ccccc1
REMARK SMILES IDX 8 1 7 2 5 3 6 4 4 5 3 6 1 7 2 8 70 9 61 10 69 11 62 12 71 13
REMARK SMILES IDX 72 14 76 15 73 16 75 17 74 18 63 19 64 20 68 21 65 22 67 23
REMARK SMILES IDX 66 24 9 25 10 26 11 27 12 28 13 29 14 30 60 31 15 32 59 33
REMARK SMILES IDX 16 34 17 35 18 36 53 37 19 38 58 39 52 40 54 41 20 42 57 43
REMARK SMILES IDX 51 44 50 45 21 47 43 48 28 49 42 50 29 51 32 52 41 53 55 54
REMARK SMILES IDX 30 55 31 56 40 58 56 59 33 60 22 61 23 62 27 63 24 64 26 65
REMARK SMILES IDX 25 66 44 67 45 68 49 69 46 70 48 71 47 72 34 73 35 74 39 75
REMARK SMILES IDX 36 76 38 77 37 78
REMARK H PARENT 54 46 32 57
REMARK Flexibility Score: inf
ROOT
ATOM      1  C   UNL A   1      37.371  23.644  25.592  1.00  0.00     0.274 C 
ENDROOT
BRANCH   1   2
ATOM      2  O   UNL A   1      35.961  23.486  25.817  1.00  0.00    -0.462 OA
BRANCH   2   3
ATOM      3  C   UNL A   1      35.075  23.928  24.756  1.00  0.00     0.310 C 
ATOM      4  O   UNL A   1      35.706  23.660  23.688  1.00  0.00    -0.252 OA
BRANCH   3   5
ATOM      5  C   UNL A   1      33.100  24.779  25.069  1.00  0.00     0.158 C 
BRANCH   5   6
ATOM      6  C   UNL A   1      32.464  26.392  25.135  1.00  0.00    -0.033 A 
ATOM      7  C   UNL A   1      30.630  25.888  23.422  1.00  0.00     0.045 C 
ATOM      8  C   UNL A   1      31.432  26.850  24.263  1.00  0.00    -0.039 A 
ATOM      9  C   UNL A   1      31.132  28.241  24.225  1.00  0.00    -0.015 A 
ATOM     10  C   UNL A   1      32.896  27.280  26.136  1.00  0.00     0.013 A 
ATOM     11  C   UNL A   1      31.878  29.127  25.024  1.00  0.00     0.017 A 
ATOM     12  C   UNL A   1      32.766  28.658  25.986  1.00  0.00    -0.017 A 
BRANCH   9  13
ATOM     13  C   UNL A   1      30.072  28.813  23.377  1.00  0.00    -0.018 A 
ATOM     14  C   UNL A   1      28.721  28.523  23.615  1.00  0.00     0.009 A 
ATOM     15  C   UNL A   1      30.396  29.652  22.297  1.00  0.00     0.009 A 
ATOM     16  C   UNL A   1      27.722  29.078  22.813  1.00  0.00     0.001 A 
ATOM     17  C   UNL A   1      29.398  30.224  21.507  1.00  0.00     0.001 A 
ATOM     18  C   UNL A   1      28.061  29.936  21.767  1.00  0.00     0.000 A 
ENDBRANCH   9  13
BRANCH  12  19
ATOM     19  C   UNL A   1      33.635  29.543  26.763  1.00  0.00    -0.018 A 
ATOM     20  C   UNL A   1      34.899  29.086  27.184  1.00  0.00     0.009 A 
ATOM     21  C   UNL A   1      33.236  30.825  27.146  1.00  0.00     0.009 A 
ATOM     22  C   UNL A   1      35.718  29.859  28.005  1.00  0.00     0.001 A 
ATOM     23  C   UNL A   1      34.065  31.613  27.950  1.00  0.00     0.001 A 
ATOM     24  C   UNL A   1      35.297  31.126  28.389  1.00  0.00     0.000 A 
ENDBRANCH  12  19
ENDBRANCH   5   6
ENDBRANCH   3   5
ENDBRANCH   2   3
ENDBRANCH   1   2
BRANCH   1  25
ATOM     25  C   UNL A   1      38.077  22.332  25.955  1.00  0.00     0.275 C 
BRANCH  25  26
ATOM     26  O   UNL A   1      39.440  22.453  26.451  1.00  0.00    -0.458 OA
BRANCH  26  27
ATOM     27  C   UNL A   1      40.487  21.612  26.227  1.00  0.00     0.338 C 
ATOM     28  O   UNL A   1      40.339  20.412  26.048  1.00  0.00    -0.246 OA
BRANCH  27  29
ATOM     29  C   UNL A   1      41.833  22.107  26.588  1.00  0.00     0.060 A 
ATOM     30  C   UNL A   1      42.126  22.030  28.370  1.00  0.00     0.016 A 
ATOM     31  C   UNL A   1      42.633  23.374  25.584  1.00  0.00     0.016 A 
ATOM     32  C   UNL A   1      42.997  23.399  29.183  1.00  0.00     0.010 A 
ATOM     33  C   UNL A   1      43.543  24.704  26.396  1.00  0.00     0.010 A 
ATOM     34  C   UNL A   1      43.600  24.764  28.204  1.00  0.00    -0.014 A 
BRANCH  34  35
ATOM     35  C   UNL A   1      43.587  26.127  28.709  1.00  0.00     0.031 A 
ATOM     36  C   UNL A   1      42.298  26.815  28.646  1.00  0.00     0.074 A 
ATOM     37  C   UNL A   1      44.667  26.600  29.384  1.00  0.00     0.049 A 
ATOM     38  N   UNL A   1      42.168  28.088  28.673  1.00  0.00    -0.248 NA
ATOM     39  C   UNL A   1      41.024  26.131  28.426  1.00  0.00     0.031 C 
ATOM     40  C   UNL A   1      44.744  27.733  30.307  1.00  0.00     0.029 A 
ATOM     41  N   UNL A   1      45.992  26.188  29.357  1.00  0.00    -0.354 N 
ATOM     42  C   UNL A   1      40.836  28.332  28.903  1.00  0.00     0.074 A 
ATOM     43  C   UNL A   1      40.151  27.134  28.515  1.00  0.00     0.031 C 
ATOM     44  C   UNL A   1      46.036  28.079  30.479  1.00  0.00     0.029 A 
ATOM     45  C   UNL A   1      46.834  27.274  29.573  1.00  0.00     0.049 A 
ATOM     46  H   UNL A   1      46.293  25.261  29.207  1.00  0.00     0.167 HD
ATOM     47  C   UNL A   1      40.509  29.449  29.601  1.00  0.00     0.031 A 
ATOM     48  C   UNL A   1      47.649  27.751  28.583  1.00  0.00     0.031 A 
ATOM     49  C   UNL A   1      41.703  30.276  29.816  1.00  0.00     0.049 A 
ATOM     50  C   UNL A   1      47.116  29.070  28.030  1.00  0.00     0.074 A 
ATOM     51  C   UNL A   1      42.519  30.526  30.905  1.00  0.00     0.029 A 
ATOM     52  N   UNL A   1      42.451  30.628  28.701  1.00  0.00    -0.354 N 
ATOM     53  N   UNL A   1      45.986  29.608  28.411  1.00  0.00    -0.248 NA
ATOM     54  C   UNL A   1      47.757  29.862  26.983  1.00  0.00     0.031 C 
ATOM     55  C   UNL A   1      43.779  31.001  30.410  1.00  0.00     0.029 A 
ATOM     56  C   UNL A   1      43.710  31.085  29.029  1.00  0.00     0.049 A 
ATOM     57  H   UNL A   1      42.119  30.559  27.777  1.00  0.00     0.167 HD
ATOM     58  C   UNL A   1      45.726  30.751  27.713  1.00  0.00     0.074 A 
ATOM     59  C   UNL A   1      46.852  30.843  26.793  1.00  0.00     0.031 C 
ATOM     60  C   UNL A   1      44.602  31.502  27.944  1.00  0.00     0.031 A 
BRANCH  47  61
ATOM     61  C   UNL A   1      39.178  29.679  30.269  1.00  0.00    -0.014 A 
ATOM     62  C   UNL A   1      38.774  30.999  30.526  1.00  0.00     0.009 A 
ATOM     63  C   UNL A   1      38.309  28.671  30.732  1.00  0.00     0.009 A 
ATOM     64  C   UNL A   1      37.585  31.291  31.207  1.00  0.00     0.001 A 
ATOM     65  C   UNL A   1      37.108  28.955  31.396  1.00  0.00     0.001 A 
ATOM     66  C   UNL A   1      36.749  30.270  31.639  1.00  0.00     0.000 A 
ENDBRANCH  47  61
BRANCH  48  67
ATOM     67  C   UNL A   1      48.333  26.657  27.818  1.00  0.00    -0.014 A 
ATOM     68  C   UNL A   1      47.898  26.449  26.488  1.00  0.00     0.009 A 
ATOM     69  C   UNL A   1      49.600  26.179  28.176  1.00  0.00     0.009 A 
ATOM     70  C   UNL A   1      48.777  25.988  25.503  1.00  0.00     0.001 A 
ATOM     71  C   UNL A   1      50.465  25.672  27.188  1.00  0.00     0.001 A 
ATOM     72  C   UNL A   1      50.075  25.638  25.850  1.00  0.00     0.000 A 
ENDBRANCH  48  67
BRANCH  60  73
ATOM     73  C   UNL A   1      44.194  32.708  27.124  1.00  0.00    -0.014 A 
ATOM     74  C   UNL A   1      44.201  32.733  25.728  1.00  0.00     0.009 A 
ATOM     75  C   UNL A   1      43.838  33.920  27.762  1.00  0.00     0.009 A 
ATOM     76  C   UNL A   1      43.752  33.856  25.019  1.00  0.00     0.001 A 
ATOM     77  C   UNL A   1      43.415  35.050  27.066  1.00  0.00     0.001 A 
ATOM     78  C   UNL A   1      43.345  35.007  25.687  1.00  0.00     0.000 A 
ENDBRANCH  60  73
ENDBRANCH  34  35
ENDBRANCH  27  29
ENDBRANCH  26  27
ENDBRANCH  25  26
ENDBRANCH   1  25
TORSDOF 14
ENDMDL
