MODEL 1
REMARK VINA RESULT:      -8.1      0.000      0.000
REMARK SMILES CC(C)(Br)[C@H](Br)C(=O)OCCOC(=O)c1ccc(-c2c3nc(c(-c4ccccc4)c4ccc([nH]4)c(-c4ccccc4)c4nc(c(-c5ccccc5)c5ccc2[nH]5)C=C4)C=C3)cc1
REMARK SMILES IDX 11 1 10 2 9 3 7 4 8 5 5 6 6 7 2 8 1 9 3 10 4 11 12 12 13 13
REMARK SMILES IDX 14 14 15 15 16 16 62 17 17 18 61 19 18 20 19 21 20 22 55 23
REMARK SMILES IDX 21 24 60 25 54 26 56 27 22 28 59 29 53 30 52 31 23 33 45 34
REMARK SMILES IDX 30 35 44 36 31 37 34 38 43 39 57 40 32 41 33 42 42 44 58 45
REMARK SMILES IDX 35 46 24 47 25 48 29 49 26 50 28 51 27 52 46 53 47 54 51 55
REMARK SMILES IDX 48 56 50 57 49 58 36 59 37 60 41 61 38 62 40 63 39 64
REMARK H PARENT 56 32 34 43
REMARK Flexibility Score: inf
ROOT
ATOM      1  C   UNL A   1      33.608  33.820  27.998  1.00  0.00     0.275 C 
ENDROOT
BRANCH   1   2
ATOM      2  C   UNL A   1      33.658  34.333  29.444  1.00  0.00     0.274 C 
BRANCH   2   3
ATOM      3  O   UNL A   1      34.984  34.268  30.012  1.00  0.00    -0.461 OA
BRANCH   3   4
ATOM      4  C   UNL A   1      35.147  33.357  31.005  1.00  0.00     0.321 C 
ATOM      5  O   UNL A   1      34.251  32.621  31.411  1.00  0.00    -0.251 OA
BRANCH   4   6
ATOM      6  C   UNL A   1      36.546  33.286  31.590  1.00  0.00     0.183 C 
ATOM      7  Br  UNL A   1      37.834  34.038  30.308  1.00  0.00    -0.075 Br
BRANCH   6   8
ATOM      8  C   UNL A   1      36.786  33.766  33.031  1.00  0.00     0.043 C 
ATOM      9  C   UNL A   1      38.074  34.562  33.270  1.00  0.00     0.025 C 
ATOM     10  C   UNL A   1      36.729  32.562  33.992  1.00  0.00     0.025 C 
ATOM     11  Br  UNL A   1      35.295  34.955  33.622  1.00  0.00    -0.084 Br
ENDBRANCH   6   8
ENDBRANCH   4   6
ENDBRANCH   3   4
ENDBRANCH   2   3
ENDBRANCH   1   2
BRANCH   1  12
ATOM     12  O   UNL A   1      34.710  32.940  27.700  1.00  0.00    -0.458 OA
BRANCH  12  13
ATOM     13  C   UNL A   1      34.461  31.620  27.863  1.00  0.00     0.338 C 
ATOM     14  O   UNL A   1      33.415  31.032  27.654  1.00  0.00    -0.246 OA
BRANCH  13  15
ATOM     15  C   UNL A   1      35.701  30.917  28.232  1.00  0.00     0.060 A 
ATOM     16  C   UNL A   1      35.622  29.908  29.193  1.00  0.00     0.016 A 
ATOM     17  C   UNL A   1      36.938  31.319  27.731  1.00  0.00     0.016 A 
ATOM     18  C   UNL A   1      36.778  29.285  29.657  1.00  0.00     0.010 A 
ATOM     19  C   UNL A   1      38.103  30.699  28.202  1.00  0.00     0.010 A 
ATOM     20  C   UNL A   1      38.029  29.687  29.176  1.00  0.00    -0.014 A 
BRANCH  20  21
ATOM     21  C   UNL A   1      39.257  29.086  29.746  1.00  0.00     0.031 A 
ATOM     22  C   UNL A   1      39.865  29.666  30.990  1.00  0.00     0.074 A 
ATOM     23  C   UNL A   1      39.805  28.000  29.173  1.00  0.00     0.049 A 
ATOM     24  N   UNL A   1      40.966  29.323  31.610  1.00  0.00    -0.248 NA
ATOM     25  C   UNL A   1      39.136  30.776  31.623  1.00  0.00     0.031 C 
ATOM     26  C   UNL A   1      39.275  27.304  28.000  1.00  0.00     0.029 A 
ATOM     27  N   UNL A   1      40.930  27.289  29.507  1.00  0.00    -0.354 N 
ATOM     28  C   UNL A   1      41.073  30.186  32.693  1.00  0.00     0.074 A 
ATOM     29  C   UNL A   1      39.930  31.074  32.642  1.00  0.00     0.031 C 
ATOM     30  C   UNL A   1      40.076  26.263  27.713  1.00  0.00     0.029 A 
ATOM     31  C   UNL A   1      41.194  26.247  28.653  1.00  0.00     0.049 A 
ATOM     32  H   UNL A   1      41.494  27.506  30.284  1.00  0.00     0.167 HD
ATOM     33  C   UNL A   1      42.037  30.234  33.643  1.00  0.00     0.031 A 
ATOM     34  C   UNL A   1      42.233  25.393  28.616  1.00  0.00     0.031 A 
ATOM     35  C   UNL A   1      43.174  29.355  33.696  1.00  0.00     0.049 A 
ATOM     36  C   UNL A   1      43.329  25.517  29.637  1.00  0.00     0.074 A 
ATOM     37  C   UNL A   1      44.204  29.330  34.622  1.00  0.00     0.029 A 
ATOM     38  N   UNL A   1      43.432  28.347  32.781  1.00  0.00    -0.354 N 
ATOM     39  N   UNL A   1      43.427  26.347  30.647  1.00  0.00    -0.248 NA
ATOM     40  C   UNL A   1      44.462  24.589  29.507  1.00  0.00     0.031 C 
ATOM     41  C   UNL A   1      45.106  28.330  34.243  1.00  0.00     0.029 A 
ATOM     42  C   UNL A   1      44.616  27.706  33.107  1.00  0.00     0.049 A 
ATOM     43  H   UNL A   1      42.859  28.119  32.014  1.00  0.00     0.167 HD
ATOM     44  C   UNL A   1      44.623  26.034  31.279  1.00  0.00     0.074 A 
ATOM     45  C   UNL A   1      45.208  24.927  30.549  1.00  0.00     0.031 C 
ATOM     46  C   UNL A   1      45.186  26.613  32.366  1.00  0.00     0.031 A 
BRANCH  33  47
ATOM     47  C   UNL A   1      41.920  31.310  34.684  1.00  0.00    -0.014 A 
ATOM     48  C   UNL A   1      41.247  31.084  35.894  1.00  0.00     0.009 A 
ATOM     49  C   UNL A   1      42.515  32.561  34.458  1.00  0.00     0.009 A 
ATOM     50  C   UNL A   1      41.148  32.101  36.847  1.00  0.00     0.001 A 
ATOM     51  C   UNL A   1      42.433  33.569  35.420  1.00  0.00     0.001 A 
ATOM     52  C   UNL A   1      41.743  33.340  36.610  1.00  0.00     0.000 A 
ENDBRANCH  33  47
BRANCH  34  53
ATOM     53  C   UNL A   1      42.308  24.364  27.547  1.00  0.00    -0.014 A 
ATOM     54  C   UNL A   1      41.745  23.094  27.738  1.00  0.00     0.009 A 
ATOM     55  C   UNL A   1      42.950  24.650  26.333  1.00  0.00     0.009 A 
ATOM     56  C   UNL A   1      41.839  22.124  26.737  1.00  0.00     0.001 A 
ATOM     57  C   UNL A   1      43.022  23.686  25.326  1.00  0.00     0.001 A 
ATOM     58  C   UNL A   1      42.473  22.422  25.531  1.00  0.00     0.000 A 
ENDBRANCH  34  53
BRANCH  46  59
ATOM     59  C   UNL A   1      46.492  26.045  32.842  1.00  0.00    -0.014 A 
ATOM     60  C   UNL A   1      46.530  25.009  33.787  1.00  0.00     0.009 A 
ATOM     61  C   UNL A   1      47.698  26.532  32.313  1.00  0.00     0.009 A 
ATOM     62  C   UNL A   1      47.754  24.489  34.214  1.00  0.00     0.001 A 
ATOM     63  C   UNL A   1      48.918  25.994  32.726  1.00  0.00     0.001 A 
ATOM     64  C   UNL A   1      48.945  24.980  33.681  1.00  0.00     0.000 A 
ENDBRANCH  46  59
ENDBRANCH  20  21
ENDBRANCH  13  15
ENDBRANCH  12  13
ENDBRANCH   1  12
TORSDOF 12
ENDMDL
MODEL 2
REMARK VINA RESULT:      -7.9      1.811      2.273
REMARK SMILES CC(C)(Br)[C@H](Br)C(=O)OCCOC(=O)c1ccc(-c2c3nc(c(-c4ccccc4)c4ccc([nH]4)c(-c4ccccc4)c4nc(c(-c5ccccc5)c5ccc2[nH]5)C=C4)C=C3)cc1
REMARK SMILES IDX 11 1 10 2 9 3 7 4 8 5 5 6 6 7 2 8 1 9 3 10 4 11 12 12 13 13
REMARK SMILES IDX 14 14 15 15 16 16 62 17 17 18 61 19 18 20 19 21 20 22 55 23
REMARK SMILES IDX 21 24 60 25 54 26 56 27 22 28 59 29 53 30 52 31 23 33 45 34
REMARK SMILES IDX 30 35 44 36 31 37 34 38 43 39 57 40 32 41 33 42 42 44 58 45
REMARK SMILES IDX 35 46 24 47 25 48 29 49 26 50 28 51 27 52 46 53 47 54 51 55
REMARK SMILES IDX 48 56 50 57 49 58 36 59 37 60 41 61 38 62 40 63 39 64
REMARK H PARENT 56 32 34 43
REMARK Flexibility Score: inf
ROOT
ATOM      1  C   UNL A   1      34.018  33.209  28.527  1.00  0.00     0.275 C 
ENDROOT
BRANCH   1   2
ATOM      2  C   UNL A   1      33.926  34.323  29.579  1.00  0.00     0.274 C 
BRANCH   2   3
ATOM      3  O   UNL A   1      34.027  33.822  30.930  1.00  0.00    -0.461 OA
BRANCH   3   4
ATOM      4  C   UNL A   1      35.096  34.269  31.638  1.00  0.00     0.321 C 
ATOM      5  O   UNL A   1      35.150  35.376  32.167  1.00  0.00    -0.251 OA
BRANCH   4   6
ATOM      6  C   UNL A   1      36.247  33.286  31.755  1.00  0.00     0.183 C 
ATOM      7  Br  UNL A   1      37.480  33.534  30.244  1.00  0.00    -0.075 Br
BRANCH   6   8
ATOM      8  C   UNL A   1      36.973  33.133  33.102  1.00  0.00     0.043 C 
ATOM      9  C   UNL A   1      36.126  33.385  34.355  1.00  0.00     0.025 C 
ATOM     10  C   UNL A   1      38.219  34.040  33.121  1.00  0.00     0.025 C 
ATOM     11  Br  UNL A   1      37.691  31.281  33.296  1.00  0.00    -0.084 Br
ENDBRANCH   6   8
ENDBRANCH   4   6
ENDBRANCH   3   4
ENDBRANCH   2   3
ENDBRANCH   1   2
BRANCH   1  12
ATOM     12  O   UNL A   1      34.414  31.951  29.108  1.00  0.00    -0.458 OA
BRANCH  12  13
ATOM     13  C   UNL A   1      34.531  30.920  28.238  1.00  0.00     0.338 C 
ATOM     14  O   UNL A   1      33.745  30.591  27.368  1.00  0.00    -0.246 OA
BRANCH  13  15
ATOM     15  C   UNL A   1      35.844  30.274  28.400  1.00  0.00     0.060 A 
ATOM     16  C   UNL A   1      36.180  29.777  29.661  1.00  0.00     0.016 A 
ATOM     17  C   UNL A   1      36.777  30.258  27.364  1.00  0.00     0.016 A 
ATOM     18  C   UNL A   1      37.448  29.254  29.897  1.00  0.00     0.010 A 
ATOM     19  C   UNL A   1      38.056  29.739  27.602  1.00  0.00     0.010 A 
ATOM     20  C   UNL A   1      38.401  29.244  28.872  1.00  0.00    -0.014 A 
BRANCH  20  21
ATOM     21  C   UNL A   1      39.777  28.775  29.160  1.00  0.00     0.031 A 
ATOM     22  C   UNL A   1      40.728  29.662  29.910  1.00  0.00     0.074 A 
ATOM     23  C   UNL A   1      40.161  27.543  28.784  1.00  0.00     0.049 A 
ATOM     24  N   UNL A   1      41.987  29.459  30.208  1.00  0.00    -0.248 NA
ATOM     25  C   UNL A   1      40.191  30.944  30.393  1.00  0.00     0.031 C 
ATOM     26  C   UNL A   1      39.313  26.562  28.106  1.00  0.00     0.029 A 
ATOM     27  N   UNL A   1      41.367  26.904  28.924  1.00  0.00    -0.354 N 
ATOM     28  C   UNL A   1      42.399  30.594  30.895  1.00  0.00     0.074 A 
ATOM     29  C   UNL A   1      41.259  31.485  30.962  1.00  0.00     0.031 C 
ATOM     30  C   UNL A   1      40.027  25.444  27.890  1.00  0.00     0.029 A 
ATOM     31  C   UNL A   1      41.389  25.647  28.375  1.00  0.00     0.049 A 
ATOM     32  H   UNL A   1      42.143  27.310  29.375  1.00  0.00     0.167 HD
ATOM     33  C   UNL A   1      43.616  30.869  31.421  1.00  0.00     0.031 A 
ATOM     34  C   UNL A   1      42.401  24.767  28.252  1.00  0.00     0.031 A 
ATOM     35  C   UNL A   1      44.751  29.988  31.354  1.00  0.00     0.049 A 
ATOM     36  C   UNL A   1      43.763  25.128  28.775  1.00  0.00     0.074 A 
ATOM     37  C   UNL A   1      46.026  30.181  31.857  1.00  0.00     0.029 A 
ATOM     38  N   UNL A   1      44.746  28.744  30.742  1.00  0.00    -0.354 N 
ATOM     39  N   UNL A   1      44.143  26.211  29.409  1.00  0.00    -0.248 NA
ATOM     40  C   UNL A   1      44.836  24.147  28.560  1.00  0.00     0.031 C 
ATOM     41  C   UNL A   1      46.804  29.070  31.514  1.00  0.00     0.029 A 
ATOM     42  C   UNL A   1      46.001  28.167  30.836  1.00  0.00     0.049 A 
ATOM     43  H   UNL A   1      43.966  28.331  30.306  1.00  0.00     0.167 HD
ATOM     44  C   UNL A   1      45.494  26.036  29.678  1.00  0.00     0.074 A 
ATOM     45  C   UNL A   1      45.863  24.736  29.156  1.00  0.00     0.031 C 
ATOM     46  C   UNL A   1      46.352  26.878  30.303  1.00  0.00     0.031 A 
BRANCH  33  47
ATOM     47  C   UNL A   1      43.792  32.206  32.080  1.00  0.00    -0.014 A 
ATOM     48  C   UNL A   1      44.190  33.334  31.347  1.00  0.00     0.009 A 
ATOM     49  C   UNL A   1      43.533  32.342  33.453  1.00  0.00     0.009 A 
ATOM     50  C   UNL A   1      44.352  34.568  31.982  1.00  0.00     0.001 A 
ATOM     51  C   UNL A   1      43.675  33.580  34.081  1.00  0.00     0.001 A 
ATOM     52  C   UNL A   1      44.092  34.690  33.347  1.00  0.00     0.000 A 
ENDBRANCH  33  47
BRANCH  34  53
ATOM     53  C   UNL A   1      42.174  23.469  27.568  1.00  0.00    -0.014 A 
ATOM     54  C   UNL A   1      41.655  22.371  28.271  1.00  0.00     0.009 A 
ATOM     55  C   UNL A   1      42.483  23.322  26.207  1.00  0.00     0.009 A 
ATOM     56  C   UNL A   1      41.465  21.147  27.626  1.00  0.00     0.001 A 
ATOM     57  C   UNL A   1      42.270  22.104  25.560  1.00  0.00     0.001 A 
ATOM     58  C   UNL A   1      41.768  21.016  26.271  1.00  0.00     0.000 A 
ENDBRANCH  34  53
BRANCH  46  59
ATOM     59  C   UNL A   1      47.768  26.408  30.470  1.00  0.00    -0.014 A 
ATOM     60  C   UNL A   1      48.184  25.767  31.647  1.00  0.00     0.009 A 
ATOM     61  C   UNL A   1      48.689  26.582  29.424  1.00  0.00     0.009 A 
ATOM     62  C   UNL A   1      49.504  25.332  31.783  1.00  0.00     0.001 A 
ATOM     63  C   UNL A   1      50.001  26.126  29.556  1.00  0.00     0.001 A 
ATOM     64  C   UNL A   1      50.409  25.509  30.737  1.00  0.00     0.000 A 
ENDBRANCH  46  59
ENDBRANCH  20  21
ENDBRANCH  13  15
ENDBRANCH  12  13
ENDBRANCH   1  12
TORSDOF 12
ENDMDL
MODEL 3
REMARK VINA RESULT:      -7.9      2.812      4.997
REMARK SMILES CC(C)(Br)[C@H](Br)C(=O)OCCOC(=O)c1ccc(-c2c3nc(c(-c4ccccc4)c4ccc([nH]4)c(-c4ccccc4)c4nc(c(-c5ccccc5)c5ccc2[nH]5)C=C4)C=C3)cc1
REMARK SMILES IDX 11 1 10 2 9 3 7 4 8 5 5 6 6 7 2 8 1 9 3 10 4 11 12 12 13 13
REMARK SMILES IDX 14 14 15 15 16 16 62 17 17 18 61 19 18 20 19 21 20 22 55 23
REMARK SMILES IDX 21 24 60 25 54 26 56 27 22 28 59 29 53 30 52 31 23 33 45 34
REMARK SMILES IDX 30 35 44 36 31 37 34 38 43 39 57 40 32 41 33 42 42 44 58 45
REMARK SMILES IDX 35 46 24 47 25 48 29 49 26 50 28 51 27 52 46 53 47 54 51 55
REMARK SMILES IDX 48 56 50 57 49 58 36 59 37 60 41 61 38 62 40 63 39 64
REMARK H PARENT 56 32 34 43
REMARK Flexibility Score: inf
ROOT
ATOM      1  C   UNL A   1      32.670  33.101  27.283  1.00  0.00     0.275 C 
ENDROOT
BRANCH   1   2
ATOM      2  C   UNL A   1      31.607  32.060  26.907  1.00  0.00     0.274 C 
BRANCH   2   3
ATOM      3  O   UNL A   1      32.129  30.714  26.884  1.00  0.00    -0.461 OA
BRANCH   3   4
ATOM      4  C   UNL A   1      31.900  30.021  25.739  1.00  0.00     0.321 C 
ATOM      5  O   UNL A   1      30.998  30.287  24.949  1.00  0.00    -0.251 OA
BRANCH   4   6
ATOM      6  C   UNL A   1      32.863  28.877  25.476  1.00  0.00     0.183 C 
ATOM      7  Br  UNL A   1      34.374  28.988  26.729  1.00  0.00    -0.075 Br
BRANCH   6   8
ATOM      8  C   UNL A   1      32.312  27.448  25.327  1.00  0.00     0.043 C 
ATOM      9  C   UNL A   1      31.642  27.122  23.988  1.00  0.00     0.025 C 
ATOM     10  C   UNL A   1      31.341  27.147  26.485  1.00  0.00     0.025 C 
ATOM     11  Br  UNL A   1      33.781  26.114  25.538  1.00  0.00    -0.084 Br
ENDBRANCH   6   8
ENDBRANCH   4   6
ENDBRANCH   3   4
ENDBRANCH   2   3
ENDBRANCH   1   2
BRANCH   1  12
ATOM     12  O   UNL A   1      32.084  34.286  27.859  1.00  0.00    -0.458 OA
BRANCH  12  13
ATOM     13  C   UNL A   1      32.920  35.044  28.606  1.00  0.00     0.338 C 
ATOM     14  O   UNL A   1      32.730  36.176  29.013  1.00  0.00    -0.246 OA
BRANCH  13  15
ATOM     15  C   UNL A   1      34.104  34.257  28.988  1.00  0.00     0.060 A 
ATOM     16  C   UNL A   1      33.964  33.313  30.007  1.00  0.00     0.016 A 
ATOM     17  C   UNL A   1      35.358  34.520  28.437  1.00  0.00     0.016 A 
ATOM     18  C   UNL A   1      35.074  32.619  30.481  1.00  0.00     0.010 A 
ATOM     19  C   UNL A   1      36.477  33.827  28.917  1.00  0.00     0.010 A 
ATOM     20  C   UNL A   1      36.342  32.881  29.950  1.00  0.00    -0.014 A 
BRANCH  20  21
ATOM     21  C   UNL A   1      37.529  32.207  30.526  1.00  0.00     0.031 A 
ATOM     22  C   UNL A   1      38.169  32.756  31.769  1.00  0.00     0.074 A 
ATOM     23  C   UNL A   1      38.008  31.086  29.961  1.00  0.00     0.049 A 
ATOM     24  N   UNL A   1      39.245  32.348  32.393  1.00  0.00    -0.248 NA
ATOM     25  C   UNL A   1      37.510  33.913  32.394  1.00  0.00     0.031 C 
ATOM     26  C   UNL A   1      37.438  30.418  28.791  1.00  0.00     0.029 A 
ATOM     27  N   UNL A   1      39.085  30.307  30.302  1.00  0.00    -0.354 N 
ATOM     28  C   UNL A   1      39.404  33.208  33.472  1.00  0.00     0.074 A 
ATOM     29  C   UNL A   1      38.320  34.166  33.412  1.00  0.00     0.031 C 
ATOM     30  C   UNL A   1      38.172  29.327  28.512  1.00  0.00     0.029 A 
ATOM     31  C   UNL A   1      39.284  29.246  29.454  1.00  0.00     0.049 A 
ATOM     32  H   UNL A   1      39.661  30.493  31.079  1.00  0.00     0.167 HD
ATOM     33  C   UNL A   1      40.367  33.201  34.424  1.00  0.00     0.031 A 
ATOM     34  C   UNL A   1      40.268  28.328  29.425  1.00  0.00     0.031 A 
ATOM     35  C   UNL A   1      41.447  32.253  34.485  1.00  0.00     0.049 A 
ATOM     36  C   UNL A   1      41.368  28.388  30.448  1.00  0.00     0.074 A 
ATOM     37  C   UNL A   1      42.470  32.168  35.413  1.00  0.00     0.029 A 
ATOM     38  N   UNL A   1      41.643  31.225  33.576  1.00  0.00    -0.354 N 
ATOM     39  N   UNL A   1      41.515  29.216  31.453  1.00  0.00    -0.248 NA
ATOM     40  C   UNL A   1      42.440  27.390  30.326  1.00  0.00     0.031 C 
ATOM     41  C   UNL A   1      43.309  31.111  35.042  1.00  0.00     0.029 A 
ATOM     42  C   UNL A   1      42.783  30.512  33.909  1.00  0.00     0.049 A 
ATOM     43  H   UNL A   1      41.058  31.029  32.809  1.00  0.00     0.167 HD
ATOM     44  C   UNL A   1      42.688  28.832  32.090  1.00  0.00     0.074 A 
ATOM     45  C   UNL A   1      43.203  27.686  31.368  1.00  0.00     0.031 C 
ATOM     46  C   UNL A   1      43.285  29.381  33.176  1.00  0.00     0.031 A 
BRANCH  33  47
ATOM     47  C   UNL A   1      40.316  34.288  35.458  1.00  0.00    -0.014 A 
ATOM     48  C   UNL A   1      39.636  34.109  36.672  1.00  0.00     0.009 A 
ATOM     49  C   UNL A   1      40.981  35.502  35.222  1.00  0.00     0.009 A 
ATOM     50  C   UNL A   1      39.599  35.136  37.618  1.00  0.00     0.001 A 
ATOM     51  C   UNL A   1      40.960  36.519  36.178  1.00  0.00     0.001 A 
ATOM     52  C   UNL A   1      40.263  36.337  37.372  1.00  0.00     0.000 A 
ENDBRANCH  33  47
BRANCH  34  53
ATOM     53  C   UNL A   1      40.280  27.290  28.362  1.00  0.00    -0.014 A 
ATOM     54  C   UNL A   1      40.916  27.531  27.135  1.00  0.00     0.009 A 
ATOM     55  C   UNL A   1      39.647  26.055  28.571  1.00  0.00     0.009 A 
ATOM     56  C   UNL A   1      40.904  26.559  26.133  1.00  0.00     0.001 A 
ATOM     57  C   UNL A   1      39.657  25.078  27.576  1.00  0.00     0.001 A 
ATOM     58  C   UNL A   1      40.279  25.332  26.355  1.00  0.00     0.000 A 
ENDBRANCH  34  53
BRANCH  46  59
ATOM     59  C   UNL A   1      44.551  28.735  33.657  1.00  0.00    -0.014 A 
ATOM     60  C   UNL A   1      45.805  29.175  33.207  1.00  0.00     0.009 A 
ATOM     61  C   UNL A   1      44.489  27.694  34.598  1.00  0.00     0.009 A 
ATOM     62  C   UNL A   1      46.973  28.565  33.670  1.00  0.00     0.001 A 
ATOM     63  C   UNL A   1      45.660  27.103  35.075  1.00  0.00     0.001 A 
ATOM     64  C   UNL A   1      46.899  27.533  34.605  1.00  0.00     0.000 A 
ENDBRANCH  46  59
ENDBRANCH  20  21
ENDBRANCH  13  15
ENDBRANCH  12  13
ENDBRANCH   1  12
TORSDOF 12
ENDMDL
