MODEL 1
REMARK VINA RESULT:     -11.1      0.000      0.000
REMARK SMILES O=C(OCCOC(=O)[C@H]1Cc2[nH]cnc2CN1C(=O)NCc1nc[nH]n1)c1ccc(-c2c3nc(c(-c4ccccc4)c4ccc([nH]4)c(-c4ccccc4)c4nc(c(-c5ccccc5)c5ccc2[nH]5)C=C4)C=C3)cc1
REMARK SMILES IDX 5 1 4 2 3 3 2 4 1 5 27 6 28 7 74 8 29 9 73 10 30 11 31 12
REMARK SMILES IDX 32 13 67 14 33 15 72 16 66 17 68 18 34 19 71 20 65 21 64 22
REMARK SMILES IDX 35 24 57 25 42 26 56 27 43 28 46 29 55 30 69 31 44 32 45 33
REMARK SMILES IDX 54 35 70 36 47 37 36 38 37 39 41 40 38 41 40 42 39 43 58 44
REMARK SMILES IDX 59 45 63 46 60 47 62 48 61 49 48 50 49 51 53 52 50 53 52 54
REMARK SMILES IDX 51 55 6 56 7 57 8 58 9 59 10 60 17 61 11 62 16 63 12 64
REMARK SMILES IDX 15 65 13 66 14 68 18 69 19 70 20 71 21 73 22 74 23 75 26 76
REMARK SMILES IDX 24 77 25 78
REMARK H PARENT 68 23 46 34 12 67 20 72 25 79
REMARK Flexibility Score: inf
ROOT
ATOM      1  C   UNL A   1      36.699  21.872  25.645  1.00  0.00     0.274 C 
ENDROOT
BRANCH   1   2
ATOM      2  C   UNL A   1      38.212  21.946  25.748  1.00  0.00     0.275 C 
BRANCH   2   3
ATOM      3  O   UNL A   1      38.863  20.747  25.281  1.00  0.00    -0.458 OA
BRANCH   3   4
ATOM      4  C   UNL A   1      39.955  20.127  25.765  1.00  0.00     0.338 C 
ATOM      5  O   UNL A   1      40.146  18.936  25.518  1.00  0.00    -0.246 OA
BRANCH   4   6
ATOM      6  C   UNL A   1      41.064  20.829  26.428  1.00  0.00     0.060 A 
ATOM      7  C   UNL A   1      41.147  20.772  27.814  1.00  0.00     0.016 A 
ATOM      8  C   UNL A   1      41.620  21.910  25.716  1.00  0.00     0.016 A 
ATOM      9  C   UNL A   1      41.570  21.899  28.484  1.00  0.00     0.010 A 
ATOM     10  C   UNL A   1      42.082  23.025  26.386  1.00  0.00     0.010 A 
ATOM     11  C   UNL A   1      41.932  23.048  27.760  1.00  0.00    -0.014 A 
BRANCH  11  12
ATOM     12  C   UNL A   1      42.161  24.253  28.529  1.00  0.00     0.031 A 
ATOM     13  C   UNL A   1      41.195  25.314  28.191  1.00  0.00     0.074 A 
ATOM     14  C   UNL A   1      43.151  24.412  29.427  1.00  0.00     0.049 A 
ATOM     15  N   UNL A   1      41.390  26.312  27.398  1.00  0.00    -0.248 NA
ATOM     16  C   UNL A   1      39.796  25.097  28.577  1.00  0.00     0.031 C 
ATOM     17  C   UNL A   1      44.009  23.407  30.054  1.00  0.00     0.029 A 
ATOM     18  N   UNL A   1      43.540  25.565  30.034  1.00  0.00    -0.354 N 
ATOM     19  C   UNL A   1      40.177  26.981  27.344  1.00  0.00     0.074 A 
ATOM     20  C   UNL A   1      39.199  26.079  27.902  1.00  0.00     0.031 C 
ATOM     21  C   UNL A   1      44.636  23.963  31.120  1.00  0.00     0.029 A 
ATOM     22  C   UNL A   1      44.342  25.387  31.151  1.00  0.00     0.049 A 
ATOM     23  H   UNL A   1      43.276  26.454  29.707  1.00  0.00     0.167 HD
ATOM     24  C   UNL A   1      40.133  28.322  27.116  1.00  0.00     0.031 A 
ATOM     25  C   UNL A   1      44.663  26.344  32.058  1.00  0.00     0.031 A 
ATOM     26  C   UNL A   1      41.378  28.804  26.566  1.00  0.00     0.049 A 
ATOM     27  C   UNL A   1      44.441  27.664  31.413  1.00  0.00     0.074 A 
ATOM     28  C   UNL A   1      42.110  28.538  25.423  1.00  0.00     0.029 A 
ATOM     29  N   UNL A   1      42.254  29.406  27.440  1.00  0.00    -0.354 N 
ATOM     30  N   UNL A   1      45.174  28.111  30.434  1.00  0.00    -0.248 NA
ATOM     31  C   UNL A   1      43.123  28.272  31.529  1.00  0.00     0.031 C 
ATOM     32  C   UNL A   1      43.473  28.562  25.842  1.00  0.00     0.029 A 
ATOM     33  C   UNL A   1      43.507  28.910  27.194  1.00  0.00     0.049 A 
ATOM     34  H   UNL A   1      42.021  30.076  28.124  1.00  0.00     0.167 HD
ATOM     35  C   UNL A   1      44.273  28.701  29.557  1.00  0.00     0.074 A 
ATOM     36  C   UNL A   1      43.041  28.858  30.330  1.00  0.00     0.031 C 
ATOM     37  C   UNL A   1      44.518  28.738  28.213  1.00  0.00     0.031 A 
BRANCH  24  38
ATOM     38  C   UNL A   1      39.181  29.232  27.861  1.00  0.00    -0.014 A 
ATOM     39  C   UNL A   1      39.334  29.349  29.254  1.00  0.00     0.009 A 
ATOM     40  C   UNL A   1      37.977  29.716  27.317  1.00  0.00     0.009 A 
ATOM     41  C   UNL A   1      38.285  29.797  30.063  1.00  0.00     0.001 A 
ATOM     42  C   UNL A   1      36.941  30.198  28.119  1.00  0.00     0.001 A 
ATOM     43  C   UNL A   1      37.081  30.201  29.497  1.00  0.00     0.000 A 
ENDBRANCH  24  38
BRANCH  25  44
ATOM     44  C   UNL A   1      44.821  26.200  33.522  1.00  0.00    -0.014 A 
ATOM     45  C   UNL A   1      43.724  25.892  34.344  1.00  0.00     0.009 A 
ATOM     46  C   UNL A   1      46.106  26.089  34.084  1.00  0.00     0.009 A 
ATOM     47  C   UNL A   1      43.911  25.455  35.664  1.00  0.00     0.001 A 
ATOM     48  C   UNL A   1      46.294  25.654  35.401  1.00  0.00     0.001 A 
ATOM     49  C   UNL A   1      45.196  25.323  36.186  1.00  0.00     0.000 A 
ENDBRANCH  25  44
BRANCH  37  50
ATOM     50  C   UNL A   1      45.888  28.324  27.734  1.00  0.00    -0.014 A 
ATOM     51  C   UNL A   1      46.915  29.244  27.454  1.00  0.00     0.009 A 
ATOM     52  C   UNL A   1      46.196  26.956  27.717  1.00  0.00     0.009 A 
ATOM     53  C   UNL A   1      48.205  28.801  27.136  1.00  0.00     0.001 A 
ATOM     54  C   UNL A   1      47.488  26.516  27.420  1.00  0.00     0.001 A 
ATOM     55  C   UNL A   1      48.490  27.437  27.124  1.00  0.00     0.000 A 
ENDBRANCH  37  50
ENDBRANCH  11  12
ENDBRANCH   4   6
ENDBRANCH   3   4
ENDBRANCH   2   3
ENDBRANCH   1   2
BRANCH   1  56
ATOM     56  O   UNL A   1      36.147  23.063  26.217  1.00  0.00    -0.461 OA
BRANCH  56  57
ATOM     57  C   UNL A   1      34.850  23.320  25.877  1.00  0.00     0.329 C 
ATOM     58  O   UNL A   1      34.233  24.318  26.203  1.00  0.00    -0.250 OA
BRANCH  57  59
ATOM     59  C   UNL A   1      34.257  22.099  25.168  1.00  0.00     0.203 C 
ATOM     60  C   UNL A   1      33.530  21.321  26.325  1.00  0.00     0.093 C 
ATOM     61  N   UNL A   1      33.428  22.030  23.907  1.00  0.00    -0.305 N 
ATOM     62  C   UNL A   1      33.154  19.987  25.817  1.00  0.00     0.042 A 
ATOM     63  C   UNL A   1      33.301  20.630  23.379  1.00  0.00     0.180 C 
ATOM     64  N   UNL A   1      32.841  18.856  26.504  1.00  0.00    -0.348 N 
ATOM     65  C   UNL A   1      33.055  19.667  24.486  1.00  0.00     0.081 A 
ATOM     66  C   UNL A   1      32.607  17.885  25.564  1.00  0.00     0.197 A 
ATOM     67  H   UNL A   1      32.790  18.754  27.481  1.00  0.00     0.167 HD
ATOM     68  N   UNL A   1      32.744  18.343  24.337  1.00  0.00    -0.240 NA
BRANCH  61  69
ATOM     69  C   UNL A   1      33.109  22.956  22.967  1.00  0.00     0.318 C 
ATOM     70  O   UNL A   1      33.895  23.208  22.040  1.00  0.00    -0.249 OA
ATOM     71  N   UNL A   1      32.013  23.695  22.910  1.00  0.00    -0.331 N 
ATOM     72  H   UNL A   1      32.176  24.471  22.327  1.00  0.00     0.165 HD
BRANCH  71  73
ATOM     73  C   UNL A   1      30.654  23.753  23.413  1.00  0.00     0.197 C 
BRANCH  73  74
ATOM     74  C   UNL A   1      30.714  23.903  24.902  1.00  0.00     0.169 A 
ATOM     75  N   UNL A   1      30.522  22.863  25.778  1.00  0.00    -0.218 NA
ATOM     76  N   UNL A   1      31.041  25.070  25.485  1.00  0.00    -0.157 NA
ATOM     77  C   UNL A   1      30.811  23.399  26.943  1.00  0.00     0.216 A 
ATOM     78  N   UNL A   1      31.162  24.702  26.773  1.00  0.00    -0.266 N 
ATOM     79  H   UNL A   1      31.465  25.297  27.496  1.00  0.00     0.191 HD
ENDBRANCH  73  74
ENDBRANCH  71  73
ENDBRANCH  61  69
ENDBRANCH  57  59
ENDBRANCH  56  57
ENDBRANCH   1  56
TORSDOF 14
ENDMDL
MODEL 2
REMARK VINA RESULT:     -11.1      3.340      7.616
REMARK SMILES O=C(OCCOC(=O)[C@H]1Cc2[nH]cnc2CN1C(=O)NCc1nc[nH]n1)c1ccc(-c2c3nc(c(-c4ccccc4)c4ccc([nH]4)c(-c4ccccc4)c4nc(c(-c5ccccc5)c5ccc2[nH]5)C=C4)C=C3)cc1
REMARK SMILES IDX 5 1 4 2 3 3 2 4 1 5 27 6 28 7 74 8 29 9 73 10 30 11 31 12
REMARK SMILES IDX 32 13 67 14 33 15 72 16 66 17 68 18 34 19 71 20 65 21 64 22
REMARK SMILES IDX 35 24 57 25 42 26 56 27 43 28 46 29 55 30 69 31 44 32 45 33
REMARK SMILES IDX 54 35 70 36 47 37 36 38 37 39 41 40 38 41 40 42 39 43 58 44
REMARK SMILES IDX 59 45 63 46 60 47 62 48 61 49 48 50 49 51 53 52 50 53 52 54
REMARK SMILES IDX 51 55 6 56 7 57 8 58 9 59 10 60 17 61 11 62 16 63 12 64
REMARK SMILES IDX 15 65 13 66 14 68 18 69 19 70 20 71 21 73 22 74 23 75 26 76
REMARK SMILES IDX 24 77 25 78
REMARK H PARENT 68 23 46 34 12 67 20 72 25 79
REMARK Flexibility Score: inf
ROOT
ATOM      1  C   UNL A   1      33.810  29.658  26.995  1.00  0.00     0.274 C 
ENDROOT
BRANCH   1   2
ATOM      2  C   UNL A   1      33.352  31.078  27.274  1.00  0.00     0.275 C 
BRANCH   2   3
ATOM      3  O   UNL A   1      34.134  31.726  28.297  1.00  0.00    -0.458 OA
BRANCH   3   4
ATOM      4  C   UNL A   1      35.437  32.065  28.287  1.00  0.00     0.338 C 
ATOM      5  O   UNL A   1      35.827  32.988  27.572  1.00  0.00    -0.246 OA
BRANCH   4   6
ATOM      6  C   UNL A   1      36.427  31.525  29.231  1.00  0.00     0.060 A 
ATOM      7  C   UNL A   1      37.663  32.155  29.323  1.00  0.00     0.016 A 
ATOM      8  C   UNL A   1      36.286  30.162  29.556  1.00  0.00     0.016 A 
ATOM      9  C   UNL A   1      38.778  31.368  29.509  1.00  0.00     0.010 A 
ATOM     10  C   UNL A   1      37.400  29.379  29.783  1.00  0.00     0.010 A 
ATOM     11  C   UNL A   1      38.638  29.975  29.631  1.00  0.00    -0.014 A 
BRANCH  11  12
ATOM     12  C   UNL A   1      39.859  29.196  29.612  1.00  0.00     0.031 A 
ATOM     13  C   UNL A   1      40.388  28.970  30.969  1.00  0.00     0.074 A 
ATOM     14  C   UNL A   1      40.465  28.749  28.497  1.00  0.00     0.049 A 
ATOM     15  N   UNL A   1      41.338  29.624  31.546  1.00  0.00    -0.248 NA
ATOM     16  C   UNL A   1      39.611  28.098  31.858  1.00  0.00     0.031 C 
ATOM     17  C   UNL A   1      39.952  28.663  27.130  1.00  0.00     0.029 A 
ATOM     18  N   UNL A   1      41.698  28.188  28.394  1.00  0.00    -0.354 N 
ATOM     19  C   UNL A   1      41.420  29.098  32.827  1.00  0.00     0.074 A 
ATOM     20  C   UNL A   1      40.213  28.334  33.023  1.00  0.00     0.031 C 
ATOM     21  C   UNL A   1      40.769  27.865  26.400  1.00  0.00     0.029 A 
ATOM     22  C   UNL A   1      41.930  27.516  27.203  1.00  0.00     0.049 A 
ATOM     23  H   UNL A   1      42.374  28.253  29.107  1.00  0.00     0.167 HD
ATOM     24  C   UNL A   1      42.602  29.096  33.502  1.00  0.00     0.031 A 
ATOM     25  C   UNL A   1      42.972  26.684  26.952  1.00  0.00     0.031 A 
ATOM     26  C   UNL A   1      43.546  30.018  32.914  1.00  0.00     0.049 A 
ATOM     27  C   UNL A   1      44.040  26.992  27.937  1.00  0.00     0.074 A 
ATOM     28  C   UNL A   1      43.569  31.382  32.690  1.00  0.00     0.029 A 
ATOM     29  N   UNL A   1      44.503  29.485  32.081  1.00  0.00    -0.354 N 
ATOM     30  N   UNL A   1      44.713  28.107  27.931  1.00  0.00    -0.248 NA
ATOM     31  C   UNL A   1      44.031  26.280  29.206  1.00  0.00     0.031 C 
ATOM     32  C   UNL A   1      44.191  31.537  31.415  1.00  0.00     0.029 A 
ATOM     33  C   UNL A   1      44.579  30.274  30.964  1.00  0.00     0.049 A 
ATOM     34  H   UNL A   1      45.038  28.677  32.256  1.00  0.00     0.167 HD
ATOM     35  C   UNL A   1      44.823  28.462  29.269  1.00  0.00     0.074 A 
ATOM     36  C   UNL A   1      44.472  27.252  30.011  1.00  0.00     0.031 C 
ATOM     37  C   UNL A   1      44.901  29.774  29.647  1.00  0.00     0.031 A 
BRANCH  24  38
ATOM     38  C   UNL A   1      43.050  27.914  34.333  1.00  0.00    -0.014 A 
ATOM     39  C   UNL A   1      43.434  26.741  33.659  1.00  0.00     0.009 A 
ATOM     40  C   UNL A   1      42.814  27.797  35.715  1.00  0.00     0.009 A 
ATOM     41  C   UNL A   1      43.443  25.502  34.309  1.00  0.00     0.001 A 
ATOM     42  C   UNL A   1      42.860  26.568  36.376  1.00  0.00     0.001 A 
ATOM     43  C   UNL A   1      43.136  25.413  35.663  1.00  0.00     0.000 A 
ENDBRANCH  24  38
BRANCH  25  44
ATOM     44  C   UNL A   1      42.974  25.438  26.153  1.00  0.00    -0.014 A 
ATOM     45  C   UNL A   1      43.987  25.178  25.215  1.00  0.00     0.009 A 
ATOM     46  C   UNL A   1      42.130  24.370  26.512  1.00  0.00     0.009 A 
ATOM     47  C   UNL A   1      44.169  23.891  24.688  1.00  0.00     0.001 A 
ATOM     48  C   UNL A   1      42.311  23.086  25.986  1.00  0.00     0.001 A 
ATOM     49  C   UNL A   1      43.341  22.844  25.084  1.00  0.00     0.000 A 
ENDBRANCH  25  44
BRANCH  37  50
ATOM     50  C   UNL A   1      45.093  30.808  28.565  1.00  0.00    -0.014 A 
ATOM     51  C   UNL A   1      44.027  31.358  27.829  1.00  0.00     0.009 A 
ATOM     52  C   UNL A   1      46.373  31.356  28.394  1.00  0.00     0.009 A 
ATOM     53  C   UNL A   1      44.247  32.407  26.927  1.00  0.00     0.001 A 
ATOM     54  C   UNL A   1      46.587  32.415  27.509  1.00  0.00     0.001 A 
ATOM     55  C   UNL A   1      45.526  32.936  26.772  1.00  0.00     0.000 A 
ENDBRANCH  37  50
ENDBRANCH  11  12
ENDBRANCH   4   6
ENDBRANCH   3   4
ENDBRANCH   2   3
ENDBRANCH   1   2
BRANCH   1  56
ATOM     56  O   UNL A   1      32.670  28.792  27.062  1.00  0.00    -0.461 OA
BRANCH  56  57
ATOM     57  C   UNL A   1      32.681  27.752  26.178  1.00  0.00     0.329 C 
ATOM     58  O   UNL A   1      33.565  26.918  26.101  1.00  0.00    -0.250 OA
BRANCH  57  59
ATOM     59  C   UNL A   1      31.503  27.893  25.210  1.00  0.00     0.203 C 
ATOM     60  C   UNL A   1      32.153  28.545  23.935  1.00  0.00     0.093 C 
ATOM     61  N   UNL A   1      30.477  26.867  24.791  1.00  0.00    -0.305 N 
ATOM     62  C   UNL A   1      31.067  28.981  23.036  1.00  0.00     0.042 A 
ATOM     63  C   UNL A   1      29.315  27.481  24.064  1.00  0.00     0.180 C 
ATOM     64  N   UNL A   1      31.094  29.884  22.019  1.00  0.00    -0.348 N 
ATOM     65  C   UNL A   1      29.780  28.508  23.094  1.00  0.00     0.081 A 
ATOM     66  C   UNL A   1      29.815  29.955  21.530  1.00  0.00     0.197 A 
ATOM     67  H   UNL A   1      31.877  30.386  21.697  1.00  0.00     0.167 HD
ATOM     68  N   UNL A   1      28.996  29.145  22.171  1.00  0.00    -0.240 NA
BRANCH  61  69
ATOM     69  C   UNL A   1      30.189  25.620  25.243  1.00  0.00     0.318 C 
ATOM     70  O   UNL A   1      29.655  25.461  26.351  1.00  0.00    -0.249 OA
ATOM     71  N   UNL A   1      30.438  24.471  24.636  1.00  0.00    -0.331 N 
ATOM     72  H   UNL A   1      30.412  23.743  25.298  1.00  0.00     0.165 HD
BRANCH  71  73
ATOM     73  C   UNL A   1      30.736  23.917  23.329  1.00  0.00     0.197 C 
BRANCH  73  74
ATOM     74  C   UNL A   1      31.900  24.668  22.759  1.00  0.00     0.169 A 
ATOM     75  N   UNL A   1      31.797  25.542  21.705  1.00  0.00    -0.218 NA
ATOM     76  N   UNL A   1      33.127  24.590  23.302  1.00  0.00    -0.157 NA
ATOM     77  C   UNL A   1      32.997  26.074  21.643  1.00  0.00     0.216 A 
ATOM     78  N   UNL A   1      33.784  25.544  22.617  1.00  0.00    -0.266 N 
ATOM     79  H   UNL A   1      34.711  25.822  22.799  1.00  0.00     0.191 HD
ENDBRANCH  73  74
ENDBRANCH  71  73
ENDBRANCH  61  69
ENDBRANCH  57  59
ENDBRANCH  56  57
ENDBRANCH   1  56
TORSDOF 14
ENDMDL
MODEL 3
REMARK VINA RESULT:     -11.0      5.487     10.553
REMARK SMILES O=C(OCCOC(=O)[C@H]1Cc2[nH]cnc2CN1C(=O)NCc1nc[nH]n1)c1ccc(-c2c3nc(c(-c4ccccc4)c4ccc([nH]4)c(-c4ccccc4)c4nc(c(-c5ccccc5)c5ccc2[nH]5)C=C4)C=C3)cc1
REMARK SMILES IDX 5 1 4 2 3 3 2 4 1 5 27 6 28 7 74 8 29 9 73 10 30 11 31 12
REMARK SMILES IDX 32 13 67 14 33 15 72 16 66 17 68 18 34 19 71 20 65 21 64 22
REMARK SMILES IDX 35 24 57 25 42 26 56 27 43 28 46 29 55 30 69 31 44 32 45 33
REMARK SMILES IDX 54 35 70 36 47 37 36 38 37 39 41 40 38 41 40 42 39 43 58 44
REMARK SMILES IDX 59 45 63 46 60 47 62 48 61 49 48 50 49 51 53 52 50 53 52 54
REMARK SMILES IDX 51 55 6 56 7 57 8 58 9 59 10 60 17 61 11 62 16 63 12 64
REMARK SMILES IDX 15 65 13 66 14 68 18 69 19 70 20 71 21 73 22 74 23 75 26 76
REMARK SMILES IDX 24 77 25 78
REMARK H PARENT 68 23 46 34 12 67 20 72 25 79
REMARK Flexibility Score: inf
ROOT
ATOM      1  C   UNL A   1      47.463  24.743  27.622  1.00  0.00     0.274 C 
ENDROOT
BRANCH   1   2
ATOM      2  C   UNL A   1      47.367  25.325  29.021  1.00  0.00     0.275 C 
BRANCH   2   3
ATOM      3  O   UNL A   1      46.005  25.534  29.447  1.00  0.00    -0.458 OA
BRANCH   3   4
ATOM      4  C   UNL A   1      45.543  26.126  30.563  1.00  0.00     0.338 C 
ATOM      5  O   UNL A   1      46.330  26.511  31.428  1.00  0.00    -0.246 OA
BRANCH   4   6
ATOM      6  C   UNL A   1      44.141  26.529  30.751  1.00  0.00     0.060 A 
ATOM      7  C   UNL A   1      43.287  26.475  29.655  1.00  0.00     0.016 A 
ATOM      8  C   UNL A   1      43.894  27.418  31.815  1.00  0.00     0.016 A 
ATOM      9  C   UNL A   1      42.338  27.466  29.525  1.00  0.00     0.010 A 
ATOM     10  C   UNL A   1      42.916  28.387  31.704  1.00  0.00     0.010 A 
ATOM     11  C   UNL A   1      42.237  28.470  30.503  1.00  0.00    -0.014 A 
BRANCH  11  12
ATOM     12  C   UNL A   1      41.369  29.588  30.198  1.00  0.00     0.031 A 
ATOM     13  C   UNL A   1      42.133  30.809  29.886  1.00  0.00     0.074 A 
ATOM     14  C   UNL A   1      40.024  29.541  30.219  1.00  0.00     0.049 A 
ATOM     15  N   UNL A   1      42.379  31.791  30.686  1.00  0.00    -0.248 NA
ATOM     16  C   UNL A   1      42.910  30.817  28.641  1.00  0.00     0.031 C 
ATOM     17  C   UNL A   1      39.134  28.381  30.251  1.00  0.00     0.029 A 
ATOM     18  N   UNL A   1      39.158  30.586  30.136  1.00  0.00    -0.354 N 
ATOM     19  C   UNL A   1      43.188  32.657  29.965  1.00  0.00     0.074 A 
ATOM     20  C   UNL A   1      43.648  31.913  28.820  1.00  0.00     0.031 C 
ATOM     21  C   UNL A   1      37.876  28.779  29.939  1.00  0.00     0.029 A 
ATOM     22  C   UNL A   1      37.851  30.230  29.841  1.00  0.00     0.049 A 
ATOM     23  H   UNL A   1      39.436  31.520  30.274  1.00  0.00     0.167 HD
ATOM     24  C   UNL A   1      43.171  33.994  30.219  1.00  0.00     0.031 A 
ATOM     25  C   UNL A   1      36.860  31.083  29.475  1.00  0.00     0.031 A 
ATOM     26  C   UNL A   1      42.576  34.279  31.504  1.00  0.00     0.049 A 
ATOM     27  C   UNL A   1      37.258  32.446  29.912  1.00  0.00     0.074 A 
ATOM     28  C   UNL A   1      42.865  33.939  32.812  1.00  0.00     0.029 A 
ATOM     29  N   UNL A   1      41.263  34.689  31.504  1.00  0.00    -0.354 N 
ATOM     30  N   UNL A   1      37.328  32.800  31.163  1.00  0.00    -0.248 NA
ATOM     31  C   UNL A   1      38.035  33.263  28.991  1.00  0.00     0.031 C 
ATOM     32  C   UNL A   1      41.597  33.715  33.425  1.00  0.00     0.029 A 
ATOM     33  C   UNL A   1      40.604  33.998  32.486  1.00  0.00     0.049 A 
ATOM     34  H   UNL A   1      40.865  35.361  30.904  1.00  0.00     0.167 HD
ATOM     35  C   UNL A   1      38.481  33.569  31.251  1.00  0.00     0.074 A 
ATOM     36  C   UNL A   1      38.819  33.902  29.867  1.00  0.00     0.031 C 
ATOM     37  C   UNL A   1      39.211  33.617  32.405  1.00  0.00     0.031 A 
BRANCH  24  38
ATOM     38  C   UNL A   1      43.213  35.021  29.110  1.00  0.00    -0.014 A 
ATOM     39  C   UNL A   1      44.097  36.106  29.246  1.00  0.00     0.009 A 
ATOM     40  C   UNL A   1      42.223  35.138  28.116  1.00  0.00     0.009 A 
ATOM     41  C   UNL A   1      43.909  37.290  28.525  1.00  0.00     0.001 A 
ATOM     42  C   UNL A   1      42.055  36.304  27.367  1.00  0.00     0.001 A 
ATOM     43  C   UNL A   1      42.875  37.396  27.601  1.00  0.00     0.000 A 
ENDBRANCH  24  38
BRANCH  25  44
ATOM     44  C   UNL A   1      35.775  30.856  28.494  1.00  0.00    -0.014 A 
ATOM     45  C   UNL A   1      35.606  29.606  27.875  1.00  0.00     0.009 A 
ATOM     46  C   UNL A   1      34.729  31.789  28.374  1.00  0.00     0.009 A 
ATOM     47  C   UNL A   1      34.420  29.294  27.194  1.00  0.00     0.001 A 
ATOM     48  C   UNL A   1      33.546  31.478  27.694  1.00  0.00     0.001 A 
ATOM     49  C   UNL A   1      33.386  30.224  27.117  1.00  0.00     0.000 A 
ENDBRANCH  25  44
BRANCH  37  50
ATOM     50  C   UNL A   1      38.613  32.996  33.644  1.00  0.00    -0.014 A 
ATOM     51  C   UNL A   1      38.726  31.628  33.951  1.00  0.00     0.009 A 
ATOM     52  C   UNL A   1      38.053  33.850  34.606  1.00  0.00     0.009 A 
ATOM     53  C   UNL A   1      38.263  31.128  35.174  1.00  0.00     0.001 A 
ATOM     54  C   UNL A   1      37.610  33.354  35.834  1.00  0.00     0.001 A 
ATOM     55  C   UNL A   1      37.710  31.994  36.115  1.00  0.00     0.000 A 
ENDBRANCH  37  50
ENDBRANCH  11  12
ENDBRANCH   4   6
ENDBRANCH   3   4
ENDBRANCH   2   3
ENDBRANCH   1   2
BRANCH   1  56
ATOM     56  O   UNL A   1      46.512  23.678  27.508  1.00  0.00    -0.461 OA
BRANCH  56  57
ATOM     57  C   UNL A   1      46.019  23.475  26.252  1.00  0.00     0.329 C 
ATOM     58  O   UNL A   1      46.642  22.972  25.335  1.00  0.00    -0.250 OA
BRANCH  57  59
ATOM     59  C   UNL A   1      44.634  24.119  26.138  1.00  0.00     0.203 C 
ATOM     60  C   UNL A   1      44.873  25.334  25.170  1.00  0.00     0.093 C 
ATOM     61  N   UNL A   1      43.300  23.479  25.834  1.00  0.00    -0.305 N 
ATOM     62  C   UNL A   1      43.671  26.191  25.201  1.00  0.00     0.042 A 
ATOM     63  C   UNL A   1      42.145  24.397  26.112  1.00  0.00     0.180 C 
ATOM     64  N   UNL A   1      43.526  27.493  24.834  1.00  0.00    -0.348 N 
ATOM     65  C   UNL A   1      42.437  25.775  25.632  1.00  0.00     0.081 A 
ATOM     66  C   UNL A   1      42.222  27.826  25.098  1.00  0.00     0.197 A 
ATOM     67  H   UNL A   1      44.219  28.079  24.453  1.00  0.00     0.167 HD
ATOM     68  N   UNL A   1      41.545  26.812  25.595  1.00  0.00    -0.240 NA
BRANCH  61  69
ATOM     69  C   UNL A   1      42.904  22.184  25.739  1.00  0.00     0.318 C 
ATOM     70  O   UNL A   1      41.812  21.824  26.206  1.00  0.00    -0.249 OA
ATOM     71  N   UNL A   1      43.576  21.178  25.202  1.00  0.00    -0.331 N 
ATOM     72  H   UNL A   1      43.207  20.328  25.535  1.00  0.00     0.165 HD
BRANCH  71  73
ATOM     73  C   UNL A   1      44.670  20.900  24.292  1.00  0.00     0.197 C 
BRANCH  73  74
ATOM     74  C   UNL A   1      45.402  19.695  24.797  1.00  0.00     0.169 A 
ATOM     75  N   UNL A   1      46.758  19.664  25.010  1.00  0.00    -0.218 NA
ATOM     76  N   UNL A   1      44.756  18.571  25.153  1.00  0.00    -0.157 NA
ATOM     77  C   UNL A   1      46.942  18.497  25.585  1.00  0.00     0.216 A 
ATOM     78  N   UNL A   1      45.749  17.856  25.712  1.00  0.00    -0.266 N 
ATOM     79  H   UNL A   1      45.627  16.986  26.156  1.00  0.00     0.191 HD
ENDBRANCH  73  74
ENDBRANCH  71  73
ENDBRANCH  61  69
ENDBRANCH  57  59
ENDBRANCH  56  57
ENDBRANCH   1  56
TORSDOF 14
ENDMDL
