MODEL 1
REMARK VINA RESULT:     -11.2      0.000      0.000
REMARK SMILES O=C(OCCOC(=O)c1ccc(-n2cnc3ccccc32)nc1)c1ccc(-c2c3nc(c(-c4ccccc4)c4ccc([nH]4)c(-c4ccccc4)c4nc(c(-c5ccccc5)c5ccc2[nH]5)C=C4)C=C3)cc1
REMARK SMILES IDX 4 1 3 2 2 3 1 4 24 5 25 6 71 7 26 8 70 9 27 10 28 11 29 12
REMARK SMILES IDX 64 13 30 14 69 15 63 16 65 17 31 18 68 19 62 20 61 21 32 23
REMARK SMILES IDX 54 24 39 25 53 26 40 27 43 28 52 29 66 30 41 31 42 32 51 34
REMARK SMILES IDX 67 35 44 36 33 37 34 38 38 39 35 40 37 41 36 42 55 43 56 44
REMARK SMILES IDX 60 45 57 46 59 47 58 48 45 49 46 50 50 51 47 52 49 53 48 54
REMARK SMILES IDX 5 55 6 56 7 57 8 58 9 59 10 60 23 61 11 62 22 63 12 64 13 65
REMARK SMILES IDX 14 66 21 67 15 68 16 69 20 70 17 71 19 72 18 73
REMARK H PARENT 65 22 43 33
REMARK Flexibility Score: inf
ROOT
ATOM      1  C   UNL A   1      42.354  18.310  26.649  1.00  0.00     0.275 C 
ENDROOT
BRANCH   1   2
ATOM      2  O   UNL A   1      41.485  18.827  25.603  1.00  0.00    -0.458 OA
BRANCH   2   3
ATOM      3  C   UNL A   1      40.397  19.631  25.754  1.00  0.00     0.338 C 
ATOM      4  O   UNL A   1      39.261  19.259  25.499  1.00  0.00    -0.246 OA
BRANCH   3   5
ATOM      5  C   UNL A   1      40.657  21.035  26.103  1.00  0.00     0.060 A 
ATOM      6  C   UNL A   1      41.948  21.509  25.890  1.00  0.00     0.016 A 
ATOM      7  C   UNL A   1      39.717  21.788  26.808  1.00  0.00     0.016 A 
ATOM      8  C   UNL A   1      42.380  22.587  26.640  1.00  0.00     0.010 A 
ATOM      9  C   UNL A   1      40.150  22.879  27.548  1.00  0.00     0.010 A 
ATOM     10  C   UNL A   1      41.506  23.210  27.545  1.00  0.00    -0.014 A 
BRANCH  10  11
ATOM     11  C   UNL A   1      42.055  24.305  28.351  1.00  0.00     0.031 A 
ATOM     12  C   UNL A   1      41.312  25.587  28.205  1.00  0.00     0.074 A 
ATOM     13  C   UNL A   1      43.061  24.186  29.241  1.00  0.00     0.049 A 
ATOM     14  N   UNL A   1      41.768  26.767  27.929  1.00  0.00    -0.248 NA
ATOM     15  C   UNL A   1      39.841  25.494  28.261  1.00  0.00     0.031 C 
ATOM     16  C   UNL A   1      43.714  22.956  29.693  1.00  0.00     0.029 A 
ATOM     17  N   UNL A   1      43.625  25.148  30.035  1.00  0.00    -0.354 N 
ATOM     18  C   UNL A   1      40.649  27.594  27.919  1.00  0.00     0.074 A 
ATOM     19  C   UNL A   1      39.489  26.742  27.975  1.00  0.00     0.031 C 
ATOM     20  C   UNL A   1      44.382  23.207  30.840  1.00  0.00     0.029 A 
ATOM     21  C   UNL A   1      44.296  24.628  31.134  1.00  0.00     0.049 A 
ATOM     22  H   UNL A   1      43.561  26.112  29.847  1.00  0.00     0.167 HD
ATOM     23  C   UNL A   1      40.712  28.940  28.085  1.00  0.00     0.031 A 
ATOM     24  C   UNL A   1      44.657  25.292  32.258  1.00  0.00     0.031 A 
ATOM     25  C   UNL A   1      42.001  29.488  27.786  1.00  0.00     0.049 A 
ATOM     26  C   UNL A   1      44.631  26.744  31.979  1.00  0.00     0.074 A 
ATOM     27  C   UNL A   1      42.771  29.589  26.646  1.00  0.00     0.029 A 
ATOM     28  N   UNL A   1      42.826  29.783  28.840  1.00  0.00    -0.354 N 
ATOM     29  N   UNL A   1      45.487  27.365  31.223  1.00  0.00    -0.248 NA
ATOM     30  C   UNL A   1      43.430  27.496  32.310  1.00  0.00     0.031 C 
ATOM     31  C   UNL A   1      44.120  29.539  27.096  1.00  0.00     0.029 A 
ATOM     32  C   UNL A   1      44.103  29.427  28.488  1.00  0.00     0.049 A 
ATOM     33  H   UNL A   1      42.550  30.181  29.697  1.00  0.00     0.167 HD
ATOM     34  C   UNL A   1      44.766  28.399  30.648  1.00  0.00     0.074 A 
ATOM     35  C   UNL A   1      43.563  28.518  31.462  1.00  0.00     0.031 C 
ATOM     36  C   UNL A   1      45.077  28.869  29.405  1.00  0.00     0.031 A 
BRANCH  23  37
ATOM     37  C   UNL A   1      39.644  29.684  28.838  1.00  0.00    -0.014 A 
ATOM     38  C   UNL A   1      39.882  30.248  30.111  1.00  0.00     0.009 A 
ATOM     39  C   UNL A   1      38.442  30.031  28.207  1.00  0.00     0.009 A 
ATOM     40  C   UNL A   1      38.948  31.059  30.755  1.00  0.00     0.001 A 
ATOM     41  C   UNL A   1      37.523  30.887  28.829  1.00  0.00     0.001 A 
ATOM     42  C   UNL A   1      37.771  31.390  30.105  1.00  0.00     0.000 A 
ENDBRANCH  23  37
BRANCH  24  43
ATOM     43  C   UNL A   1      44.713  24.775  33.644  1.00  0.00    -0.014 A 
ATOM     44  C   UNL A   1      45.945  24.408  34.219  1.00  0.00     0.009 A 
ATOM     45  C   UNL A   1      43.541  24.376  34.306  1.00  0.00     0.009 A 
ATOM     46  C   UNL A   1      46.005  23.644  35.387  1.00  0.00     0.001 A 
ATOM     47  C   UNL A   1      43.602  23.601  35.472  1.00  0.00     0.001 A 
ATOM     48  C   UNL A   1      44.833  23.224  36.003  1.00  0.00     0.000 A 
ENDBRANCH  24  43
BRANCH  36  49
ATOM     49  C   UNL A   1      46.425  28.512  28.823  1.00  0.00    -0.014 A 
ATOM     50  C   UNL A   1      46.681  27.167  28.507  1.00  0.00     0.009 A 
ATOM     51  C   UNL A   1      47.487  29.428  28.723  1.00  0.00     0.009 A 
ATOM     52  C   UNL A   1      47.954  26.749  28.110  1.00  0.00     0.001 A 
ATOM     53  C   UNL A   1      48.754  29.016  28.297  1.00  0.00     0.001 A 
ATOM     54  C   UNL A   1      48.988  27.676  28.001  1.00  0.00     0.000 A 
ENDBRANCH  36  49
ENDBRANCH  10  11
ENDBRANCH   3   5
ENDBRANCH   2   3
ENDBRANCH   1   2
BRANCH   1  55
ATOM     55  C   UNL A   1      43.849  18.203  26.318  1.00  0.00     0.275 C 
BRANCH  55  56
ATOM     56  O   UNL A   1      44.105  18.567  24.963  1.00  0.00    -0.458 OA
BRANCH  56  57
ATOM     57  C   UNL A   1      45.369  18.978  24.704  1.00  0.00     0.339 C 
ATOM     58  O   UNL A   1      46.357  18.291  24.596  1.00  0.00    -0.246 OA
BRANCH  57  59
ATOM     59  C   UNL A   1      45.364  20.448  24.758  1.00  0.00     0.078 A 
ATOM     60  C   UNL A   1      44.797  21.170  23.712  1.00  0.00     0.021 A 
ATOM     61  C   UNL A   1      46.004  21.142  25.775  1.00  0.00     0.129 A 
ATOM     62  C   UNL A   1      44.853  22.560  23.743  1.00  0.00     0.048 A 
ATOM     63  N   UNL A   1      46.081  22.495  25.822  1.00  0.00    -0.238 NA
ATOM     64  C   UNL A   1      45.452  23.186  24.836  1.00  0.00     0.138 A 
BRANCH  64  65
ATOM     65  N   UNL A   1      45.355  24.593  24.989  1.00  0.00    -0.283 N 
ATOM     66  C   UNL A   1      44.180  25.287  25.170  1.00  0.00     0.206 A 
ATOM     67  C   UNL A   1      46.362  25.539  24.856  1.00  0.00     0.074 A 
ATOM     68  N   UNL A   1      44.368  26.585  25.254  1.00  0.00    -0.236 NA
ATOM     69  C   UNL A   1      45.708  26.761  25.023  1.00  0.00     0.089 A 
ATOM     70  C   UNL A   1      47.724  25.471  24.516  1.00  0.00     0.029 A 
ATOM     71  C   UNL A   1      46.434  27.956  24.897  1.00  0.00     0.030 A 
ATOM     72  C   UNL A   1      48.427  26.670  24.384  1.00  0.00     0.002 A 
ATOM     73  C   UNL A   1      47.795  27.897  24.574  1.00  0.00     0.002 A 
ENDBRANCH  64  65
ENDBRANCH  57  59
ENDBRANCH  56  57
ENDBRANCH  55  56
ENDBRANCH   1  55
TORSDOF 12
ENDMDL
MODEL 2
REMARK VINA RESULT:     -10.6      4.708     10.462
REMARK SMILES O=C(OCCOC(=O)c1ccc(-n2cnc3ccccc32)nc1)c1ccc(-c2c3nc(c(-c4ccccc4)c4ccc([nH]4)c(-c4ccccc4)c4nc(c(-c5ccccc5)c5ccc2[nH]5)C=C4)C=C3)cc1
REMARK SMILES IDX 4 1 3 2 2 3 1 4 24 5 25 6 71 7 26 8 70 9 27 10 28 11 29 12
REMARK SMILES IDX 64 13 30 14 69 15 63 16 65 17 31 18 68 19 62 20 61 21 32 23
REMARK SMILES IDX 54 24 39 25 53 26 40 27 43 28 52 29 66 30 41 31 42 32 51 34
REMARK SMILES IDX 67 35 44 36 33 37 34 38 38 39 35 40 37 41 36 42 55 43 56 44
REMARK SMILES IDX 60 45 57 46 59 47 58 48 45 49 46 50 50 51 47 52 49 53 48 54
REMARK SMILES IDX 5 55 6 56 7 57 8 58 9 59 10 60 23 61 11 62 22 63 12 64 13 65
REMARK SMILES IDX 14 66 21 67 15 68 16 69 20 70 17 71 19 72 18 73
REMARK H PARENT 65 22 43 33
REMARK Flexibility Score: inf
ROOT
ATOM      1  C   UNL A   1      35.156  34.387  28.857  1.00  0.00     0.275 C 
ENDROOT
BRANCH   1   2
ATOM      2  O   UNL A   1      36.195  33.386  29.042  1.00  0.00    -0.458 OA
BRANCH   2   3
ATOM      3  C   UNL A   1      36.261  32.148  28.479  1.00  0.00     0.338 C 
ATOM      4  O   UNL A   1      35.550  31.810  27.544  1.00  0.00    -0.246 OA
BRANCH   3   5
ATOM      5  C   UNL A   1      37.130  31.166  29.143  1.00  0.00     0.060 A 
ATOM      6  C   UNL A   1      38.398  31.597  29.517  1.00  0.00     0.016 A 
ATOM      7  C   UNL A   1      36.778  29.816  29.201  1.00  0.00     0.016 A 
ATOM      8  C   UNL A   1      39.397  30.651  29.653  1.00  0.00     0.010 A 
ATOM      9  C   UNL A   1      37.780  28.868  29.353  1.00  0.00     0.010 A 
ATOM     10  C   UNL A   1      39.105  29.289  29.472  1.00  0.00    -0.014 A 
BRANCH  10  11
ATOM     11  C   UNL A   1      40.228  28.351  29.568  1.00  0.00     0.031 A 
ATOM     12  C   UNL A   1      40.787  28.225  30.942  1.00  0.00     0.074 A 
ATOM     13  C   UNL A   1      40.675  27.568  28.564  1.00  0.00     0.049 A 
ATOM     14  N   UNL A   1      42.016  28.330  31.335  1.00  0.00    -0.248 NA
ATOM     15  C   UNL A   1      39.803  28.080  32.031  1.00  0.00     0.031 C 
ATOM     16  C   UNL A   1      40.073  27.378  27.243  1.00  0.00     0.029 A 
ATOM     17  N   UNL A   1      41.703  26.665  28.571  1.00  0.00    -0.354 N 
ATOM     18  C   UNL A   1      41.976  28.119  32.710  1.00  0.00     0.074 A 
ATOM     19  C   UNL A   1      40.590  28.126  33.100  1.00  0.00     0.031 C 
ATOM     20  C   UNL A   1      40.578  26.256  26.686  1.00  0.00     0.029 A 
ATOM     21  C   UNL A   1      41.611  25.721  27.557  1.00  0.00     0.049 A 
ATOM     22  H   UNL A   1      42.436  26.683  29.229  1.00  0.00     0.167 HD
ATOM     23  C   UNL A   1      43.053  27.734  33.440  1.00  0.00     0.031 A 
ATOM     24  C   UNL A   1      42.253  24.530  27.492  1.00  0.00     0.031 A 
ATOM     25  C   UNL A   1      44.302  28.028  32.805  1.00  0.00     0.049 A 
ATOM     26  C   UNL A   1      43.398  24.557  28.427  1.00  0.00     0.074 A 
ATOM     27  C   UNL A   1      44.958  29.185  32.443  1.00  0.00     0.029 A 
ATOM     28  N   UNL A   1      44.947  27.001  32.165  1.00  0.00    -0.354 N 
ATOM     29  N   UNL A   1      44.479  25.256  28.248  1.00  0.00    -0.248 NA
ATOM     30  C   UNL A   1      43.218  24.019  29.766  1.00  0.00     0.031 C 
ATOM     31  C   UNL A   1      45.709  28.848  31.282  1.00  0.00     0.029 A 
ATOM     32  C   UNL A   1      45.486  27.498  31.006  1.00  0.00     0.049 A 
ATOM     33  H   UNL A   1      45.012  26.071  32.483  1.00  0.00     0.167 HD
ATOM     34  C   UNL A   1      44.896  25.595  29.525  1.00  0.00     0.074 A 
ATOM     35  C   UNL A   1      44.175  24.689  30.410  1.00  0.00     0.031 C 
ATOM     36  C   UNL A   1      45.567  26.760  29.761  1.00  0.00     0.031 A 
BRANCH  23  37
ATOM     37  C   UNL A   1      42.910  26.791  34.603  1.00  0.00    -0.014 A 
ATOM     38  C   UNL A   1      43.080  25.397  34.461  1.00  0.00     0.009 A 
ATOM     39  C   UNL A   1      42.820  27.287  35.910  1.00  0.00     0.009 A 
ATOM     40  C   UNL A   1      43.091  24.529  35.552  1.00  0.00     0.001 A 
ATOM     41  C   UNL A   1      42.882  26.424  37.013  1.00  0.00     0.001 A 
ATOM     42  C   UNL A   1      43.005  25.048  36.834  1.00  0.00     0.000 A 
ENDBRANCH  23  37
BRANCH  24  43
ATOM     43  C   UNL A   1      41.758  23.258  26.916  1.00  0.00    -0.014 A 
ATOM     44  C   UNL A   1      40.427  22.851  27.126  1.00  0.00     0.009 A 
ATOM     45  C   UNL A   1      42.656  22.310  26.402  1.00  0.00     0.009 A 
ATOM     46  C   UNL A   1      40.016  21.541  26.867  1.00  0.00     0.001 A 
ATOM     47  C   UNL A   1      42.246  20.993  26.152  1.00  0.00     0.001 A 
ATOM     48  C   UNL A   1      40.931  20.606  26.398  1.00  0.00     0.000 A 
ENDBRANCH  24  43
BRANCH  36  49
ATOM     49  C   UNL A   1      46.169  27.489  28.582  1.00  0.00    -0.014 A 
ATOM     50  C   UNL A   1      47.546  27.349  28.345  1.00  0.00     0.009 A 
ATOM     51  C   UNL A   1      45.454  28.416  27.803  1.00  0.00     0.009 A 
ATOM     52  C   UNL A   1      48.191  28.113  27.368  1.00  0.00     0.001 A 
ATOM     53  C   UNL A   1      46.093  29.159  26.805  1.00  0.00     0.001 A 
ATOM     54  C   UNL A   1      47.462  29.014  26.595  1.00  0.00     0.000 A 
ENDBRANCH  36  49
ENDBRANCH  10  11
ENDBRANCH   3   5
ENDBRANCH   2   3
ENDBRANCH   1   2
BRANCH   1  55
ATOM     55  C   UNL A   1      33.857  34.193  29.652  1.00  0.00     0.275 C 
BRANCH  55  56
ATOM     56  O   UNL A   1      34.028  33.233  30.693  1.00  0.00    -0.458 OA
BRANCH  56  57
ATOM     57  C   UNL A   1      33.982  33.732  31.951  1.00  0.00     0.339 C 
ATOM     58  O   UNL A   1      33.259  34.604  32.370  1.00  0.00    -0.246 OA
BRANCH  57  59
ATOM     59  C   UNL A   1      35.110  33.144  32.689  1.00  0.00     0.078 A 
ATOM     60  C   UNL A   1      35.756  32.023  32.175  1.00  0.00     0.021 A 
ATOM     61  C   UNL A   1      35.487  33.612  33.940  1.00  0.00     0.129 A 
ATOM     62  C   UNL A   1      36.781  31.437  32.911  1.00  0.00     0.048 A 
ATOM     63  N   UNL A   1      36.475  33.052  34.681  1.00  0.00    -0.238 NA
ATOM     64  C   UNL A   1      37.149  32.010  34.128  1.00  0.00     0.138 A 
BRANCH  64  65
ATOM     65  N   UNL A   1      38.309  31.554  34.806  1.00  0.00    -0.283 N 
ATOM     66  C   UNL A   1      38.354  31.187  36.132  1.00  0.00     0.206 A 
ATOM     67  C   UNL A   1      39.614  31.514  34.335  1.00  0.00     0.074 A 
ATOM     68  N   UNL A   1      39.559  30.832  36.516  1.00  0.00    -0.236 NA
ATOM     69  C   UNL A   1      40.358  31.065  35.427  1.00  0.00     0.089 A 
ATOM     70  C   UNL A   1      40.229  31.906  33.133  1.00  0.00     0.029 A 
ATOM     71  C   UNL A   1      41.753  30.954  35.314  1.00  0.00     0.030 A 
ATOM     72  C   UNL A   1      41.619  31.800  33.044  1.00  0.00     0.002 A 
ATOM     73  C   UNL A   1      42.372  31.328  34.115  1.00  0.00     0.002 A 
ENDBRANCH  64  65
ENDBRANCH  57  59
ENDBRANCH  56  57
ENDBRANCH  55  56
ENDBRANCH   1  55
TORSDOF 12
ENDMDL
MODEL 3
REMARK VINA RESULT:     -10.4      5.269     11.194
REMARK SMILES O=C(OCCOC(=O)c1ccc(-n2cnc3ccccc32)nc1)c1ccc(-c2c3nc(c(-c4ccccc4)c4ccc([nH]4)c(-c4ccccc4)c4nc(c(-c5ccccc5)c5ccc2[nH]5)C=C4)C=C3)cc1
REMARK SMILES IDX 4 1 3 2 2 3 1 4 24 5 25 6 71 7 26 8 70 9 27 10 28 11 29 12
REMARK SMILES IDX 64 13 30 14 69 15 63 16 65 17 31 18 68 19 62 20 61 21 32 23
REMARK SMILES IDX 54 24 39 25 53 26 40 27 43 28 52 29 66 30 41 31 42 32 51 34
REMARK SMILES IDX 67 35 44 36 33 37 34 38 38 39 35 40 37 41 36 42 55 43 56 44
REMARK SMILES IDX 60 45 57 46 59 47 58 48 45 49 46 50 50 51 47 52 49 53 48 54
REMARK SMILES IDX 5 55 6 56 7 57 8 58 9 59 10 60 23 61 11 62 22 63 12 64 13 65
REMARK SMILES IDX 14 66 21 67 15 68 16 69 20 70 17 71 19 72 18 73
REMARK H PARENT 65 22 43 33
REMARK Flexibility Score: inf
ROOT
ATOM      1  C   UNL A   1      34.398  34.853  27.944  1.00  0.00     0.275 C 
ENDROOT
BRANCH   1   2
ATOM      2  O   UNL A   1      35.123  33.802  28.643  1.00  0.00    -0.458 OA
BRANCH   2   3
ATOM      3  C   UNL A   1      35.157  32.477  28.336  1.00  0.00     0.338 C 
ATOM      4  O   UNL A   1      34.297  31.934  27.658  1.00  0.00    -0.246 OA
BRANCH   3   5
ATOM      5  C   UNL A   1      36.208  31.677  28.982  1.00  0.00     0.060 A 
ATOM      6  C   UNL A   1      37.329  32.360  29.442  1.00  0.00     0.016 A 
ATOM      7  C   UNL A   1      36.177  30.281  28.943  1.00  0.00     0.016 A 
ATOM      8  C   UNL A   1      38.514  31.661  29.570  1.00  0.00     0.010 A 
ATOM      9  C   UNL A   1      37.365  29.580  29.088  1.00  0.00     0.010 A 
ATOM     10  C   UNL A   1      38.552  30.284  29.295  1.00  0.00    -0.014 A 
BRANCH  10  11
ATOM     11  C   UNL A   1      39.857  29.623  29.390  1.00  0.00     0.031 A 
ATOM     12  C   UNL A   1      40.333  29.436  30.789  1.00  0.00     0.074 A 
ATOM     13  C   UNL A   1      40.548  29.114  28.350  1.00  0.00     0.049 A 
ATOM     14  N   UNL A   1      41.470  29.763  31.313  1.00  0.00    -0.248 NA
ATOM     15  C   UNL A   1      39.339  28.918  31.747  1.00  0.00     0.031 C 
ATOM     16  C   UNL A   1      40.102  28.979  26.962  1.00  0.00     0.029 A 
ATOM     17  N   UNL A   1      41.760  28.478  28.352  1.00  0.00    -0.354 N 
ATOM     18  C   UNL A   1      41.386  29.357  32.642  1.00  0.00     0.074 A 
ATOM     19  C   UNL A   1      40.015  28.991  32.888  1.00  0.00     0.031 C 
ATOM     20  C   UNL A   1      40.900  28.093  26.327  1.00  0.00     0.029 A 
ATOM     21  C   UNL A   1      41.968  27.690  27.227  1.00  0.00     0.049 A 
ATOM     22  H   UNL A   1      42.419  28.570  29.078  1.00  0.00     0.167 HD
ATOM     23  C   UNL A   1      42.471  29.129  33.425  1.00  0.00     0.031 A 
ATOM     24  C   UNL A   1      42.880  26.699  27.084  1.00  0.00     0.031 A 
ATOM     25  C   UNL A   1      43.654  29.787  32.959  1.00  0.00     0.049 A 
ATOM     26  C   UNL A   1      43.917  26.855  28.126  1.00  0.00     0.074 A 
ATOM     27  C   UNL A   1      44.036  31.103  32.808  1.00  0.00     0.029 A 
ATOM     28  N   UNL A   1      44.569  29.035  32.269  1.00  0.00    -0.354 N 
ATOM     29  N   UNL A   1      44.808  27.801  28.143  1.00  0.00    -0.248 NA
ATOM     30  C   UNL A   1      43.779  26.107  29.365  1.00  0.00     0.031 C 
ATOM     31  C   UNL A   1      44.926  31.114  31.697  1.00  0.00     0.029 A 
ATOM     32  C   UNL A   1      45.053  29.802  31.239  1.00  0.00     0.049 A 
ATOM     33  H   UNL A   1      44.834  28.110  32.477  1.00  0.00     0.167 HD
ATOM     34  C   UNL A   1      45.042  28.043  29.487  1.00  0.00     0.074 A 
ATOM     35  C   UNL A   1      44.500  26.880  30.179  1.00  0.00     0.031 C 
ATOM     36  C   UNL A   1      45.395  29.284  29.928  1.00  0.00     0.031 A 
BRANCH  23  37
ATOM     37  C   UNL A   1      42.477  28.024  34.445  1.00  0.00    -0.014 A 
ATOM     38  C   UNL A   1      41.976  28.210  35.752  1.00  0.00     0.009 A 
ATOM     39  C   UNL A   1      42.780  26.710  34.065  1.00  0.00     0.009 A 
ATOM     40  C   UNL A   1      41.845  27.159  36.660  1.00  0.00     0.001 A 
ATOM     41  C   UNL A   1      42.602  25.643  34.957  1.00  0.00     0.001 A 
ATOM     42  C   UNL A   1      42.147  25.869  36.255  1.00  0.00     0.000 A 
ENDBRANCH  23  37
BRANCH  24  43
ATOM     43  C   UNL A   1      42.746  25.442  26.312  1.00  0.00    -0.014 A 
ATOM     44  C   UNL A   1      41.846  24.443  26.727  1.00  0.00     0.009 A 
ATOM     45  C   UNL A   1      43.695  25.100  25.334  1.00  0.00     0.009 A 
ATOM     46  C   UNL A   1      41.911  23.145  26.214  1.00  0.00     0.001 A 
ATOM     47  C   UNL A   1      43.767  23.795  24.829  1.00  0.00     0.001 A 
ATOM     48  C   UNL A   1      42.885  22.816  25.279  1.00  0.00     0.000 A 
ENDBRANCH  24  43
BRANCH  36  49
ATOM     49  C   UNL A   1      45.886  30.291  28.913  1.00  0.00    -0.014 A 
ATOM     50  C   UNL A   1      44.934  31.005  28.167  1.00  0.00     0.009 A 
ATOM     51  C   UNL A   1      47.242  30.440  28.571  1.00  0.00     0.009 A 
ATOM     52  C   UNL A   1      45.320  31.835  27.111  1.00  0.00     0.001 A 
ATOM     53  C   UNL A   1      47.631  31.294  27.534  1.00  0.00     0.001 A 
ATOM     54  C   UNL A   1      46.670  31.982  26.799  1.00  0.00     0.000 A 
ENDBRANCH  36  49
ENDBRANCH  10  11
ENDBRANCH   3   5
ENDBRANCH   2   3
ENDBRANCH   1   2
BRANCH   1  55
ATOM     55  C   UNL A   1      33.288  35.568  28.726  1.00  0.00     0.275 C 
BRANCH  55  56
ATOM     56  O   UNL A   1      32.961  34.861  29.921  1.00  0.00    -0.458 OA
BRANCH  56  57
ATOM     57  C   UNL A   1      32.955  35.608  31.050  1.00  0.00     0.339 C 
ATOM     58  O   UNL A   1      32.336  36.625  31.255  1.00  0.00    -0.246 OA
BRANCH  57  59
ATOM     59  C   UNL A   1      33.989  35.057  31.939  1.00  0.00     0.078 A 
ATOM     60  C   UNL A   1      34.187  33.679  31.988  1.00  0.00     0.021 A 
ATOM     61  C   UNL A   1      34.708  35.862  32.810  1.00  0.00     0.129 A 
ATOM     62  C   UNL A   1      35.125  33.163  32.877  1.00  0.00     0.048 A 
ATOM     63  N   UNL A   1      35.619  35.382  33.692  1.00  0.00    -0.238 NA
ATOM     64  C   UNL A   1      35.858  34.046  33.670  1.00  0.00     0.138 A 
BRANCH  64  65
ATOM     65  N   UNL A   1      36.948  33.568  34.441  1.00  0.00    -0.283 N 
ATOM     66  C   UNL A   1      36.960  33.471  35.815  1.00  0.00     0.206 A 
ATOM     67  C   UNL A   1      38.225  33.240  34.007  1.00  0.00     0.074 A 
ATOM     68  N   UNL A   1      38.105  33.025  36.280  1.00  0.00    -0.236 NA
ATOM     69  C   UNL A   1      38.912  32.913  35.177  1.00  0.00     0.089 A 
ATOM     70  C   UNL A   1      38.872  33.287  32.760  1.00  0.00     0.029 A 
ATOM     71  C   UNL A   1      40.273  32.576  35.109  1.00  0.00     0.030 A 
ATOM     72  C   UNL A   1      40.229  32.960  32.713  1.00  0.00     0.002 A 
ATOM     73  C   UNL A   1      40.922  32.606  33.868  1.00  0.00     0.002 A 
ENDBRANCH  64  65
ENDBRANCH  57  59
ENDBRANCH  56  57
ENDBRANCH  55  56
ENDBRANCH   1  55
TORSDOF 12
ENDMDL
