MODEL 1
REMARK VINA RESULT:     -10.7      0.000      0.000
REMARK SMILES O=C(OCCOC(=O)[C@H]1C=C[C@@H](NS(=O)(=O)c2ccc(Br)cc2)C1)c1ccc(-c2c3nc(c(-c4ccccc4)c4ccc([nH]4)c(-c4ccccc4)c4nc(c(-c5ccccc5)c5ccc2[nH]5)C=C4)C=C3)cc1
REMARK SMILES IDX 5 1 4 2 3 3 2 4 1 5 25 6 26 7 72 8 27 9 71 10 28 11 29 12
REMARK SMILES IDX 30 13 65 14 31 15 70 16 64 17 66 18 32 19 69 20 63 21 62 22
REMARK SMILES IDX 33 24 55 25 40 26 54 27 41 28 44 29 53 30 67 31 42 32 43 33
REMARK SMILES IDX 52 35 68 36 45 37 34 38 35 39 39 40 36 41 38 42 37 43 56 44
REMARK SMILES IDX 57 45 61 46 58 47 60 48 59 49 46 50 47 51 51 52 48 53 50 54
REMARK SMILES IDX 49 55 6 56 7 57 8 58 9 59 10 60 24 61 11 62 12 63 13 64
REMARK SMILES IDX 14 66 15 67 16 68 17 69 18 70 23 71 19 72 22 73 20 74 21 75
REMARK H PARENT 66 23 44 34 13 65
REMARK Flexibility Score: inf
ROOT
ATOM      1  C   UNL A   1      32.087  31.041  26.478  1.00  0.00     0.274 C 
ENDROOT
BRANCH   1   2
ATOM      2  C   UNL A   1      31.404  32.317  26.969  1.00  0.00     0.275 C 
BRANCH   2   3
ATOM      3  O   UNL A   1      32.249  33.481  26.968  1.00  0.00    -0.458 OA
BRANCH   3   4
ATOM      4  C   UNL A   1      32.973  34.013  27.981  1.00  0.00     0.338 C 
ATOM      5  O   UNL A   1      32.675  35.130  28.401  1.00  0.00    -0.246 OA
BRANCH   4   6
ATOM      6  C   UNL A   1      34.224  33.392  28.519  1.00  0.00     0.060 A 
ATOM      7  C   UNL A   1      35.531  33.754  28.186  1.00  0.00     0.016 A 
ATOM      8  C   UNL A   1      34.046  32.319  29.415  1.00  0.00     0.016 A 
ATOM      9  C   UNL A   1      36.630  33.122  28.787  1.00  0.00     0.010 A 
ATOM     10  C   UNL A   1      35.140  31.700  30.032  1.00  0.00     0.010 A 
ATOM     11  C   UNL A   1      36.447  32.098  29.721  1.00  0.00    -0.014 A 
BRANCH  11  12
ATOM     12  C   UNL A   1      37.614  31.361  30.268  1.00  0.00     0.031 A 
ATOM     13  C   UNL A   1      38.077  31.661  31.665  1.00  0.00     0.074 A 
ATOM     14  C   UNL A   1      38.253  30.416  29.551  1.00  0.00     0.049 A 
ATOM     15  N   UNL A   1      39.049  31.114  32.348  1.00  0.00    -0.248 NA
ATOM     16  C   UNL A   1      37.335  32.701  32.398  1.00  0.00     0.031 C 
ATOM     17  C   UNL A   1      37.910  29.994  28.194  1.00  0.00     0.029 A 
ATOM     18  N   UNL A   1      39.360  29.663  29.865  1.00  0.00    -0.354 N 
ATOM     19  C   UNL A   1      38.991  31.694  33.606  1.00  0.00     0.074 A 
ATOM     20  C   UNL A   1      37.968  32.716  33.558  1.00  0.00     0.031 C 
ATOM     21  C   UNL A   1      38.826  29.104  27.770  1.00  0.00     0.029 A 
ATOM     22  C   UNL A   1      39.829  28.918  28.809  1.00  0.00     0.049 A 
ATOM     23  H   UNL A   1      39.775  29.658  30.757  1.00  0.00     0.167 HD
ATOM     24  C   UNL A   1      39.671  31.361  34.727  1.00  0.00     0.031 A 
ATOM     25  C   UNL A   1      40.962  28.201  28.683  1.00  0.00     0.031 A 
ATOM     26  C   UNL A   1      40.708  30.371  34.785  1.00  0.00     0.049 A 
ATOM     27  C   UNL A   1      41.857  28.018  29.874  1.00  0.00     0.074 A 
ATOM     28  C   UNL A   1      41.415  29.916  35.884  1.00  0.00     0.029 A 
ATOM     29  N   UNL A   1      41.203  29.698  33.680  1.00  0.00    -0.354 N 
ATOM     30  N   UNL A   1      41.727  28.500  31.086  1.00  0.00    -0.248 NA
ATOM     31  C   UNL A   1      43.023  27.140  29.693  1.00  0.00     0.031 C 
ATOM     32  C   UNL A   1      42.365  28.989  35.436  1.00  0.00     0.029 A 
ATOM     33  C   UNL A   1      42.224  28.847  34.065  1.00  0.00     0.049 A 
ATOM     34  H   UNL A   1      40.877  29.810  32.758  1.00  0.00     0.167 HD
ATOM     35  C   UNL A   1      42.739  27.911  31.832  1.00  0.00     0.074 A 
ATOM     36  C   UNL A   1      43.508  27.083  30.926  1.00  0.00     0.031 C 
ATOM     37  C   UNL A   1      42.971  28.011  33.163  1.00  0.00     0.031 A 
BRANCH  24  38
ATOM     38  C   UNL A   1      39.252  32.066  35.982  1.00  0.00    -0.014 A 
ATOM     39  C   UNL A   1      40.011  33.144  36.471  1.00  0.00     0.009 A 
ATOM     40  C   UNL A   1      38.142  31.624  36.713  1.00  0.00     0.009 A 
ATOM     41  C   UNL A   1      39.698  33.731  37.696  1.00  0.00     0.001 A 
ATOM     42  C   UNL A   1      37.818  32.230  37.928  1.00  0.00     0.001 A 
ATOM     43  C   UNL A   1      38.603  33.272  38.425  1.00  0.00     0.000 A 
ENDBRANCH  24  38
BRANCH  25  44
ATOM     44  C   UNL A   1      41.350  27.602  27.382  1.00  0.00    -0.014 A 
ATOM     45  C   UNL A   1      40.991  26.287  27.053  1.00  0.00     0.009 A 
ATOM     46  C   UNL A   1      42.161  28.330  26.498  1.00  0.00     0.009 A 
ATOM     47  C   UNL A   1      41.458  25.706  25.871  1.00  0.00     0.001 A 
ATOM     48  C   UNL A   1      42.617  27.748  25.314  1.00  0.00     0.001 A 
ATOM     49  C   UNL A   1      42.272  26.435  25.005  1.00  0.00     0.000 A 
ENDBRANCH  25  44
BRANCH  37  50
ATOM     50  C   UNL A   1      44.024  27.113  33.738  1.00  0.00    -0.014 A 
ATOM     51  C   UNL A   1      43.726  25.824  34.201  1.00  0.00     0.009 A 
ATOM     52  C   UNL A   1      45.349  27.574  33.796  1.00  0.00     0.009 A 
ATOM     53  C   UNL A   1      44.736  25.023  34.736  1.00  0.00     0.001 A 
ATOM     54  C   UNL A   1      46.358  26.762  34.310  1.00  0.00     0.001 A 
ATOM     55  C   UNL A   1      46.050  25.489  34.786  1.00  0.00     0.000 A 
ENDBRANCH  37  50
ENDBRANCH  11  12
ENDBRANCH   4   6
ENDBRANCH   3   4
ENDBRANCH   2   3
ENDBRANCH   1   2
BRANCH   1  56
ATOM     56  O   UNL A   1      32.198  30.055  27.513  1.00  0.00    -0.462 OA
BRANCH  56  57
ATOM     57  C   UNL A   1      31.896  28.772  27.160  1.00  0.00     0.312 C 
ATOM     58  O   UNL A   1      31.306  27.971  27.877  1.00  0.00    -0.252 OA
BRANCH  57  59
ATOM     59  C   UNL A   1      32.330  28.433  25.734  1.00  0.00     0.123 C 
ATOM     60  C   UNL A   1      33.673  27.799  25.624  1.00  0.00    -0.015 C 
ATOM     61  C   UNL A   1      31.445  27.347  25.103  1.00  0.00     0.043 C 
ATOM     62  C   UNL A   1      33.694  26.750  24.805  1.00  0.00    -0.011 C 
ATOM     63  C   UNL A   1      32.363  26.493  24.199  1.00  0.00     0.093 C 
BRANCH  63  64
ATOM     64  N   UNL A   1      31.966  25.100  24.255  1.00  0.00    -0.204 NA
ATOM     65  H   UNL A   1      30.946  25.112  24.229  1.00  0.00     0.142 HD
BRANCH  64  66
ATOM     66  S   UNL A   1      32.416  23.911  23.182  1.00  0.00     0.241 S 
ATOM     67  O   UNL A   1      31.389  22.899  23.115  1.00  0.00    -0.207 OA
ATOM     68  O   UNL A   1      32.839  24.623  21.999  1.00  0.00    -0.207 OA
BRANCH  66  69
ATOM     69  C   UNL A   1      33.837  23.107  23.871  1.00  0.00     0.082 A 
ATOM     70  C   UNL A   1      33.666  21.909  24.577  1.00  0.00     0.023 A 
ATOM     71  C   UNL A   1      35.116  23.537  23.509  1.00  0.00     0.023 A 
ATOM     72  C   UNL A   1      34.779  21.153  24.944  1.00  0.00     0.017 A 
ATOM     73  C   UNL A   1      36.228  22.768  23.863  1.00  0.00     0.017 A 
ATOM     74  C   UNL A   1      36.054  21.581  24.577  1.00  0.00     0.018 A 
ATOM     75  Br  UNL A   1      37.556  20.519  25.008  1.00  0.00    -0.051 Br
ENDBRANCH  66  69
ENDBRANCH  64  66
ENDBRANCH  63  64
ENDBRANCH  57  59
ENDBRANCH  56  57
ENDBRANCH   1  56
TORSDOF 14
ENDMDL
MODEL 2
REMARK VINA RESULT:     -10.7      4.120      6.776
REMARK SMILES O=C(OCCOC(=O)[C@H]1C=C[C@@H](NS(=O)(=O)c2ccc(Br)cc2)C1)c1ccc(-c2c3nc(c(-c4ccccc4)c4ccc([nH]4)c(-c4ccccc4)c4nc(c(-c5ccccc5)c5ccc2[nH]5)C=C4)C=C3)cc1
REMARK SMILES IDX 5 1 4 2 3 3 2 4 1 5 25 6 26 7 72 8 27 9 71 10 28 11 29 12
REMARK SMILES IDX 30 13 65 14 31 15 70 16 64 17 66 18 32 19 69 20 63 21 62 22
REMARK SMILES IDX 33 24 55 25 40 26 54 27 41 28 44 29 53 30 67 31 42 32 43 33
REMARK SMILES IDX 52 35 68 36 45 37 34 38 35 39 39 40 36 41 38 42 37 43 56 44
REMARK SMILES IDX 57 45 61 46 58 47 60 48 59 49 46 50 47 51 51 52 48 53 50 54
REMARK SMILES IDX 49 55 6 56 7 57 8 58 9 59 10 60 24 61 11 62 12 63 13 64
REMARK SMILES IDX 14 66 15 67 16 68 17 69 18 70 23 71 19 72 22 73 20 74 21 75
REMARK H PARENT 66 23 44 34 13 65
REMARK Flexibility Score: inf
ROOT
ATOM      1  C   UNL A   1      34.301  33.523  31.286  1.00  0.00     0.274 C 
ENDROOT
BRANCH   1   2
ATOM      2  C   UNL A   1      34.613  32.707  32.539  1.00  0.00     0.275 C 
BRANCH   2   3
ATOM      3  O   UNL A   1      35.744  33.183  33.292  1.00  0.00    -0.458 OA
BRANCH   3   4
ATOM      4  C   UNL A   1      36.786  32.486  33.803  1.00  0.00     0.338 C 
ATOM      5  O   UNL A   1      36.941  32.459  35.023  1.00  0.00    -0.246 OA
BRANCH   4   6
ATOM      6  C   UNL A   1      37.864  31.876  32.963  1.00  0.00     0.060 A 
ATOM      7  C   UNL A   1      39.011  31.235  33.436  1.00  0.00     0.016 A 
ATOM      8  C   UNL A   1      37.708  32.004  31.569  1.00  0.00     0.016 A 
ATOM      9  C   UNL A   1      39.937  30.665  32.549  1.00  0.00     0.010 A 
ATOM     10  C   UNL A   1      38.620  31.419  30.680  1.00  0.00     0.010 A 
ATOM     11  C   UNL A   1      39.747  30.742  31.165  1.00  0.00    -0.014 A 
BRANCH  11  12
ATOM     12  C   UNL A   1      40.786  30.235  30.234  1.00  0.00     0.031 A 
ATOM     13  C   UNL A   1      41.904  31.150  29.821  1.00  0.00     0.074 A 
ATOM     14  C   UNL A   1      40.763  28.971  29.769  1.00  0.00     0.049 A 
ATOM     15  N   UNL A   1      42.929  30.902  29.046  1.00  0.00    -0.248 NA
ATOM     16  C   UNL A   1      41.875  32.517  30.367  1.00  0.00     0.031 C 
ATOM     17  C   UNL A   1      39.761  27.958  30.096  1.00  0.00     0.029 A 
ATOM     18  N   UNL A   1      41.601  28.338  28.882  1.00  0.00    -0.354 N 
ATOM     19  C   UNL A   1      43.697  32.057  29.068  1.00  0.00     0.074 A 
ATOM     20  C   UNL A   1      42.965  33.042  29.833  1.00  0.00     0.031 C 
ATOM     21  C   UNL A   1      40.007  26.852  29.370  1.00  0.00     0.029 A 
ATOM     22  C   UNL A   1      41.160  27.089  28.512  1.00  0.00     0.049 A 
ATOM     23  H   UNL A   1      42.434  28.738  28.545  1.00  0.00     0.167 HD
ATOM     24  C   UNL A   1      44.935  32.262  28.563  1.00  0.00     0.031 A 
ATOM     25  C   UNL A   1      41.612  26.251  27.560  1.00  0.00     0.031 A 
ATOM     26  C   UNL A   1      45.662  31.307  27.778  1.00  0.00     0.049 A 
ATOM     27  C   UNL A   1      42.873  26.587  26.819  1.00  0.00     0.074 A 
ATOM     28  C   UNL A   1      46.947  31.394  27.272  1.00  0.00     0.029 A 
ATOM     29  N   UNL A   1      45.149  30.088  27.364  1.00  0.00    -0.354 N 
ATOM     30  N   UNL A   1      43.638  27.645  26.927  1.00  0.00    -0.248 NA
ATOM     31  C   UNL A   1      43.365  25.580  25.865  1.00  0.00     0.031 C 
ATOM     32  C   UNL A   1      47.198  30.239  26.520  1.00  0.00     0.029 A 
ATOM     33  C   UNL A   1      46.081  29.423  26.588  1.00  0.00     0.049 A 
ATOM     34  H   UNL A   1      44.253  29.748  27.588  1.00  0.00     0.167 HD
ATOM     35  C   UNL A   1      44.744  27.390  26.129  1.00  0.00     0.074 A 
ATOM     36  C   UNL A   1      44.524  26.106  25.497  1.00  0.00     0.031 C 
ATOM     37  C   UNL A   1      45.865  28.137  25.979  1.00  0.00     0.031 A 
BRANCH  24  38
ATOM     38  C   UNL A   1      45.574  33.574  28.908  1.00  0.00    -0.014 A 
ATOM     39  C   UNL A   1      45.346  34.702  28.100  1.00  0.00     0.009 A 
ATOM     40  C   UNL A   1      46.450  33.679  29.995  1.00  0.00     0.009 A 
ATOM     41  C   UNL A   1      46.024  35.895  28.342  1.00  0.00     0.001 A 
ATOM     42  C   UNL A   1      47.111  34.881  30.249  1.00  0.00     0.001 A 
ATOM     43  C   UNL A   1      46.909  35.983  29.416  1.00  0.00     0.000 A 
ENDBRANCH  24  38
BRANCH  25  44
ATOM     44  C   UNL A   1      40.875  25.008  27.219  1.00  0.00    -0.014 A 
ATOM     45  C   UNL A   1      39.707  25.047  26.446  1.00  0.00     0.009 A 
ATOM     46  C   UNL A   1      41.303  23.782  27.749  1.00  0.00     0.009 A 
ATOM     47  C   UNL A   1      38.969  23.880  26.229  1.00  0.00     0.001 A 
ATOM     48  C   UNL A   1      40.568  22.617  27.521  1.00  0.00     0.001 A 
ATOM     49  C   UNL A   1      39.399  22.668  26.767  1.00  0.00     0.000 A 
ENDBRANCH  25  44
BRANCH  37  50
ATOM     50  C   UNL A   1      46.988  27.526  25.197  1.00  0.00    -0.014 A 
ATOM     51  C   UNL A   1      47.890  26.625  25.776  1.00  0.00     0.009 A 
ATOM     52  C   UNL A   1      47.124  27.858  23.839  1.00  0.00     0.009 A 
ATOM     53  C   UNL A   1      48.927  26.085  25.013  1.00  0.00     0.001 A 
ATOM     54  C   UNL A   1      48.146  27.298  23.074  1.00  0.00     0.001 A 
ATOM     55  C   UNL A   1      49.052  26.417  23.663  1.00  0.00     0.000 A 
ENDBRANCH  37  50
ENDBRANCH  11  12
ENDBRANCH   4   6
ENDBRANCH   3   4
ENDBRANCH   2   3
ENDBRANCH   1   2
BRANCH   1  56
ATOM     56  O   UNL A   1      34.352  32.725  30.095  1.00  0.00    -0.462 OA
BRANCH  56  57
ATOM     57  C   UNL A   1      35.254  33.113  29.147  1.00  0.00     0.312 C 
ATOM     58  O   UNL A   1      35.985  34.092  29.238  1.00  0.00    -0.252 OA
BRANCH  57  59
ATOM     59  C   UNL A   1      35.302  32.161  27.952  1.00  0.00     0.123 C 
ATOM     60  C   UNL A   1      36.251  31.023  28.099  1.00  0.00    -0.015 C 
ATOM     61  C   UNL A   1      33.976  31.410  27.757  1.00  0.00     0.043 C 
ATOM     62  C   UNL A   1      35.733  29.855  27.726  1.00  0.00    -0.011 C 
ATOM     63  C   UNL A   1      34.336  29.997  27.243  1.00  0.00     0.093 C 
BRANCH  63  64
ATOM     64  N   UNL A   1      33.431  29.014  27.806  1.00  0.00    -0.204 NA
ATOM     65  H   UNL A   1      33.051  29.451  28.646  1.00  0.00     0.142 HD
BRANCH  64  66
ATOM     66  S   UNL A   1      32.121  28.336  27.036  1.00  0.00     0.241 S 
ATOM     67  O   UNL A   1      31.098  28.016  28.002  1.00  0.00    -0.207 OA
ATOM     68  O   UNL A   1      31.848  29.220  25.927  1.00  0.00    -0.207 OA
BRANCH  66  69
ATOM     69  C   UNL A   1      32.659  26.782  26.375  1.00  0.00     0.082 A 
ATOM     70  C   UNL A   1      31.775  25.696  26.384  1.00  0.00     0.023 A 
ATOM     71  C   UNL A   1      33.850  26.718  25.648  1.00  0.00     0.023 A 
ATOM     72  C   UNL A   1      32.096  24.532  25.686  1.00  0.00     0.017 A 
ATOM     73  C   UNL A   1      34.160  25.557  24.935  1.00  0.00     0.017 A 
ATOM     74  C   UNL A   1      33.283  24.472  24.957  1.00  0.00     0.018 A 
ATOM     75  Br  UNL A   1      33.681  22.923  23.949  1.00  0.00    -0.051 Br
ENDBRANCH  66  69
ENDBRANCH  64  66
ENDBRANCH  63  64
ENDBRANCH  57  59
ENDBRANCH  56  57
ENDBRANCH   1  56
TORSDOF 14
ENDMDL
MODEL 3
REMARK VINA RESULT:     -10.6      5.441     10.520
REMARK SMILES O=C(OCCOC(=O)[C@H]1C=C[C@@H](NS(=O)(=O)c2ccc(Br)cc2)C1)c1ccc(-c2c3nc(c(-c4ccccc4)c4ccc([nH]4)c(-c4ccccc4)c4nc(c(-c5ccccc5)c5ccc2[nH]5)C=C4)C=C3)cc1
REMARK SMILES IDX 5 1 4 2 3 3 2 4 1 5 25 6 26 7 72 8 27 9 71 10 28 11 29 12
REMARK SMILES IDX 30 13 65 14 31 15 70 16 64 17 66 18 32 19 69 20 63 21 62 22
REMARK SMILES IDX 33 24 55 25 40 26 54 27 41 28 44 29 53 30 67 31 42 32 43 33
REMARK SMILES IDX 52 35 68 36 45 37 34 38 35 39 39 40 36 41 38 42 37 43 56 44
REMARK SMILES IDX 57 45 61 46 58 47 60 48 59 49 46 50 47 51 51 52 48 53 50 54
REMARK SMILES IDX 49 55 6 56 7 57 8 58 9 59 10 60 24 61 11 62 12 63 13 64
REMARK SMILES IDX 14 66 15 67 16 68 17 69 18 70 23 71 19 72 22 73 20 74 21 75
REMARK H PARENT 66 23 44 34 13 65
REMARK Flexibility Score: inf
ROOT
ATOM      1  C   UNL A   1      42.449  21.744  26.365  1.00  0.00     0.274 C 
ENDROOT
BRANCH   1   2
ATOM      2  C   UNL A   1      41.064  21.146  26.614  1.00  0.00     0.275 C 
BRANCH   2   3
ATOM      3  O   UNL A   1      40.006  21.763  25.857  1.00  0.00    -0.458 OA
BRANCH   3   4
ATOM      4  C   UNL A   1      39.111  22.700  26.247  1.00  0.00     0.338 C 
ATOM      5  O   UNL A   1      37.915  22.500  26.040  1.00  0.00    -0.246 OA
BRANCH   4   6
ATOM      6  C   UNL A   1      39.497  24.047  26.771  1.00  0.00     0.060 A 
ATOM      7  C   UNL A   1      40.273  24.997  26.105  1.00  0.00     0.016 A 
ATOM      8  C   UNL A   1      39.059  24.351  28.076  1.00  0.00     0.016 A 
ATOM      9  C   UNL A   1      40.539  26.247  26.685  1.00  0.00     0.010 A 
ATOM     10  C   UNL A   1      39.305  25.606  28.650  1.00  0.00     0.010 A 
ATOM     11  C   UNL A   1      40.052  26.568  27.956  1.00  0.00    -0.014 A 
BRANCH  11  12
ATOM     12  C   UNL A   1      40.430  27.847  28.607  1.00  0.00     0.031 A 
ATOM     13  C   UNL A   1      41.794  27.976  29.224  1.00  0.00     0.074 A 
ATOM     14  C   UNL A   1      39.591  28.900  28.637  1.00  0.00     0.049 A 
ATOM     15  N   UNL A   1      42.339  29.010  29.811  1.00  0.00    -0.248 NA
ATOM     16  C   UNL A   1      42.665  26.791  29.153  1.00  0.00     0.031 C 
ATOM     17  C   UNL A   1      38.247  28.940  28.062  1.00  0.00     0.029 A 
ATOM     18  N   UNL A   1      39.743  30.138  29.217  1.00  0.00    -0.354 N 
ATOM     19  C   UNL A   1      43.634  28.621  30.117  1.00  0.00     0.074 A 
ATOM     20  C   UNL A   1      43.757  27.225  29.760  1.00  0.00     0.031 C 
ATOM     21  C   UNL A   1      37.675  30.118  28.373  1.00  0.00     0.029 A 
ATOM     22  C   UNL A   1      38.597  30.897  29.189  1.00  0.00     0.049 A 
ATOM     23  H   UNL A   1      40.588  30.449  29.614  1.00  0.00     0.167 HD
ATOM     24  C   UNL A   1      44.658  29.372  30.584  1.00  0.00     0.031 A 
ATOM     25  C   UNL A   1      38.312  32.068  29.788  1.00  0.00     0.031 A 
ATOM     26  C   UNL A   1      44.547  30.749  30.971  1.00  0.00     0.049 A 
ATOM     27  C   UNL A   1      39.395  32.807  30.519  1.00  0.00     0.074 A 
ATOM     28  C   UNL A   1      45.537  31.616  31.397  1.00  0.00     0.029 A 
ATOM     29  N   UNL A   1      43.355  31.455  30.999  1.00  0.00    -0.354 N 
ATOM     30  N   UNL A   1      40.644  32.462  30.713  1.00  0.00    -0.248 NA
ATOM     31  C   UNL A   1      39.041  34.128  31.063  1.00  0.00     0.031 C 
ATOM     32  C   UNL A   1      44.935  32.840  31.718  1.00  0.00     0.029 A 
ATOM     33  C   UNL A   1      43.578  32.740  31.458  1.00  0.00     0.049 A 
ATOM     34  H   UNL A   1      42.478  31.094  30.732  1.00  0.00     0.167 HD
ATOM     35  C   UNL A   1      41.246  33.558  31.315  1.00  0.00     0.074 A 
ATOM     36  C   UNL A   1      40.214  34.555  31.509  1.00  0.00     0.031 C 
ATOM     37  C   UNL A   1      42.552  33.734  31.629  1.00  0.00     0.031 A 
BRANCH  24  38
ATOM     38  C   UNL A   1      45.994  28.694  30.645  1.00  0.00    -0.014 A 
ATOM     39  C   UNL A   1      46.414  28.070  31.833  1.00  0.00     0.009 A 
ATOM     40  C   UNL A   1      46.862  28.726  29.547  1.00  0.00     0.009 A 
ATOM     41  C   UNL A   1      47.698  27.539  31.938  1.00  0.00     0.001 A 
ATOM     42  C   UNL A   1      48.139  28.173  29.647  1.00  0.00     0.001 A 
ATOM     43  C   UNL A   1      48.561  27.593  30.845  1.00  0.00     0.000 A 
ENDBRANCH  24  38
BRANCH  25  44
ATOM     44  C   UNL A   1      36.940  32.635  29.753  1.00  0.00    -0.014 A 
ATOM     45  C   UNL A   1      36.554  33.538  28.753  1.00  0.00     0.009 A 
ATOM     46  C   UNL A   1      36.038  32.331  30.783  1.00  0.00     0.009 A 
ATOM     47  C   UNL A   1      35.296  34.143  28.799  1.00  0.00     0.001 A 
ATOM     48  C   UNL A   1      34.777  32.930  30.820  1.00  0.00     0.001 A 
ATOM     49  C   UNL A   1      34.410  33.840  29.833  1.00  0.00     0.000 A 
ENDBRANCH  25  44
BRANCH  37  50
ATOM     50  C   UNL A   1      42.958  35.098  32.100  1.00  0.00    -0.014 A 
ATOM     51  C   UNL A   1      42.842  35.484  33.442  1.00  0.00     0.009 A 
ATOM     52  C   UNL A   1      43.487  36.005  31.168  1.00  0.00     0.009 A 
ATOM     53  C   UNL A   1      43.226  36.767  33.837  1.00  0.00     0.001 A 
ATOM     54  C   UNL A   1      43.892  37.277  31.571  1.00  0.00     0.001 A 
ATOM     55  C   UNL A   1      43.754  37.660  32.903  1.00  0.00     0.000 A 
ENDBRANCH  37  50
ENDBRANCH  11  12
ENDBRANCH   4   6
ENDBRANCH   3   4
ENDBRANCH   2   3
ENDBRANCH   1   2
BRANCH   1  56
ATOM     56  O   UNL A   1      42.625  22.149  25.001  1.00  0.00    -0.462 OA
BRANCH  56  57
ATOM     57  C   UNL A   1      43.815  22.746  24.697  1.00  0.00     0.312 C 
ATOM     58  O   UNL A   1      44.415  22.605  23.638  1.00  0.00    -0.252 OA
BRANCH  57  59
ATOM     59  C   UNL A   1      44.316  23.666  25.809  1.00  0.00     0.123 C 
ATOM     60  C   UNL A   1      45.798  23.775  25.909  1.00  0.00    -0.015 C 
ATOM     61  C   UNL A   1      43.933  25.133  25.563  1.00  0.00     0.043 C 
ATOM     62  C   UNL A   1      46.224  25.027  26.059  1.00  0.00    -0.011 C 
ATOM     63  C   UNL A   1      45.098  25.994  26.102  1.00  0.00     0.093 C 
BRANCH  63  64
ATOM     64  N   UNL A   1      45.302  27.151  25.252  1.00  0.00    -0.204 NA
ATOM     65  H   UNL A   1      44.443  27.696  25.334  1.00  0.00     0.142 HD
BRANCH  64  66
ATOM     66  S   UNL A   1      46.536  28.258  25.385  1.00  0.00     0.241 S 
ATOM     67  O   UNL A   1      47.604  27.705  26.184  1.00  0.00    -0.207 OA
ATOM     68  O   UNL A   1      46.774  28.708  24.034  1.00  0.00    -0.207 OA
BRANCH  66  69
ATOM     69  C   UNL A   1      45.902  29.627  26.313  1.00  0.00     0.082 A 
ATOM     70  C   UNL A   1      46.712  30.754  26.504  1.00  0.00     0.023 A 
ATOM     71  C   UNL A   1      44.544  29.671  26.637  1.00  0.00     0.023 A 
ATOM     72  C   UNL A   1      46.168  31.919  27.044  1.00  0.00     0.017 A 
ATOM     73  C   UNL A   1      43.997  30.845  27.161  1.00  0.00     0.017 A 
ATOM     74  C   UNL A   1      44.811  31.962  27.361  1.00  0.00     0.018 A 
ATOM     75  Br  UNL A   1      44.057  33.564  28.022  1.00  0.00    -0.051 Br
ENDBRANCH  66  69
ENDBRANCH  64  66
ENDBRANCH  63  64
ENDBRANCH  57  59
ENDBRANCH  56  57
ENDBRANCH   1  56
TORSDOF 14
ENDMDL
