MODEL 1
REMARK VINA RESULT:     -11.1      0.000      0.000
REMARK SMILES C[C@@H](C(=O)OCCOC(=O)c1ccc(-c2c3nc(c(-c4ccccc4)c4ccc([nH]4)c(-c4ccccc4)c4nc(c(-c5ccccc5)c5ccc2[nH]5)C=C4)C=C3)cc1)c1cccc(C(=O)c2ccccc2)c1
REMARK SMILES IDX 6 1 5 2 3 3 4 4 2 5 1 6 59 7 60 8 72 9 61 10 63 11 62 12
REMARK SMILES IDX 64 13 65 14 66 15 67 16 71 17 68 18 70 19 69 20 7 21 8 22
REMARK SMILES IDX 9 23 10 24 11 25 12 26 58 27 13 28 57 29 14 30 15 31 16 32
REMARK SMILES IDX 51 33 17 34 56 35 50 36 52 37 18 38 55 39 49 40 48 41 19 43
REMARK SMILES IDX 41 44 26 45 40 46 27 47 30 48 39 49 53 50 28 51 29 52 38 54
REMARK SMILES IDX 54 55 31 56 20 57 21 58 25 59 22 60 24 61 23 62 42 63 43 64
REMARK SMILES IDX 47 65 44 66 46 67 45 68 32 69 33 70 37 71 34 72 36 73 35 74
REMARK H PARENT 52 42 30 53
REMARK Flexibility Score: inf
ROOT
ATOM      1  C   UNL A   1      43.749  21.555  25.344  1.00  0.00     0.274 C 
ENDROOT
BRANCH   1   2
ATOM      2  O   UNL A   1      42.319  21.674  25.480  1.00  0.00    -0.462 OA
BRANCH   2   3
ATOM      3  C   UNL A   1      41.799  21.443  26.715  1.00  0.00     0.313 C 
ATOM      4  O   UNL A   1      42.392  21.668  27.765  1.00  0.00    -0.252 OA
BRANCH   3   5
ATOM      5  C   UNL A   1      40.397  20.829  26.659  1.00  0.00     0.126 C 
ATOM      6  C   UNL A   1      40.293  19.585  25.772  1.00  0.00     0.025 C 
BRANCH   5   7
ATOM      7  C   UNL A   1      39.344  21.881  26.321  1.00  0.00    -0.033 A 
ATOM      8  C   UNL A   1      39.421  23.148  26.925  1.00  0.00     0.004 A 
ATOM      9  C   UNL A   1      38.336  21.651  25.368  1.00  0.00     0.016 A 
ATOM     10  C   UNL A   1      38.508  24.153  26.603  1.00  0.00     0.001 A 
ATOM     11  C   UNL A   1      37.418  22.660  25.038  1.00  0.00     0.023 A 
ATOM     12  C   UNL A   1      37.507  23.909  25.665  1.00  0.00     0.012 A 
BRANCH  11  13
ATOM     13  C   UNL A   1      36.396  22.483  23.970  1.00  0.00     0.193 C 
ATOM     14  O   UNL A   1      36.640  22.786  22.806  1.00  0.00    -0.289 OA
BRANCH  13  15
ATOM     15  C   UNL A   1      35.077  21.907  24.269  1.00  0.00     0.022 A 
ATOM     16  C   UNL A   1      35.006  20.693  24.955  1.00  0.00     0.012 A 
ATOM     17  C   UNL A   1      33.918  22.547  23.829  1.00  0.00     0.012 A 
ATOM     18  C   UNL A   1      33.765  20.111  25.206  1.00  0.00     0.001 A 
ATOM     19  C   UNL A   1      32.678  21.963  24.086  1.00  0.00     0.001 A 
ATOM     20  C   UNL A   1      32.602  20.746  24.770  1.00  0.00     0.000 A 
ENDBRANCH  13  15
ENDBRANCH  11  13
ENDBRANCH   5   7
ENDBRANCH   3   5
ENDBRANCH   2   3
ENDBRANCH   1   2
BRANCH   1  21
ATOM     21  C   UNL A   1      44.285  22.606  24.376  1.00  0.00     0.275 C 
BRANCH  21  22
ATOM     22  O   UNL A   1      43.570  23.842  24.556  1.00  0.00    -0.458 OA
BRANCH  22  23
ATOM     23  C   UNL A   1      44.305  24.888  24.993  1.00  0.00     0.338 C 
ATOM     24  O   UNL A   1      45.435  25.196  24.665  1.00  0.00    -0.246 OA
BRANCH  23  25
ATOM     25  C   UNL A   1      43.525  25.668  25.966  1.00  0.00     0.060 A 
ATOM     26  C   UNL A   1      43.863  26.998  26.201  1.00  0.00     0.016 A 
ATOM     27  C   UNL A   1      42.570  25.032  26.762  1.00  0.00     0.016 A 
ATOM     28  C   UNL A   1      43.320  27.662  27.300  1.00  0.00     0.010 A 
ATOM     29  C   UNL A   1      41.967  25.731  27.815  1.00  0.00     0.010 A 
ATOM     30  C   UNL A   1      42.369  27.041  28.127  1.00  0.00    -0.014 A 
BRANCH  30  31
ATOM     31  C   UNL A   1      41.844  27.754  29.328  1.00  0.00     0.031 A 
ATOM     32  C   UNL A   1      40.572  28.564  29.258  1.00  0.00     0.074 A 
ATOM     33  C   UNL A   1      42.471  27.634  30.515  1.00  0.00     0.049 A 
ATOM     34  N   UNL A   1      40.012  29.315  30.176  1.00  0.00    -0.248 NA
ATOM     35  C   UNL A   1      39.834  28.528  27.990  1.00  0.00     0.031 C 
ATOM     36  C   UNL A   1      43.680  26.847  30.763  1.00  0.00     0.029 A 
ATOM     37  N   UNL A   1      42.160  28.160  31.745  1.00  0.00    -0.354 N 
ATOM     38  C   UNL A   1      38.864  29.838  29.589  1.00  0.00     0.074 A 
ATOM     39  C   UNL A   1      38.820  29.345  28.231  1.00  0.00     0.031 C 
ATOM     40  C   UNL A   1      43.976  26.899  32.070  1.00  0.00     0.029 A 
ATOM     41  C   UNL A   1      43.030  27.784  32.738  1.00  0.00     0.049 A 
ATOM     42  H   UNL A   1      41.387  28.750  31.899  1.00  0.00     0.167 HD
ATOM     43  C   UNL A   1      37.922  30.652  30.123  1.00  0.00     0.031 A 
ATOM     44  C   UNL A   1      43.087  28.135  34.037  1.00  0.00     0.031 A 
ATOM     45  C   UNL A   1      37.943  31.149  31.472  1.00  0.00     0.049 A 
ATOM     46  C   UNL A   1      42.090  29.111  34.588  1.00  0.00     0.074 A 
ATOM     47  C   UNL A   1      37.059  32.019  32.087  1.00  0.00     0.029 A 
ATOM     48  N   UNL A   1      38.892  30.803  32.418  1.00  0.00    -0.354 N 
ATOM     49  N   UNL A   1      41.062  29.663  33.994  1.00  0.00    -0.248 NA
ATOM     50  C   UNL A   1      42.281  29.534  35.982  1.00  0.00     0.031 C 
ATOM     51  C   UNL A   1      37.495  32.226  33.401  1.00  0.00     0.029 A 
ATOM     52  C   UNL A   1      38.628  31.456  33.608  1.00  0.00     0.049 A 
ATOM     53  H   UNL A   1      39.642  30.184  32.266  1.00  0.00     0.167 HD
ATOM     54  C   UNL A   1      40.489  30.505  34.936  1.00  0.00     0.074 A 
ATOM     55  C   UNL A   1      41.266  30.371  36.151  1.00  0.00     0.031 C 
ATOM     56  C   UNL A   1      39.419  31.325  34.802  1.00  0.00     0.031 A 
BRANCH  43  57
ATOM     57  C   UNL A   1      36.801  31.085  29.224  1.00  0.00    -0.014 A 
ATOM     58  C   UNL A   1      35.795  30.188  28.836  1.00  0.00     0.009 A 
ATOM     59  C   UNL A   1      36.743  32.412  28.772  1.00  0.00     0.009 A 
ATOM     60  C   UNL A   1      34.764  30.607  27.991  1.00  0.00     0.001 A 
ATOM     61  C   UNL A   1      35.703  32.833  27.943  1.00  0.00     0.001 A 
ATOM     62  C   UNL A   1      34.718  31.928  27.547  1.00  0.00     0.000 A 
ENDBRANCH  43  57
BRANCH  44  63
ATOM     63  C   UNL A   1      44.175  27.597  34.890  1.00  0.00    -0.014 A 
ATOM     64  C   UNL A   1      43.996  26.410  35.614  1.00  0.00     0.009 A 
ATOM     65  C   UNL A   1      45.411  28.261  34.961  1.00  0.00     0.009 A 
ATOM     66  C   UNL A   1      45.035  25.899  36.396  1.00  0.00     0.001 A 
ATOM     67  C   UNL A   1      46.454  27.735  35.723  1.00  0.00     0.001 A 
ATOM     68  C   UNL A   1      46.264  26.558  36.443  1.00  0.00     0.000 A 
ENDBRANCH  44  63
BRANCH  56  69
ATOM     69  C   UNL A   1      39.034  32.145  35.997  1.00  0.00    -0.014 A 
ATOM     70  C   UNL A   1      39.531  33.447  36.159  1.00  0.00     0.009 A 
ATOM     71  C   UNL A   1      38.143  31.627  36.947  1.00  0.00     0.009 A 
ATOM     72  C   UNL A   1      39.158  34.209  37.267  1.00  0.00     0.001 A 
ATOM     73  C   UNL A   1      37.759  32.398  38.045  1.00  0.00     0.001 A 
ATOM     74  C   UNL A   1      38.270  33.685  38.206  1.00  0.00     0.000 A 
ENDBRANCH  56  69
ENDBRANCH  30  31
ENDBRANCH  23  25
ENDBRANCH  22  23
ENDBRANCH  21  22
ENDBRANCH   1  21
TORSDOF 14
ENDMDL
MODEL 2
REMARK VINA RESULT:     -10.9      3.810      8.264
REMARK SMILES C[C@@H](C(=O)OCCOC(=O)c1ccc(-c2c3nc(c(-c4ccccc4)c4ccc([nH]4)c(-c4ccccc4)c4nc(c(-c5ccccc5)c5ccc2[nH]5)C=C4)C=C3)cc1)c1cccc(C(=O)c2ccccc2)c1
REMARK SMILES IDX 6 1 5 2 3 3 4 4 2 5 1 6 59 7 60 8 72 9 61 10 63 11 62 12
REMARK SMILES IDX 64 13 65 14 66 15 67 16 71 17 68 18 70 19 69 20 7 21 8 22
REMARK SMILES IDX 9 23 10 24 11 25 12 26 58 27 13 28 57 29 14 30 15 31 16 32
REMARK SMILES IDX 51 33 17 34 56 35 50 36 52 37 18 38 55 39 49 40 48 41 19 43
REMARK SMILES IDX 41 44 26 45 40 46 27 47 30 48 39 49 53 50 28 51 29 52 38 54
REMARK SMILES IDX 54 55 31 56 20 57 21 58 25 59 22 60 24 61 23 62 42 63 43 64
REMARK SMILES IDX 47 65 44 66 46 67 45 68 32 69 33 70 37 71 34 72 36 73 35 74
REMARK H PARENT 52 42 30 53
REMARK Flexibility Score: inf
ROOT
ATOM      1  C   UNL A   1      42.081  19.667  26.573  1.00  0.00     0.274 C 
ENDROOT
BRANCH   1   2
ATOM      2  O   UNL A   1      42.708  19.918  25.299  1.00  0.00    -0.462 OA
BRANCH   2   3
ATOM      3  C   UNL A   1      43.930  19.356  25.096  1.00  0.00     0.313 C 
ATOM      4  O   UNL A   1      44.222  18.208  25.418  1.00  0.00    -0.252 OA
BRANCH   3   5
ATOM      5  C   UNL A   1      44.926  20.325  24.452  1.00  0.00     0.126 C 
ATOM      6  C   UNL A   1      46.382  19.853  24.503  1.00  0.00     0.025 C 
BRANCH   5   7
ATOM      7  C   UNL A   1      44.748  21.742  24.993  1.00  0.00    -0.033 A 
ATOM      8  C   UNL A   1      43.710  22.544  24.489  1.00  0.00     0.004 A 
ATOM      9  C   UNL A   1      45.547  22.250  26.033  1.00  0.00     0.016 A 
ATOM     10  C   UNL A   1      43.484  23.825  24.994  1.00  0.00     0.001 A 
ATOM     11  C   UNL A   1      45.320  23.537  26.547  1.00  0.00     0.023 A 
ATOM     12  C   UNL A   1      44.289  24.322  26.017  1.00  0.00     0.012 A 
BRANCH  11  13
ATOM     13  C   UNL A   1      46.084  24.072  27.706  1.00  0.00     0.193 C 
ATOM     14  O   UNL A   1      47.226  24.501  27.568  1.00  0.00    -0.289 OA
BRANCH  13  15
ATOM     15  C   UNL A   1      45.483  24.137  29.047  1.00  0.00     0.022 A 
ATOM     16  C   UNL A   1      44.528  23.186  29.411  1.00  0.00     0.012 A 
ATOM     17  C   UNL A   1      45.833  25.167  29.921  1.00  0.00     0.012 A 
ATOM     18  C   UNL A   1      43.917  23.261  30.659  1.00  0.00     0.001 A 
ATOM     19  C   UNL A   1      45.220  25.236  31.172  1.00  0.00     0.001 A 
ATOM     20  C   UNL A   1      44.262  24.287  31.539  1.00  0.00     0.000 A 
ENDBRANCH  13  15
ENDBRANCH  11  13
ENDBRANCH   5   7
ENDBRANCH   3   5
ENDBRANCH   2   3
ENDBRANCH   1   2
BRANCH   1  21
ATOM     21  C   UNL A   1      40.617  20.094  26.542  1.00  0.00     0.275 C 
BRANCH  21  22
ATOM     22  O   UNL A   1      40.448  21.306  27.300  1.00  0.00    -0.458 OA
BRANCH  22  23
ATOM     23  C   UNL A   1      39.720  22.276  26.705  1.00  0.00     0.338 C 
ATOM     24  O   UNL A   1      38.709  22.149  26.039  1.00  0.00    -0.246 OA
BRANCH  23  25
ATOM     25  C   UNL A   1      40.323  23.588  26.981  1.00  0.00     0.060 A 
ATOM     26  C   UNL A   1      41.104  23.752  28.122  1.00  0.00     0.016 A 
ATOM     27  C   UNL A   1      39.978  24.691  26.198  1.00  0.00     0.016 A 
ATOM     28  C   UNL A   1      41.454  25.036  28.537  1.00  0.00     0.010 A 
ATOM     29  C   UNL A   1      40.403  25.972  26.577  1.00  0.00     0.010 A 
ATOM     30  C   UNL A   1      41.106  26.165  27.778  1.00  0.00    -0.014 A 
BRANCH  30  31
ATOM     31  C   UNL A   1      41.444  27.532  28.272  1.00  0.00     0.031 A 
ATOM     32  C   UNL A   1      42.872  28.023  28.288  1.00  0.00     0.074 A 
ATOM     33  C   UNL A   1      40.466  28.375  28.657  1.00  0.00     0.049 A 
ATOM     34  N   UNL A   1      43.362  29.145  28.759  1.00  0.00    -0.248 NA
ATOM     35  C   UNL A   1      43.883  27.134  27.703  1.00  0.00     0.031 C 
ATOM     36  C   UNL A   1      39.033  28.074  28.653  1.00  0.00     0.029 A 
ATOM     37  N   UNL A   1      40.531  29.670  29.110  1.00  0.00    -0.354 N 
ATOM     38  C   UNL A   1      44.732  29.087  28.526  1.00  0.00     0.074 A 
ATOM     39  C   UNL A   1      45.003  27.813  27.900  1.00  0.00     0.031 C 
ATOM     40  C   UNL A   1      38.354  29.168  29.028  1.00  0.00     0.029 A 
ATOM     41  C   UNL A   1      39.302  30.220  29.378  1.00  0.00     0.049 A 
ATOM     42  H   UNL A   1      41.378  30.157  29.228  1.00  0.00     0.167 HD
ATOM     43  C   UNL A   1      45.687  30.008  28.798  1.00  0.00     0.031 A 
ATOM     44  C   UNL A   1      38.968  31.423  29.881  1.00  0.00     0.031 A 
ATOM     45  C   UNL A   1      45.440  31.284  29.413  1.00  0.00     0.049 A 
ATOM     46  C   UNL A   1      40.045  32.394  30.265  1.00  0.00     0.074 A 
ATOM     47  C   UNL A   1      46.351  32.262  29.775  1.00  0.00     0.029 A 
ATOM     48  N   UNL A   1      44.184  31.762  29.741  1.00  0.00    -0.354 N 
ATOM     49  N   UNL A   1      41.342  32.287  30.118  1.00  0.00    -0.248 NA
ATOM     50  C   UNL A   1      39.611  33.640  30.912  1.00  0.00     0.031 C 
ATOM     51  C   UNL A   1      45.645  33.321  30.355  1.00  0.00     0.029 A 
ATOM     52  C   UNL A   1      44.294  33.015  30.319  1.00  0.00     0.049 A 
ATOM     53  H   UNL A   1      43.337  31.284  29.586  1.00  0.00     0.167 HD
ATOM     54  C   UNL A   1      41.880  33.445  30.661  1.00  0.00     0.074 A 
ATOM     55  C   UNL A   1      40.768  34.254  31.116  1.00  0.00     0.031 C 
ATOM     56  C   UNL A   1      43.182  33.800  30.781  1.00  0.00     0.031 A 
BRANCH  43  57
ATOM     57  C   UNL A   1      47.104  29.646  28.461  1.00  0.00    -0.014 A 
ATOM     58  C   UNL A   1      47.667  29.992  27.223  1.00  0.00     0.009 A 
ATOM     59  C   UNL A   1      47.892  28.962  29.400  1.00  0.00     0.009 A 
ATOM     60  C   UNL A   1      48.984  29.639  26.923  1.00  0.00     0.001 A 
ATOM     61  C   UNL A   1      49.213  28.625  29.105  1.00  0.00     0.001 A 
ATOM     62  C   UNL A   1      49.756  28.958  27.864  1.00  0.00     0.000 A 
ENDBRANCH  43  57
BRANCH  44  63
ATOM     63  C   UNL A   1      37.538  31.747  30.106  1.00  0.00    -0.014 A 
ATOM     64  C   UNL A   1      36.920  31.447  31.328  1.00  0.00     0.009 A 
ATOM     65  C   UNL A   1      36.791  32.384  29.101  1.00  0.00     0.009 A 
ATOM     66  C   UNL A   1      35.578  31.777  31.538  1.00  0.00     0.001 A 
ATOM     67  C   UNL A   1      35.460  32.735  29.323  1.00  0.00     0.001 A 
ATOM     68  C   UNL A   1      34.853  32.427  30.538  1.00  0.00     0.000 A 
ENDBRANCH  44  63
BRANCH  56  69
ATOM     69  C   UNL A   1      43.472  35.116  31.438  1.00  0.00    -0.014 A 
ATOM     70  C   UNL A   1      43.666  36.271  30.667  1.00  0.00     0.009 A 
ATOM     71  C   UNL A   1      43.516  35.208  32.836  1.00  0.00     0.009 A 
ATOM     72  C   UNL A   1      43.923  37.496  31.287  1.00  0.00     0.001 A 
ATOM     73  C   UNL A   1      43.756  36.437  33.453  1.00  0.00     0.001 A 
ATOM     74  C   UNL A   1      43.964  37.577  32.678  1.00  0.00     0.000 A 
ENDBRANCH  56  69
ENDBRANCH  30  31
ENDBRANCH  23  25
ENDBRANCH  22  23
ENDBRANCH  21  22
ENDBRANCH   1  21
TORSDOF 14
ENDMDL
MODEL 3
REMARK VINA RESULT:     -10.8      4.558     11.440
REMARK SMILES C[C@@H](C(=O)OCCOC(=O)c1ccc(-c2c3nc(c(-c4ccccc4)c4ccc([nH]4)c(-c4ccccc4)c4nc(c(-c5ccccc5)c5ccc2[nH]5)C=C4)C=C3)cc1)c1cccc(C(=O)c2ccccc2)c1
REMARK SMILES IDX 6 1 5 2 3 3 4 4 2 5 1 6 59 7 60 8 72 9 61 10 63 11 62 12
REMARK SMILES IDX 64 13 65 14 66 15 67 16 71 17 68 18 70 19 69 20 7 21 8 22
REMARK SMILES IDX 9 23 10 24 11 25 12 26 58 27 13 28 57 29 14 30 15 31 16 32
REMARK SMILES IDX 51 33 17 34 56 35 50 36 52 37 18 38 55 39 49 40 48 41 19 43
REMARK SMILES IDX 41 44 26 45 40 46 27 47 30 48 39 49 53 50 28 51 29 52 38 54
REMARK SMILES IDX 54 55 31 56 20 57 21 58 25 59 22 60 24 61 23 62 42 63 43 64
REMARK SMILES IDX 47 65 44 66 46 67 45 68 32 69 33 70 37 71 34 72 36 73 35 74
REMARK H PARENT 52 42 30 53
REMARK Flexibility Score: inf
ROOT
ATOM      1  C   UNL A   1      33.246  34.849  28.817  1.00  0.00     0.274 C 
ENDROOT
BRANCH   1   2
ATOM      2  O   UNL A   1      33.278  34.641  30.243  1.00  0.00    -0.462 OA
BRANCH   2   3
ATOM      3  C   UNL A   1      33.007  35.720  31.026  1.00  0.00     0.313 C 
ATOM      4  O   UNL A   1      32.529  36.771  30.610  1.00  0.00    -0.252 OA
BRANCH   3   5
ATOM      5  C   UNL A   1      33.399  35.499  32.490  1.00  0.00     0.126 C 
ATOM      6  C   UNL A   1      33.600  36.792  33.286  1.00  0.00     0.025 C 
BRANCH   5   7
ATOM      7  C   UNL A   1      34.586  34.546  32.608  1.00  0.00    -0.033 A 
ATOM      8  C   UNL A   1      34.386  33.172  32.395  1.00  0.00     0.004 A 
ATOM      9  C   UNL A   1      35.893  35.006  32.853  1.00  0.00     0.016 A 
ATOM     10  C   UNL A   1      35.455  32.276  32.443  1.00  0.00     0.001 A 
ATOM     11  C   UNL A   1      36.971  34.109  32.898  1.00  0.00     0.023 A 
ATOM     12  C   UNL A   1      36.743  32.742  32.698  1.00  0.00     0.012 A 
BRANCH  11  13
ATOM     13  C   UNL A   1      38.377  34.568  33.064  1.00  0.00     0.193 C 
ATOM     14  O   UNL A   1      38.785  34.975  34.147  1.00  0.00    -0.289 OA
BRANCH  13  15
ATOM     15  C   UNL A   1      39.330  34.516  31.945  1.00  0.00     0.022 A 
ATOM     16  C   UNL A   1      40.697  34.445  32.219  1.00  0.00     0.012 A 
ATOM     17  C   UNL A   1      38.868  34.585  30.630  1.00  0.00     0.012 A 
ATOM     18  C   UNL A   1      41.613  34.442  31.171  1.00  0.00     0.001 A 
ATOM     19  C   UNL A   1      39.790  34.578  29.583  1.00  0.00     0.001 A 
ATOM     20  C   UNL A   1      41.160  34.509  29.854  1.00  0.00     0.000 A 
ENDBRANCH  13  15
ENDBRANCH  11  13
ENDBRANCH   5   7
ENDBRANCH   3   5
ENDBRANCH   2   3
ENDBRANCH   1   2
BRANCH   1  21
ATOM     21  C   UNL A   1      34.139  33.836  28.108  1.00  0.00     0.275 C 
BRANCH  21  22
ATOM     22  O   UNL A   1      34.220  32.630  28.888  1.00  0.00    -0.458 OA
BRANCH  22  23
ATOM     23  C   UNL A   1      34.728  31.551  28.252  1.00  0.00     0.338 C 
ATOM     24  O   UNL A   1      34.305  31.007  27.249  1.00  0.00    -0.246 OA
BRANCH  23  25
ATOM     25  C   UNL A   1      35.936  31.088  28.951  1.00  0.00     0.060 A 
ATOM     26  C   UNL A   1      37.132  31.778  28.776  1.00  0.00     0.016 A 
ATOM     27  C   UNL A   1      35.916  29.876  29.646  1.00  0.00     0.016 A 
ATOM     28  C   UNL A   1      38.327  31.204  29.207  1.00  0.00     0.010 A 
ATOM     29  C   UNL A   1      37.111  29.345  30.149  1.00  0.00     0.010 A 
ATOM     30  C   UNL A   1      38.338  29.979  29.894  1.00  0.00    -0.014 A 
BRANCH  30  31
ATOM     31  C   UNL A   1      39.635  29.359  30.296  1.00  0.00     0.031 A 
ATOM     32  C   UNL A   1      40.387  29.846  31.512  1.00  0.00     0.074 A 
ATOM     33  C   UNL A   1      40.126  28.308  29.609  1.00  0.00     0.049 A 
ATOM     34  N   UNL A   1      41.564  29.484  31.962  1.00  0.00    -0.248 NA
ATOM     35  C   UNL A   1      39.732  30.878  32.324  1.00  0.00     0.031 C 
ATOM     36  C   UNL A   1      39.497  27.685  28.444  1.00  0.00     0.029 A 
ATOM     37  N   UNL A   1      41.263  27.565  29.808  1.00  0.00    -0.354 N 
ATOM     38  C   UNL A   1      41.783  30.248  33.105  1.00  0.00     0.074 A 
ATOM     39  C   UNL A   1      40.636  31.111  33.264  1.00  0.00     0.031 C 
ATOM     40  C   UNL A   1      40.225  26.624  28.067  1.00  0.00     0.029 A 
ATOM     41  C   UNL A   1      41.413  26.539  28.909  1.00  0.00     0.049 A 
ATOM     42  H   UNL A   1      41.908  27.751  30.529  1.00  0.00     0.167 HD
ATOM     43  C   UNL A   1      42.838  30.236  33.954  1.00  0.00     0.031 A 
ATOM     44  C   UNL A   1      42.409  25.647  28.750  1.00  0.00     0.031 A 
ATOM     45  C   UNL A   1      43.985  29.381  33.819  1.00  0.00     0.049 A 
ATOM     46  C   UNL A   1      43.613  25.709  29.643  1.00  0.00     0.074 A 
ATOM     47  C   UNL A   1      45.126  29.333  34.602  1.00  0.00     0.029 A 
ATOM     48  N   UNL A   1      44.127  28.412  32.841  1.00  0.00    -0.354 N 
ATOM     49  N   UNL A   1      43.841  26.496  30.665  1.00  0.00    -0.248 NA
ATOM     50  C   UNL A   1      44.708  24.778  29.340  1.00  0.00     0.031 C 
ATOM     51  C   UNL A   1      45.975  28.354  34.075  1.00  0.00     0.029 A 
ATOM     52  C   UNL A   1      45.345  27.771  32.988  1.00  0.00     0.049 A 
ATOM     53  H   UNL A   1      43.461  28.208  32.146  1.00  0.00     0.167 HD
ATOM     54  C   UNL A   1      45.109  26.163  31.121  1.00  0.00     0.074 A 
ATOM     55  C   UNL A   1      45.589  25.083  30.283  1.00  0.00     0.031 C 
ATOM     56  C   UNL A   1      45.816  26.711  32.138  1.00  0.00     0.031 A 
BRANCH  43  57
ATOM     57  C   UNL A   1      42.809  31.211  35.095  1.00  0.00    -0.014 A 
ATOM     58  C   UNL A   1      43.261  32.529  34.934  1.00  0.00     0.009 A 
ATOM     59  C   UNL A   1      42.309  30.810  36.343  1.00  0.00     0.009 A 
ATOM     60  C   UNL A   1      43.236  33.420  36.009  1.00  0.00     0.001 A 
ATOM     61  C   UNL A   1      42.269  31.707  37.411  1.00  0.00     0.001 A 
ATOM     62  C   UNL A   1      42.738  33.009  37.245  1.00  0.00     0.000 A 
ENDBRANCH  43  57
BRANCH  44  63
ATOM     63  C   UNL A   1      42.327  24.652  27.653  1.00  0.00    -0.014 A 
ATOM     64  C   UNL A   1      42.900  24.917  26.402  1.00  0.00     0.009 A 
ATOM     65  C   UNL A   1      41.694  23.416  27.866  1.00  0.00     0.009 A 
ATOM     66  C   UNL A   1      42.837  23.964  25.382  1.00  0.00     0.001 A 
ATOM     67  C   UNL A   1      41.656  22.456  26.854  1.00  0.00     0.001 A 
ATOM     68  C   UNL A   1      42.223  22.733  25.612  1.00  0.00     0.000 A 
ENDBRANCH  44  63
BRANCH  56  69
ATOM     69  C   UNL A   1      47.185  26.158  32.393  1.00  0.00    -0.014 A 
ATOM     70  C   UNL A   1      47.393  25.203  33.399  1.00  0.00     0.009 A 
ATOM     71  C   UNL A   1      48.267  26.567  31.600  1.00  0.00     0.009 A 
ATOM     72  C   UNL A   1      48.669  24.682  33.622  1.00  0.00     0.001 A 
ATOM     73  C   UNL A   1      49.538  26.032  31.814  1.00  0.00     0.001 A 
ATOM     74  C   UNL A   1      49.739  25.096  32.827  1.00  0.00     0.000 A 
ENDBRANCH  56  69
ENDBRANCH  30  31
ENDBRANCH  23  25
ENDBRANCH  22  23
ENDBRANCH  21  22
ENDBRANCH   1  21
TORSDOF 14
ENDMDL
