MODEL 1
REMARK VINA RESULT:      -8.9      0.000      0.000
REMARK SMILES C=CC[N@@H+](CC(=O)OCCOC(=O)c1ccc(-c2c3nc(c(-c4ccccc4)c4ccc([nH]4)c(-c4ccccc4)c4nc(c(-c5ccccc5)c5ccc2[nH]5)C=C4)C=C3)cc1)C1CCCCC1
REMARK SMILES IDX 9 1 8 2 6 3 7 4 5 5 4 6 3 8 2 9 1 10 62 11 63 12 67 13 64 14
REMARK SMILES IDX 66 15 65 16 10 17 11 18 12 19 13 20 14 21 15 22 61 23 16 24
REMARK SMILES IDX 60 25 17 26 18 27 19 28 54 29 20 30 59 31 53 32 55 33 21 34
REMARK SMILES IDX 58 35 52 36 51 37 22 39 44 40 29 41 43 42 30 43 33 44 42 45
REMARK SMILES IDX 56 46 31 47 32 48 41 50 57 51 34 52 23 53 24 54 28 55 25 56
REMARK SMILES IDX 27 57 26 58 45 59 46 60 50 61 47 62 49 63 48 64 35 65 36 66
REMARK SMILES IDX 40 67 37 68 39 69 38 70
REMARK H PARENT 4 7 55 38 33 49
REMARK Flexibility Score: inf
ROOT
ATOM      1  C   UNL A   1      36.761  22.345  25.982  1.00  0.00     0.274 C 
ENDROOT
BRANCH   1   2
ATOM      2  O   UNL A   1      36.025  23.237  25.128  1.00  0.00    -0.458 OA
BRANCH   2   3
ATOM      3  C   UNL A   1      34.904  23.828  25.613  1.00  0.00     0.361 C 
ATOM      4  O   UNL A   1      34.278  23.431  26.590  1.00  0.00    -0.245 OA
BRANCH   3   5
ATOM      5  C   UNL A   1      34.511  25.103  24.843  1.00  0.00     0.387 C 
BRANCH   5   6
ATOM      6  N   UNL A   1      33.164  25.667  25.122  1.00  0.00    -0.320 N 
ATOM      7  H   UNL A   1      32.637  24.973  25.651  1.00  0.00     0.349 HD
BRANCH   6   8
ATOM      8  C   UNL A   1      32.385  25.805  23.889  1.00  0.00     0.291 C 
BRANCH   8   9
ATOM      9  C   UNL A   1      31.928  24.507  23.294  1.00  0.00     0.025 C 
ATOM     10  C   UNL A   1      30.665  24.066  23.377  1.00  0.00     0.010 C 
ENDBRANCH   8   9
ENDBRANCH   6   8
BRANCH   6  11
ATOM     11  C   UNL A   1      33.067  26.701  26.192  1.00  0.00     0.184 C 
ATOM     12  C   UNL A   1      33.932  27.959  25.982  1.00  0.00     0.065 C 
ATOM     13  C   UNL A   1      31.629  27.121  26.573  1.00  0.00     0.065 C 
ATOM     14  C   UNL A   1      33.802  29.041  27.050  1.00  0.00     0.006 C 
ATOM     15  C   UNL A   1      31.543  28.217  27.633  1.00  0.00     0.006 C 
ATOM     16  C   UNL A   1      32.349  29.437  27.228  1.00  0.00     0.000 C 
ENDBRANCH   6  11
ENDBRANCH   5   6
ENDBRANCH   3   5
ENDBRANCH   2   3
ENDBRANCH   1   2
BRANCH   1  17
ATOM     17  C   UNL A   1      38.216  22.282  25.488  1.00  0.00     0.275 C 
BRANCH  17  18
ATOM     18  O   UNL A   1      39.205  22.174  26.536  1.00  0.00    -0.458 OA
BRANCH  18  19
ATOM     19  C   UNL A   1      40.345  22.880  26.379  1.00  0.00     0.338 C 
ATOM     20  O   UNL A   1      41.428  22.464  26.024  1.00  0.00    -0.246 OA
BRANCH  19  21
ATOM     21  C   UNL A   1      40.124  24.263  26.838  1.00  0.00     0.060 A 
ATOM     22  C   UNL A   1      39.326  24.461  27.969  1.00  0.00     0.016 A 
ATOM     23  C   UNL A   1      40.761  25.341  26.219  1.00  0.00     0.016 A 
ATOM     24  C   UNL A   1      39.204  25.736  28.519  1.00  0.00     0.010 A 
ATOM     25  C   UNL A   1      40.708  26.603  26.820  1.00  0.00     0.010 A 
ATOM     26  C   UNL A   1      39.982  26.789  28.008  1.00  0.00    -0.014 A 
BRANCH  26  27
ATOM     27  C   UNL A   1      40.274  27.963  28.874  1.00  0.00     0.031 A 
ATOM     28  C   UNL A   1      41.462  28.017  29.785  1.00  0.00     0.074 A 
ATOM     29  C   UNL A   1      39.375  28.969  28.866  1.00  0.00     0.049 A 
ATOM     30  N   UNL A   1      41.770  28.932  30.669  1.00  0.00    -0.248 NA
ATOM     31  C   UNL A   1      42.421  26.909  29.698  1.00  0.00     0.031 C 
ATOM     32  C   UNL A   1      38.176  29.020  28.022  1.00  0.00     0.029 A 
ATOM     33  N   UNL A   1      39.317  30.136  29.585  1.00  0.00    -0.354 N 
ATOM     34  C   UNL A   1      42.954  28.508  31.257  1.00  0.00     0.074 A 
ATOM     35  C   UNL A   1      43.301  27.245  30.636  1.00  0.00     0.031 C 
ATOM     36  C   UNL A   1      37.520  30.166  28.248  1.00  0.00     0.029 A 
ATOM     37  C   UNL A   1      38.201  30.892  29.309  1.00  0.00     0.049 A 
ATOM     38  H   UNL A   1      40.006  30.406  30.233  1.00  0.00     0.167 HD
ATOM     39  C   UNL A   1      43.675  29.118  32.231  1.00  0.00     0.031 A 
ATOM     40  C   UNL A   1      37.743  32.023  29.874  1.00  0.00     0.031 A 
ATOM     41  C   UNL A   1      43.304  30.364  32.856  1.00  0.00     0.049 A 
ATOM     42  C   UNL A   1      38.525  32.634  30.996  1.00  0.00     0.074 A 
ATOM     43  C   UNL A   1      43.980  31.073  33.836  1.00  0.00     0.029 A 
ATOM     44  N   UNL A   1      42.149  31.081  32.573  1.00  0.00    -0.354 N 
ATOM     45  N   UNL A   1      39.655  32.233  31.523  1.00  0.00    -0.248 NA
ATOM     46  C   UNL A   1      37.965  33.844  31.608  1.00  0.00     0.031 C 
ATOM     47  C   UNL A   1      43.204  32.183  34.188  1.00  0.00     0.029 A 
ATOM     48  C   UNL A   1      42.076  32.203  33.384  1.00  0.00     0.049 A 
ATOM     49  H   UNL A   1      41.481  30.829  31.896  1.00  0.00     0.167 HD
ATOM     50  C   UNL A   1      39.953  33.151  32.517  1.00  0.00     0.074 A 
ATOM     51  C   UNL A   1      38.893  34.140  32.506  1.00  0.00     0.031 C 
ATOM     52  C   UNL A   1      41.009  33.170  33.366  1.00  0.00     0.031 A 
BRANCH  39  53
ATOM     53  C   UNL A   1      44.921  28.427  32.715  1.00  0.00    -0.014 A 
ATOM     54  C   UNL A   1      46.176  28.699  32.150  1.00  0.00     0.009 A 
ATOM     55  C   UNL A   1      44.844  27.529  33.791  1.00  0.00     0.009 A 
ATOM     56  C   UNL A   1      47.324  28.062  32.633  1.00  0.00     0.001 A 
ATOM     57  C   UNL A   1      45.994  26.913  34.289  1.00  0.00     0.001 A 
ATOM     58  C   UNL A   1      47.232  27.172  33.703  1.00  0.00     0.000 A 
ENDBRANCH  39  53
BRANCH  40  59
ATOM     59  C   UNL A   1      36.461  32.615  29.412  1.00  0.00    -0.014 A 
ATOM     60  C   UNL A   1      36.445  33.590  28.404  1.00  0.00     0.009 A 
ATOM     61  C   UNL A   1      35.241  32.188  29.963  1.00  0.00     0.009 A 
ATOM     62  C   UNL A   1      35.234  34.139  27.973  1.00  0.00     0.001 A 
ATOM     63  C   UNL A   1      34.032  32.714  29.506  1.00  0.00     0.001 A 
ATOM     64  C   UNL A   1      34.030  33.697  28.518  1.00  0.00     0.000 A 
ENDBRANCH  40  59
BRANCH  52  65
ATOM     65  C   UNL A   1      41.077  34.317  34.334  1.00  0.00    -0.014 A 
ATOM     66  C   UNL A   1      40.419  34.262  35.573  1.00  0.00     0.009 A 
ATOM     67  C   UNL A   1      41.833  35.454  34.012  1.00  0.00     0.009 A 
ATOM     68  C   UNL A   1      40.494  35.340  36.458  1.00  0.00     0.001 A 
ATOM     69  C   UNL A   1      41.930  36.517  34.911  1.00  0.00     0.001 A 
ATOM     70  C   UNL A   1      41.254  36.463  36.128  1.00  0.00     0.000 A 
ENDBRANCH  52  65
ENDBRANCH  26  27
ENDBRANCH  19  21
ENDBRANCH  18  19
ENDBRANCH  17  18
ENDBRANCH   1  17
TORSDOF 15
ENDMDL
MODEL 2
REMARK VINA RESULT:      -8.9      2.742      7.322
REMARK SMILES C=CC[N@@H+](CC(=O)OCCOC(=O)c1ccc(-c2c3nc(c(-c4ccccc4)c4ccc([nH]4)c(-c4ccccc4)c4nc(c(-c5ccccc5)c5ccc2[nH]5)C=C4)C=C3)cc1)C1CCCCC1
REMARK SMILES IDX 9 1 8 2 6 3 7 4 5 5 4 6 3 8 2 9 1 10 62 11 63 12 67 13 64 14
REMARK SMILES IDX 66 15 65 16 10 17 11 18 12 19 13 20 14 21 15 22 61 23 16 24
REMARK SMILES IDX 60 25 17 26 18 27 19 28 54 29 20 30 59 31 53 32 55 33 21 34
REMARK SMILES IDX 58 35 52 36 51 37 22 39 44 40 29 41 43 42 30 43 33 44 42 45
REMARK SMILES IDX 56 46 31 47 32 48 41 50 57 51 34 52 23 53 24 54 28 55 25 56
REMARK SMILES IDX 27 57 26 58 45 59 46 60 50 61 47 62 49 63 48 64 35 65 36 66
REMARK SMILES IDX 40 67 37 68 39 69 38 70
REMARK H PARENT 4 7 55 38 33 49
REMARK Flexibility Score: inf
ROOT
ATOM      1  C   UNL A   1      31.805  30.153  26.875  1.00  0.00     0.274 C 
ENDROOT
BRANCH   1   2
ATOM      2  O   UNL A   1      31.868  28.807  27.377  1.00  0.00    -0.458 OA
BRANCH   2   3
ATOM      3  C   UNL A   1      31.503  27.787  26.559  1.00  0.00     0.361 C 
ATOM      4  O   UNL A   1      31.017  26.730  26.944  1.00  0.00    -0.245 OA
BRANCH   3   5
ATOM      5  C   UNL A   1      31.707  28.107  25.066  1.00  0.00     0.387 C 
BRANCH   5   6
ATOM      6  N   UNL A   1      30.787  27.442  24.106  1.00  0.00    -0.320 N 
ATOM      7  H   UNL A   1      30.041  27.000  24.642  1.00  0.00     0.349 HD
BRANCH   6   8
ATOM      8  C   UNL A   1      31.441  26.307  23.451  1.00  0.00     0.291 C 
BRANCH   8   9
ATOM      9  C   UNL A   1      31.476  26.388  21.954  1.00  0.00     0.025 C 
ATOM     10  C   UNL A   1      32.412  25.784  21.208  1.00  0.00     0.010 C 
ENDBRANCH   8   9
ENDBRANCH   6   8
BRANCH   6  11
ATOM     11  C   UNL A   1      29.854  28.317  23.340  1.00  0.00     0.184 C 
ATOM     12  C   UNL A   1      28.356  27.993  23.500  1.00  0.00     0.065 C 
ATOM     13  C   UNL A   1      30.077  29.836  23.523  1.00  0.00     0.065 C 
ATOM     14  C   UNL A   1      27.394  28.914  22.756  1.00  0.00     0.006 C 
ATOM     15  C   UNL A   1      29.083  30.722  22.774  1.00  0.00     0.006 C 
ATOM     16  C   UNL A   1      27.652  30.362  23.127  1.00  0.00     0.000 C 
ENDBRANCH   6  11
ENDBRANCH   5   6
ENDBRANCH   3   5
ENDBRANCH   2   3
ENDBRANCH   1   2
BRANCH   1  17
ATOM     17  C   UNL A   1      33.103  30.882  27.262  1.00  0.00     0.275 C 
BRANCH  17  18
ATOM     18  O   UNL A   1      33.184  32.252  26.809  1.00  0.00    -0.458 OA
BRANCH  18  19
ATOM     19  C   UNL A   1      33.071  33.215  27.748  1.00  0.00     0.338 C 
ATOM     20  O   UNL A   1      32.170  34.019  27.875  1.00  0.00    -0.246 OA
BRANCH  19  21
ATOM     21  C   UNL A   1      34.301  33.249  28.558  1.00  0.00     0.060 A 
ATOM     22  C   UNL A   1      34.258  32.694  29.842  1.00  0.00     0.016 A 
ATOM     23  C   UNL A   1      35.499  33.737  28.034  1.00  0.00     0.016 A 
ATOM     24  C   UNL A   1      35.429  32.578  30.588  1.00  0.00     0.010 A 
ATOM     25  C   UNL A   1      36.687  33.543  28.748  1.00  0.00     0.010 A 
ATOM     26  C   UNL A   1      36.662  32.904  29.999  1.00  0.00    -0.014 A 
BRANCH  26  27
ATOM     27  C   UNL A   1      37.909  32.303  30.543  1.00  0.00     0.031 A 
ATOM     28  C   UNL A   1      38.524  31.063  29.971  1.00  0.00     0.074 A 
ATOM     29  C   UNL A   1      38.441  32.883  31.640  1.00  0.00     0.049 A 
ATOM     30  N   UNL A   1      39.545  30.377  30.420  1.00  0.00    -0.248 NA
ATOM     31  C   UNL A   1      37.920  30.522  28.747  1.00  0.00     0.031 C 
ATOM     32  C   UNL A   1      37.921  34.093  32.288  1.00  0.00     0.029 A 
ATOM     33  N   UNL A   1      39.523  32.541  32.410  1.00  0.00    -0.354 N 
ATOM     34  C   UNL A   1      39.703  29.313  29.542  1.00  0.00     0.074 A 
ATOM     35  C   UNL A   1      38.661  29.439  28.541  1.00  0.00     0.031 C 
ATOM     36  C   UNL A   1      38.698  34.406  33.333  1.00  0.00     0.029 A 
ATOM     37  C   UNL A   1      39.717  33.380  33.482  1.00  0.00     0.049 A 
ATOM     38  H   UNL A   1      40.104  31.771  32.213  1.00  0.00     0.167 HD
ATOM     39  C   UNL A   1      40.628  28.322  29.579  1.00  0.00     0.031 A 
ATOM     40  C   UNL A   1      40.588  33.313  34.505  1.00  0.00     0.031 A 
ATOM     41  C   UNL A   1      41.644  28.198  30.597  1.00  0.00     0.049 A 
ATOM     42  C   UNL A   1      41.550  32.167  34.557  1.00  0.00     0.074 A 
ATOM     43  C   UNL A   1      42.640  27.241  30.709  1.00  0.00     0.029 A 
ATOM     44  N   UNL A   1      41.785  29.048  31.684  1.00  0.00    -0.354 N 
ATOM     45  N   UNL A   1      41.702  31.183  33.705  1.00  0.00    -0.248 NA
ATOM     46  C   UNL A   1      42.454  32.116  35.712  1.00  0.00     0.031 C 
ATOM     47  C   UNL A   1      43.343  27.477  31.895  1.00  0.00     0.029 A 
ATOM     48  C   UNL A   1      42.828  28.618  32.490  1.00  0.00     0.049 A 
ATOM     49  H   UNL A   1      41.227  29.840  31.857  1.00  0.00     0.167 HD
ATOM     50  C   UNL A   1      42.729  30.403  34.211  1.00  0.00     0.074 A 
ATOM     51  C   UNL A   1      43.177  31.040  35.434  1.00  0.00     0.031 C 
ATOM     52  C   UNL A   1      43.253  29.258  33.709  1.00  0.00     0.031 A 
BRANCH  39  53
ATOM     53  C   UNL A   1      40.562  27.264  28.512  1.00  0.00    -0.014 A 
ATOM     54  C   UNL A   1      39.751  26.127  28.656  1.00  0.00     0.009 A 
ATOM     55  C   UNL A   1      41.281  27.434  27.318  1.00  0.00     0.009 A 
ATOM     56  C   UNL A   1      39.688  25.169  27.640  1.00  0.00     0.001 A 
ATOM     57  C   UNL A   1      41.197  26.488  26.294  1.00  0.00     0.001 A 
ATOM     58  C   UNL A   1      40.408  25.352  26.459  1.00  0.00     0.000 A 
ENDBRANCH  39  53
BRANCH  40  59
ATOM     59  C   UNL A   1      40.551  34.342  35.578  1.00  0.00    -0.014 A 
ATOM     60  C   UNL A   1      41.346  35.494  35.493  1.00  0.00     0.009 A 
ATOM     61  C   UNL A   1      39.698  34.185  36.684  1.00  0.00     0.009 A 
ATOM     62  C   UNL A   1      41.301  36.457  36.505  1.00  0.00     0.001 A 
ATOM     63  C   UNL A   1      39.632  35.165  37.675  1.00  0.00     0.001 A 
ATOM     64  C   UNL A   1      40.441  36.296  37.590  1.00  0.00     0.000 A 
ENDBRANCH  40  59
BRANCH  52  65
ATOM     65  C   UNL A   1      44.388  28.641  34.474  1.00  0.00    -0.014 A 
ATOM     66  C   UNL A   1      45.722  28.957  34.177  1.00  0.00     0.009 A 
ATOM     67  C   UNL A   1      44.115  27.753  35.526  1.00  0.00     0.009 A 
ATOM     68  C   UNL A   1      46.763  28.371  34.900  1.00  0.00     0.001 A 
ATOM     69  C   UNL A   1      45.156  27.192  36.266  1.00  0.00     0.001 A 
ATOM     70  C   UNL A   1      46.479  27.494  35.947  1.00  0.00     0.000 A 
ENDBRANCH  52  65
ENDBRANCH  26  27
ENDBRANCH  19  21
ENDBRANCH  18  19
ENDBRANCH  17  18
ENDBRANCH   1  17
TORSDOF 15
ENDMDL
MODEL 3
REMARK VINA RESULT:      -8.9      3.606      6.716
REMARK SMILES C=CC[N@@H+](CC(=O)OCCOC(=O)c1ccc(-c2c3nc(c(-c4ccccc4)c4ccc([nH]4)c(-c4ccccc4)c4nc(c(-c5ccccc5)c5ccc2[nH]5)C=C4)C=C3)cc1)C1CCCCC1
REMARK SMILES IDX 9 1 8 2 6 3 7 4 5 5 4 6 3 8 2 9 1 10 62 11 63 12 67 13 64 14
REMARK SMILES IDX 66 15 65 16 10 17 11 18 12 19 13 20 14 21 15 22 61 23 16 24
REMARK SMILES IDX 60 25 17 26 18 27 19 28 54 29 20 30 59 31 53 32 55 33 21 34
REMARK SMILES IDX 58 35 52 36 51 37 22 39 44 40 29 41 43 42 30 43 33 44 42 45
REMARK SMILES IDX 56 46 31 47 32 48 41 50 57 51 34 52 23 53 24 54 28 55 25 56
REMARK SMILES IDX 27 57 26 58 45 59 46 60 50 61 47 62 49 63 48 64 35 65 36 66
REMARK SMILES IDX 40 67 37 68 39 69 38 70
REMARK H PARENT 4 7 55 38 33 49
REMARK Flexibility Score: inf
ROOT
ATOM      1  C   UNL A   1      35.947  21.243  24.745  1.00  0.00     0.274 C 
ENDROOT
BRANCH   1   2
ATOM      2  O   UNL A   1      35.147  20.919  25.896  1.00  0.00    -0.458 OA
BRANCH   2   3
ATOM      3  C   UNL A   1      34.540  21.927  26.572  1.00  0.00     0.361 C 
ATOM      4  O   UNL A   1      34.203  21.866  27.750  1.00  0.00    -0.245 OA
BRANCH   3   5
ATOM      5  C   UNL A   1      34.360  23.201  25.726  1.00  0.00     0.387 C 
BRANCH   5   6
ATOM      6  N   UNL A   1      33.021  23.848  25.764  1.00  0.00    -0.320 N 
ATOM      7  H   UNL A   1      32.522  23.487  26.576  1.00  0.00     0.349 HD
BRANCH   6   8
ATOM      8  C   UNL A   1      32.191  23.406  24.641  1.00  0.00     0.291 C 
BRANCH   8   9
ATOM      9  C   UNL A   1      32.894  23.387  23.317  1.00  0.00     0.025 C 
ATOM     10  C   UNL A   1      32.837  22.349  22.470  1.00  0.00     0.010 C 
ENDBRANCH   8   9
ENDBRANCH   6   8
BRANCH   6  11
ATOM     11  C   UNL A   1      32.961  25.262  26.233  1.00  0.00     0.184 C 
ATOM     12  C   UNL A   1      33.889  26.247  25.496  1.00  0.00     0.065 C 
ATOM     13  C   UNL A   1      31.540  25.863  26.328  1.00  0.00     0.065 C 
ATOM     14  C   UNL A   1      33.798  27.704  25.940  1.00  0.00     0.006 C 
ATOM     15  C   UNL A   1      31.495  27.328  26.760  1.00  0.00     0.006 C 
ATOM     16  C   UNL A   1      32.364  28.192  25.866  1.00  0.00     0.000 C 
ENDBRANCH   6  11
ENDBRANCH   5   6
ENDBRANCH   3   5
ENDBRANCH   2   3
ENDBRANCH   1   2
BRANCH   1  17
ATOM     17  C   UNL A   1      37.381  20.744  24.989  1.00  0.00     0.275 C 
BRANCH  17  18
ATOM     18  O   UNL A   1      38.367  21.790  25.141  1.00  0.00    -0.458 OA
BRANCH  18  19
ATOM     19  C   UNL A   1      39.394  21.546  25.981  1.00  0.00     0.338 C 
ATOM     20  O   UNL A   1      39.976  20.493  26.150  1.00  0.00    -0.246 OA
BRANCH  19  21
ATOM     21  C   UNL A   1      39.647  22.746  26.799  1.00  0.00     0.060 A 
ATOM     22  C   UNL A   1      40.747  22.733  27.663  1.00  0.00     0.016 A 
ATOM     23  C   UNL A   1      38.869  23.896  26.654  1.00  0.00     0.016 A 
ATOM     24  C   UNL A   1      41.105  23.892  28.349  1.00  0.00     0.010 A 
ATOM     25  C   UNL A   1      39.278  25.080  27.276  1.00  0.00     0.010 A 
ATOM     26  C   UNL A   1      40.435  25.096  28.073  1.00  0.00    -0.014 A 
BRANCH  26  27
ATOM     27  C   UNL A   1      41.115  26.388  28.359  1.00  0.00     0.031 A 
ATOM     28  C   UNL A   1      40.473  27.478  29.159  1.00  0.00     0.074 A 
ATOM     29  C   UNL A   1      42.329  26.578  27.799  1.00  0.00     0.049 A 
ATOM     30  N   UNL A   1      40.912  28.690  29.388  1.00  0.00    -0.248 NA
ATOM     31  C   UNL A   1      39.176  27.176  29.778  1.00  0.00     0.031 C 
ATOM     32  C   UNL A   1      43.050  25.586  26.993  1.00  0.00     0.029 A 
ATOM     33  N   UNL A   1      43.170  27.661  27.812  1.00  0.00    -0.354 N 
ATOM     34  C   UNL A   1      39.942  29.305  30.167  1.00  0.00     0.074 A 
ATOM     35  C   UNL A   1      38.884  28.333  30.362  1.00  0.00     0.031 C 
ATOM     36  C   UNL A   1      44.231  26.093  26.616  1.00  0.00     0.029 A 
ATOM     37  C   UNL A   1      44.318  27.469  27.078  1.00  0.00     0.049 A 
ATOM     38  H   UNL A   1      42.973  28.493  28.298  1.00  0.00     0.167 HD
ATOM     39  C   UNL A   1      39.939  30.567  30.665  1.00  0.00     0.031 A 
ATOM     40  C   UNL A   1      45.316  28.316  26.766  1.00  0.00     0.031 A 
ATOM     41  C   UNL A   1      40.989  31.530  30.442  1.00  0.00     0.049 A 
ATOM     42  C   UNL A   1      45.247  29.724  27.271  1.00  0.00     0.074 A 
ATOM     43  C   UNL A   1      41.087  32.826  30.922  1.00  0.00     0.029 A 
ATOM     44  N   UNL A   1      42.118  31.308  29.666  1.00  0.00    -0.354 N 
ATOM     45  N   UNL A   1      44.335  30.281  28.028  1.00  0.00    -0.248 NA
ATOM     46  C   UNL A   1      46.337  30.621  26.872  1.00  0.00     0.031 C 
ATOM     47  C   UNL A   1      42.242  33.406  30.385  1.00  0.00     0.029 A 
ATOM     48  C   UNL A   1      42.898  32.453  29.623  1.00  0.00     0.049 A 
ATOM     49  H   UNL A   1      42.332  30.461  29.212  1.00  0.00     0.167 HD
ATOM     50  C   UNL A   1      44.748  31.591  28.212  1.00  0.00     0.074 A 
ATOM     51  C   UNL A   1      46.004  31.738  27.503  1.00  0.00     0.031 C 
ATOM     52  C   UNL A   1      44.139  32.584  28.904  1.00  0.00     0.031 A 
BRANCH  39  53
ATOM     53  C   UNL A   1      38.741  30.999  31.466  1.00  0.00    -0.014 A 
ATOM     54  C   UNL A   1      38.695  30.839  32.860  1.00  0.00     0.009 A 
ATOM     55  C   UNL A   1      37.662  31.626  30.822  1.00  0.00     0.009 A 
ATOM     56  C   UNL A   1      37.581  31.270  33.587  1.00  0.00     0.001 A 
ATOM     57  C   UNL A   1      36.561  32.079  31.552  1.00  0.00     0.001 A 
ATOM     58  C   UNL A   1      36.517  31.892  32.933  1.00  0.00     0.000 A 
ENDBRANCH  39  53
BRANCH  40  59
ATOM     59  C   UNL A   1      46.432  27.857  25.899  1.00  0.00    -0.014 A 
ATOM     60  C   UNL A   1      47.563  27.240  26.454  1.00  0.00     0.009 A 
ATOM     61  C   UNL A   1      46.361  28.015  24.505  1.00  0.00     0.009 A 
ATOM     62  C   UNL A   1      48.606  26.810  25.630  1.00  0.00     0.001 A 
ATOM     63  C   UNL A   1      47.390  27.553  23.683  1.00  0.00     0.001 A 
ATOM     64  C   UNL A   1      48.517  26.960  24.248  1.00  0.00     0.000 A 
ENDBRANCH  40  59
BRANCH  52  65
ATOM     65  C   UNL A   1      44.844  33.910  28.945  1.00  0.00    -0.014 A 
ATOM     66  C   UNL A   1      44.576  34.906  27.994  1.00  0.00     0.009 A 
ATOM     67  C   UNL A   1      45.769  34.173  29.968  1.00  0.00     0.009 A 
ATOM     68  C   UNL A   1      45.243  36.131  28.050  1.00  0.00     0.001 A 
ATOM     69  C   UNL A   1      46.413  35.409  30.038  1.00  0.00     0.001 A 
ATOM     70  C   UNL A   1      46.156  36.383  29.074  1.00  0.00     0.000 A 
ENDBRANCH  52  65
ENDBRANCH  26  27
ENDBRANCH  19  21
ENDBRANCH  18  19
ENDBRANCH  17  18
ENDBRANCH   1  17
TORSDOF 15
ENDMDL
