MODEL 1
REMARK VINA RESULT:     -11.1      0.000      0.000
REMARK SMILES Cc1sc2[nH]c(SCC(=O)OCCOC(=O)c3ccc(-c4c5nc(c(-c6ccccc6)c6ccc([nH]6)c(-c6ccccc6)c6nc(c(-c7ccccc7)c7ccc4[nH]7)C=C6)C=C5)cc3)nc(=O)c2c1C
REMARK SMILES IDX 12 1 11 2 9 3 10 4 8 5 7 6 6 7 1 8 2 9 3 10 69 11 4 12 68 13
REMARK SMILES IDX 70 14 5 15 66 16 65 18 67 19 13 20 14 21 15 22 16 23 17 24
REMARK SMILES IDX 18 25 64 26 19 27 63 28 20 29 21 30 22 31 57 32 23 33 62 34
REMARK SMILES IDX 56 35 58 36 24 37 61 38 55 39 54 40 25 42 47 43 32 44 46 45
REMARK SMILES IDX 33 46 36 47 45 48 59 49 34 50 35 51 44 53 60 54 37 55 26 56
REMARK SMILES IDX 27 57 31 58 28 59 30 60 29 61 48 62 49 63 53 64 50 65 52 66
REMARK SMILES IDX 51 67 38 68 39 69 43 70 40 71 42 72 41 73
REMARK H PARENT 5 17 58 41 36 52
REMARK Flexibility Score: inf
ROOT
ATOM      1  C   UNL A   1      41.693  40.736  26.155  1.00  0.00     0.274 C 
ENDROOT
BRANCH   1   2
ATOM      2  O   UNL A   1      42.869  40.794  25.313  1.00  0.00    -0.461 OA
BRANCH   2   3
ATOM      3  C   UNL A   1      43.401  42.031  25.138  1.00  0.00     0.316 C 
ATOM      4  O   UNL A   1      44.006  42.638  26.024  1.00  0.00    -0.251 OA
BRANCH   3   5
ATOM      5  C   UNL A   1      43.255  42.646  23.762  1.00  0.00     0.200 C 
BRANCH   5   6
ATOM      6  S   UNL A   1      41.628  42.631  22.983  1.00  0.00    -0.076 SA
BRANCH   6   7
ATOM      7  C   UNL A   1      41.951  43.179  21.348  1.00  0.00     0.170 A 
ATOM      8  C   UNL A   1      45.443  45.880  17.020  1.00  0.00     0.057 C 
ATOM      9  C   UNL A   1      44.509  45.243  17.995  1.00  0.00     0.007 A 
ATOM     10  S   UNL A   1      45.138  44.533  19.433  1.00  0.00    -0.122 S 
ATOM     11  C   UNL A   1      43.126  45.159  17.934  1.00  0.00    -0.022 A 
ATOM     12  C   UNL A   1      43.599  44.066  19.947  1.00  0.00     0.108 A 
ATOM     13  C   UNL A   1      42.630  44.364  19.029  1.00  0.00     0.080 A 
ATOM     14  C   UNL A   1      42.244  45.799  16.905  1.00  0.00     0.046 C 
ATOM     15  N   UNL A   1      43.267  43.477  21.110  1.00  0.00    -0.326 N 
ATOM     16  C   UNL A   1      41.266  43.906  19.269  1.00  0.00     0.282 A 
ATOM     17  H   UNL A   1      43.958  43.263  21.778  1.00  0.00     0.169 HD
ATOM     18  N   UNL A   1      40.994  43.299  20.491  1.00  0.00    -0.185 NA
ATOM     19  O   UNL A   1      40.434  44.053  18.392  1.00  0.00    -0.267 OA
ENDBRANCH   6   7
ENDBRANCH   5   6
ENDBRANCH   3   5
ENDBRANCH   2   3
ENDBRANCH   1   2
BRANCH   1  20
ATOM     20  C   UNL A   1      41.806  39.685  27.267  1.00  0.00     0.275 C 
BRANCH  20  21
ATOM     21  O   UNL A   1      41.665  38.345  26.745  1.00  0.00    -0.458 OA
BRANCH  21  22
ATOM     22  C   UNL A   1      42.737  37.583  27.057  1.00  0.00     0.338 C 
ATOM     23  O   UNL A   1      43.896  37.899  26.816  1.00  0.00    -0.246 OA
BRANCH  22  24
ATOM     24  C   UNL A   1      42.423  36.273  27.667  1.00  0.00     0.060 A 
ATOM     25  C   UNL A   1      41.137  35.895  28.079  1.00  0.00     0.016 A 
ATOM     26  C   UNL A   1      43.525  35.614  28.193  1.00  0.00     0.016 A 
ATOM     27  C   UNL A   1      40.970  34.946  29.117  1.00  0.00     0.010 A 
ATOM     28  C   UNL A   1      43.351  34.702  29.232  1.00  0.00     0.010 A 
ATOM     29  C   UNL A   1      42.083  34.367  29.743  1.00  0.00    -0.014 A 
BRANCH  29  30
ATOM     30  C   UNL A   1      41.969  33.304  30.793  1.00  0.00     0.031 A 
ATOM     31  C   UNL A   1      40.610  33.238  31.427  1.00  0.00     0.074 A 
ATOM     32  C   UNL A   1      42.659  32.145  30.916  1.00  0.00     0.049 A 
ATOM     33  N   UNL A   1      39.631  32.538  30.923  1.00  0.00    -0.248 NA
ATOM     34  C   UNL A   1      40.196  34.208  32.437  1.00  0.00     0.031 C 
ATOM     35  C   UNL A   1      43.237  31.381  29.806  1.00  0.00     0.029 A 
ATOM     36  N   UNL A   1      42.749  31.282  31.998  1.00  0.00    -0.354 N 
ATOM     37  C   UNL A   1      38.463  33.060  31.444  1.00  0.00     0.074 A 
ATOM     38  C   UNL A   1      38.863  34.057  32.416  1.00  0.00     0.031 C 
ATOM     39  C   UNL A   1      43.447  30.110  30.221  1.00  0.00     0.029 A 
ATOM     40  C   UNL A   1      43.185  30.004  31.658  1.00  0.00     0.049 A 
ATOM     41  H   UNL A   1      42.525  31.548  32.919  1.00  0.00     0.167 HD
ATOM     42  C   UNL A   1      37.223  32.720  31.003  1.00  0.00     0.031 A 
ATOM     43  C   UNL A   1      42.865  28.850  32.311  1.00  0.00     0.031 A 
ATOM     44  C   UNL A   1      37.151  31.770  29.937  1.00  0.00     0.049 A 
ATOM     45  C   UNL A   1      41.418  28.674  31.931  1.00  0.00     0.074 A 
ATOM     46  C   UNL A   1      37.040  31.789  28.562  1.00  0.00     0.029 A 
ATOM     47  N   UNL A   1      37.251  30.437  30.251  1.00  0.00    -0.354 N 
ATOM     48  N   UNL A   1      40.938  28.186  30.822  1.00  0.00    -0.248 NA
ATOM     49  C   UNL A   1      40.439  29.362  32.777  1.00  0.00     0.031 C 
ATOM     50  C   UNL A   1      37.550  30.527  28.118  1.00  0.00     0.029 A 
ATOM     51  C   UNL A   1      37.988  29.853  29.255  1.00  0.00     0.049 A 
ATOM     52  H   UNL A   1      36.867  29.988  31.039  1.00  0.00     0.167 HD
ATOM     53  C   UNL A   1      39.679  28.771  30.686  1.00  0.00     0.074 A 
ATOM     54  C   UNL A   1      39.413  29.440  31.944  1.00  0.00     0.031 C 
ATOM     55  C   UNL A   1      39.008  28.861  29.503  1.00  0.00     0.031 A 
BRANCH  42  56
ATOM     56  C   UNL A   1      35.990  33.201  31.648  1.00  0.00    -0.014 A 
ATOM     57  C   UNL A   1      35.267  34.219  31.013  1.00  0.00     0.009 A 
ATOM     58  C   UNL A   1      35.623  32.791  32.934  1.00  0.00     0.009 A 
ATOM     59  C   UNL A   1      34.210  34.846  31.665  1.00  0.00     0.001 A 
ATOM     60  C   UNL A   1      34.554  33.415  33.583  1.00  0.00     0.001 A 
ATOM     61  C   UNL A   1      33.857  34.448  32.954  1.00  0.00     0.000 A 
ENDBRANCH  42  56
BRANCH  43  62
ATOM     62  C   UNL A   1      43.289  28.683  33.747  1.00  0.00    -0.014 A 
ATOM     63  C   UNL A   1      43.051  27.457  34.395  1.00  0.00     0.009 A 
ATOM     64  C   UNL A   1      43.864  29.709  34.521  1.00  0.00     0.009 A 
ATOM     65  C   UNL A   1      43.463  27.233  35.715  1.00  0.00     0.001 A 
ATOM     66  C   UNL A   1      44.310  29.477  35.830  1.00  0.00     0.001 A 
ATOM     67  C   UNL A   1      44.121  28.234  36.423  1.00  0.00     0.000 A 
ENDBRANCH  43  62
BRANCH  55  68
ATOM     68  C   UNL A   1      39.560  28.092  28.351  1.00  0.00    -0.014 A 
ATOM     69  C   UNL A   1      40.409  28.727  27.437  1.00  0.00     0.009 A 
ATOM     70  C   UNL A   1      39.321  26.714  28.221  1.00  0.00     0.009 A 
ATOM     71  C   UNL A   1      41.040  27.991  26.433  1.00  0.00     0.001 A 
ATOM     72  C   UNL A   1      39.959  25.978  27.221  1.00  0.00     0.001 A 
ATOM     73  C   UNL A   1      40.825  26.615  26.334  1.00  0.00     0.000 A 
ENDBRANCH  55  68
ENDBRANCH  29  30
ENDBRANCH  22  24
ENDBRANCH  21  22
ENDBRANCH  20  21
ENDBRANCH   1  20
TORSDOF 13
ENDMDL
MODEL 2
REMARK VINA RESULT:     -10.9     10.271     19.489
REMARK SMILES Cc1sc2[nH]c(SCC(=O)OCCOC(=O)c3ccc(-c4c5nc(c(-c6ccccc6)c6ccc([nH]6)c(-c6ccccc6)c6nc(c(-c7ccccc7)c7ccc4[nH]7)C=C6)C=C5)cc3)nc(=O)c2c1C
REMARK SMILES IDX 12 1 11 2 9 3 10 4 8 5 7 6 6 7 1 8 2 9 3 10 69 11 4 12 68 13
REMARK SMILES IDX 70 14 5 15 66 16 65 18 67 19 13 20 14 21 15 22 16 23 17 24
REMARK SMILES IDX 18 25 64 26 19 27 63 28 20 29 21 30 22 31 57 32 23 33 62 34
REMARK SMILES IDX 56 35 58 36 24 37 61 38 55 39 54 40 25 42 47 43 32 44 46 45
REMARK SMILES IDX 33 46 36 47 45 48 59 49 34 50 35 51 44 53 60 54 37 55 26 56
REMARK SMILES IDX 27 57 31 58 28 59 30 60 29 61 48 62 49 63 53 64 50 65 52 66
REMARK SMILES IDX 51 67 38 68 39 69 43 70 40 71 42 72 41 73
REMARK H PARENT 5 17 58 41 36 52
REMARK Flexibility Score: inf
ROOT
ATOM      1  C   UNL A   1      46.043  20.809  36.810  1.00  0.00     0.274 C 
ENDROOT
BRANCH   1   2
ATOM      2  O   UNL A   1      46.606  19.490  37.011  1.00  0.00    -0.461 OA
BRANCH   2   3
ATOM      3  C   UNL A   1      46.032  18.755  37.998  1.00  0.00     0.316 C 
ATOM      4  O   UNL A   1      44.991  18.114  37.845  1.00  0.00    -0.251 OA
BRANCH   3   5
ATOM      5  C   UNL A   1      46.757  18.717  39.327  1.00  0.00     0.200 C 
BRANCH   5   6
ATOM      6  S   UNL A   1      45.879  19.274  40.800  1.00  0.00    -0.076 SA
BRANCH   6   7
ATOM      7  C   UNL A   1      45.155  17.803  41.428  1.00  0.00     0.170 A 
ATOM      8  C   UNL A   1      41.151  13.098  41.223  1.00  0.00     0.057 C 
ATOM      9  C   UNL A   1      42.131  14.212  41.385  1.00  0.00     0.007 A 
ATOM     10  S   UNL A   1      42.660  15.086  39.998  1.00  0.00    -0.122 S 
ATOM     11  C   UNL A   1      42.691  14.704  42.555  1.00  0.00    -0.022 A 
ATOM     12  C   UNL A   1      43.666  16.072  40.928  1.00  0.00     0.108 A 
ATOM     13  C   UNL A   1      43.673  15.714  42.249  1.00  0.00     0.080 A 
ATOM     14  C   UNL A   1      42.340  14.282  43.951  1.00  0.00     0.046 C 
ATOM     15  N   UNL A   1      44.403  17.118  40.512  1.00  0.00    -0.326 N 
ATOM     16  C   UNL A   1      44.592  16.387  43.158  1.00  0.00     0.282 A 
ATOM     17  H   UNL A   1      44.400  17.386  39.564  1.00  0.00     0.169 HD
ATOM     18  N   UNL A   1      45.328  17.457  42.659  1.00  0.00    -0.185 NA
ATOM     19  O   UNL A   1      44.694  15.977  44.300  1.00  0.00    -0.267 OA
ENDBRANCH   6   7
ENDBRANCH   5   6
ENDBRANCH   3   5
ENDBRANCH   2   3
ENDBRANCH   1   2
BRANCH   1  20
ATOM     20  C   UNL A   1      46.058  21.246  35.340  1.00  0.00     0.275 C 
BRANCH  20  21
ATOM     21  O   UNL A   1      44.718  21.385  34.815  1.00  0.00    -0.458 OA
BRANCH  21  22
ATOM     22  C   UNL A   1      44.346  22.683  34.761  1.00  0.00     0.338 C 
ATOM     23  O   UNL A   1      43.564  23.205  35.547  1.00  0.00    -0.246 OA
BRANCH  22  24
ATOM     24  C   UNL A   1      44.900  23.450  33.625  1.00  0.00     0.060 A 
ATOM     25  C   UNL A   1      45.789  24.525  33.772  1.00  0.00     0.016 A 
ATOM     26  C   UNL A   1      44.176  23.325  32.449  1.00  0.00     0.016 A 
ATOM     27  C   UNL A   1      45.846  25.544  32.790  1.00  0.00     0.010 A 
ATOM     28  C   UNL A   1      44.219  24.346  31.501  1.00  0.00     0.010 A 
ATOM     29  C   UNL A   1      45.023  25.491  31.655  1.00  0.00    -0.014 A 
BRANCH  29  30
ATOM     30  C   UNL A   1      45.092  26.498  30.548  1.00  0.00     0.031 A 
ATOM     31  C   UNL A   1      45.085  25.879  29.181  1.00  0.00     0.074 A 
ATOM     32  C   UNL A   1      44.684  27.790  30.540  1.00  0.00     0.049 A 
ATOM     33  N   UNL A   1      43.982  25.584  28.548  1.00  0.00    -0.248 NA
ATOM     34  C   UNL A   1      46.282  25.258  28.621  1.00  0.00     0.031 C 
ATOM     35  C   UNL A   1      43.592  28.339  31.350  1.00  0.00     0.029 A 
ATOM     36  N   UNL A   1      44.963  28.797  29.628  1.00  0.00    -0.354 N 
ATOM     37  C   UNL A   1      44.314  24.639  27.596  1.00  0.00     0.074 A 
ATOM     38  C   UNL A   1      45.756  24.507  27.643  1.00  0.00     0.031 C 
ATOM     39  C   UNL A   1      43.176  29.496  30.784  1.00  0.00     0.029 A 
ATOM     40  C   UNL A   1      44.067  29.862  29.681  1.00  0.00     0.049 A 
ATOM     41  H   UNL A   1      45.724  28.763  29.003  1.00  0.00     0.167 HD
ATOM     42  C   UNL A   1      43.398  23.945  26.872  1.00  0.00     0.031 A 
ATOM     43  C   UNL A   1      43.729  30.675  28.640  1.00  0.00     0.031 A 
ATOM     44  C   UNL A   1      42.019  24.224  27.130  1.00  0.00     0.049 A 
ATOM     45  C   UNL A   1      42.893  29.753  27.791  1.00  0.00     0.074 A 
ATOM     46  C   UNL A   1      41.002  23.701  27.901  1.00  0.00     0.029 A 
ATOM     47  N   UNL A   1      41.457  25.322  26.526  1.00  0.00    -0.354 N 
ATOM     48  N   UNL A   1      41.640  29.433  27.956  1.00  0.00    -0.248 NA
ATOM     49  C   UNL A   1      43.621  28.916  26.833  1.00  0.00     0.031 C 
ATOM     50  C   UNL A   1      40.064  24.767  28.075  1.00  0.00     0.029 A 
ATOM     51  C   UNL A   1      40.608  25.882  27.444  1.00  0.00     0.049 A 
ATOM     52  H   UNL A   1      41.631  25.643  25.612  1.00  0.00     0.167 HD
ATOM     53  C   UNL A   1      41.507  28.176  27.366  1.00  0.00     0.074 A 
ATOM     54  C   UNL A   1      42.746  27.941  26.650  1.00  0.00     0.031 C 
ATOM     55  C   UNL A   1      40.496  27.307  27.650  1.00  0.00     0.031 A 
BRANCH  42  56
ATOM     56  C   UNL A   1      43.774  23.028  25.783  1.00  0.00    -0.014 A 
ATOM     57  C   UNL A   1      43.710  21.650  26.030  1.00  0.00     0.009 A 
ATOM     58  C   UNL A   1      44.341  23.491  24.591  1.00  0.00     0.009 A 
ATOM     59  C   UNL A   1      44.235  20.744  25.114  1.00  0.00     0.001 A 
ATOM     60  C   UNL A   1      44.859  22.578  23.669  1.00  0.00     0.001 A 
ATOM     61  C   UNL A   1      44.816  21.209  23.936  1.00  0.00     0.000 A 
ENDBRANCH  42  56
BRANCH  43  62
ATOM     62  C   UNL A   1      44.797  31.520  27.998  1.00  0.00    -0.014 A 
ATOM     63  C   UNL A   1      44.543  32.118  26.749  1.00  0.00     0.009 A 
ATOM     64  C   UNL A   1      46.082  31.711  28.542  1.00  0.00     0.009 A 
ATOM     65  C   UNL A   1      45.484  32.949  26.128  1.00  0.00     0.001 A 
ATOM     66  C   UNL A   1      47.012  32.571  27.942  1.00  0.00     0.001 A 
ATOM     67  C   UNL A   1      46.708  33.201  26.740  1.00  0.00     0.000 A 
ENDBRANCH  43  62
BRANCH  55  68
ATOM     68  C   UNL A   1      39.363  27.830  28.466  1.00  0.00    -0.014 A 
ATOM     69  C   UNL A   1      39.313  27.556  29.838  1.00  0.00     0.009 A 
ATOM     70  C   UNL A   1      38.395  28.676  27.900  1.00  0.00     0.009 A 
ATOM     71  C   UNL A   1      38.335  28.148  30.638  1.00  0.00     0.001 A 
ATOM     72  C   UNL A   1      37.422  29.274  28.704  1.00  0.00     0.001 A 
ATOM     73  C   UNL A   1      37.400  29.017  30.074  1.00  0.00     0.000 A 
ENDBRANCH  55  68
ENDBRANCH  29  30
ENDBRANCH  22  24
ENDBRANCH  21  22
ENDBRANCH  20  21
ENDBRANCH   1  20
TORSDOF 13
ENDMDL
MODEL 3
REMARK VINA RESULT:     -10.8      9.504     13.434
REMARK SMILES Cc1sc2[nH]c(SCC(=O)OCCOC(=O)c3ccc(-c4c5nc(c(-c6ccccc6)c6ccc([nH]6)c(-c6ccccc6)c6nc(c(-c7ccccc7)c7ccc4[nH]7)C=C6)C=C5)cc3)nc(=O)c2c1C
REMARK SMILES IDX 12 1 11 2 9 3 10 4 8 5 7 6 6 7 1 8 2 9 3 10 69 11 4 12 68 13
REMARK SMILES IDX 70 14 5 15 66 16 65 18 67 19 13 20 14 21 15 22 16 23 17 24
REMARK SMILES IDX 18 25 64 26 19 27 63 28 20 29 21 30 22 31 57 32 23 33 62 34
REMARK SMILES IDX 56 35 58 36 24 37 61 38 55 39 54 40 25 42 47 43 32 44 46 45
REMARK SMILES IDX 33 46 36 47 45 48 59 49 34 50 35 51 44 53 60 54 37 55 26 56
REMARK SMILES IDX 27 57 31 58 28 59 30 60 29 61 48 62 49 63 53 64 50 65 52 66
REMARK SMILES IDX 51 67 38 68 39 69 43 70 40 71 42 72 41 73
REMARK H PARENT 5 17 58 41 36 52
REMARK Flexibility Score: inf
ROOT
ATOM      1  C   UNL A   1      35.791  21.707  24.605  1.00  0.00     0.274 C 
ENDROOT
BRANCH   1   2
ATOM      2  O   UNL A   1      34.975  20.918  25.504  1.00  0.00    -0.461 OA
BRANCH   2   3
ATOM      3  C   UNL A   1      34.234  19.944  24.916  1.00  0.00     0.316 C 
ATOM      4  O   UNL A   1      34.704  18.867  24.546  1.00  0.00    -0.251 OA
BRANCH   3   5
ATOM      5  C   UNL A   1      32.753  20.219  24.759  1.00  0.00     0.200 C 
BRANCH   5   6
ATOM      6  S   UNL A   1      32.201  21.155  23.319  1.00  0.00    -0.076 SA
BRANCH   6   7
ATOM      7  C   UNL A   1      32.313  22.825  23.848  1.00  0.00     0.170 A 
ATOM      8  C   UNL A   1      33.995  28.734  23.160  1.00  0.00     0.057 C 
ATOM      9  C   UNL A   1      33.578  27.328  23.439  1.00  0.00     0.007 A 
ATOM     10  S   UNL A   1      33.325  26.240  22.127  1.00  0.00    -0.122 S 
ATOM     11  C   UNL A   1      33.384  26.715  24.667  1.00  0.00    -0.022 A 
ATOM     12  C   UNL A   1      32.906  24.982  23.172  1.00  0.00     0.108 A 
ATOM     13  C   UNL A   1      32.878  25.378  24.481  1.00  0.00     0.080 A 
ATOM     14  C   UNL A   1      33.661  27.318  26.013  1.00  0.00     0.046 C 
ATOM     15  N   UNL A   1      32.628  23.706  22.849  1.00  0.00    -0.326 N 
ATOM     16  C   UNL A   1      32.407  24.440  25.492  1.00  0.00     0.282 A 
ATOM     17  H   UNL A   1      32.650  23.412  21.909  1.00  0.00     0.169 HD
ATOM     18  N   UNL A   1      32.132  23.137  25.087  1.00  0.00    -0.185 NA
ATOM     19  O   UNL A   1      32.255  24.834  26.634  1.00  0.00    -0.267 OA
ENDBRANCH   6   7
ENDBRANCH   5   6
ENDBRANCH   3   5
ENDBRANCH   2   3
ENDBRANCH   1   2
BRANCH   1  20
ATOM     20  C   UNL A   1      37.294  21.491  24.817  1.00  0.00     0.275 C 
BRANCH  20  21
ATOM     21  O   UNL A   1      37.773  22.208  25.978  1.00  0.00    -0.458 OA
BRANCH  21  22
ATOM     22  C   UNL A   1      39.084  21.964  26.197  1.00  0.00     0.338 C 
ATOM     23  O   UNL A   1      39.656  20.935  25.860  1.00  0.00    -0.246 OA
BRANCH  22  24
ATOM     24  C   UNL A   1      39.803  23.015  26.950  1.00  0.00     0.060 A 
ATOM     25  C   UNL A   1      39.162  24.057  27.635  1.00  0.00     0.016 A 
ATOM     26  C   UNL A   1      41.136  23.156  26.594  1.00  0.00     0.016 A 
ATOM     27  C   UNL A   1      39.827  25.291  27.842  1.00  0.00     0.010 A 
ATOM     28  C   UNL A   1      41.773  24.382  26.776  1.00  0.00     0.010 A 
ATOM     29  C   UNL A   1      41.134  25.487  27.371  1.00  0.00    -0.014 A 
BRANCH  29  30
ATOM     30  C   UNL A   1      41.914  26.741  27.625  1.00  0.00     0.031 A 
ATOM     31  C   UNL A   1      41.055  27.968  27.710  1.00  0.00     0.074 A 
ATOM     32  C   UNL A   1      43.109  26.894  28.246  1.00  0.00     0.049 A 
ATOM     33  N   UNL A   1      40.490  28.356  28.820  1.00  0.00    -0.248 NA
ATOM     34  C   UNL A   1      40.520  28.606  26.510  1.00  0.00     0.031 C 
ATOM     35  C   UNL A   1      43.636  26.019  29.297  1.00  0.00     0.029 A 
ATOM     36  N   UNL A   1      43.956  27.992  28.268  1.00  0.00    -0.354 N 
ATOM     37  C   UNL A   1      39.441  29.181  28.463  1.00  0.00     0.074 A 
ATOM     38  C   UNL A   1      39.530  29.349  27.026  1.00  0.00     0.031 C 
ATOM     39  C   UNL A   1      44.594  26.692  29.977  1.00  0.00     0.029 A 
ATOM     40  C   UNL A   1      44.871  27.969  29.318  1.00  0.00     0.049 A 
ATOM     41  H   UNL A   1      43.915  28.718  27.604  1.00  0.00     0.167 HD
ATOM     42  C   UNL A   1      38.498  29.623  29.335  1.00  0.00     0.031 A 
ATOM     43  C   UNL A   1      45.416  29.061  29.927  1.00  0.00     0.031 A 
ATOM     44  C   UNL A   1      38.618  29.194  30.694  1.00  0.00     0.049 A 
ATOM     45  C   UNL A   1      44.240  29.600  30.699  1.00  0.00     0.074 A 
ATOM     46  C   UNL A   1      38.108  28.192  31.494  1.00  0.00     0.029 A 
ATOM     47  N   UNL A   1      39.490  29.870  31.512  1.00  0.00    -0.354 N 
ATOM     48  N   UNL A   1      43.780  29.183  31.845  1.00  0.00    -0.248 NA
ATOM     49  C   UNL A   1      43.353  30.513  29.973  1.00  0.00     0.031 C 
ATOM     50  C   UNL A   1      39.041  28.045  32.569  1.00  0.00     0.029 A 
ATOM     51  C   UNL A   1      40.085  28.931  32.313  1.00  0.00     0.049 A 
ATOM     52  H   UNL A   1      39.655  30.840  31.520  1.00  0.00     0.167 HD
ATOM     53  C   UNL A   1      42.429  29.529  31.839  1.00  0.00     0.074 A 
ATOM     54  C   UNL A   1      42.244  30.388  30.686  1.00  0.00     0.031 C 
ATOM     55  C   UNL A   1      41.492  28.945  32.638  1.00  0.00     0.031 A 
BRANCH  42  56
ATOM     56  C   UNL A   1      37.457  30.593  28.958  1.00  0.00    -0.014 A 
ATOM     57  C   UNL A   1      36.283  30.104  28.369  1.00  0.00     0.009 A 
ATOM     58  C   UNL A   1      37.678  31.973  29.017  1.00  0.00     0.009 A 
ATOM     59  C   UNL A   1      35.354  30.980  27.815  1.00  0.00     0.001 A 
ATOM     60  C   UNL A   1      36.738  32.851  28.470  1.00  0.00     0.001 A 
ATOM     61  C   UNL A   1      35.585  32.354  27.860  1.00  0.00     0.000 A 
ENDBRANCH  42  56
BRANCH  43  62
ATOM     62  C   UNL A   1      46.271  29.998  29.115  1.00  0.00    -0.014 A 
ATOM     63  C   UNL A   1      46.703  29.601  27.836  1.00  0.00     0.009 A 
ATOM     64  C   UNL A   1      46.730  31.246  29.580  1.00  0.00     0.009 A 
ATOM     65  C   UNL A   1      47.463  30.450  27.021  1.00  0.00     0.001 A 
ATOM     66  C   UNL A   1      47.460  32.112  28.754  1.00  0.00     0.001 A 
ATOM     67  C   UNL A   1      47.815  31.719  27.469  1.00  0.00     0.000 A 
ENDBRANCH  43  62
BRANCH  55  68
ATOM     68  C   UNL A   1      41.990  28.053  33.724  1.00  0.00    -0.014 A 
ATOM     69  C   UNL A   1      42.713  26.901  33.397  1.00  0.00     0.009 A 
ATOM     70  C   UNL A   1      41.828  28.400  35.076  1.00  0.00     0.009 A 
ATOM     71  C   UNL A   1      43.300  26.129  34.401  1.00  0.00     0.001 A 
ATOM     72  C   UNL A   1      42.423  27.631  36.078  1.00  0.00     0.001 A 
ATOM     73  C   UNL A   1      43.166  26.502  35.739  1.00  0.00     0.000 A 
ENDBRANCH  55  68
ENDBRANCH  29  30
ENDBRANCH  22  24
ENDBRANCH  21  22
ENDBRANCH  20  21
ENDBRANCH   1  20
TORSDOF 13
ENDMDL
