MODEL 1
REMARK VINA RESULT:     -10.0      0.000      0.000
REMARK SMILES Cc1cc(Br)cc2c1O[C@H](C(F)(F)F)C(C(=O)OCCOC(=O)c1ccc(-c3c4nc(c(-c5ccccc5)c5ccc([nH]5)c(-c5ccccc5)c5nc(c(-c6ccccc6)c6ccc3[nH]6)C=C5)C=C4)cc1)=C2
REMARK SMILES IDX 20 1 19 2 18 3 16 4 17 5 15 6 1 7 2 8 3 9 8 10 4 11 7 12
REMARK SMILES IDX 9 13 5 14 6 15 72 16 10 17 11 18 12 19 13 20 14 21 21 22
REMARK SMILES IDX 22 23 23 24 24 25 25 26 71 27 26 28 70 29 27 30 28 31 29 32
REMARK SMILES IDX 64 33 30 34 69 35 63 36 65 37 31 38 68 39 62 40 61 41 32 43
REMARK SMILES IDX 54 44 39 45 53 46 40 47 43 48 52 49 66 50 41 51 42 52 51 54
REMARK SMILES IDX 67 55 44 56 33 57 34 58 38 59 35 60 37 61 36 62 55 63 56 64
REMARK SMILES IDX 60 65 57 66 59 67 58 68 45 69 46 70 50 71 47 72 49 73 48 74
REMARK H PARENT 65 42 43 53
REMARK Flexibility Score: inf
ROOT
ATOM      1  C   UNL A   1      33.246  34.099  28.351  1.00  0.00     0.275 C 
ENDROOT
BRANCH   1   2
ATOM      2  C   UNL A   1      34.104  35.062  29.171  1.00  0.00     0.275 C 
BRANCH   2   3
ATOM      3  O   UNL A   1      33.978  34.802  30.587  1.00  0.00    -0.459 OA
BRANCH   3   4
ATOM      4  C   UNL A   1      34.664  33.729  31.042  1.00  0.00     0.338 C 
ATOM      5  O   UNL A   1      34.337  32.556  30.942  1.00  0.00    -0.246 OA
BRANCH   4   6
ATOM      6  C   UNL A   1      35.921  34.150  31.686  1.00  0.00     0.087 C 
ATOM      7  C   UNL A   1      39.583  35.332  35.109  1.00  0.00     0.048 C 
ATOM      8  C   UNL A   1      39.527  34.799  33.707  1.00  0.00    -0.007 A 
ATOM      9  C   UNL A   1      40.732  34.469  33.059  1.00  0.00     0.023 A 
ATOM     10  C   UNL A   1      38.314  34.652  33.015  1.00  0.00     0.130 A 
ATOM     11  C   UNL A   1      40.722  33.989  31.752  1.00  0.00     0.019 A 
ATOM     12  C   UNL A   1      38.316  34.151  31.711  1.00  0.00     0.019 A 
ATOM     13  O   UNL A   1      37.166  35.032  33.657  1.00  0.00    -0.475 OA
ATOM     14  Br  UNL A   1      42.347  33.540  30.897  1.00  0.00    -0.051 Br
ATOM     15  C   UNL A   1      39.521  33.827  31.073  1.00  0.00     0.027 A 
ATOM     16  C   UNL A   1      37.061  33.921  31.027  1.00  0.00     0.027 C 
ATOM     17  C   UNL A   1      35.876  34.658  33.096  1.00  0.00     0.316 C 
BRANCH  17  18
ATOM     18  C   UNL A   1      35.198  33.650  34.036  1.00  0.00     0.430 C 
ATOM     19  F   UNL A   1      33.857  33.623  33.848  1.00  0.00    -0.167 F 
ATOM     20  F   UNL A   1      35.643  32.388  33.815  1.00  0.00    -0.167 F 
ATOM     21  F   UNL A   1      35.422  33.935  35.339  1.00  0.00    -0.167 F 
ENDBRANCH  17  18
ENDBRANCH   4   6
ENDBRANCH   3   4
ENDBRANCH   2   3
ENDBRANCH   1   2
BRANCH   1  22
ATOM     22  O   UNL A   1      34.075  33.329  27.461  1.00  0.00    -0.458 OA
BRANCH  22  23
ATOM     23  C   UNL A   1      33.921  31.989  27.541  1.00  0.00     0.338 C 
ATOM     24  O   UNL A   1      32.911  31.342  27.326  1.00  0.00    -0.246 OA
BRANCH  23  25
ATOM     25  C   UNL A   1      35.207  31.348  27.860  1.00  0.00     0.060 A 
ATOM     26  C   UNL A   1      35.214  30.008  28.227  1.00  0.00     0.016 A 
ATOM     27  C   UNL A   1      36.361  32.114  28.004  1.00  0.00     0.016 A 
ATOM     28  C   UNL A   1      36.306  29.479  28.906  1.00  0.00     0.010 A 
ATOM     29  C   UNL A   1      37.516  31.529  28.540  1.00  0.00     0.010 A 
ATOM     30  C   UNL A   1      37.486  30.220  29.057  1.00  0.00    -0.014 A 
BRANCH  30  31
ATOM     31  C   UNL A   1      38.655  29.640  29.784  1.00  0.00     0.031 A 
ATOM     32  C   UNL A   1      38.883  29.951  31.245  1.00  0.00     0.074 A 
ATOM     33  C   UNL A   1      39.504  28.799  29.154  1.00  0.00     0.049 A 
ATOM     34  N   UNL A   1      39.924  29.684  31.994  1.00  0.00    -0.248 NA
ATOM     35  C   UNL A   1      37.809  30.664  31.955  1.00  0.00     0.031 C 
ATOM     36  C   UNL A   1      39.385  28.349  27.765  1.00  0.00     0.029 A 
ATOM     37  N   UNL A   1      40.626  28.149  29.609  1.00  0.00    -0.354 N 
ATOM     38  C   UNL A   1      39.656  30.248  33.237  1.00  0.00     0.074 A 
ATOM     39  C   UNL A   1      38.360  30.882  33.141  1.00  0.00     0.031 C 
ATOM     40  C   UNL A   1      40.338  27.442  27.509  1.00  0.00     0.029 A 
ATOM     41  C   UNL A   1      41.215  27.338  28.668  1.00  0.00     0.049 A 
ATOM     42  H   UNL A   1      40.976  28.254  30.524  1.00  0.00     0.167 HD
ATOM     43  C   UNL A   1      40.419  30.238  34.357  1.00  0.00     0.031 A 
ATOM     44  C   UNL A   1      42.356  26.626  28.700  1.00  0.00     0.031 A 
ATOM     45  C   UNL A   1      41.685  29.563  34.469  1.00  0.00     0.049 A 
ATOM     46  C   UNL A   1      43.220  26.689  29.925  1.00  0.00     0.074 A 
ATOM     47  C   UNL A   1      42.530  29.493  35.563  1.00  0.00     0.029 A 
ATOM     48  N   UNL A   1      42.277  28.822  33.458  1.00  0.00    -0.354 N 
ATOM     49  N   UNL A   1      42.989  27.295  31.064  1.00  0.00    -0.248 NA
ATOM     50  C   UNL A   1      44.515  25.999  29.858  1.00  0.00     0.031 C 
ATOM     51  C   UNL A   1      43.658  28.750  35.198  1.00  0.00     0.029 A 
ATOM     52  C   UNL A   1      43.488  28.312  33.895  1.00  0.00     0.049 A 
ATOM     53  H   UNL A   1      41.894  28.681  32.562  1.00  0.00     0.167 HD
ATOM     54  C   UNL A   1      44.107  27.057  31.851  1.00  0.00     0.074 A 
ATOM     55  C   UNL A   1      45.003  26.229  31.070  1.00  0.00     0.031 C 
ATOM     56  C   UNL A   1      44.371  27.497  33.104  1.00  0.00     0.031 A 
BRANCH  43  57
ATOM     57  C   UNL A   1      39.925  31.008  35.552  1.00  0.00    -0.014 A 
ATOM     58  C   UNL A   1      40.720  31.978  36.182  1.00  0.00     0.009 A 
ATOM     59  C   UNL A   1      38.615  30.801  36.015  1.00  0.00     0.009 A 
ATOM     60  C   UNL A   1      40.221  32.703  37.268  1.00  0.00     0.001 A 
ATOM     61  C   UNL A   1      38.110  31.547  37.080  1.00  0.00     0.001 A 
ATOM     62  C   UNL A   1      38.917  32.492  37.711  1.00  0.00     0.000 A 
ENDBRANCH  43  57
BRANCH  44  63
ATOM     63  C   UNL A   1      42.773  25.838  27.509  1.00  0.00    -0.014 A 
ATOM     64  C   UNL A   1      42.387  24.497  27.372  1.00  0.00     0.009 A 
ATOM     65  C   UNL A   1      43.535  26.432  26.489  1.00  0.00     0.009 A 
ATOM     66  C   UNL A   1      42.757  23.766  26.240  1.00  0.00     0.001 A 
ATOM     67  C   UNL A   1      43.874  25.710  25.343  1.00  0.00     0.001 A 
ATOM     68  C   UNL A   1      43.490  24.376  25.222  1.00  0.00     0.000 A 
ENDBRANCH  44  63
BRANCH  56  69
ATOM     69  C   UNL A   1      45.680  27.086  33.717  1.00  0.00    -0.014 A 
ATOM     70  C   UNL A   1      45.807  25.863  34.393  1.00  0.00     0.009 A 
ATOM     71  C   UNL A   1      46.811  27.902  33.561  1.00  0.00     0.009 A 
ATOM     72  C   UNL A   1      47.040  25.473  34.916  1.00  0.00     0.001 A 
ATOM     73  C   UNL A   1      48.049  27.495  34.061  1.00  0.00     0.001 A 
ATOM     74  C   UNL A   1      48.160  26.285  34.743  1.00  0.00     0.000 A 
ENDBRANCH  56  69
ENDBRANCH  30  31
ENDBRANCH  23  25
ENDBRANCH  22  23
ENDBRANCH   1  22
TORSDOF 12
ENDMDL
MODEL 2
REMARK VINA RESULT:      -9.9      5.954      9.420
REMARK SMILES Cc1cc(Br)cc2c1O[C@H](C(F)(F)F)C(C(=O)OCCOC(=O)c1ccc(-c3c4nc(c(-c5ccccc5)c5ccc([nH]5)c(-c5ccccc5)c5nc(c(-c6ccccc6)c6ccc3[nH]6)C=C5)C=C4)cc1)=C2
REMARK SMILES IDX 20 1 19 2 18 3 16 4 17 5 15 6 1 7 2 8 3 9 8 10 4 11 7 12
REMARK SMILES IDX 9 13 5 14 6 15 72 16 10 17 11 18 12 19 13 20 14 21 21 22
REMARK SMILES IDX 22 23 23 24 24 25 25 26 71 27 26 28 70 29 27 30 28 31 29 32
REMARK SMILES IDX 64 33 30 34 69 35 63 36 65 37 31 38 68 39 62 40 61 41 32 43
REMARK SMILES IDX 54 44 39 45 53 46 40 47 43 48 52 49 66 50 41 51 42 52 51 54
REMARK SMILES IDX 67 55 44 56 33 57 34 58 38 59 35 60 37 61 36 62 55 63 56 64
REMARK SMILES IDX 60 65 57 66 59 67 58 68 45 69 46 70 50 71 47 72 49 73 48 74
REMARK H PARENT 65 42 43 53
REMARK Flexibility Score: inf
ROOT
ATOM      1  C   UNL A   1      35.929  20.775  25.368  1.00  0.00     0.275 C 
ENDROOT
BRANCH   1   2
ATOM      2  C   UNL A   1      34.678  21.488  24.857  1.00  0.00     0.275 C 
BRANCH   2   3
ATOM      3  O   UNL A   1      34.893  22.913  24.750  1.00  0.00    -0.459 OA
BRANCH   3   4
ATOM      4  C   UNL A   1      34.725  23.434  23.513  1.00  0.00     0.338 C 
ATOM      5  O   UNL A   1      35.209  23.016  22.472  1.00  0.00    -0.246 OA
BRANCH   4   6
ATOM      6  C   UNL A   1      33.832  24.605  23.559  1.00  0.00     0.087 C 
ATOM      7  C   UNL A   1      29.726  27.714  23.501  1.00  0.00     0.048 C 
ATOM      8  C   UNL A   1      31.071  27.691  24.167  1.00  0.00    -0.007 A 
ATOM      9  C   UNL A   1      31.403  28.727  25.058  1.00  0.00     0.023 A 
ATOM     10  C   UNL A   1      32.015  26.686  23.900  1.00  0.00     0.130 A 
ATOM     11  C   UNL A   1      32.649  28.751  25.681  1.00  0.00     0.019 A 
ATOM     12  C   UNL A   1      33.254  26.711  24.546  1.00  0.00     0.019 A 
ATOM     13  O   UNL A   1      31.678  25.723  22.988  1.00  0.00    -0.475 OA
ATOM     14  Br  UNL A   1      33.078  30.144  26.885  1.00  0.00    -0.051 Br
ATOM     15  C   UNL A   1      33.577  27.748  25.431  1.00  0.00     0.027 A 
ATOM     16  C   UNL A   1      34.196  25.631  24.335  1.00  0.00     0.027 C 
ATOM     17  C   UNL A   1      32.501  24.527  22.874  1.00  0.00     0.316 C 
BRANCH  17  18
ATOM     18  C   UNL A   1      31.689  23.317  23.357  1.00  0.00     0.430 C 
ATOM     19  F   UNL A   1      31.825  23.131  24.692  1.00  0.00    -0.167 F 
ATOM     20  F   UNL A   1      30.363  23.485  23.126  1.00  0.00    -0.167 F 
ATOM     21  F   UNL A   1      32.064  22.171  22.745  1.00  0.00    -0.167 F 
ENDBRANCH  17  18
ENDBRANCH   4   6
ENDBRANCH   3   4
ENDBRANCH   2   3
ENDBRANCH   1   2
BRANCH   1  22
ATOM     22  O   UNL A   1      37.111  21.398  24.833  1.00  0.00    -0.458 OA
BRANCH  22  23
ATOM     23  C   UNL A   1      38.271  21.047  25.431  1.00  0.00     0.338 C 
ATOM     24  O   UNL A   1      38.841  19.972  25.376  1.00  0.00    -0.246 OA
BRANCH  23  25
ATOM     25  C   UNL A   1      38.848  22.202  26.138  1.00  0.00     0.060 A 
ATOM     26  C   UNL A   1      38.304  23.461  25.918  1.00  0.00     0.016 A 
ATOM     27  C   UNL A   1      40.045  22.075  26.838  1.00  0.00     0.016 A 
ATOM     28  C   UNL A   1      39.038  24.600  26.231  1.00  0.00     0.010 A 
ATOM     29  C   UNL A   1      40.702  23.224  27.298  1.00  0.00     0.010 A 
ATOM     30  C   UNL A   1      40.239  24.506  26.946  1.00  0.00    -0.014 A 
BRANCH  30  31
ATOM     31  C   UNL A   1      41.017  25.737  27.282  1.00  0.00     0.031 A 
ATOM     32  C   UNL A   1      40.477  26.740  28.275  1.00  0.00     0.074 A 
ATOM     33  C   UNL A   1      42.230  25.953  26.730  1.00  0.00     0.049 A 
ATOM     34  N   UNL A   1      40.920  27.938  28.564  1.00  0.00    -0.248 NA
ATOM     35  C   UNL A   1      39.278  26.351  29.036  1.00  0.00     0.031 C 
ATOM     36  C   UNL A   1      42.918  25.051  25.803  1.00  0.00     0.029 A 
ATOM     37  N   UNL A   1      43.117  26.991  26.887  1.00  0.00    -0.354 N 
ATOM     38  C   UNL A   1      40.023  28.466  29.487  1.00  0.00     0.074 A 
ATOM     39  C   UNL A   1      39.004  27.463  29.704  1.00  0.00     0.031 C 
ATOM     40  C   UNL A   1      44.141  25.531  25.540  1.00  0.00     0.029 A 
ATOM     41  C   UNL A   1      44.282  26.835  26.174  1.00  0.00     0.049 A 
ATOM     42  H   UNL A   1      42.935  27.773  27.458  1.00  0.00     0.167 HD
ATOM     43  C   UNL A   1      40.047  29.674  30.099  1.00  0.00     0.031 A 
ATOM     44  C   UNL A   1      45.330  27.660  25.998  1.00  0.00     0.031 A 
ATOM     45  C   UNL A   1      41.088  30.652  29.923  1.00  0.00     0.049 A 
ATOM     46  C   UNL A   1      45.300  29.022  26.627  1.00  0.00     0.074 A 
ATOM     47  C   UNL A   1      41.202  31.904  30.503  1.00  0.00     0.029 A 
ATOM     48  N   UNL A   1      42.208  30.478  29.125  1.00  0.00    -0.354 N 
ATOM     49  N   UNL A   1      44.404  29.536  27.433  1.00  0.00    -0.248 NA
ATOM     50  C   UNL A   1      46.408  29.929  26.297  1.00  0.00     0.031 C 
ATOM     51  C   UNL A   1      42.366  32.507  30.016  1.00  0.00     0.029 A 
ATOM     52  C   UNL A   1      43.004  31.609  29.177  1.00  0.00     0.049 A 
ATOM     53  H   UNL A   1      42.406  29.670  28.597  1.00  0.00     0.167 HD
ATOM     54  C   UNL A   1      44.839  30.824  27.710  1.00  0.00     0.074 A 
ATOM     55  C   UNL A   1      46.094  31.004  27.008  1.00  0.00     0.031 C 
ATOM     56  C   UNL A   1      44.245  31.776  28.468  1.00  0.00     0.031 A 
BRANCH  43  57
ATOM     57  C   UNL A   1      38.894  30.031  30.998  1.00  0.00    -0.014 A 
ATOM     58  C   UNL A   1      38.934  29.785  32.380  1.00  0.00     0.009 A 
ATOM     59  C   UNL A   1      37.772  30.683  30.459  1.00  0.00     0.009 A 
ATOM     60  C   UNL A   1      37.863  30.160  33.195  1.00  0.00     0.001 A 
ATOM     61  C   UNL A   1      36.717  31.082  31.280  1.00  0.00     0.001 A 
ATOM     62  C   UNL A   1      36.760  30.813  32.647  1.00  0.00     0.000 A 
ENDBRANCH  43  57
BRANCH  44  63
ATOM     63  C   UNL A   1      46.471  27.238  25.141  1.00  0.00    -0.014 A 
ATOM     64  C   UNL A   1      46.677  27.832  23.887  1.00  0.00     0.009 A 
ATOM     65  C   UNL A   1      47.375  26.258  25.584  1.00  0.00     0.009 A 
ATOM     66  C   UNL A   1      47.763  27.453  23.095  1.00  0.00     0.001 A 
ATOM     67  C   UNL A   1      48.479  25.906  24.805  1.00  0.00     0.001 A 
ATOM     68  C   UNL A   1      48.669  26.499  23.559  1.00  0.00     0.000 A 
ENDBRANCH  44  63
BRANCH  56  69
ATOM     69  C   UNL A   1      44.946  33.099  28.587  1.00  0.00    -0.014 A 
ATOM     70  C   UNL A   1      44.647  34.155  27.713  1.00  0.00     0.009 A 
ATOM     71  C   UNL A   1      45.867  33.311  29.625  1.00  0.00     0.009 A 
ATOM     72  C   UNL A   1      45.271  35.393  27.865  1.00  0.00     0.001 A 
ATOM     73  C   UNL A   1      46.468  34.558  29.792  1.00  0.00     0.001 A 
ATOM     74  C   UNL A   1      46.175  35.595  28.908  1.00  0.00     0.000 A 
ENDBRANCH  56  69
ENDBRANCH  30  31
ENDBRANCH  23  25
ENDBRANCH  22  23
ENDBRANCH   1  22
TORSDOF 12
ENDMDL
MODEL 3
REMARK VINA RESULT:      -9.7      4.759      9.382
REMARK SMILES Cc1cc(Br)cc2c1O[C@H](C(F)(F)F)C(C(=O)OCCOC(=O)c1ccc(-c3c4nc(c(-c5ccccc5)c5ccc([nH]5)c(-c5ccccc5)c5nc(c(-c6ccccc6)c6ccc3[nH]6)C=C5)C=C4)cc1)=C2
REMARK SMILES IDX 20 1 19 2 18 3 16 4 17 5 15 6 1 7 2 8 3 9 8 10 4 11 7 12
REMARK SMILES IDX 9 13 5 14 6 15 72 16 10 17 11 18 12 19 13 20 14 21 21 22
REMARK SMILES IDX 22 23 23 24 24 25 25 26 71 27 26 28 70 29 27 30 28 31 29 32
REMARK SMILES IDX 64 33 30 34 69 35 63 36 65 37 31 38 68 39 62 40 61 41 32 43
REMARK SMILES IDX 54 44 39 45 53 46 40 47 43 48 52 49 66 50 41 51 42 52 51 54
REMARK SMILES IDX 67 55 44 56 33 57 34 58 38 59 35 60 37 61 36 62 55 63 56 64
REMARK SMILES IDX 60 65 57 66 59 67 58 68 45 69 46 70 50 71 47 72 49 73 48 74
REMARK H PARENT 65 42 43 53
REMARK Flexibility Score: inf
ROOT
ATOM      1  C   UNL A   1      31.760  30.066  25.389  1.00  0.00     0.275 C 
ENDROOT
BRANCH   1   2
ATOM      2  C   UNL A   1      31.816  28.666  24.779  1.00  0.00     0.275 C 
BRANCH   2   3
ATOM      3  O   UNL A   1      32.458  27.730  25.673  1.00  0.00    -0.459 OA
BRANCH   3   4
ATOM      4  C   UNL A   1      31.638  26.822  26.248  1.00  0.00     0.338 C 
ATOM      5  O   UNL A   1      30.653  27.056  26.933  1.00  0.00    -0.246 OA
BRANCH   4   6
ATOM      6  C   UNL A   1      32.071  25.451  25.926  1.00  0.00     0.087 C 
ATOM      7  C   UNL A   1      32.563  20.772  23.828  1.00  0.00     0.048 C 
ATOM      8  C   UNL A   1      33.463  21.773  24.494  1.00  0.00    -0.007 A 
ATOM      9  C   UNL A   1      34.834  21.480  24.609  1.00  0.00     0.023 A 
ATOM     10  C   UNL A   1      32.970  22.972  25.032  1.00  0.00     0.130 A 
ATOM     11  C   UNL A   1      35.697  22.375  25.236  1.00  0.00     0.019 A 
ATOM     12  C   UNL A   1      33.849  23.871  25.642  1.00  0.00     0.019 A 
ATOM     13  O   UNL A   1      31.623  23.201  24.949  1.00  0.00    -0.475 OA
ATOM     14  Br  UNL A   1      37.539  21.973  25.375  1.00  0.00    -0.051 Br
ATOM     15  C   UNL A   1      35.213  23.570  25.754  1.00  0.00     0.027 A 
ATOM     16  C   UNL A   1      33.356  25.145  26.124  1.00  0.00     0.027 C 
ATOM     17  C   UNL A   1      31.103  24.528  25.248  1.00  0.00     0.316 C 
BRANCH  17  18
ATOM     18  C   UNL A   1      30.546  25.145  23.956  1.00  0.00     0.430 C 
ATOM     19  F   UNL A   1      30.037  24.197  23.134  1.00  0.00    -0.167 F 
ATOM     20  F   UNL A   1      29.535  26.011  24.217  1.00  0.00    -0.167 F 
ATOM     21  F   UNL A   1      31.490  25.823  23.264  1.00  0.00    -0.167 F 
ENDBRANCH  17  18
ENDBRANCH   4   6
ENDBRANCH   3   4
ENDBRANCH   2   3
ENDBRANCH   1   2
BRANCH   1  22
ATOM     22  O   UNL A   1      32.320  30.055  26.714  1.00  0.00    -0.458 OA
BRANCH  22  23
ATOM     23  C   UNL A   1      32.918  31.204  27.100  1.00  0.00     0.338 C 
ATOM     24  O   UNL A   1      32.416  32.311  27.184  1.00  0.00    -0.246 OA
BRANCH  23  25
ATOM     25  C   UNL A   1      34.307  30.942  27.509  1.00  0.00     0.060 A 
ATOM     26  C   UNL A   1      34.732  29.626  27.632  1.00  0.00     0.016 A 
ATOM     27  C   UNL A   1      35.114  31.979  27.972  1.00  0.00     0.016 A 
ATOM     28  C   UNL A   1      35.867  29.328  28.378  1.00  0.00     0.010 A 
ATOM     29  C   UNL A   1      36.341  31.680  28.580  1.00  0.00     0.010 A 
ATOM     30  C   UNL A   1      36.705  30.347  28.848  1.00  0.00    -0.014 A 
BRANCH  30  31
ATOM     31  C   UNL A   1      37.926  30.016  29.644  1.00  0.00     0.031 A 
ATOM     32  C   UNL A   1      39.055  29.224  29.025  1.00  0.00     0.074 A 
ATOM     33  C   UNL A   1      38.053  30.450  30.915  1.00  0.00     0.049 A 
ATOM     34  N   UNL A   1      40.107  28.697  29.600  1.00  0.00    -0.248 NA
ATOM     35  C   UNL A   1      38.989  28.983  27.574  1.00  0.00     0.031 C 
ATOM     36  C   UNL A   1      37.083  31.278  31.635  1.00  0.00     0.029 A 
ATOM     37  N   UNL A   1      39.068  30.278  31.826  1.00  0.00    -0.354 N 
ATOM     38  C   UNL A   1      40.789  28.014  28.598  1.00  0.00     0.074 A 
ATOM     39  C   UNL A   1      40.029  28.184  27.380  1.00  0.00     0.031 C 
ATOM     40  C   UNL A   1      37.581  31.606  32.835  1.00  0.00     0.029 A 
ATOM     41  C   UNL A   1      38.847  30.911  33.026  1.00  0.00     0.049 A 
ATOM     42  H   UNL A   1      39.878  29.750  31.637  1.00  0.00     0.167 HD
ATOM     43  C   UNL A   1      41.944  27.311  28.684  1.00  0.00     0.031 A 
ATOM     44  C   UNL A   1      39.547  30.902  34.175  1.00  0.00     0.031 A 
ATOM     45  C   UNL A   1      42.729  27.185  29.885  1.00  0.00     0.049 A 
ATOM     46  C   UNL A   1      40.784  30.057  34.269  1.00  0.00     0.074 A 
ATOM     47  C   UNL A   1      43.916  26.497  30.070  1.00  0.00     0.029 A 
ATOM     48  N   UNL A   1      42.418  27.780  31.097  1.00  0.00    -0.354 N 
ATOM     49  N   UNL A   1      41.371  29.353  33.333  1.00  0.00    -0.248 NA
ATOM     50  C   UNL A   1      41.435  29.981  35.583  1.00  0.00     0.031 C 
ATOM     51  C   UNL A   1      44.296  26.635  31.408  1.00  0.00     0.029 A 
ATOM     52  C   UNL A   1      43.377  27.453  32.041  1.00  0.00     0.049 A 
ATOM     53  H   UNL A   1      41.631  28.348  31.263  1.00  0.00     0.167 HD
ATOM     54  C   UNL A   1      42.462  28.752  33.943  1.00  0.00     0.074 A 
ATOM     55  C   UNL A   1      42.472  29.196  35.322  1.00  0.00     0.031 C 
ATOM     56  C   UNL A   1      43.368  27.897  33.410  1.00  0.00     0.031 A 
BRANCH  43  57
ATOM     57  C   UNL A   1      42.423  26.590  27.453  1.00  0.00    -0.014 A 
ATOM     58  C   UNL A   1      43.309  27.192  26.546  1.00  0.00     0.009 A 
ATOM     59  C   UNL A   1      42.028  25.260  27.233  1.00  0.00     0.009 A 
ATOM     60  C   UNL A   1      43.765  26.484  25.430  1.00  0.00     0.001 A 
ATOM     61  C   UNL A   1      42.508  24.547  26.134  1.00  0.00     0.001 A 
ATOM     62  C   UNL A   1      43.371  25.163  25.229  1.00  0.00     0.000 A 
ENDBRANCH  43  57
BRANCH  44  63
ATOM     63  C   UNL A   1      39.057  31.675  35.348  1.00  0.00    -0.014 A 
ATOM     64  C   UNL A   1      38.215  31.074  36.296  1.00  0.00     0.009 A 
ATOM     65  C   UNL A   1      39.450  33.010  35.541  1.00  0.00     0.009 A 
ATOM     66  C   UNL A   1      37.778  31.794  37.410  1.00  0.00     0.001 A 
ATOM     67  C   UNL A   1      39.040  33.716  36.673  1.00  0.00     0.001 A 
ATOM     68  C   UNL A   1      38.199  33.110  37.604  1.00  0.00     0.000 A 
ENDBRANCH  44  63
BRANCH  56  69
ATOM     69  C   UNL A   1      44.454  27.390  34.316  1.00  0.00    -0.014 A 
ATOM     70  C   UNL A   1      44.302  26.184  35.017  1.00  0.00     0.009 A 
ATOM     71  C   UNL A   1      45.664  28.093  34.417  1.00  0.00     0.009 A 
ATOM     72  C   UNL A   1      45.337  25.701  35.818  1.00  0.00     0.001 A 
ATOM     73  C   UNL A   1      46.708  27.593  35.197  1.00  0.00     0.001 A 
ATOM     74  C   UNL A   1      46.541  26.401  35.901  1.00  0.00     0.000 A 
ENDBRANCH  56  69
ENDBRANCH  30  31
ENDBRANCH  23  25
ENDBRANCH  22  23
ENDBRANCH   1  22
TORSDOF 12
ENDMDL
