MODEL 1
REMARK VINA RESULT:     -11.3      0.000      0.000
REMARK SMILES O=C(Cc1cccc(Oc2ncnc3c2CCCC3)c1)OCCOC(=O)c1ccc(-c2c3nc(c(-c4ccccc4)c4ccc([nH]4)c(-c4ccccc4)c4nc(c(-c5ccccc5)c5ccc2[nH]5)C=C4)C=C3)cc1
REMARK SMILES IDX 22 1 21 2 2 3 1 4 3 5 4 6 5 7 20 8 6 9 8 10 7 11 9 12 10 13
REMARK SMILES IDX 11 14 15 15 12 16 14 17 16 18 13 19 19 20 17 21 18 22 23 23
REMARK SMILES IDX 24 24 25 25 26 26 27 27 28 28 74 29 29 30 73 31 30 32 31 33
REMARK SMILES IDX 32 34 67 35 33 36 72 37 66 38 68 39 34 40 71 41 65 42 64 43
REMARK SMILES IDX 35 45 57 46 42 47 56 48 43 49 46 50 55 51 69 52 44 53 45 54
REMARK SMILES IDX 54 56 70 57 47 58 36 59 37 60 41 61 38 62 40 63 39 64 58 65
REMARK SMILES IDX 59 66 63 67 60 68 62 69 61 70 48 71 49 72 53 73 50 74 52 75
REMARK SMILES IDX 51 76
REMARK H PARENT 68 44 46 55
REMARK Flexibility Score: inf
ROOT
ATOM      1  C   UNL A   1      43.741  21.725  25.623  1.00  0.00     0.274 C 
ENDROOT
BRANCH   1   2
ATOM      2  O   UNL A   1      42.321  21.703  25.381  1.00  0.00    -0.462 OA
BRANCH   2   3
ATOM      3  C   UNL A   1      41.534  20.780  25.998  1.00  0.00     0.310 C 
ATOM      4  O   UNL A   1      41.480  19.625  25.581  1.00  0.00    -0.252 OA
BRANCH   3   5
ATOM      5  C   UNL A   1      40.601  21.285  27.082  1.00  0.00     0.158 C 
BRANCH   5   6
ATOM      6  C   UNL A   1      39.447  22.115  26.591  1.00  0.00    -0.033 A 
ATOM      7  C   UNL A   1      39.279  23.446  26.979  1.00  0.00     0.004 A 
ATOM      8  C   UNL A   1      38.501  21.539  25.734  1.00  0.00     0.051 A 
ATOM      9  C   UNL A   1      38.190  24.179  26.503  1.00  0.00     0.004 A 
ATOM     10  C   UNL A   1      37.468  22.287  25.178  1.00  0.00     0.129 A 
ATOM     11  C   UNL A   1      37.297  23.607  25.591  1.00  0.00     0.047 A 
BRANCH  10  12
ATOM     12  O   UNL A   1      36.588  21.813  24.225  1.00  0.00    -0.439 OA
BRANCH  12  13
ATOM     13  C   UNL A   1      35.269  21.647  24.616  1.00  0.00     0.225 A 
ATOM     14  N   UNL A   1      35.061  20.822  25.664  1.00  0.00    -0.201 NA
ATOM     15  C   UNL A   1      34.268  22.363  23.976  1.00  0.00     0.036 A 
ATOM     16  C   UNL A   1      33.791  20.709  26.060  1.00  0.00     0.226 A 
ATOM     17  C   UNL A   1      32.995  22.187  24.503  1.00  0.00     0.051 A 
ATOM     18  C   UNL A   1      34.546  23.308  22.844  1.00  0.00     0.043 C 
ATOM     19  N   UNL A   1      32.738  21.337  25.521  1.00  0.00    -0.241 NA
ATOM     20  C   UNL A   1      31.805  22.928  23.949  1.00  0.00     0.057 C 
ATOM     21  C   UNL A   1      33.281  23.805  22.138  1.00  0.00     0.005 C 
ATOM     22  C   UNL A   1      32.202  24.167  23.150  1.00  0.00     0.007 C 
ENDBRANCH  12  13
ENDBRANCH  10  12
ENDBRANCH   5   6
ENDBRANCH   3   5
ENDBRANCH   2   3
ENDBRANCH   1   2
BRANCH   1  23
ATOM     23  C   UNL A   1      44.521  22.579  24.617  1.00  0.00     0.275 C 
BRANCH  23  24
ATOM     24  O   UNL A   1      43.910  23.862  24.419  1.00  0.00    -0.458 OA
BRANCH  24  25
ATOM     25  C   UNL A   1      44.581  24.889  25.001  1.00  0.00     0.338 C 
ATOM     26  O   UNL A   1      45.717  25.254  24.745  1.00  0.00    -0.246 OA
BRANCH  25  27
ATOM     27  C   UNL A   1      43.674  25.649  25.886  1.00  0.00     0.060 A 
ATOM     28  C   UNL A   1      44.045  26.958  26.216  1.00  0.00     0.016 A 
ATOM     29  C   UNL A   1      42.495  25.101  26.401  1.00  0.00     0.016 A 
ATOM     30  C   UNL A   1      43.285  27.694  27.123  1.00  0.00     0.010 A 
ATOM     31  C   UNL A   1      41.731  25.841  27.313  1.00  0.00     0.010 A 
ATOM     32  C   UNL A   1      42.152  27.120  27.716  1.00  0.00    -0.014 A 
BRANCH  32  33
ATOM     33  C   UNL A   1      41.560  27.779  28.906  1.00  0.00     0.031 A 
ATOM     34  C   UNL A   1      42.245  27.605  30.236  1.00  0.00     0.074 A 
ATOM     35  C   UNL A   1      40.480  28.575  28.811  1.00  0.00     0.049 A 
ATOM     36  N   UNL A   1      41.994  28.186  31.382  1.00  0.00    -0.248 NA
ATOM     37  C   UNL A   1      43.368  26.653  30.276  1.00  0.00     0.031 C 
ATOM     38  C   UNL A   1      39.728  28.845  27.587  1.00  0.00     0.029 A 
ATOM     39  N   UNL A   1      39.839  29.314  29.773  1.00  0.00    -0.354 N 
ATOM     40  C   UNL A   1      42.934  27.681  32.272  1.00  0.00     0.074 A 
ATOM     41  C   UNL A   1      43.728  26.712  31.549  1.00  0.00     0.031 C 
ATOM     42  C   UNL A   1      38.732  29.704  27.872  1.00  0.00     0.029 A 
ATOM     43  C   UNL A   1      38.773  30.035  29.296  1.00  0.00     0.049 A 
ATOM     44  H   UNL A   1      40.118  29.327  30.717  1.00  0.00     0.167 HD
ATOM     45  C   UNL A   1      43.136  28.002  33.571  1.00  0.00     0.031 A 
ATOM     46  C   UNL A   1      37.934  30.876  29.933  1.00  0.00     0.031 A 
ATOM     47  C   UNL A   1      42.342  28.946  34.308  1.00  0.00     0.049 A 
ATOM     48  C   UNL A   1      38.140  31.171  31.397  1.00  0.00     0.074 A 
ATOM     49  C   UNL A   1      42.484  29.351  35.625  1.00  0.00     0.029 A 
ATOM     50  N   UNL A   1      41.247  29.622  33.796  1.00  0.00    -0.354 N 
ATOM     51  N   UNL A   1      39.077  30.741  32.207  1.00  0.00    -0.248 NA
ATOM     52  C   UNL A   1      37.178  32.091  32.026  1.00  0.00     0.031 C 
ATOM     53  C   UNL A   1      41.442  30.236  35.923  1.00  0.00     0.029 A 
ATOM     54  C   UNL A   1      40.687  30.423  34.776  1.00  0.00     0.049 A 
ATOM     55  H   UNL A   1      40.917  29.543  32.872  1.00  0.00     0.167 HD
ATOM     56  C   UNL A   1      38.843  31.370  33.425  1.00  0.00     0.074 A 
ATOM     57  C   UNL A   1      37.681  32.214  33.246  1.00  0.00     0.031 C 
ATOM     58  C   UNL A   1      39.536  31.265  34.586  1.00  0.00     0.031 A 
BRANCH  45  59
ATOM     59  C   UNL A   1      44.256  27.299  34.282  1.00  0.00    -0.014 A 
ATOM     60  C   UNL A   1      44.040  26.085  34.954  1.00  0.00     0.009 A 
ATOM     61  C   UNL A   1      45.546  27.851  34.270  1.00  0.00     0.009 A 
ATOM     62  C   UNL A   1      45.087  25.456  35.631  1.00  0.00     0.001 A 
ATOM     63  C   UNL A   1      46.596  27.207  34.925  1.00  0.00     0.001 A 
ATOM     64  C   UNL A   1      46.364  26.016  35.613  1.00  0.00     0.000 A 
ENDBRANCH  45  59
BRANCH  46  65
ATOM     65  C   UNL A   1      36.825  31.532  29.192  1.00  0.00    -0.014 A 
ATOM     66  C   UNL A   1      36.950  32.855  28.744  1.00  0.00     0.009 A 
ATOM     67  C   UNL A   1      35.618  30.851  28.973  1.00  0.00     0.009 A 
ATOM     68  C   UNL A   1      35.876  33.496  28.121  1.00  0.00     0.001 A 
ATOM     69  C   UNL A   1      34.554  31.485  28.327  1.00  0.00     0.001 A 
ATOM     70  C   UNL A   1      34.681  32.810  27.912  1.00  0.00     0.000 A 
ENDBRANCH  46  65
BRANCH  58  71
ATOM     71  C   UNL A   1      39.090  32.120  35.740  1.00  0.00    -0.014 A 
ATOM     72  C   UNL A   1      38.172  31.650  36.691  1.00  0.00     0.009 A 
ATOM     73  C   UNL A   1      39.633  33.406  35.896  1.00  0.00     0.009 A 
ATOM     74  C   UNL A   1      37.779  32.464  37.755  1.00  0.00     0.001 A 
ATOM     75  C   UNL A   1      39.260  34.206  36.977  1.00  0.00     0.001 A 
ATOM     76  C   UNL A   1      38.326  33.739  37.900  1.00  0.00     0.000 A 
ENDBRANCH  58  71
ENDBRANCH  32  33
ENDBRANCH  25  27
ENDBRANCH  24  25
ENDBRANCH  23  24
ENDBRANCH   1  23
TORSDOF 14
ENDMDL
MODEL 2
REMARK VINA RESULT:     -11.1      4.999     10.224
REMARK SMILES O=C(Cc1cccc(Oc2ncnc3c2CCCC3)c1)OCCOC(=O)c1ccc(-c2c3nc(c(-c4ccccc4)c4ccc([nH]4)c(-c4ccccc4)c4nc(c(-c5ccccc5)c5ccc2[nH]5)C=C4)C=C3)cc1
REMARK SMILES IDX 22 1 21 2 2 3 1 4 3 5 4 6 5 7 20 8 6 9 8 10 7 11 9 12 10 13
REMARK SMILES IDX 11 14 15 15 12 16 14 17 16 18 13 19 19 20 17 21 18 22 23 23
REMARK SMILES IDX 24 24 25 25 26 26 27 27 28 28 74 29 29 30 73 31 30 32 31 33
REMARK SMILES IDX 32 34 67 35 33 36 72 37 66 38 68 39 34 40 71 41 65 42 64 43
REMARK SMILES IDX 35 45 57 46 42 47 56 48 43 49 46 50 55 51 69 52 44 53 45 54
REMARK SMILES IDX 54 56 70 57 47 58 36 59 37 60 41 61 38 62 40 63 39 64 58 65
REMARK SMILES IDX 59 66 63 67 60 68 62 69 61 70 48 71 49 72 53 73 50 74 52 75
REMARK SMILES IDX 51 76
REMARK H PARENT 68 44 46 55
REMARK Flexibility Score: inf
ROOT
ATOM      1  C   UNL A   1      34.566  34.280  31.308  1.00  0.00     0.274 C 
ENDROOT
BRANCH   1   2
ATOM      2  O   UNL A   1      34.045  33.338  30.350  1.00  0.00    -0.462 OA
BRANCH   2   3
ATOM      3  C   UNL A   1      33.818  33.723  29.063  1.00  0.00     0.310 C 
ATOM      4  O   UNL A   1      32.804  34.351  28.768  1.00  0.00    -0.252 OA
BRANCH   3   5
ATOM      5  C   UNL A   1      34.762  33.182  28.006  1.00  0.00     0.158 C 
BRANCH   5   6
ATOM      6  C   UNL A   1      34.603  31.718  27.701  1.00  0.00    -0.033 A 
ATOM      7  C   UNL A   1      35.699  30.854  27.647  1.00  0.00     0.004 A 
ATOM      8  C   UNL A   1      33.326  31.204  27.447  1.00  0.00     0.051 A 
ATOM      9  C   UNL A   1      35.506  29.502  27.355  1.00  0.00     0.004 A 
ATOM     10  C   UNL A   1      33.112  29.842  27.252  1.00  0.00     0.129 A 
ATOM     11  C   UNL A   1      34.215  28.994  27.175  1.00  0.00     0.047 A 
BRANCH  10  12
ATOM     12  O   UNL A   1      31.867  29.259  27.133  1.00  0.00    -0.439 OA
BRANCH  12  13
ATOM     13  C   UNL A   1      31.497  28.821  25.871  1.00  0.00     0.225 A 
ATOM     14  N   UNL A   1      31.319  29.781  24.939  1.00  0.00    -0.201 NA
ATOM     15  C   UNL A   1      31.397  27.461  25.618  1.00  0.00     0.036 A 
ATOM     16  C   UNL A   1      31.009  29.342  23.716  1.00  0.00     0.226 A 
ATOM     17  C   UNL A   1      31.105  27.131  24.302  1.00  0.00     0.051 A 
ATOM     18  C   UNL A   1      31.650  26.421  26.670  1.00  0.00     0.043 C 
ATOM     19  N   UNL A   1      30.875  28.061  23.349  1.00  0.00    -0.241 NA
ATOM     20  C   UNL A   1      31.005  25.695  23.854  1.00  0.00     0.057 C 
ATOM     21  C   UNL A   1      31.254  25.006  26.239  1.00  0.00     0.005 C 
ATOM     22  C   UNL A   1      31.702  24.730  24.810  1.00  0.00     0.007 C 
ENDBRANCH  12  13
ENDBRANCH  10  12
ENDBRANCH   5   6
ENDBRANCH   3   5
ENDBRANCH   2   3
ENDBRANCH   1   2
BRANCH   1  23
ATOM     23  C   UNL A   1      34.540  33.764  32.751  1.00  0.00     0.275 C 
BRANCH  23  24
ATOM     24  O   UNL A   1      35.026  32.416  32.845  1.00  0.00    -0.458 OA
BRANCH  24  25
ATOM     25  C   UNL A   1      36.268  32.315  33.384  1.00  0.00     0.338 C 
ATOM     26  O   UNL A   1      36.615  32.695  34.490  1.00  0.00    -0.246 OA
BRANCH  25  27
ATOM     27  C   UNL A   1      37.134  31.499  32.507  1.00  0.00     0.060 A 
ATOM     28  C   UNL A   1      38.294  30.957  33.074  1.00  0.00     0.016 A 
ATOM     29  C   UNL A   1      36.839  31.275  31.159  1.00  0.00     0.016 A 
ATOM     30  C   UNL A   1      39.202  30.261  32.278  1.00  0.00     0.010 A 
ATOM     31  C   UNL A   1      37.752  30.575  30.359  1.00  0.00     0.010 A 
ATOM     32  C   UNL A   1      38.961  30.111  30.905  1.00  0.00    -0.014 A 
BRANCH  32  33
ATOM     33  C   UNL A   1      40.075  29.671  30.030  1.00  0.00     0.031 A 
ATOM     34  C   UNL A   1      41.196  30.638  29.756  1.00  0.00     0.074 A 
ATOM     35  C   UNL A   1      40.139  28.419  29.542  1.00  0.00     0.049 A 
ATOM     36  N   UNL A   1      42.332  30.440  29.137  1.00  0.00    -0.248 NA
ATOM     37  C   UNL A   1      41.013  32.013  30.253  1.00  0.00     0.031 C 
ATOM     38  C   UNL A   1      39.136  27.376  29.741  1.00  0.00     0.029 A 
ATOM     39  N   UNL A   1      41.111  27.815  28.783  1.00  0.00    -0.354 N 
ATOM     40  C   UNL A   1      43.001  31.656  29.181  1.00  0.00     0.074 A 
ATOM     41  C   UNL A   1      42.127  32.600  29.844  1.00  0.00     0.031 C 
ATOM     42  C   UNL A   1      39.552  26.252  29.129  1.00  0.00     0.029 A 
ATOM     43  C   UNL A   1      40.844  26.501  28.490  1.00  0.00     0.049 A 
ATOM     44  H   UNL A   1      41.923  28.280  28.479  1.00  0.00     0.167 HD
ATOM     45  C   UNL A   1      44.239  31.966  28.730  1.00  0.00     0.031 A 
ATOM     46  C   UNL A   1      41.566  25.599  27.797  1.00  0.00     0.031 A 
ATOM     47  C   UNL A   1      45.110  31.047  28.051  1.00  0.00     0.049 A 
ATOM     48  C   UNL A   1      42.916  25.984  27.248  1.00  0.00     0.074 A 
ATOM     49  C   UNL A   1      46.391  31.264  27.574  1.00  0.00     0.029 A 
ATOM     50  N   UNL A   1      44.781  29.738  27.739  1.00  0.00    -0.354 N 
ATOM     51  N   UNL A   1      43.567  27.117  27.362  1.00  0.00    -0.248 NA
ATOM     52  C   UNL A   1      43.641  24.949  26.493  1.00  0.00     0.031 C 
ATOM     53  C   UNL A   1      46.819  30.099  26.928  1.00  0.00     0.029 A 
ATOM     54  C   UNL A   1      45.826  29.141  27.054  1.00  0.00     0.049 A 
ATOM     55  H   UNL A   1      43.932  29.297  27.971  1.00  0.00     0.167 HD
ATOM     56  C   UNL A   1      44.790  26.916  26.732  1.00  0.00     0.074 A 
ATOM     57  C   UNL A   1      44.794  25.554  26.244  1.00  0.00     0.031 C 
ATOM     58  C   UNL A   1      45.823  27.782  26.580  1.00  0.00     0.031 A 
BRANCH  45  59
ATOM     59  C   UNL A   1      44.711  33.375  28.942  1.00  0.00    -0.014 A 
ATOM     60  C   UNL A   1      45.339  33.757  30.138  1.00  0.00     0.009 A 
ATOM     61  C   UNL A   1      44.535  34.330  27.930  1.00  0.00     0.009 A 
ATOM     62  C   UNL A   1      45.750  35.078  30.330  1.00  0.00     0.001 A 
ATOM     63  C   UNL A   1      44.970  35.643  28.113  1.00  0.00     0.001 A 
ATOM     64  C   UNL A   1      45.568  36.018  29.317  1.00  0.00     0.000 A 
ENDBRANCH  45  59
BRANCH  46  65
ATOM     65  C   UNL A   1      41.047  24.221  27.592  1.00  0.00    -0.014 A 
ATOM     66  C   UNL A   1      41.633  23.132  28.257  1.00  0.00     0.009 A 
ATOM     67  C   UNL A   1      39.995  23.983  26.695  1.00  0.00     0.009 A 
ATOM     68  C   UNL A   1      41.198  21.829  28.001  1.00  0.00     0.001 A 
ATOM     69  C   UNL A   1      39.545  22.683  26.460  1.00  0.00     0.001 A 
ATOM     70  C   UNL A   1      40.153  21.607  27.105  1.00  0.00     0.000 A 
ENDBRANCH  46  65
BRANCH  58  71
ATOM     71  C   UNL A   1      47.065  27.269  25.904  1.00  0.00    -0.014 A 
ATOM     72  C   UNL A   1      47.245  27.379  24.517  1.00  0.00     0.009 A 
ATOM     73  C   UNL A   1      48.089  26.702  26.680  1.00  0.00     0.009 A 
ATOM     74  C   UNL A   1      48.410  26.899  23.916  1.00  0.00     0.001 A 
ATOM     75  C   UNL A   1      49.264  26.248  26.079  1.00  0.00     0.001 A 
ATOM     76  C   UNL A   1      49.420  26.337  24.698  1.00  0.00     0.000 A 
ENDBRANCH  58  71
ENDBRANCH  32  33
ENDBRANCH  25  27
ENDBRANCH  24  25
ENDBRANCH  23  24
ENDBRANCH   1  23
TORSDOF 14
ENDMDL
MODEL 3
REMARK VINA RESULT:     -10.8      2.405      7.144
REMARK SMILES O=C(Cc1cccc(Oc2ncnc3c2CCCC3)c1)OCCOC(=O)c1ccc(-c2c3nc(c(-c4ccccc4)c4ccc([nH]4)c(-c4ccccc4)c4nc(c(-c5ccccc5)c5ccc2[nH]5)C=C4)C=C3)cc1
REMARK SMILES IDX 22 1 21 2 2 3 1 4 3 5 4 6 5 7 20 8 6 9 8 10 7 11 9 12 10 13
REMARK SMILES IDX 11 14 15 15 12 16 14 17 16 18 13 19 19 20 17 21 18 22 23 23
REMARK SMILES IDX 24 24 25 25 26 26 27 27 28 28 74 29 29 30 73 31 30 32 31 33
REMARK SMILES IDX 32 34 67 35 33 36 72 37 66 38 68 39 34 40 71 41 65 42 64 43
REMARK SMILES IDX 35 45 57 46 42 47 56 48 43 49 46 50 55 51 69 52 44 53 45 54
REMARK SMILES IDX 54 56 70 57 47 58 36 59 37 60 41 61 38 62 40 63 39 64 58 65
REMARK SMILES IDX 59 66 63 67 60 68 62 69 61 70 48 71 49 72 53 73 50 74 52 75
REMARK SMILES IDX 51 76
REMARK H PARENT 68 44 46 55
REMARK Flexibility Score: inf
ROOT
ATOM      1  C   UNL A   1      37.803  22.295  25.805  1.00  0.00     0.274 C 
ENDROOT
BRANCH   1   2
ATOM      2  O   UNL A   1      37.203  22.126  24.507  1.00  0.00    -0.462 OA
BRANCH   2   3
ATOM      3  C   UNL A   1      36.259  23.004  24.067  1.00  0.00     0.310 C 
ATOM      4  O   UNL A   1      35.972  23.067  22.874  1.00  0.00    -0.252 OA
BRANCH   3   5
ATOM      5  C   UNL A   1      35.733  24.009  25.073  1.00  0.00     0.158 C 
BRANCH   5   6
ATOM      6  C   UNL A   1      34.400  23.664  25.678  1.00  0.00    -0.033 A 
ATOM      7  C   UNL A   1      34.073  22.356  26.043  1.00  0.00     0.004 A 
ATOM      8  C   UNL A   1      33.449  24.675  25.869  1.00  0.00     0.051 A 
ATOM      9  C   UNL A   1      32.821  22.080  26.598  1.00  0.00     0.004 A 
ATOM     10  C   UNL A   1      32.238  24.427  26.509  1.00  0.00     0.129 A 
ATOM     11  C   UNL A   1      31.913  23.114  26.846  1.00  0.00     0.047 A 
BRANCH  10  12
ATOM     12  O   UNL A   1      31.322  25.402  26.846  1.00  0.00    -0.439 OA
BRANCH  12  13
ATOM     13  C   UNL A   1      31.069  26.381  25.898  1.00  0.00     0.225 A 
ATOM     14  N   UNL A   1      30.279  26.016  24.866  1.00  0.00    -0.201 NA
ATOM     15  C   UNL A   1      31.566  27.662  26.084  1.00  0.00     0.036 A 
ATOM     16  C   UNL A   1      30.004  26.981  23.985  1.00  0.00     0.226 A 
ATOM     17  C   UNL A   1      31.181  28.585  25.120  1.00  0.00     0.051 A 
ATOM     18  C   UNL A   1      32.402  28.042  27.271  1.00  0.00     0.043 C 
ATOM     19  N   UNL A   1      30.430  28.250  24.048  1.00  0.00    -0.241 NA
ATOM     20  C   UNL A   1      31.601  30.030  25.202  1.00  0.00     0.057 C 
ATOM     21  C   UNL A   1      33.035  29.431  27.154  1.00  0.00     0.005 C 
ATOM     22  C   UNL A   1      32.033  30.440  26.608  1.00  0.00     0.007 C 
ENDBRANCH  12  13
ENDBRANCH  10  12
ENDBRANCH   5   6
ENDBRANCH   3   5
ENDBRANCH   2   3
ENDBRANCH   1   2
BRANCH   1  23
ATOM     23  C   UNL A   1      39.282  21.893  25.854  1.00  0.00     0.275 C 
BRANCH  23  24
ATOM     24  O   UNL A   1      39.955  22.469  26.983  1.00  0.00    -0.458 OA
BRANCH  24  25
ATOM     25  C   UNL A   1      40.928  23.355  26.651  1.00  0.00     0.338 C 
ATOM     26  O   UNL A   1      41.797  23.201  25.808  1.00  0.00    -0.246 OA
BRANCH  25  27
ATOM     27  C   UNL A   1      40.690  24.647  27.330  1.00  0.00     0.060 A 
ATOM     28  C   UNL A   1      41.646  25.654  27.150  1.00  0.00     0.016 A 
ATOM     29  C   UNL A   1      39.572  24.873  28.139  1.00  0.00     0.016 A 
ATOM     30  C   UNL A   1      41.531  26.859  27.841  1.00  0.00     0.010 A 
ATOM     31  C   UNL A   1      39.457  26.084  28.834  1.00  0.00     0.010 A 
ATOM     32  C   UNL A   1      40.463  27.060  28.727  1.00  0.00    -0.014 A 
BRANCH  32  33
ATOM     33  C   UNL A   1      40.537  28.189  29.687  1.00  0.00     0.031 A 
ATOM     34  C   UNL A   1      39.494  29.273  29.599  1.00  0.00     0.074 A 
ATOM     35  C   UNL A   1      41.459  28.228  30.665  1.00  0.00     0.049 A 
ATOM     36  N   UNL A   1      39.274  30.280  30.405  1.00  0.00    -0.248 NA
ATOM     37  C   UNL A   1      38.573  29.206  28.452  1.00  0.00     0.031 C 
ATOM     38  C   UNL A   1      42.515  27.240  30.878  1.00  0.00     0.029 A 
ATOM     39  N   UNL A   1      41.639  29.140  31.675  1.00  0.00    -0.354 N 
ATOM     40  C   UNL A   1      38.185  30.957  29.870  1.00  0.00     0.074 A 
ATOM     41  C   UNL A   1      37.818  30.276  28.648  1.00  0.00     0.031 C 
ATOM     42  C   UNL A   1      43.227  27.595  31.963  1.00  0.00     0.029 A 
ATOM     43  C   UNL A   1      42.682  28.836  32.514  1.00  0.00     0.049 A 
ATOM     44  H   UNL A   1      41.073  29.938  31.787  1.00  0.00     0.167 HD
ATOM     45  C   UNL A   1      37.531  32.038  30.355  1.00  0.00     0.031 A 
ATOM     46  C   UNL A   1      43.136  29.478  33.607  1.00  0.00     0.031 A 
ATOM     47  C   UNL A   1      37.896  32.738  31.556  1.00  0.00     0.049 A 
ATOM     48  C   UNL A   1      42.430  30.718  34.094  1.00  0.00     0.074 A 
ATOM     49  C   UNL A   1      37.280  33.833  32.137  1.00  0.00     0.029 A 
ATOM     50  N   UNL A   1      38.984  32.419  32.351  1.00  0.00    -0.354 N 
ATOM     51  N   UNL A   1      41.357  31.303  33.620  1.00  0.00    -0.248 NA
ATOM     52  C   UNL A   1      42.990  31.370  35.289  1.00  0.00     0.031 C 
ATOM     53  C   UNL A   1      38.027  34.208  33.260  1.00  0.00     0.029 A 
ATOM     54  C   UNL A   1      39.073  33.311  33.406  1.00  0.00     0.049 A 
ATOM     55  H   UNL A   1      39.601  31.670  32.190  1.00  0.00     0.167 HD
ATOM     56  C   UNL A   1      41.091  32.363  34.480  1.00  0.00     0.074 A 
ATOM     57  C   UNL A   1      42.109  32.336  35.508  1.00  0.00     0.031 C 
ATOM     58  C   UNL A   1      40.085  33.271  34.428  1.00  0.00     0.031 A 
BRANCH  45  59
ATOM     59  C   UNL A   1      36.359  32.540  29.562  1.00  0.00    -0.014 A 
ATOM     60  C   UNL A   1      35.072  32.010  29.754  1.00  0.00     0.009 A 
ATOM     61  C   UNL A   1      36.541  33.562  28.619  1.00  0.00     0.009 A 
ATOM     62  C   UNL A   1      33.998  32.471  28.990  1.00  0.00     0.001 A 
ATOM     63  C   UNL A   1      35.461  34.039  27.875  1.00  0.00     0.001 A 
ATOM     64  C   UNL A   1      34.193  33.486  28.055  1.00  0.00     0.000 A 
ENDBRANCH  45  59
BRANCH  46  65
ATOM     65  C   UNL A   1      44.315  28.956  34.348  1.00  0.00    -0.014 A 
ATOM     66  C   UNL A   1      44.151  28.017  35.378  1.00  0.00     0.009 A 
ATOM     67  C   UNL A   1      45.603  29.431  34.059  1.00  0.00     0.009 A 
ATOM     68  C   UNL A   1      45.251  27.590  36.127  1.00  0.00     0.001 A 
ATOM     69  C   UNL A   1      46.704  28.983  34.792  1.00  0.00     0.001 A 
ATOM     70  C   UNL A   1      46.525  28.072  35.832  1.00  0.00     0.000 A 
ENDBRANCH  46  65
BRANCH  58  71
ATOM     71  C   UNL A   1      40.004  34.281  35.540  1.00  0.00    -0.014 A 
ATOM     72  C   UNL A   1      39.358  33.990  36.751  1.00  0.00     0.009 A 
ATOM     73  C   UNL A   1      40.622  35.532  35.382  1.00  0.00     0.009 A 
ATOM     74  C   UNL A   1      39.302  34.945  37.768  1.00  0.00     0.001 A 
ATOM     75  C   UNL A   1      40.589  36.474  36.411  1.00  0.00     0.001 A 
ATOM     76  C   UNL A   1      39.920  36.185  37.599  1.00  0.00     0.000 A 
ENDBRANCH  58  71
ENDBRANCH  32  33
ENDBRANCH  25  27
ENDBRANCH  24  25
ENDBRANCH  23  24
ENDBRANCH   1  23
TORSDOF 14
ENDMDL
