MODEL 1
REMARK VINA RESULT:     -10.0      0.000      0.000
REMARK SMILES CCN(CC(C)(C)O)C(=O)N[C@@H](C(=O)OCCOC(=O)c1ccc(-c2c3nc(c(-c4ccccc4)c4ccc([nH]4)c(-c4ccccc4)c4nc(c(-c5ccccc5)c5ccc2[nH]5)C=C4)C=C3)cc1)C(C)(C)C
REMARK SMILES IDX 15 1 13 2 14 3 12 4 11 5 9 6 10 7 3 9 2 10 1 11 4 12 5 13
REMARK SMILES IDX 6 14 7 15 8 16 69 18 70 19 71 20 72 21 16 22 17 23 18 24
REMARK SMILES IDX 19 25 20 26 21 27 22 28 68 29 23 30 67 31 24 32 25 33 26 34
REMARK SMILES IDX 61 35 27 36 66 37 60 38 62 39 28 40 65 41 59 42 58 43 29 45
REMARK SMILES IDX 51 46 36 47 50 48 37 49 40 50 49 51 63 52 38 53 39 54 48 56
REMARK SMILES IDX 64 57 41 58 30 59 31 60 35 61 32 62 34 63 33 64 52 65 53 66
REMARK SMILES IDX 57 67 54 68 56 69 55 70 42 71 43 72 47 73 44 74 46 75 45 76
REMARK H PARENT 11 8 8 17 62 44 40 55
REMARK Flexibility Score: inf
ROOT
ATOM      1  O   UNL A   1      30.997  26.717  27.009  1.00  0.00    -0.461 OA
ENDROOT
BRANCH   1   2
ATOM      2  C   UNL A   1      30.600  26.095  25.860  1.00  0.00     0.329 C 
ATOM      3  O   UNL A   1      29.444  25.761  25.619  1.00  0.00    -0.250 OA
BRANCH   2   4
ATOM      4  C   UNL A   1      31.787  25.727  24.939  1.00  0.00     0.199 C 
BRANCH   4   5
ATOM      5  N   UNL A   1      31.475  26.044  23.544  1.00  0.00    -0.324 N 
ATOM      6  C   UNL A   1      31.350  27.134  22.778  1.00  0.00     0.318 C 
ATOM      7  O   UNL A   1      31.067  26.889  21.600  1.00  0.00    -0.249 OA
ATOM      8  H   UNL A   1      31.311  25.225  23.023  1.00  0.00     0.166 HD
BRANCH   6   9
ATOM      9  N   UNL A   1      31.532  28.417  23.216  1.00  0.00    -0.322 N 
BRANCH   9  10
ATOM     10  C   UNL A   1      32.929  28.856  23.326  1.00  0.00     0.118 C 
ATOM     11  C   UNL A   1      33.767  28.303  22.181  1.00  0.00     0.027 C 
ENDBRANCH   9  10
BRANCH   9  12
ATOM     12  C   UNL A   1      30.544  29.409  23.668  1.00  0.00     0.155 C 
BRANCH  12  13
ATOM     13  C   UNL A   1      29.526  29.881  22.586  1.00  0.00     0.077 C 
ATOM     14  C   UNL A   1      28.275  29.020  22.398  1.00  0.00     0.043 C 
ATOM     15  C   UNL A   1      29.092  31.319  22.895  1.00  0.00     0.043 C 
BRANCH  13  16
ATOM     16  O   UNL A   1      30.197  29.913  21.316  1.00  0.00    -0.389 OA
ATOM     17  H   UNL A   1      31.077  30.304  21.425  1.00  0.00     0.211 HD
ENDBRANCH  13  16
ENDBRANCH  12  13
ENDBRANCH   9  12
ENDBRANCH   6   9
ENDBRANCH   4   5
BRANCH   4  18
ATOM     18  C   UNL A   1      32.353  24.278  25.081  1.00  0.00    -0.007 C 
ATOM     19  C   UNL A   1      32.101  23.738  26.509  1.00  0.00     0.013 C 
ATOM     20  C   UNL A   1      31.625  23.315  24.121  1.00  0.00     0.013 C 
ATOM     21  C   UNL A   1      33.870  24.230  24.829  1.00  0.00     0.013 C 
ENDBRANCH   4  18
ENDBRANCH   2   4
ENDBRANCH   1   2
BRANCH   1  22
ATOM     22  C   UNL A   1      32.159  27.570  26.900  1.00  0.00     0.274 C 
BRANCH  22  23
ATOM     23  C   UNL A   1      31.791  29.039  27.066  1.00  0.00     0.275 C 
BRANCH  23  24
ATOM     24  O   UNL A   1      32.794  29.831  26.419  1.00  0.00    -0.458 OA
BRANCH  24  25
ATOM     25  C   UNL A   1      33.168  30.960  27.064  1.00  0.00     0.338 C 
ATOM     26  O   UNL A   1      32.486  31.945  27.275  1.00  0.00    -0.246 OA
BRANCH  25  27
ATOM     27  C   UNL A   1      34.554  30.805  27.559  1.00  0.00     0.060 A 
ATOM     28  C   UNL A   1      35.091  29.538  27.782  1.00  0.00     0.016 A 
ATOM     29  C   UNL A   1      35.280  31.934  27.931  1.00  0.00     0.016 A 
ATOM     30  C   UNL A   1      36.285  29.384  28.478  1.00  0.00     0.010 A 
ATOM     31  C   UNL A   1      36.536  31.779  28.524  1.00  0.00     0.010 A 
ATOM     32  C   UNL A   1      37.037  30.502  28.839  1.00  0.00    -0.014 A 
BRANCH  32  33
ATOM     33  C   UNL A   1      38.311  30.371  29.593  1.00  0.00     0.031 A 
ATOM     34  C   UNL A   1      39.431  29.577  28.988  1.00  0.00     0.074 A 
ATOM     35  C   UNL A   1      38.483  30.921  30.812  1.00  0.00     0.049 A 
ATOM     36  N   UNL A   1      40.411  28.947  29.578  1.00  0.00    -0.248 NA
ATOM     37  C   UNL A   1      39.427  29.453  27.521  1.00  0.00     0.031 C 
ATOM     38  C   UNL A   1      37.558  31.830  31.491  1.00  0.00     0.029 A 
ATOM     39  N   UNL A   1      39.512  30.771  31.708  1.00  0.00    -0.354 N 
ATOM     40  C   UNL A   1      41.074  28.263  28.568  1.00  0.00     0.074 A 
ATOM     41  C   UNL A   1      40.415  28.592  27.323  1.00  0.00     0.031 C 
ATOM     42  C   UNL A   1      38.070  32.173  32.682  1.00  0.00     0.029 A 
ATOM     43  C   UNL A   1      39.285  31.403  32.906  1.00  0.00     0.049 A 
ATOM     44  H   UNL A   1      40.332  30.261  31.512  1.00  0.00     0.167 HD
ATOM     45  C   UNL A   1      42.116  27.407  28.689  1.00  0.00     0.031 A 
ATOM     46  C   UNL A   1      39.921  31.300  34.088  1.00  0.00     0.031 A 
ATOM     47  C   UNL A   1      42.789  27.144  29.933  1.00  0.00     0.049 A 
ATOM     48  C   UNL A   1      41.045  30.315  34.225  1.00  0.00     0.074 A 
ATOM     49  C   UNL A   1      43.828  26.268  30.190  1.00  0.00     0.029 A 
ATOM     50  N   UNL A   1      42.505  27.793  31.124  1.00  0.00    -0.354 N 
ATOM     51  N   UNL A   1      41.561  29.524  33.316  1.00  0.00    -0.248 NA
ATOM     52  C   UNL A   1      41.642  30.177  35.560  1.00  0.00     0.031 C 
ATOM     53  C   UNL A   1      44.163  26.377  31.546  1.00  0.00     0.029 A 
ATOM     54  C   UNL A   1      43.354  27.346  32.119  1.00  0.00     0.049 A 
ATOM     55  H   UNL A   1      41.802  28.472  31.244  1.00  0.00     0.167 HD
ATOM     56  C   UNL A   1      42.546  28.795  33.967  1.00  0.00     0.074 A 
ATOM     57  C   UNL A   1      42.566  29.250  35.342  1.00  0.00     0.031 C 
ATOM     58  C   UNL A   1      43.356  27.828  33.474  1.00  0.00     0.031 A 
BRANCH  45  59
ATOM     59  C   UNL A   1      42.531  26.641  27.468  1.00  0.00    -0.014 A 
ATOM     60  C   UNL A   1      41.941  25.416  27.124  1.00  0.00     0.009 A 
ATOM     61  C   UNL A   1      43.525  27.177  26.632  1.00  0.00     0.009 A 
ATOM     62  C   UNL A   1      42.359  24.731  25.981  1.00  0.00     0.001 A 
ATOM     63  C   UNL A   1      43.924  26.501  25.478  1.00  0.00     0.001 A 
ATOM     64  C   UNL A   1      43.346  25.275  25.157  1.00  0.00     0.000 A 
ENDBRANCH  45  59
BRANCH  46  65
ATOM     65  C   UNL A   1      39.427  32.070  35.259  1.00  0.00    -0.014 A 
ATOM     66  C   UNL A   1      38.462  31.522  36.116  1.00  0.00     0.009 A 
ATOM     67  C   UNL A   1      39.945  33.345  35.544  1.00  0.00     0.009 A 
ATOM     68  C   UNL A   1      38.025  32.237  37.234  1.00  0.00     0.001 A 
ATOM     69  C   UNL A   1      39.529  34.044  36.678  1.00  0.00     0.001 A 
ATOM     70  C   UNL A   1      38.565  33.492  37.519  1.00  0.00     0.000 A 
ENDBRANCH  46  65
BRANCH  58  71
ATOM     71  C   UNL A   1      44.358  27.236  34.417  1.00  0.00    -0.014 A 
ATOM     72  C   UNL A   1      44.061  26.083  35.157  1.00  0.00     0.009 A 
ATOM     73  C   UNL A   1      45.630  27.817  34.527  1.00  0.00     0.009 A 
ATOM     74  C   UNL A   1      45.020  25.532  36.009  1.00  0.00     0.001 A 
ATOM     75  C   UNL A   1      46.591  27.254  35.366  1.00  0.00     0.001 A 
ATOM     76  C   UNL A   1      46.284  26.116  36.110  1.00  0.00     0.000 A 
ENDBRANCH  58  71
ENDBRANCH  32  33
ENDBRANCH  25  27
ENDBRANCH  24  25
ENDBRANCH  23  24
ENDBRANCH  22  23
ENDBRANCH   1  22
TORSDOF 18
ENDMDL
MODEL 2
REMARK VINA RESULT:      -9.7      3.639      6.828
REMARK SMILES CCN(CC(C)(C)O)C(=O)N[C@@H](C(=O)OCCOC(=O)c1ccc(-c2c3nc(c(-c4ccccc4)c4ccc([nH]4)c(-c4ccccc4)c4nc(c(-c5ccccc5)c5ccc2[nH]5)C=C4)C=C3)cc1)C(C)(C)C
REMARK SMILES IDX 15 1 13 2 14 3 12 4 11 5 9 6 10 7 3 9 2 10 1 11 4 12 5 13
REMARK SMILES IDX 6 14 7 15 8 16 69 18 70 19 71 20 72 21 16 22 17 23 18 24
REMARK SMILES IDX 19 25 20 26 21 27 22 28 68 29 23 30 67 31 24 32 25 33 26 34
REMARK SMILES IDX 61 35 27 36 66 37 60 38 62 39 28 40 65 41 59 42 58 43 29 45
REMARK SMILES IDX 51 46 36 47 50 48 37 49 40 50 49 51 63 52 38 53 39 54 48 56
REMARK SMILES IDX 64 57 41 58 30 59 31 60 35 61 32 62 34 63 33 64 52 65 53 66
REMARK SMILES IDX 57 67 54 68 56 69 55 70 42 71 43 72 47 73 44 74 46 75 45 76
REMARK H PARENT 11 8 8 17 62 44 40 55
REMARK Flexibility Score: inf
ROOT
ATOM      1  O   UNL A   1      31.020  27.626  26.552  1.00  0.00    -0.461 OA
ENDROOT
BRANCH   1   2
ATOM      2  C   UNL A   1      30.873  26.348  26.095  1.00  0.00     0.329 C 
ATOM      3  O   UNL A   1      30.040  25.553  26.519  1.00  0.00    -0.250 OA
BRANCH   2   4
ATOM      4  C   UNL A   1      31.963  25.950  25.071  1.00  0.00     0.199 C 
BRANCH   4   5
ATOM      5  N   UNL A   1      31.512  26.224  23.706  1.00  0.00    -0.324 N 
ATOM      6  C   UNL A   1      31.256  27.292  22.940  1.00  0.00     0.318 C 
ATOM      7  O   UNL A   1      30.887  27.011  21.795  1.00  0.00    -0.249 OA
ATOM      8  H   UNL A   1      31.354  25.389  23.211  1.00  0.00     0.166 HD
BRANCH   6   9
ATOM      9  N   UNL A   1      31.398  28.591  23.346  1.00  0.00    -0.322 N 
BRANCH   9  10
ATOM     10  C   UNL A   1      32.780  29.046  23.540  1.00  0.00     0.118 C 
ATOM     11  C   UNL A   1      33.676  28.570  22.404  1.00  0.00     0.027 C 
ENDBRANCH   9  10
BRANCH   9  12
ATOM     12  C   UNL A   1      30.373  29.588  23.693  1.00  0.00     0.155 C 
BRANCH  12  13
ATOM     13  C   UNL A   1      29.438  30.022  22.523  1.00  0.00     0.077 C 
ATOM     14  C   UNL A   1      28.169  29.193  22.315  1.00  0.00     0.043 C 
ATOM     15  C   UNL A   1      29.043  31.492  22.713  1.00  0.00     0.043 C 
BRANCH  13  16
ATOM     16  O   UNL A   1      30.183  29.947  21.296  1.00  0.00    -0.389 OA
ATOM     17  H   UNL A   1      31.066  30.325  21.430  1.00  0.00     0.211 HD
ENDBRANCH  13  16
ENDBRANCH  12  13
ENDBRANCH   9  12
ENDBRANCH   6   9
ENDBRANCH   4   5
BRANCH   4  18
ATOM     18  C   UNL A   1      32.544  24.505  25.200  1.00  0.00    -0.007 C 
ATOM     19  C   UNL A   1      32.684  24.112  26.690  1.00  0.00     0.013 C 
ATOM     20  C   UNL A   1      31.582  23.477  24.571  1.00  0.00     0.013 C 
ATOM     21  C   UNL A   1      33.937  24.390  24.558  1.00  0.00     0.013 C 
ENDBRANCH   4  18
ENDBRANCH   2   4
ENDBRANCH   1   2
BRANCH   1  22
ATOM     22  C   UNL A   1      32.104  27.846  27.484  1.00  0.00     0.274 C 
BRANCH  22  23
ATOM     23  C   UNL A   1      32.683  29.248  27.344  1.00  0.00     0.275 C 
BRANCH  23  24
ATOM     24  O   UNL A   1      34.108  29.162  27.470  1.00  0.00    -0.458 OA
BRANCH  24  25
ATOM     25  C   UNL A   1      34.730  30.263  27.948  1.00  0.00     0.338 C 
ATOM     26  O   UNL A   1      34.231  31.350  28.174  1.00  0.00    -0.246 OA
BRANCH  25  27
ATOM     27  C   UNL A   1      36.145  29.939  28.237  1.00  0.00     0.060 A 
ATOM     28  C   UNL A   1      37.126  30.111  27.260  1.00  0.00     0.016 A 
ATOM     29  C   UNL A   1      36.479  29.331  29.445  1.00  0.00     0.016 A 
ATOM     30  C   UNL A   1      38.400  29.580  27.431  1.00  0.00     0.010 A 
ATOM     31  C   UNL A   1      37.791  28.903  29.660  1.00  0.00     0.010 A 
ATOM     32  C   UNL A   1      38.758  28.988  28.641  1.00  0.00    -0.014 A 
BRANCH  32  33
ATOM     33  C   UNL A   1      40.107  28.400  28.851  1.00  0.00     0.031 A 
ATOM     34  C   UNL A   1      41.227  29.299  29.288  1.00  0.00     0.074 A 
ATOM     35  C   UNL A   1      40.362  27.094  28.635  1.00  0.00     0.049 A 
ATOM     36  N   UNL A   1      42.514  29.165  29.106  1.00  0.00    -0.248 NA
ATOM     37  C   UNL A   1      40.840  30.527  30.001  1.00  0.00     0.031 C 
ATOM     38  C   UNL A   1      39.374  26.056  28.337  1.00  0.00     0.029 A 
ATOM     39  N   UNL A   1      41.559  26.421  28.620  1.00  0.00    -0.354 N 
ATOM     40  C   UNL A   1      43.080  30.340  29.582  1.00  0.00     0.074 A 
ATOM     41  C   UNL A   1      42.003  31.154  30.104  1.00  0.00     0.031 C 
ATOM     42  C   UNL A   1      39.999  24.878  28.192  1.00  0.00     0.029 A 
ATOM     43  C   UNL A   1      41.437  25.105  28.248  1.00  0.00     0.049 A 
ATOM     44  H   UNL A   1      42.420  26.841  28.852  1.00  0.00     0.167 HD
ATOM     45  C   UNL A   1      44.381  30.710  29.544  1.00  0.00     0.031 A 
ATOM     46  C   UNL A   1      42.370  24.202  27.892  1.00  0.00     0.031 A 
ATOM     47  C   UNL A   1      45.437  29.856  29.074  1.00  0.00     0.049 A 
ATOM     48  C   UNL A   1      43.805  24.635  27.810  1.00  0.00     0.074 A 
ATOM     49  C   UNL A   1      46.787  30.132  28.948  1.00  0.00     0.029 A 
ATOM     50  N   UNL A   1      45.258  28.538  28.685  1.00  0.00    -0.354 N 
ATOM     51  N   UNL A   1      44.328  25.806  28.082  1.00  0.00    -0.248 NA
ATOM     52  C   UNL A   1      44.768  23.637  27.326  1.00  0.00     0.031 C 
ATOM     53  C   UNL A   1      47.423  28.980  28.467  1.00  0.00     0.029 A 
ATOM     54  C   UNL A   1      46.472  27.981  28.329  1.00  0.00     0.049 A 
ATOM     55  H   UNL A   1      44.394  28.067  28.666  1.00  0.00     0.167 HD
ATOM     56  C   UNL A   1      45.683  25.686  27.806  1.00  0.00     0.074 A 
ATOM     57  C   UNL A   1      45.903  24.324  27.362  1.00  0.00     0.031 C 
ATOM     58  C   UNL A   1      46.658  26.620  27.903  1.00  0.00     0.031 A 
BRANCH  45  59
ATOM     59  C   UNL A   1      44.714  32.116  29.946  1.00  0.00    -0.014 A 
ATOM     60  C   UNL A   1      44.661  33.181  29.035  1.00  0.00     0.009 A 
ATOM     61  C   UNL A   1      45.071  32.378  31.279  1.00  0.00     0.009 A 
ATOM     62  C   UNL A   1      44.983  34.476  29.448  1.00  0.00     0.001 A 
ATOM     63  C   UNL A   1      45.371  33.676  31.694  1.00  0.00     0.001 A 
ATOM     64  C   UNL A   1      45.334  34.723  30.776  1.00  0.00     0.000 A 
ENDBRANCH  45  59
BRANCH  46  65
ATOM     65  C   UNL A   1      41.954  22.838  27.477  1.00  0.00    -0.014 A 
ATOM     66  C   UNL A   1      41.788  21.823  28.431  1.00  0.00     0.009 A 
ATOM     67  C   UNL A   1      41.686  22.554  26.128  1.00  0.00     0.009 A 
ATOM     68  C   UNL A   1      41.366  20.550  28.039  1.00  0.00     0.001 A 
ATOM     69  C   UNL A   1      41.235  21.290  25.743  1.00  0.00     0.001 A 
ATOM     70  C   UNL A   1      41.080  20.288  26.698  1.00  0.00     0.000 A 
ENDBRANCH  46  65
BRANCH  58  71
ATOM     71  C   UNL A   1      48.051  26.185  27.567  1.00  0.00    -0.014 A 
ATOM     72  C   UNL A   1      48.857  25.543  28.517  1.00  0.00     0.009 A 
ATOM     73  C   UNL A   1      48.542  26.381  26.267  1.00  0.00     0.009 A 
ATOM     74  C   UNL A   1      50.142  25.120  28.174  1.00  0.00     0.001 A 
ATOM     75  C   UNL A   1      49.820  25.943  25.924  1.00  0.00     0.001 A 
ATOM     76  C   UNL A   1      50.621  25.318  26.879  1.00  0.00     0.000 A 
ENDBRANCH  58  71
ENDBRANCH  32  33
ENDBRANCH  25  27
ENDBRANCH  24  25
ENDBRANCH  23  24
ENDBRANCH  22  23
ENDBRANCH   1  22
TORSDOF 18
ENDMDL
MODEL 3
REMARK VINA RESULT:      -9.5      3.974      7.677
REMARK SMILES CCN(CC(C)(C)O)C(=O)N[C@@H](C(=O)OCCOC(=O)c1ccc(-c2c3nc(c(-c4ccccc4)c4ccc([nH]4)c(-c4ccccc4)c4nc(c(-c5ccccc5)c5ccc2[nH]5)C=C4)C=C3)cc1)C(C)(C)C
REMARK SMILES IDX 15 1 13 2 14 3 12 4 11 5 9 6 10 7 3 9 2 10 1 11 4 12 5 13
REMARK SMILES IDX 6 14 7 15 8 16 69 18 70 19 71 20 72 21 16 22 17 23 18 24
REMARK SMILES IDX 19 25 20 26 21 27 22 28 68 29 23 30 67 31 24 32 25 33 26 34
REMARK SMILES IDX 61 35 27 36 66 37 60 38 62 39 28 40 65 41 59 42 58 43 29 45
REMARK SMILES IDX 51 46 36 47 50 48 37 49 40 50 49 51 63 52 38 53 39 54 48 56
REMARK SMILES IDX 64 57 41 58 30 59 31 60 35 61 32 62 34 63 33 64 52 65 53 66
REMARK SMILES IDX 57 67 54 68 56 69 55 70 42 71 43 72 47 73 44 74 46 75 45 76
REMARK H PARENT 11 8 8 17 62 44 40 55
REMARK Flexibility Score: inf
ROOT
ATOM      1  O   UNL A   1      33.175  27.172  26.279  1.00  0.00    -0.461 OA
ENDROOT
BRANCH   1   2
ATOM      2  C   UNL A   1      33.202  27.269  24.918  1.00  0.00     0.329 C 
ATOM      3  O   UNL A   1      33.850  28.106  24.297  1.00  0.00    -0.250 OA
BRANCH   2   4
ATOM      4  C   UNL A   1      32.219  26.294  24.229  1.00  0.00     0.199 C 
BRANCH   4   5
ATOM      5  N   UNL A   1      32.932  25.402  23.313  1.00  0.00    -0.324 N 
ATOM      6  C   UNL A   1      33.569  24.227  23.368  1.00  0.00     0.318 C 
ATOM      7  O   UNL A   1      34.029  23.854  22.283  1.00  0.00    -0.249 OA
ATOM      8  H   UNL A   1      32.946  25.770  22.401  1.00  0.00     0.166 HD
BRANCH   6   9
ATOM      9  N   UNL A   1      33.704  23.467  24.498  1.00  0.00    -0.322 N 
BRANCH   9  10
ATOM     10  C   UNL A   1      32.736  22.372  24.643  1.00  0.00     0.118 C 
ATOM     11  C   UNL A   1      31.551  22.801  25.499  1.00  0.00     0.027 C 
ENDBRANCH   9  10
BRANCH   9  12
ATOM     12  C   UNL A   1      34.624  23.622  25.635  1.00  0.00     0.155 C 
BRANCH  12  13
ATOM     13  C   UNL A   1      35.951  22.808  25.538  1.00  0.00     0.077 C 
ATOM     14  C   UNL A   1      36.260  22.158  24.188  1.00  0.00     0.043 C 
ATOM     15  C   UNL A   1      37.126  23.710  25.933  1.00  0.00     0.043 C 
BRANCH  13  16
ATOM     16  O   UNL A   1      35.901  21.744  26.503  1.00  0.00    -0.389 OA
ATOM     17  H   UNL A   1      36.754  21.282  26.519  1.00  0.00     0.211 HD
ENDBRANCH  13  16
ENDBRANCH  12  13
ENDBRANCH   9  12
ENDBRANCH   6   9
ENDBRANCH   4   5
BRANCH   4  18
ATOM     18  C   UNL A   1      30.970  26.935  23.542  1.00  0.00    -0.007 C 
ATOM     19  C   UNL A   1      31.103  26.858  22.002  1.00  0.00     0.013 C 
ATOM     20  C   UNL A   1      29.692  26.154  23.905  1.00  0.00     0.013 C 
ATOM     21  C   UNL A   1      30.810  28.418  23.918  1.00  0.00     0.013 C 
ENDBRANCH   4  18
ENDBRANCH   2   4
ENDBRANCH   1   2
BRANCH   1  22
ATOM     22  C   UNL A   1      32.224  28.023  26.957  1.00  0.00     0.274 C 
BRANCH  22  23
ATOM     23  C   UNL A   1      32.814  29.397  27.249  1.00  0.00     0.275 C 
BRANCH  23  24
ATOM     24  O   UNL A   1      34.199  29.233  27.577  1.00  0.00    -0.458 OA
BRANCH  24  25
ATOM     25  C   UNL A   1      34.826  30.322  28.078  1.00  0.00     0.338 C 
ATOM     26  O   UNL A   1      34.322  31.392  28.365  1.00  0.00    -0.246 OA
BRANCH  25  27
ATOM     27  C   UNL A   1      36.253  30.005  28.304  1.00  0.00     0.060 A 
ATOM     28  C   UNL A   1      37.180  30.127  27.269  1.00  0.00     0.016 A 
ATOM     29  C   UNL A   1      36.650  29.453  29.520  1.00  0.00     0.016 A 
ATOM     30  C   UNL A   1      38.460  29.598  27.395  1.00  0.00     0.010 A 
ATOM     31  C   UNL A   1      37.971  29.029  29.683  1.00  0.00     0.010 A 
ATOM     32  C   UNL A   1      38.882  29.061  28.611  1.00  0.00    -0.014 A 
BRANCH  32  33
ATOM     33  C   UNL A   1      40.239  28.478  28.774  1.00  0.00     0.031 A 
ATOM     34  C   UNL A   1      41.376  29.384  29.150  1.00  0.00     0.074 A 
ATOM     35  C   UNL A   1      40.486  27.168  28.570  1.00  0.00     0.049 A 
ATOM     36  N   UNL A   1      42.653  29.247  28.917  1.00  0.00    -0.248 NA
ATOM     37  C   UNL A   1      41.017  30.624  29.858  1.00  0.00     0.031 C 
ATOM     38  C   UNL A   1      39.488  26.125  28.331  1.00  0.00     0.029 A 
ATOM     39  N   UNL A   1      41.682  26.496  28.517  1.00  0.00    -0.354 N 
ATOM     40  C   UNL A   1      43.238  30.430  29.349  1.00  0.00     0.074 A 
ATOM     41  C   UNL A   1      42.182  31.253  29.901  1.00  0.00     0.031 C 
ATOM     42  C   UNL A   1      40.108  24.945  28.180  1.00  0.00     0.029 A 
ATOM     43  C   UNL A   1      41.546  25.173  28.172  1.00  0.00     0.049 A 
ATOM     44  H   UNL A   1      42.552  26.919  28.706  1.00  0.00     0.167 HD
ATOM     45  C   UNL A   1      44.535  30.800  29.252  1.00  0.00     0.031 A 
ATOM     46  C   UNL A   1      42.465  24.265  27.794  1.00  0.00     0.031 A 
ATOM     47  C   UNL A   1      45.573  29.938  28.752  1.00  0.00     0.049 A 
ATOM     48  C   UNL A   1      43.894  24.697  27.644  1.00  0.00     0.074 A 
ATOM     49  C   UNL A   1      46.916  30.213  28.566  1.00  0.00     0.029 A 
ATOM     50  N   UNL A   1      45.379  28.614  28.394  1.00  0.00    -0.354 N 
ATOM     51  N   UNL A   1      44.428  25.872  27.875  1.00  0.00    -0.248 NA
ATOM     52  C   UNL A   1      44.838  23.691  27.139  1.00  0.00     0.031 C 
ATOM     53  C   UNL A   1      47.533  29.054  28.079  1.00  0.00     0.029 A 
ATOM     54  C   UNL A   1      46.578  28.052  27.997  1.00  0.00     0.049 A 
ATOM     55  H   UNL A   1      44.515  28.142  28.418  1.00  0.00     0.167 HD
ATOM     56  C   UNL A   1      45.770  25.747  27.546  1.00  0.00     0.074 A 
ATOM     57  C   UNL A   1      45.972  24.379  27.116  1.00  0.00     0.031 C 
ATOM     58  C   UNL A   1      46.747  26.684  27.586  1.00  0.00     0.031 A 
BRANCH  45  59
ATOM     59  C   UNL A   1      44.884  32.213  29.616  1.00  0.00    -0.014 A 
ATOM     60  C   UNL A   1      45.282  32.569  30.913  1.00  0.00     0.009 A 
ATOM     61  C   UNL A   1      44.832  33.206  28.623  1.00  0.00     0.009 A 
ATOM     62  C   UNL A   1      45.594  33.897  31.213  1.00  0.00     0.001 A 
ATOM     63  C   UNL A   1      45.167  34.527  28.921  1.00  0.00     0.001 A 
ATOM     64  C   UNL A   1      45.540  34.874  30.217  1.00  0.00     0.000 A 
ENDBRANCH  45  59
BRANCH  46  65
ATOM     65  C   UNL A   1      42.033  22.894  27.419  1.00  0.00    -0.014 A 
ATOM     66  C   UNL A   1      41.627  22.609  26.107  1.00  0.00     0.009 A 
ATOM     67  C   UNL A   1      42.059  21.855  28.365  1.00  0.00     0.009 A 
ATOM     68  C   UNL A   1      41.252  21.310  25.752  1.00  0.00     0.001 A 
ATOM     69  C   UNL A   1      41.713  20.553  27.999  1.00  0.00     0.001 A 
ATOM     70  C   UNL A   1      41.305  20.282  26.695  1.00  0.00     0.000 A 
ENDBRANCH  46  65
BRANCH  58  71
ATOM     71  C   UNL A   1      48.126  26.244  27.200  1.00  0.00    -0.014 A 
ATOM     72  C   UNL A   1      48.980  25.639  28.134  1.00  0.00     0.009 A 
ATOM     73  C   UNL A   1      48.554  26.396  25.873  1.00  0.00     0.009 A 
ATOM     74  C   UNL A   1      50.250  25.210  27.745  1.00  0.00     0.001 A 
ATOM     75  C   UNL A   1      49.817  25.952  25.485  1.00  0.00     0.001 A 
ATOM     76  C   UNL A   1      50.666  25.364  26.422  1.00  0.00     0.000 A 
ENDBRANCH  58  71
ENDBRANCH  32  33
ENDBRANCH  25  27
ENDBRANCH  24  25
ENDBRANCH  23  24
ENDBRANCH  22  23
ENDBRANCH   1  22
TORSDOF 18
ENDMDL
