MODEL 1
REMARK VINA RESULT:     -14.2      0.000      0.000
REMARK SMILES Cc1ccc(-c2nc(NC(=O)[C@H]3[C@@H](C(=O)OCCOC(=O)c4ccc(-c5c6nc(c(-c7ccccc7)c7ccc([nH]7)c(-c7ccccc7)c7nc(c(-c8ccccc8)c8ccc5[nH]8)C=C7)C=C6)cc4)[C@@H]4CC[C@H]3O4)sc2C)cc1
REMARK SMILES IDX 17 1 16 2 14 3 15 4 13 5 12 6 73 7 70 8 72 9 74 10 71 11
REMARK SMILES IDX 10 12 9 13 11 15 8 16 6 17 7 18 76 19 75 20 77 21 5 22 1 23
REMARK SMILES IDX 2 24 3 25 79 26 4 27 78 28 18 29 19 30 20 31 21 32 22 33
REMARK SMILES IDX 23 34 69 35 24 36 68 37 25 38 26 39 27 40 62 41 28 42 67 43
REMARK SMILES IDX 61 44 63 45 29 46 66 47 60 48 59 49 30 51 52 52 37 53 51 54
REMARK SMILES IDX 38 55 41 56 50 57 64 58 39 59 40 60 49 62 65 63 42 64 31 65
REMARK SMILES IDX 32 66 36 67 33 68 35 69 34 70 53 71 54 72 58 73 55 74 57 75
REMARK SMILES IDX 56 76 43 77 44 78 48 79 45 80 47 81 46 82
REMARK H PARENT 9 14 63 50 41 61
REMARK Flexibility Score: inf
ROOT
ATOM      1  C   UNL A   1      34.693  24.799  25.795  1.00  0.00     0.274 C 
ENDROOT
BRANCH   1   2
ATOM      2  O   UNL A   1      34.028  26.238  25.118  1.00  0.00    -0.462 OA
BRANCH   2   3
ATOM      3  C   UNL A   1      33.562  27.532  25.607  1.00  0.00     0.312 C 
ATOM      4  O   UNL A   1      33.848  27.987  26.705  1.00  0.00    -0.252 OA
BRANCH   3   5
ATOM      5  C   UNL A   1      32.493  28.299  24.648  1.00  0.00     0.143 C 
ATOM      6  C   UNL A   1      31.171  28.114  25.303  1.00  0.00     0.124 C 
ATOM      7  C   UNL A   1      30.119  28.064  24.215  1.00  0.00     0.132 C 
ATOM      8  C   UNL A   1      32.019  27.940  23.164  1.00  0.00     0.133 C 
ATOM      9  C   UNL A   1      30.091  29.313  23.347  1.00  0.00     0.035 C 
ATOM     10  O   UNL A   1      30.800  27.133  23.352  1.00  0.00    -0.373 OA
ATOM     11  C   UNL A   1      31.259  29.034  22.404  1.00  0.00     0.036 C 
BRANCH   6  12
ATOM     12  C   UNL A   1      31.101  26.742  25.924  1.00  0.00     0.232 C 
ATOM     13  N   UNL A   1      30.982  25.555  24.989  1.00  0.00    -0.302 N 
ATOM     14  H   UNL A   1      30.367  25.857  24.282  1.00  0.00     0.172 HD
ATOM     15  O   UNL A   1      31.080  26.817  27.151  1.00  0.00    -0.274 OA
BRANCH  13  16
ATOM     16  C   UNL A   1      31.356  24.059  24.583  1.00  0.00     0.190 A 
ATOM     17  C   UNL A   1      32.641  22.179  24.488  1.00  0.00     0.086 A 
ATOM     18  N   UNL A   1      31.775  23.006  25.305  1.00  0.00    -0.220 NA
ATOM     19  C   UNL A   1      33.120  22.887  23.394  1.00  0.00     0.031 A 
ATOM     20  S   UNL A   1      31.718  23.647  22.891  1.00  0.00    -0.101 S 
ATOM     21  C   UNL A   1      34.267  22.838  22.456  1.00  0.00     0.059 C 
BRANCH  17  22
ATOM     22  C   UNL A   1      33.038  20.762  24.595  1.00  0.00     0.001 A 
ATOM     23  C   UNL A   1      34.229  16.769  23.416  1.00  0.00     0.044 C 
ATOM     24  C   UNL A   1      33.777  18.078  24.000  1.00  0.00    -0.051 A 
ATOM     25  C   UNL A   1      32.483  18.510  23.751  1.00  0.00     0.004 A 
ATOM     26  C   UNL A   1      34.650  18.949  24.678  1.00  0.00     0.004 A 
ATOM     27  C   UNL A   1      32.115  19.809  24.092  1.00  0.00     0.010 A 
ATOM     28  C   UNL A   1      34.289  20.290  24.971  1.00  0.00     0.010 A 
ENDBRANCH  17  22
ENDBRANCH  13  16
ENDBRANCH   6  12
ENDBRANCH   3   5
ENDBRANCH   2   3
ENDBRANCH   1   2
BRANCH   1  29
ATOM     29  C   UNL A   1      36.193  23.766  25.283  1.00  0.00     0.275 C 
BRANCH  29  30
ATOM     30  O   UNL A   1      37.885  23.715  25.986  1.00  0.00    -0.458 OA
BRANCH  30  31
ATOM     31  C   UNL A   1      39.152  24.167  26.727  1.00  0.00     0.338 C 
ATOM     32  O   UNL A   1      40.122  23.414  26.632  1.00  0.00    -0.246 OA
BRANCH  31  33
ATOM     33  C   UNL A   1      39.408  25.492  27.738  1.00  0.00     0.060 A 
ATOM     34  C   UNL A   1      38.988  25.699  29.063  1.00  0.00     0.016 A 
ATOM     35  C   UNL A   1      40.116  26.611  27.374  1.00  0.00     0.016 A 
ATOM     36  C   UNL A   1      39.168  27.001  29.764  1.00  0.00     0.010 A 
ATOM     37  C   UNL A   1      40.145  27.886  27.878  1.00  0.00     0.010 A 
ATOM     38  C   UNL A   1      39.715  28.137  29.125  1.00  0.00    -0.014 A 
BRANCH  38  39
ATOM     39  C   UNL A   1      39.674  29.613  29.294  1.00  0.00     0.031 A 
ATOM     40  C   UNL A   1      38.544  30.534  28.870  1.00  0.00     0.074 A 
ATOM     41  C   UNL A   1      40.237  29.955  30.479  1.00  0.00     0.049 A 
ATOM     42  N   UNL A   1      38.603  31.828  28.930  1.00  0.00    -0.248 NA
ATOM     43  C   UNL A   1      37.193  30.091  28.496  1.00  0.00     0.031 C 
ATOM     44  C   UNL A   1      40.043  31.108  31.346  1.00  0.00     0.029 A 
ATOM     45  N   UNL A   1      41.170  29.194  31.183  1.00  0.00    -0.354 N 
ATOM     46  C   UNL A   1      37.305  32.320  28.996  1.00  0.00     0.074 A 
ATOM     47  C   UNL A   1      36.468  31.208  28.624  1.00  0.00     0.031 C 
ATOM     48  C   UNL A   1      41.071  31.167  32.213  1.00  0.00     0.029 A 
ATOM     49  C   UNL A   1      41.978  30.069  31.911  1.00  0.00     0.049 A 
ATOM     50  H   UNL A   1      41.246  28.213  31.169  1.00  0.00     0.167 HD
ATOM     51  C   UNL A   1      37.039  33.555  29.532  1.00  0.00     0.031 A 
ATOM     52  C   UNL A   1      43.272  30.196  31.509  1.00  0.00     0.031 A 
ATOM     53  C   UNL A   1      38.247  34.137  30.149  1.00  0.00     0.049 A 
ATOM     54  C   UNL A   1      43.433  31.503  30.771  1.00  0.00     0.074 A 
ATOM     55  C   UNL A   1      38.580  34.487  31.450  1.00  0.00     0.029 A 
ATOM     56  N   UNL A   1      39.448  34.152  29.437  1.00  0.00    -0.354 N 
ATOM     57  N   UNL A   1      42.411  32.179  30.313  1.00  0.00    -0.248 NA
ATOM     58  C   UNL A   1      44.680  32.237  30.609  1.00  0.00     0.031 C 
ATOM     59  C   UNL A   1      40.001  34.588  31.530  1.00  0.00     0.029 A 
ATOM     60  C   UNL A   1      40.532  34.337  30.274  1.00  0.00     0.049 A 
ATOM     61  H   UNL A   1      39.515  34.043  28.461  1.00  0.00     0.167 HD
ATOM     62  C   UNL A   1      42.785  33.443  29.994  1.00  0.00     0.074 A 
ATOM     63  C   UNL A   1      44.234  33.411  30.117  1.00  0.00     0.031 C 
ATOM     64  C   UNL A   1      41.885  34.434  29.720  1.00  0.00     0.031 A 
BRANCH  51  65
ATOM     65  C   UNL A   1      35.637  34.147  29.723  1.00  0.00    -0.014 A 
ATOM     66  C   UNL A   1      34.870  34.573  28.617  1.00  0.00     0.009 A 
ATOM     67  C   UNL A   1      34.984  34.264  30.968  1.00  0.00     0.009 A 
ATOM     68  C   UNL A   1      33.590  35.149  28.749  1.00  0.00     0.001 A 
ATOM     69  C   UNL A   1      33.719  34.865  31.114  1.00  0.00     0.001 A 
ATOM     70  C   UNL A   1      33.023  35.317  30.003  1.00  0.00     0.000 A 
ENDBRANCH  51  65
BRANCH  52  71
ATOM     71  C   UNL A   1      43.961  28.873  31.382  1.00  0.00    -0.014 A 
ATOM     72  C   UNL A   1      44.061  28.107  32.569  1.00  0.00     0.009 A 
ATOM     73  C   UNL A   1      44.112  28.185  30.167  1.00  0.00     0.009 A 
ATOM     74  C   UNL A   1      44.223  26.712  32.544  1.00  0.00     0.001 A 
ATOM     75  C   UNL A   1      44.271  26.782  30.144  1.00  0.00     0.001 A 
ATOM     76  C   UNL A   1      44.301  26.046  31.328  1.00  0.00     0.000 A 
ENDBRANCH  52  71
BRANCH  64  77
ATOM     77  C   UNL A   1      42.210  35.650  28.903  1.00  0.00    -0.014 A 
ATOM     78  C   UNL A   1      42.998  36.702  29.381  1.00  0.00     0.009 A 
ATOM     79  C   UNL A   1      41.908  35.647  27.523  1.00  0.00     0.009 A 
ATOM     80  C   UNL A   1      43.444  37.713  28.528  1.00  0.00     0.001 A 
ATOM     81  C   UNL A   1      42.402  36.619  26.659  1.00  0.00     0.001 A 
ATOM     82  C   UNL A   1      43.163  37.660  27.165  1.00  0.00     0.000 A 
ENDBRANCH  64  77
ENDBRANCH  38  39
ENDBRANCH  31  33
ENDBRANCH  30  31
ENDBRANCH  29  30
ENDBRANCH   1  29
TORSDOF 14
ENDMDL
MODEL 2
REMARK VINA RESULT:     -14.2      3.086      9.161
REMARK SMILES Cc1ccc(-c2nc(NC(=O)[C@H]3[C@@H](C(=O)OCCOC(=O)c4ccc(-c5c6nc(c(-c7ccccc7)c7ccc([nH]7)c(-c7ccccc7)c7nc(c(-c8ccccc8)c8ccc5[nH]8)C=C7)C=C6)cc4)[C@@H]4CC[C@H]3O4)sc2C)cc1
REMARK SMILES IDX 17 1 16 2 14 3 15 4 13 5 12 6 73 7 70 8 72 9 74 10 71 11
REMARK SMILES IDX 10 12 9 13 11 15 8 16 6 17 7 18 76 19 75 20 77 21 5 22 1 23
REMARK SMILES IDX 2 24 3 25 79 26 4 27 78 28 18 29 19 30 20 31 21 32 22 33
REMARK SMILES IDX 23 34 69 35 24 36 68 37 25 38 26 39 27 40 62 41 28 42 67 43
REMARK SMILES IDX 61 44 63 45 29 46 66 47 60 48 59 49 30 51 52 52 37 53 51 54
REMARK SMILES IDX 38 55 41 56 50 57 64 58 39 59 40 60 49 62 65 63 42 64 31 65
REMARK SMILES IDX 32 66 36 67 33 68 35 69 34 70 53 71 54 72 58 73 55 74 57 75
REMARK SMILES IDX 56 76 43 77 44 78 48 79 45 80 47 81 46 82
REMARK H PARENT 9 14 63 50 41 61
REMARK Flexibility Score: inf
ROOT
ATOM      1  C   UNL A   1      33.938  25.829  26.153  1.00  0.00     0.274 C 
ENDROOT
BRANCH   1   2
ATOM      2  O   UNL A   1      35.071  24.901  25.244  1.00  0.00    -0.462 OA
BRANCH   2   3
ATOM      3  C   UNL A   1      35.936  23.749  25.474  1.00  0.00     0.312 C 
ATOM      4  O   UNL A   1      37.156  23.811  25.514  1.00  0.00    -0.252 OA
BRANCH   3   5
ATOM      5  C   UNL A   1      35.180  22.308  25.533  1.00  0.00     0.143 C 
ATOM      6  C   UNL A   1      35.084  21.855  24.120  1.00  0.00     0.124 C 
ATOM      7  C   UNL A   1      33.818  21.035  23.983  1.00  0.00     0.132 C 
ATOM      8  C   UNL A   1      33.674  21.966  25.943  1.00  0.00     0.133 C 
ATOM      9  C   UNL A   1      33.778  19.830  24.912  1.00  0.00     0.035 C 
ATOM     10  O   UNL A   1      32.939  21.949  24.666  1.00  0.00    -0.373 OA
ATOM     11  C   UNL A   1      33.357  20.492  26.222  1.00  0.00     0.036 C 
BRANCH   6  12
ATOM     12  C   UNL A   1      34.834  23.040  23.223  1.00  0.00     0.232 C 
ATOM     13  N   UNL A   1      33.407  23.539  23.103  1.00  0.00    -0.302 N 
ATOM     14  H   UNL A   1      32.860  22.722  23.078  1.00  0.00     0.172 HD
ATOM     15  O   UNL A   1      35.866  23.384  22.652  1.00  0.00    -0.274 OA
BRANCH  13  16
ATOM     16  C   UNL A   1      32.353  24.731  22.996  1.00  0.00     0.190 A 
ATOM     17  C   UNL A   1      31.384  26.719  23.544  1.00  0.00     0.086 A 
ATOM     18  N   UNL A   1      32.503  26.063  22.899  1.00  0.00    -0.220 NA
ATOM     19  C   UNL A   1      30.729  25.854  24.410  1.00  0.00     0.031 A 
ATOM     20  S   UNL A   1      30.655  24.479  23.462  1.00  0.00    -0.101 S 
ATOM     21  C   UNL A   1      29.856  25.931  25.606  1.00  0.00     0.059 C 
BRANCH  17  22
ATOM     22  C   UNL A   1      30.821  28.076  23.401  1.00  0.00     0.001 A 
ATOM     23  C   UNL A   1      27.975  31.337  23.538  1.00  0.00     0.044 C 
ATOM     24  C   UNL A   1      29.070  30.320  23.375  1.00  0.00    -0.051 A 
ATOM     25  C   UNL A   1      28.905  29.304  22.446  1.00  0.00     0.004 A 
ATOM     26  C   UNL A   1      30.197  30.275  24.217  1.00  0.00     0.004 A 
ATOM     27  C   UNL A   1      29.797  28.235  22.432  1.00  0.00     0.010 A 
ATOM     28  C   UNL A   1      31.070  29.156  24.238  1.00  0.00     0.010 A 
ENDBRANCH  17  22
ENDBRANCH  13  16
ENDBRANCH   6  12
ENDBRANCH   3   5
ENDBRANCH   2   3
ENDBRANCH   1   2
BRANCH   1  29
ATOM     29  C   UNL A   1      33.655  27.698  26.246  1.00  0.00     0.275 C 
BRANCH  29  30
ATOM     30  O   UNL A   1      34.423  28.954  27.338  1.00  0.00    -0.458 OA
BRANCH  30  31
ATOM     31  C   UNL A   1      35.507  29.744  28.087  1.00  0.00     0.338 C 
ATOM     32  O   UNL A   1      35.132  30.788  28.620  1.00  0.00    -0.246 OA
BRANCH  31  33
ATOM     33  C   UNL A   1      37.164  29.463  28.218  1.00  0.00     0.060 A 
ATOM     34  C   UNL A   1      38.185  29.684  27.278  1.00  0.00     0.016 A 
ATOM     35  C   UNL A   1      37.771  28.955  29.340  1.00  0.00     0.016 A 
ATOM     36  C   UNL A   1      39.587  29.233  27.501  1.00  0.00     0.010 A 
ATOM     37  C   UNL A   1      38.983  28.344  29.535  1.00  0.00     0.010 A 
ATOM     38  C   UNL A   1      39.974  28.495  28.641  1.00  0.00    -0.014 A 
BRANCH  38  39
ATOM     39  C   UNL A   1      41.061  27.555  29.020  1.00  0.00     0.031 A 
ATOM     40  C   UNL A   1      41.332  26.197  28.395  1.00  0.00     0.074 A 
ATOM     41  C   UNL A   1      42.187  28.250  29.315  1.00  0.00     0.049 A 
ATOM     42  N   UNL A   1      42.219  25.360  28.838  1.00  0.00    -0.248 NA
ATOM     43  C   UNL A   1      40.752  25.723  27.131  1.00  0.00     0.031 C 
ATOM     44  C   UNL A   1      43.594  27.882  29.262  1.00  0.00     0.029 A 
ATOM     45  N   UNL A   1      42.233  29.580  29.733  1.00  0.00    -0.354 N 
ATOM     46  C   UNL A   1      42.581  24.519  27.793  1.00  0.00     0.074 A 
ATOM     47  C   UNL A   1      41.572  24.723  26.785  1.00  0.00     0.031 C 
ATOM     48  C   UNL A   1      44.297  28.779  29.978  1.00  0.00     0.029 A 
ATOM     49  C   UNL A   1      43.360  29.739  30.542  1.00  0.00     0.049 A 
ATOM     50  H   UNL A   1      41.585  30.283  29.499  1.00  0.00     0.167 HD
ATOM     51  C   UNL A   1      43.790  23.870  27.791  1.00  0.00     0.031 A 
ATOM     52  C   UNL A   1      43.143  29.951  31.869  1.00  0.00     0.031 A 
ATOM     53  C   UNL A   1      44.644  24.331  28.903  1.00  0.00     0.049 A 
ATOM     54  C   UNL A   1      43.432  28.677  32.626  1.00  0.00     0.074 A 
ATOM     55  C   UNL A   1      45.862  24.994  28.958  1.00  0.00     0.029 A 
ATOM     56  N   UNL A   1      44.118  24.401  30.194  1.00  0.00    -0.354 N 
ATOM     57  N   UNL A   1      43.518  27.514  32.033  1.00  0.00    -0.248 NA
ATOM     58  C   UNL A   1      43.793  28.592  34.034  1.00  0.00     0.031 C 
ATOM     59  C   UNL A   1      45.996  25.562  30.261  1.00  0.00     0.029 A 
ATOM     60  C   UNL A   1      44.880  25.216  31.009  1.00  0.00     0.049 A 
ATOM     61  H   UNL A   1      43.306  23.929  30.488  1.00  0.00     0.167 HD
ATOM     62  C   UNL A   1      44.099  26.606  32.856  1.00  0.00     0.074 A 
ATOM     63  C   UNL A   1      44.179  27.303  34.130  1.00  0.00     0.031 C 
ATOM     64  C   UNL A   1      44.530  25.384  32.422  1.00  0.00     0.031 A 
BRANCH  51  65
ATOM     65  C   UNL A   1      44.313  22.990  26.647  1.00  0.00    -0.014 A 
ATOM     66  C   UNL A   1      43.605  21.841  26.232  1.00  0.00     0.009 A 
ATOM     67  C   UNL A   1      45.473  23.265  25.896  1.00  0.00     0.009 A 
ATOM     68  C   UNL A   1      44.063  20.988  25.207  1.00  0.00     0.001 A 
ATOM     69  C   UNL A   1      45.956  22.405  24.890  1.00  0.00     0.001 A 
ATOM     70  C   UNL A   1      45.254  21.259  24.550  1.00  0.00     0.000 A 
ENDBRANCH  51  65
BRANCH  52  71
ATOM     71  C   UNL A   1      42.190  31.079  32.116  1.00  0.00    -0.014 A 
ATOM     72  C   UNL A   1      40.931  30.723  32.659  1.00  0.00     0.009 A 
ATOM     73  C   UNL A   1      42.586  32.419  32.256  1.00  0.00     0.009 A 
ATOM     74  C   UNL A   1      40.143  31.638  33.376  1.00  0.00     0.001 A 
ATOM     75  C   UNL A   1      41.794  33.336  32.981  1.00  0.00     0.001 A 
ATOM     76  C   UNL A   1      40.589  32.940  33.560  1.00  0.00     0.000 A 
ENDBRANCH  52  71
BRANCH  64  77
ATOM     77  C   UNL A   1      44.701  24.196  33.321  1.00  0.00    -0.014 A 
ATOM     78  C   UNL A   1      45.951  23.682  33.679  1.00  0.00     0.009 A 
ATOM     79  C   UNL A   1      43.578  23.703  34.023  1.00  0.00     0.009 A 
ATOM     80  C   UNL A   1      46.074  22.710  34.673  1.00  0.00     0.001 A 
ATOM     81  C   UNL A   1      43.702  22.779  35.057  1.00  0.00     0.001 A 
ATOM     82  C   UNL A   1      44.953  22.274  35.374  1.00  0.00     0.000 A 
ENDBRANCH  64  77
ENDBRANCH  38  39
ENDBRANCH  31  33
ENDBRANCH  30  31
ENDBRANCH  29  30
ENDBRANCH   1  29
TORSDOF 14
ENDMDL
MODEL 3
REMARK VINA RESULT:     -14.0      3.094      8.395
REMARK SMILES Cc1ccc(-c2nc(NC(=O)[C@H]3[C@@H](C(=O)OCCOC(=O)c4ccc(-c5c6nc(c(-c7ccccc7)c7ccc([nH]7)c(-c7ccccc7)c7nc(c(-c8ccccc8)c8ccc5[nH]8)C=C7)C=C6)cc4)[C@@H]4CC[C@H]3O4)sc2C)cc1
REMARK SMILES IDX 17 1 16 2 14 3 15 4 13 5 12 6 73 7 70 8 72 9 74 10 71 11
REMARK SMILES IDX 10 12 9 13 11 15 8 16 6 17 7 18 76 19 75 20 77 21 5 22 1 23
REMARK SMILES IDX 2 24 3 25 79 26 4 27 78 28 18 29 19 30 20 31 21 32 22 33
REMARK SMILES IDX 23 34 69 35 24 36 68 37 25 38 26 39 27 40 62 41 28 42 67 43
REMARK SMILES IDX 61 44 63 45 29 46 66 47 60 48 59 49 30 51 52 52 37 53 51 54
REMARK SMILES IDX 38 55 41 56 50 57 64 58 39 59 40 60 49 62 65 63 42 64 31 65
REMARK SMILES IDX 32 66 36 67 33 68 35 69 34 70 53 71 54 72 58 73 55 74 57 75
REMARK SMILES IDX 56 76 43 77 44 78 48 79 45 80 47 81 46 82
REMARK H PARENT 9 14 63 50 41 61
REMARK Flexibility Score: inf
ROOT
ATOM      1  C   UNL A   1      33.454  26.204  24.988  1.00  0.00     0.274 C 
ENDROOT
BRANCH   1   2
ATOM      2  O   UNL A   1      33.569  24.808  23.984  1.00  0.00    -0.462 OA
BRANCH   2   3
ATOM      3  C   UNL A   1      34.416  23.622  23.896  1.00  0.00     0.312 C 
ATOM      4  O   UNL A   1      35.587  23.648  23.546  1.00  0.00    -0.252 OA
BRANCH   3   5
ATOM      5  C   UNL A   1      33.661  22.204  24.156  1.00  0.00     0.143 C 
ATOM      6  C   UNL A   1      33.471  22.122  25.629  1.00  0.00     0.124 C 
ATOM      7  C   UNL A   1      33.532  20.661  26.023  1.00  0.00     0.132 C 
ATOM      8  C   UNL A   1      34.201  20.713  23.953  1.00  0.00     0.133 C 
ATOM      9  C   UNL A   1      32.486  19.805  25.322  1.00  0.00     0.035 C 
ATOM     10  O   UNL A   1      34.719  20.325  25.278  1.00  0.00    -0.373 OA
ATOM     11  C   UNL A   1      33.150  19.597  23.963  1.00  0.00     0.036 C 
BRANCH   6  12
ATOM     12  C   UNL A   1      34.663  22.724  26.328  1.00  0.00     0.232 C 
ATOM     13  N   UNL A   1      36.014  22.075  26.097  1.00  0.00    -0.302 N 
ATOM     14  H   UNL A   1      35.826  21.109  26.090  1.00  0.00     0.172 HD
ATOM     15  O   UNL A   1      34.320  23.647  27.064  1.00  0.00    -0.274 OA
BRANCH  13  16
ATOM     16  C   UNL A   1      37.587  22.179  25.860  1.00  0.00     0.190 A 
ATOM     17  C   UNL A   1      39.797  21.938  26.363  1.00  0.00     0.086 A 
ATOM     18  N   UNL A   1      38.575  21.274  25.952  1.00  0.00    -0.220 NA
ATOM     19  C   UNL A   1      39.524  23.173  26.935  1.00  0.00     0.031 A 
ATOM     20  S   UNL A   1      38.395  23.763  25.852  1.00  0.00    -0.101 S 
ATOM     21  C   UNL A   1      40.164  24.127  27.872  1.00  0.00     0.059 C 
BRANCH  17  22
ATOM     22  C   UNL A   1      41.217  21.558  26.234  1.00  0.00     0.001 A 
ATOM     23  C   UNL A   1      44.811  19.714  24.675  1.00  0.00     0.044 C 
ATOM     24  C   UNL A   1      43.666  20.387  25.379  1.00  0.00    -0.051 A 
ATOM     25  C   UNL A   1      42.698  19.600  25.983  1.00  0.00     0.004 A 
ATOM     26  C   UNL A   1      43.461  21.779  25.337  1.00  0.00     0.004 A 
ATOM     27  C   UNL A   1      41.524  20.188  26.446  1.00  0.00     0.010 A 
ATOM     28  C   UNL A   1      42.239  22.367  25.757  1.00  0.00     0.010 A 
ENDBRANCH  17  22
ENDBRANCH  13  16
ENDBRANCH   6  12
ENDBRANCH   3   5
ENDBRANCH   2   3
ENDBRANCH   1   2
BRANCH   1  29
ATOM     29  C   UNL A   1      33.202  28.029  24.553  1.00  0.00     0.275 C 
BRANCH  29  30
ATOM     30  O   UNL A   1      33.231  29.512  25.629  1.00  0.00    -0.458 OA
BRANCH  30  31
ATOM     31  C   UNL A   1      33.527  30.409  26.840  1.00  0.00     0.338 C 
ATOM     32  O   UNL A   1      32.632  31.193  27.154  1.00  0.00    -0.246 OA
BRANCH  31  33
ATOM     33  C   UNL A   1      34.930  30.565  27.762  1.00  0.00     0.060 A 
ATOM     34  C   UNL A   1      35.882  31.599  27.774  1.00  0.00     0.016 A 
ATOM     35  C   UNL A   1      35.348  29.641  28.688  1.00  0.00     0.016 A 
ATOM     36  C   UNL A   1      37.154  31.506  28.542  1.00  0.00     0.010 A 
ATOM     37  C   UNL A   1      36.570  29.400  29.263  1.00  0.00     0.010 A 
ATOM     38  C   UNL A   1      37.523  30.346  29.260  1.00  0.00    -0.014 A 
BRANCH  38  39
ATOM     39  C   UNL A   1      38.775  29.718  29.756  1.00  0.00     0.031 A 
ATOM     40  C   UNL A   1      39.597  28.664  29.034  1.00  0.00     0.074 A 
ATOM     41  C   UNL A   1      39.527  30.640  30.405  1.00  0.00     0.049 A 
ATOM     42  N   UNL A   1      40.617  28.058  29.557  1.00  0.00    -0.248 NA
ATOM     43  C   UNL A   1      39.452  28.312  27.614  1.00  0.00     0.031 C 
ATOM     44  C   UNL A   1      40.960  30.730  30.640  1.00  0.00     0.029 A 
ATOM     45  N   UNL A   1      39.044  31.806  31.000  1.00  0.00    -0.354 N 
ATOM     46  C   UNL A   1      41.427  27.600  28.523  1.00  0.00     0.074 A 
ATOM     47  C   UNL A   1      40.609  27.698  27.341  1.00  0.00     0.031 C 
ATOM     48  C   UNL A   1      41.176  31.627  31.621  1.00  0.00     0.029 A 
ATOM     49  C   UNL A   1      39.884  32.122  32.070  1.00  0.00     0.049 A 
ATOM     50  H   UNL A   1      38.251  32.316  30.717  1.00  0.00     0.167 HD
ATOM     51  C   UNL A   1      42.762  27.358  28.722  1.00  0.00     0.031 A 
ATOM     52  C   UNL A   1      39.370  31.979  33.322  1.00  0.00     0.031 A 
ATOM     53  C   UNL A   1      43.193  27.812  30.058  1.00  0.00     0.049 A 
ATOM     54  C   UNL A   1      39.929  30.722  33.944  1.00  0.00     0.074 A 
ATOM     55  C   UNL A   1      44.084  28.782  30.495  1.00  0.00     0.029 A 
ATOM     56  N   UNL A   1      42.449  27.451  31.183  1.00  0.00    -0.354 N 
ATOM     57  N   UNL A   1      40.509  29.788  33.235  1.00  0.00    -0.248 NA
ATOM     58  C   UNL A   1      40.035  30.458  35.372  1.00  0.00     0.031 C 
ATOM     59  C   UNL A   1      43.779  29.080  31.857  1.00  0.00     0.029 A 
ATOM     60  C   UNL A   1      42.729  28.269  32.262  1.00  0.00     0.049 A 
ATOM     61  H   UNL A   1      41.804  26.707  31.206  1.00  0.00     0.167 HD
ATOM     62  C   UNL A   1      41.202  28.945  34.039  1.00  0.00     0.074 A 
ATOM     63  C   UNL A   1      40.809  29.353  35.379  1.00  0.00     0.031 C 
ATOM     64  C   UNL A   1      42.091  28.027  33.558  1.00  0.00     0.031 A 
BRANCH  51  65
ATOM     65  C   UNL A   1      43.750  26.932  27.627  1.00  0.00    -0.014 A 
ATOM     66  C   UNL A   1      43.789  25.600  27.160  1.00  0.00     0.009 A 
ATOM     67  C   UNL A   1      44.638  27.808  26.971  1.00  0.00     0.009 A 
ATOM     68  C   UNL A   1      44.699  25.159  26.178  1.00  0.00     0.001 A 
ATOM     69  C   UNL A   1      45.573  27.373  26.010  1.00  0.00     0.001 A 
ATOM     70  C   UNL A   1      45.609  26.044  25.618  1.00  0.00     0.000 A 
ENDBRANCH  51  65
BRANCH  52  71
ATOM     71  C   UNL A   1      38.065  32.693  33.487  1.00  0.00    -0.014 A 
ATOM     72  C   UNL A   1      38.057  34.066  33.138  1.00  0.00     0.009 A 
ATOM     73  C   UNL A   1      36.820  32.044  33.536  1.00  0.00     0.009 A 
ATOM     74  C   UNL A   1      36.878  34.737  32.778  1.00  0.00     0.001 A 
ATOM     75  C   UNL A   1      35.636  32.719  33.170  1.00  0.00     0.001 A 
ATOM     76  C   UNL A   1      35.668  34.055  32.768  1.00  0.00     0.000 A 
ENDBRANCH  52  71
BRANCH  64  77
ATOM     77  C   UNL A   1      42.486  26.784  34.300  1.00  0.00    -0.014 A 
ATOM     78  C   UNL A   1      41.603  26.065  35.112  1.00  0.00     0.009 A 
ATOM     79  C   UNL A   1      43.726  26.176  34.002  1.00  0.00     0.009 A 
ATOM     80  C   UNL A   1      41.948  24.812  35.619  1.00  0.00     0.001 A 
ATOM     81  C   UNL A   1      44.048  24.900  34.454  1.00  0.00     0.001 A 
ATOM     82  C   UNL A   1      43.160  24.221  35.274  1.00  0.00     0.000 A 
ENDBRANCH  64  77
ENDBRANCH  38  39
ENDBRANCH  31  33
ENDBRANCH  30  31
ENDBRANCH  29  30
ENDBRANCH   1  29
TORSDOF 14
ENDMDL
