MODEL 1
REMARK VINA RESULT:     -11.9      0.000      0.000
REMARK SMILES NC(=O)c1c(-c2ccc(Cl)cc2)csc1NC(=O)[C@H]1[C@@H](C(=O)OCCOC(=O)c2ccc(-c3c4nc(c(-c5ccccc5)c5ccc([nH]5)c(-c5ccccc5)c5nc(c(-c6ccccc6)c6ccc3[nH]6)C=C5)C=C4)cc2)[C@@H]2CC[C@H]1O2
REMARK SMILES IDX 24 1 23 2 21 3 22 4 20 5 19 6 80 7 77 8 79 9 81 10 78 11
REMARK SMILES IDX 17 12 16 13 18 15 15 16 4 17 5 18 13 19 14 20 2 21 1 22 3 25
REMARK SMILES IDX 6 26 7 27 12 28 8 29 11 30 9 31 10 32 25 33 26 34 27 35
REMARK SMILES IDX 28 36 29 37 30 38 76 39 31 40 75 41 32 42 33 43 34 44 69 45
REMARK SMILES IDX 35 46 74 47 68 48 70 49 36 50 73 51 67 52 66 53 37 55 59 56
REMARK SMILES IDX 44 57 58 58 45 59 48 60 57 61 71 62 46 63 47 64 56 66 72 67
REMARK SMILES IDX 49 68 38 69 39 70 43 71 40 72 42 73 41 74 60 75 61 76 65 77
REMARK SMILES IDX 62 78 64 79 63 80 50 81 51 82 55 83 52 84 54 85 53 86
REMARK H PARENT 16 14 1 23 1 24 70 54 48 65
REMARK Flexibility Score: inf
ROOT
ATOM      1  C   UNL A   1      37.871  21.281  25.429  1.00  0.00     0.274 C 
ENDROOT
BRANCH   1   2
ATOM      2  O   UNL A   1      36.564  20.680  25.553  1.00  0.00    -0.462 OA
BRANCH   2   3
ATOM      3  C   UNL A   1      35.539  21.561  25.623  1.00  0.00     0.312 C 
ATOM      4  O   UNL A   1      35.509  22.539  26.365  1.00  0.00    -0.252 OA
BRANCH   3   5
ATOM      5  C   UNL A   1      34.429  21.308  24.636  1.00  0.00     0.143 C 
ATOM      6  C   UNL A   1      34.331  22.157  23.361  1.00  0.00     0.124 C 
ATOM      7  C   UNL A   1      32.826  22.210  23.208  1.00  0.00     0.132 C 
ATOM      8  C   UNL A   1      33.004  21.393  25.206  1.00  0.00     0.133 C 
ATOM      9  C   UNL A   1      32.147  20.836  23.083  1.00  0.00     0.035 C 
ATOM     10  O   UNL A   1      32.454  22.559  24.559  1.00  0.00    -0.373 OA
ATOM     11  C   UNL A   1      32.131  20.339  24.531  1.00  0.00     0.036 C 
BRANCH   6  12
ATOM     12  C   UNL A   1      35.206  23.419  23.401  1.00  0.00     0.231 C 
ATOM     13  N   UNL A   1      34.987  24.643  23.944  1.00  0.00    -0.317 N 
ATOM     14  H   UNL A   1      35.830  25.137  24.059  1.00  0.00     0.170 HD
ATOM     15  O   UNL A   1      36.374  23.253  22.995  1.00  0.00    -0.274 OA
BRANCH  13  16
ATOM     16  C   UNL A   1      33.904  25.387  24.380  1.00  0.00     0.108 A 
ATOM     17  C   UNL A   1      32.955  26.049  23.588  1.00  0.00     0.082 A 
ATOM     18  C   UNL A   1      32.068  26.830  24.436  1.00  0.00     0.007 A 
ATOM     19  C   UNL A   1      32.338  26.638  25.775  1.00  0.00     0.076 A 
ATOM     20  S   UNL A   1      33.357  25.308  25.975  1.00  0.00    -0.125 S 
BRANCH  17  21
ATOM     21  C   UNL A   1      32.942  25.898  22.133  1.00  0.00     0.252 C 
ATOM     22  N   UNL A   1      31.865  25.289  21.564  1.00  0.00    -0.365 N 
ATOM     23  H   UNL A   1      31.825  25.172  20.587  1.00  0.00     0.159 HD
ATOM     24  H   UNL A   1      31.126  24.966  22.129  1.00  0.00     0.159 HD
ATOM     25  O   UNL A   1      33.863  26.290  21.417  1.00  0.00    -0.269 OA
ENDBRANCH  17  21
BRANCH  18  26
ATOM     26  C   UNL A   1      30.859  27.574  24.136  1.00  0.00    -0.017 A 
ATOM     27  C   UNL A   1      29.644  26.923  23.900  1.00  0.00     0.010 A 
ATOM     28  C   UNL A   1      30.975  28.953  23.911  1.00  0.00     0.010 A 
ATOM     29  C   UNL A   1      28.552  27.652  23.419  1.00  0.00     0.021 A 
ATOM     30  C   UNL A   1      29.887  29.675  23.427  1.00  0.00     0.021 A 
ATOM     31  C   UNL A   1      28.683  29.020  23.175  1.00  0.00     0.041 A 
ATOM     32  Cl  UNL A   1      27.357  29.906  22.529  1.00  0.00    -0.084 Cl
ENDBRANCH  18  26
ENDBRANCH  13  16
ENDBRANCH   6  12
ENDBRANCH   3   5
ENDBRANCH   2   3
ENDBRANCH   1   2
BRANCH   1  33
ATOM     33  C   UNL A   1      38.942  20.246  25.082  1.00  0.00     0.275 C 
BRANCH  33  34
ATOM     34  O   UNL A   1      39.707  19.870  26.243  1.00  0.00    -0.458 OA
BRANCH  34  35
ATOM     35  C   UNL A   1      41.046  19.844  26.065  1.00  0.00     0.338 C 
ATOM     36  O   UNL A   1      41.711  18.994  25.500  1.00  0.00    -0.246 OA
BRANCH  35  37
ATOM     37  C   UNL A   1      41.642  21.078  26.593  1.00  0.00     0.060 A 
ATOM     38  C   UNL A   1      41.649  21.280  27.973  1.00  0.00     0.016 A 
ATOM     39  C   UNL A   1      42.060  22.089  25.729  1.00  0.00     0.016 A 
ATOM     40  C   UNL A   1      42.025  22.509  28.503  1.00  0.00     0.010 A 
ATOM     41  C   UNL A   1      42.486  23.308  26.263  1.00  0.00     0.010 A 
ATOM     42  C   UNL A   1      42.448  23.535  27.652  1.00  0.00    -0.014 A 
BRANCH  42  43
ATOM     43  C   UNL A   1      42.817  24.856  28.213  1.00  0.00     0.031 A 
ATOM     44  C   UNL A   1      41.758  25.897  28.439  1.00  0.00     0.074 A 
ATOM     45  C   UNL A   1      44.101  25.118  28.522  1.00  0.00     0.049 A 
ATOM     46  N   UNL A   1      41.891  27.145  28.805  1.00  0.00    -0.248 NA
ATOM     47  C   UNL A   1      40.365  25.477  28.220  1.00  0.00     0.031 C 
ATOM     48  C   UNL A   1      45.211  24.171  28.403  1.00  0.00     0.029 A 
ATOM     49  N   UNL A   1      44.688  26.264  28.996  1.00  0.00    -0.354 N 
ATOM     50  C   UNL A   1      40.605  27.670  28.833  1.00  0.00     0.074 A 
ATOM     51  C   UNL A   1      39.707  26.609  28.430  1.00  0.00     0.031 C 
ATOM     52  C   UNL A   1      46.345  24.775  28.792  1.00  0.00     0.029 A 
ATOM     53  C   UNL A   1      46.051  26.164  29.128  1.00  0.00     0.049 A 
ATOM     54  H   UNL A   1      44.181  27.077  29.219  1.00  0.00     0.167 HD
ATOM     55  C   UNL A   1      40.210  28.922  29.166  1.00  0.00     0.031 A 
ATOM     56  C   UNL A   1      46.967  27.098  29.445  1.00  0.00     0.031 A 
ATOM     57  C   UNL A   1      41.109  29.974  29.562  1.00  0.00     0.049 A 
ATOM     58  C   UNL A   1      46.511  28.502  29.729  1.00  0.00     0.074 A 
ATOM     59  C   UNL A   1      40.809  31.277  29.921  1.00  0.00     0.029 A 
ATOM     60  N   UNL A   1      42.487  29.842  29.649  1.00  0.00    -0.354 N 
ATOM     61  N   UNL A   1      45.294  28.989  29.745  1.00  0.00    -0.248 NA
ATOM     62  C   UNL A   1      47.558  29.485  30.039  1.00  0.00     0.031 C 
ATOM     63  C   UNL A   1      42.010  31.949  30.172  1.00  0.00     0.029 A 
ATOM     64  C   UNL A   1      43.053  31.047  30.033  1.00  0.00     0.049 A 
ATOM     65  H   UNL A   1      42.988  29.015  29.466  1.00  0.00     0.167 HD
ATOM     66  C   UNL A   1      45.426  30.327  30.090  1.00  0.00     0.074 A 
ATOM     67  C   UNL A   1      46.839  30.569  30.293  1.00  0.00     0.031 C 
ATOM     68  C   UNL A   1      44.462  31.271  30.229  1.00  0.00     0.031 A 
BRANCH  55  69
ATOM     69  C   UNL A   1      38.742  29.234  29.071  1.00  0.00    -0.014 A 
ATOM     70  C   UNL A   1      37.894  29.123  30.185  1.00  0.00     0.009 A 
ATOM     71  C   UNL A   1      38.203  29.670  27.850  1.00  0.00     0.009 A 
ATOM     72  C   UNL A   1      36.532  29.410  30.068  1.00  0.00     0.001 A 
ATOM     73  C   UNL A   1      36.846  29.985  27.744  1.00  0.00     0.001 A 
ATOM     74  C   UNL A   1      36.011  29.845  28.850  1.00  0.00     0.000 A 
ENDBRANCH  55  69
BRANCH  56  75
ATOM     75  C   UNL A   1      48.411  26.745  29.468  1.00  0.00    -0.014 A 
ATOM     76  C   UNL A   1      49.230  27.006  28.360  1.00  0.00     0.009 A 
ATOM     77  C   UNL A   1      48.976  26.136  30.601  1.00  0.00     0.009 A 
ATOM     78  C   UNL A   1      50.579  26.642  28.376  1.00  0.00     0.001 A 
ATOM     79  C   UNL A   1      50.331  25.802  30.626  1.00  0.00     0.001 A 
ATOM     80  C   UNL A   1      51.128  26.047  29.510  1.00  0.00     0.000 A 
ENDBRANCH  56  75
BRANCH  68  81
ATOM     81  C   UNL A   1      44.903  32.642  30.659  1.00  0.00    -0.014 A 
ATOM     82  C   UNL A   1      45.024  32.980  32.016  1.00  0.00     0.009 A 
ATOM     83  C   UNL A   1      45.236  33.599  29.688  1.00  0.00     0.009 A 
ATOM     84  C   UNL A   1      45.438  34.261  32.390  1.00  0.00     0.001 A 
ATOM     85  C   UNL A   1      45.678  34.868  30.064  1.00  0.00     0.001 A 
ATOM     86  C   UNL A   1      45.769  35.199  31.414  1.00  0.00     0.000 A 
ENDBRANCH  68  81
ENDBRANCH  42  43
ENDBRANCH  35  37
ENDBRANCH  34  35
ENDBRANCH  33  34
ENDBRANCH   1  33
TORSDOF 15
ENDMDL
MODEL 2
REMARK VINA RESULT:     -11.8      4.427      9.110
REMARK SMILES NC(=O)c1c(-c2ccc(Cl)cc2)csc1NC(=O)[C@H]1[C@@H](C(=O)OCCOC(=O)c2ccc(-c3c4nc(c(-c5ccccc5)c5ccc([nH]5)c(-c5ccccc5)c5nc(c(-c6ccccc6)c6ccc3[nH]6)C=C5)C=C4)cc2)[C@@H]2CC[C@H]1O2
REMARK SMILES IDX 24 1 23 2 21 3 22 4 20 5 19 6 80 7 77 8 79 9 81 10 78 11
REMARK SMILES IDX 17 12 16 13 18 15 15 16 4 17 5 18 13 19 14 20 2 21 1 22 3 25
REMARK SMILES IDX 6 26 7 27 12 28 8 29 11 30 9 31 10 32 25 33 26 34 27 35
REMARK SMILES IDX 28 36 29 37 30 38 76 39 31 40 75 41 32 42 33 43 34 44 69 45
REMARK SMILES IDX 35 46 74 47 68 48 70 49 36 50 73 51 67 52 66 53 37 55 59 56
REMARK SMILES IDX 44 57 58 58 45 59 48 60 57 61 71 62 46 63 47 64 56 66 72 67
REMARK SMILES IDX 49 68 38 69 39 70 43 71 40 72 42 73 41 74 60 75 61 76 65 77
REMARK SMILES IDX 62 78 64 79 63 80 50 81 51 82 55 83 52 84 54 85 53 86
REMARK H PARENT 16 14 1 23 1 24 70 54 48 65
REMARK Flexibility Score: inf
ROOT
ATOM      1  C   UNL A   1      31.384  30.926  25.835  1.00  0.00     0.274 C 
ENDROOT
BRANCH   1   2
ATOM      2  O   UNL A   1      32.655  30.243  25.892  1.00  0.00    -0.462 OA
BRANCH   2   3
ATOM      3  C   UNL A   1      32.784  29.216  25.019  1.00  0.00     0.312 C 
ATOM      4  O   UNL A   1      33.857  28.751  24.641  1.00  0.00    -0.252 OA
BRANCH   3   5
ATOM      5  C   UNL A   1      31.481  28.596  24.586  1.00  0.00     0.143 C 
ATOM      6  C   UNL A   1      30.768  27.593  25.504  1.00  0.00     0.124 C 
ATOM      7  C   UNL A   1      30.163  26.681  24.459  1.00  0.00     0.132 C 
ATOM      8  C   UNL A   1      31.515  27.854  23.241  1.00  0.00     0.133 C 
ATOM      9  C   UNL A   1      29.218  27.382  23.468  1.00  0.00     0.035 C 
ATOM     10  O   UNL A   1      31.315  26.475  23.615  1.00  0.00    -0.373 OA
ATOM     11  C   UNL A   1      30.193  28.075  22.512  1.00  0.00     0.036 C 
BRANCH   6  12
ATOM     12  C   UNL A   1      31.658  27.073  26.644  1.00  0.00     0.231 C 
ATOM     13  N   UNL A   1      32.672  26.173  26.647  1.00  0.00    -0.317 N 
ATOM     14  H   UNL A   1      33.227  26.264  27.456  1.00  0.00     0.170 HD
ATOM     15  O   UNL A   1      31.527  27.685  27.724  1.00  0.00    -0.274 OA
BRANCH  13  16
ATOM     16  C   UNL A   1      33.143  25.162  25.828  1.00  0.00     0.108 A 
ATOM     17  C   UNL A   1      32.646  23.855  25.721  1.00  0.00     0.082 A 
ATOM     18  C   UNL A   1      33.511  23.071  24.854  1.00  0.00     0.007 A 
ATOM     19  C   UNL A   1      34.518  23.837  24.304  1.00  0.00     0.076 A 
ATOM     20  S   UNL A   1      34.194  25.476  24.545  1.00  0.00    -0.125 S 
BRANCH  17  21
ATOM     21  C   UNL A   1      31.423  23.450  26.414  1.00  0.00     0.252 C 
ATOM     22  N   UNL A   1      30.333  23.143  25.658  1.00  0.00    -0.365 N 
ATOM     23  H   UNL A   1      29.494  22.866  26.093  1.00  0.00     0.159 HD
ATOM     24  H   UNL A   1      30.382  23.199  24.677  1.00  0.00     0.159 HD
ATOM     25  O   UNL A   1      31.346  23.384  27.640  1.00  0.00    -0.269 OA
ENDBRANCH  17  21
BRANCH  18  26
ATOM     26  C   UNL A   1      33.374  21.730  24.316  1.00  0.00    -0.017 A 
ATOM     27  C   UNL A   1      32.519  21.460  23.242  1.00  0.00     0.010 A 
ATOM     28  C   UNL A   1      33.982  20.678  25.014  1.00  0.00     0.010 A 
ATOM     29  C   UNL A   1      32.259  20.134  22.883  1.00  0.00     0.021 A 
ATOM     30  C   UNL A   1      33.717  19.358  24.657  1.00  0.00     0.021 A 
ATOM     31  C   UNL A   1      32.851  19.092  23.598  1.00  0.00     0.041 A 
ATOM     32  Cl  UNL A   1      32.486  17.460  23.192  1.00  0.00    -0.084 Cl
ENDBRANCH  18  26
ENDBRANCH  13  16
ENDBRANCH   6  12
ENDBRANCH   3   5
ENDBRANCH   2   3
ENDBRANCH   1   2
BRANCH   1  33
ATOM     33  C   UNL A   1      31.373  32.178  26.716  1.00  0.00     0.275 C 
BRANCH  33  34
ATOM     34  O   UNL A   1      32.611  32.906  26.611  1.00  0.00    -0.458 OA
BRANCH  34  35
ATOM     35  C   UNL A   1      32.995  33.551  27.735  1.00  0.00     0.338 C 
ATOM     36  O   UNL A   1      32.395  34.421  28.342  1.00  0.00    -0.246 OA
BRANCH  35  37
ATOM     37  C   UNL A   1      34.263  32.992  28.221  1.00  0.00     0.060 A 
ATOM     38  C   UNL A   1      34.294  31.655  28.620  1.00  0.00     0.016 A 
ATOM     39  C   UNL A   1      35.371  33.814  28.417  1.00  0.00     0.016 A 
ATOM     40  C   UNL A   1      35.413  31.139  29.263  1.00  0.00     0.010 A 
ATOM     41  C   UNL A   1      36.515  33.283  29.019  1.00  0.00     0.010 A 
ATOM     42  C   UNL A   1      36.535  31.949  29.468  1.00  0.00    -0.014 A 
BRANCH  42  43
ATOM     43  C   UNL A   1      37.715  31.410  30.183  1.00  0.00     0.031 A 
ATOM     44  C   UNL A   1      38.628  30.434  29.497  1.00  0.00     0.074 A 
ATOM     45  C   UNL A   1      37.969  31.800  31.447  1.00  0.00     0.049 A 
ATOM     46  N   UNL A   1      39.637  29.760  29.986  1.00  0.00    -0.248 NA
ATOM     47  C   UNL A   1      38.367  30.181  28.070  1.00  0.00     0.031 C 
ATOM     48  C   UNL A   1      37.191  32.785  32.202  1.00  0.00     0.029 A 
ATOM     49  N   UNL A   1      38.951  31.409  32.320  1.00  0.00    -0.354 N 
ATOM     50  C   UNL A   1      40.115  28.982  28.939  1.00  0.00     0.074 A 
ATOM     51  C   UNL A   1      39.274  29.254  27.793  1.00  0.00     0.031 C 
ATOM     52  C   UNL A   1      37.726  32.919  33.426  1.00  0.00     0.029 A 
ATOM     53  C   UNL A   1      38.842  31.988  33.560  1.00  0.00     0.049 A 
ATOM     54  H   UNL A   1      39.665  30.774  32.081  1.00  0.00     0.167 HD
ATOM     55  C   UNL A   1      41.160  28.120  28.935  1.00  0.00     0.031 A 
ATOM     56  C   UNL A   1      39.536  31.766  34.692  1.00  0.00     0.031 A 
ATOM     57  C   UNL A   1      41.989  27.851  30.081  1.00  0.00     0.049 A 
ATOM     58  C   UNL A   1      40.638  30.744  34.684  1.00  0.00     0.074 A 
ATOM     59  C   UNL A   1      43.074  26.998  30.180  1.00  0.00     0.029 A 
ATOM     60  N   UNL A   1      41.822  28.433  31.328  1.00  0.00    -0.354 N 
ATOM     61  N   UNL A   1      41.076  30.008  33.691  1.00  0.00    -0.248 NA
ATOM     62  C   UNL A   1      41.340  30.522  35.955  1.00  0.00     0.031 C 
ATOM     63  C   UNL A   1      43.529  27.021  31.502  1.00  0.00     0.029 A 
ATOM     64  C   UNL A   1      42.769  27.939  32.211  1.00  0.00     0.049 A 
ATOM     65  H   UNL A   1      41.134  29.100  31.554  1.00  0.00     0.167 HD
ATOM     66  C   UNL A   1      42.121  29.255  34.210  1.00  0.00     0.074 A 
ATOM     67  C   UNL A   1      42.262  29.637  35.600  1.00  0.00     0.031 C 
ATOM     68  C   UNL A   1      42.895  28.329  33.591  1.00  0.00     0.031 A 
BRANCH  55  69
ATOM     69  C   UNL A   1      41.435  27.371  27.661  1.00  0.00    -0.014 A 
ATOM     70  C   UNL A   1      42.307  27.878  26.685  1.00  0.00     0.009 A 
ATOM     71  C   UNL A   1      40.830  26.123  27.446  1.00  0.00     0.009 A 
ATOM     72  C   UNL A   1      42.540  27.168  25.505  1.00  0.00     0.001 A 
ATOM     73  C   UNL A   1      41.087  25.400  26.279  1.00  0.00     0.001 A 
ATOM     74  C   UNL A   1      41.934  25.927  25.306  1.00  0.00     0.000 A 
ENDBRANCH  55  69
BRANCH  56  75
ATOM     75  C   UNL A   1      39.182  32.496  35.937  1.00  0.00    -0.014 A 
ATOM     76  C   UNL A   1      38.198  31.999  36.804  1.00  0.00     0.009 A 
ATOM     77  C   UNL A   1      39.823  33.703  36.261  1.00  0.00     0.009 A 
ATOM     78  C   UNL A   1      37.847  32.707  37.956  1.00  0.00     0.001 A 
ATOM     79  C   UNL A   1      39.492  34.393  37.428  1.00  0.00     0.001 A 
ATOM     80  C   UNL A   1      38.497  33.898  38.270  1.00  0.00     0.000 A 
ENDBRANCH  56  75
BRANCH  68  81
ATOM     81  C   UNL A   1      43.991  27.699  34.404  1.00  0.00    -0.014 A 
ATOM     82  C   UNL A   1      43.782  26.507  35.115  1.00  0.00     0.009 A 
ATOM     83  C   UNL A   1      45.263  28.292  34.428  1.00  0.00     0.009 A 
ATOM     84  C   UNL A   1      44.818  25.941  35.861  1.00  0.00     0.001 A 
ATOM     85  C   UNL A   1      46.304  27.707  35.150  1.00  0.00     0.001 A 
ATOM     86  C   UNL A   1      46.077  26.538  35.873  1.00  0.00     0.000 A 
ENDBRANCH  68  81
ENDBRANCH  42  43
ENDBRANCH  35  37
ENDBRANCH  34  35
ENDBRANCH  33  34
ENDBRANCH   1  33
TORSDOF 15
ENDMDL
MODEL 3
REMARK VINA RESULT:     -11.5      3.777      8.706
REMARK SMILES NC(=O)c1c(-c2ccc(Cl)cc2)csc1NC(=O)[C@H]1[C@@H](C(=O)OCCOC(=O)c2ccc(-c3c4nc(c(-c5ccccc5)c5ccc([nH]5)c(-c5ccccc5)c5nc(c(-c6ccccc6)c6ccc3[nH]6)C=C5)C=C4)cc2)[C@@H]2CC[C@H]1O2
REMARK SMILES IDX 24 1 23 2 21 3 22 4 20 5 19 6 80 7 77 8 79 9 81 10 78 11
REMARK SMILES IDX 17 12 16 13 18 15 15 16 4 17 5 18 13 19 14 20 2 21 1 22 3 25
REMARK SMILES IDX 6 26 7 27 12 28 8 29 11 30 9 31 10 32 25 33 26 34 27 35
REMARK SMILES IDX 28 36 29 37 30 38 76 39 31 40 75 41 32 42 33 43 34 44 69 45
REMARK SMILES IDX 35 46 74 47 68 48 70 49 36 50 73 51 67 52 66 53 37 55 59 56
REMARK SMILES IDX 44 57 58 58 45 59 48 60 57 61 71 62 46 63 47 64 56 66 72 67
REMARK SMILES IDX 49 68 38 69 39 70 43 71 40 72 42 73 41 74 60 75 61 76 65 77
REMARK SMILES IDX 62 78 64 79 63 80 50 81 51 82 55 83 52 84 54 85 53 86
REMARK H PARENT 16 14 1 23 1 24 70 54 48 65
REMARK Flexibility Score: inf
ROOT
ATOM      1  C   UNL A   1      31.770  31.334  26.490  1.00  0.00     0.274 C 
ENDROOT
BRANCH   1   2
ATOM      2  O   UNL A   1      33.079  30.731  26.573  1.00  0.00    -0.462 OA
BRANCH   2   3
ATOM      3  C   UNL A   1      33.202  29.554  25.915  1.00  0.00     0.312 C 
ATOM      4  O   UNL A   1      34.160  28.793  26.019  1.00  0.00    -0.252 OA
BRANCH   3   5
ATOM      5  C   UNL A   1      32.006  29.178  25.078  1.00  0.00     0.143 C 
ATOM      6  C   UNL A   1      30.970  28.188  25.627  1.00  0.00     0.124 C 
ATOM      7  C   UNL A   1      30.577  27.495  24.340  1.00  0.00     0.132 C 
ATOM      8  C   UNL A   1      32.325  28.596  23.692  1.00  0.00     0.133 C 
ATOM      9  C   UNL A   1      30.016  28.431  23.256  1.00  0.00     0.035 C 
ATOM     10  O   UNL A   1      31.886  27.226  23.796  1.00  0.00    -0.373 OA
ATOM     11  C   UNL A   1      31.281  29.083  22.692  1.00  0.00     0.036 C 
BRANCH   6  12
ATOM     12  C   UNL A   1      31.457  27.421  26.866  1.00  0.00     0.231 C 
ATOM     13  N   UNL A   1      32.227  26.311  26.986  1.00  0.00    -0.317 N 
ATOM     14  H   UNL A   1      32.599  26.232  27.894  1.00  0.00     0.170 HD
ATOM     15  O   UNL A   1      31.231  27.994  27.952  1.00  0.00    -0.274 OA
BRANCH  13  16
ATOM     16  C   UNL A   1      32.632  25.259  26.184  1.00  0.00     0.108 A 
ATOM     17  C   UNL A   1      31.938  24.068  25.930  1.00  0.00     0.082 A 
ATOM     18  C   UNL A   1      32.774  23.169  25.150  1.00  0.00     0.007 A 
ATOM     19  C   UNL A   1      33.970  23.758  24.797  1.00  0.00     0.076 A 
ATOM     20  S   UNL A   1      33.905  25.419  25.086  1.00  0.00    -0.125 S 
BRANCH  17  21
ATOM     21  C   UNL A   1      30.572  23.868  26.415  1.00  0.00     0.252 C 
ATOM     22  N   UNL A   1      30.253  22.653  26.943  1.00  0.00    -0.365 N 
ATOM     23  H   UNL A   1      29.343  22.486  27.279  1.00  0.00     0.159 HD
ATOM     24  H   UNL A   1      30.932  21.942  26.988  1.00  0.00     0.159 HD
ATOM     25  O   UNL A   1      29.712  24.745  26.356  1.00  0.00    -0.269 OA
ENDBRANCH  17  21
BRANCH  18  26
ATOM     26  C   UNL A   1      32.488  21.893  24.520  1.00  0.00    -0.017 A 
ATOM     27  C   UNL A   1      32.635  20.689  25.216  1.00  0.00     0.010 A 
ATOM     28  C   UNL A   1      32.233  21.884  23.142  1.00  0.00     0.010 A 
ATOM     29  C   UNL A   1      32.546  19.476  24.524  1.00  0.00     0.021 A 
ATOM     30  C   UNL A   1      32.150  20.675  22.455  1.00  0.00     0.021 A 
ATOM     31  C   UNL A   1      32.315  19.477  23.148  1.00  0.00     0.041 A 
ATOM     32  Cl  UNL A   1      32.263  17.989  22.287  1.00  0.00    -0.084 Cl
ENDBRANCH  18  26
ENDBRANCH  13  16
ENDBRANCH   6  12
ENDBRANCH   3   5
ENDBRANCH   2   3
ENDBRANCH   1   2
BRANCH   1  33
ATOM     33  C   UNL A   1      31.683  32.618  27.318  1.00  0.00     0.275 C 
BRANCH  33  34
ATOM     34  O   UNL A   1      32.879  33.409  27.189  1.00  0.00    -0.458 OA
BRANCH  34  35
ATOM     35  C   UNL A   1      33.181  34.174  28.261  1.00  0.00     0.338 C 
ATOM     36  O   UNL A   1      32.521  35.076  28.748  1.00  0.00    -0.246 OA
BRANCH  35  37
ATOM     37  C   UNL A   1      34.438  33.714  28.865  1.00  0.00     0.060 A 
ATOM     38  C   UNL A   1      35.634  33.971  28.194  1.00  0.00     0.016 A 
ATOM     39  C   UNL A   1      34.425  32.913  30.005  1.00  0.00     0.016 A 
ATOM     40  C   UNL A   1      36.821  33.391  28.626  1.00  0.00     0.010 A 
ATOM     41  C   UNL A   1      35.627  32.370  30.469  1.00  0.00     0.010 A 
ATOM     42  C   UNL A   1      36.828  32.585  29.769  1.00  0.00    -0.014 A 
BRANCH  42  43
ATOM     43  C   UNL A   1      38.086  31.940  30.211  1.00  0.00     0.031 A 
ATOM     44  C   UNL A   1      38.984  32.638  31.192  1.00  0.00     0.074 A 
ATOM     45  C   UNL A   1      38.420  30.725  29.734  1.00  0.00     0.049 A 
ATOM     46  N   UNL A   1      40.177  32.298  31.608  1.00  0.00    -0.248 NA
ATOM     47  C   UNL A   1      38.473  33.887  31.779  1.00  0.00     0.031 C 
ATOM     48  C   UNL A   1      37.604  29.920  28.822  1.00  0.00     0.029 A 
ATOM     49  N   UNL A   1      39.538  29.960  29.948  1.00  0.00    -0.354 N 
ATOM     50  C   UNL A   1      40.572  33.303  32.483  1.00  0.00     0.074 A 
ATOM     51  C   UNL A   1      39.499  34.274  32.524  1.00  0.00     0.031 C 
ATOM     52  C   UNL A   1      38.250  28.774  28.554  1.00  0.00     0.029 A 
ATOM     53  C   UNL A   1      39.546  28.793  29.224  1.00  0.00     0.049 A 
ATOM     54  H   UNL A   1      40.262  30.222  30.560  1.00  0.00     0.167 HD
ATOM     55  C   UNL A   1      41.724  33.405  33.188  1.00  0.00     0.031 A 
ATOM     56  C   UNL A   1      40.507  27.860  29.084  1.00  0.00     0.031 A 
ATOM     57  C   UNL A   1      42.789  32.437  33.140  1.00  0.00     0.049 A 
ATOM     58  C   UNL A   1      41.810  28.039  29.812  1.00  0.00     0.074 A 
ATOM     59  C   UNL A   1      43.995  32.447  33.817  1.00  0.00     0.029 A 
ATOM     60  N   UNL A   1      42.773  31.286  32.367  1.00  0.00    -0.354 N 
ATOM     61  N   UNL A   1      42.176  28.996  30.630  1.00  0.00    -0.248 NA
ATOM     62  C   UNL A   1      42.832  27.006  29.597  1.00  0.00     0.031 C 
ATOM     63  C   UNL A   1      44.734  31.330  33.412  1.00  0.00     0.029 A 
ATOM     64  C   UNL A   1      43.960  30.590  32.532  1.00  0.00     0.049 A 
ATOM     65  H   UNL A   1      42.029  31.005  31.787  1.00  0.00     0.167 HD
ATOM     66  C   UNL A   1      43.459  28.669  31.046  1.00  0.00     0.074 A 
ATOM     67  C   UNL A   1      43.800  27.415  30.405  1.00  0.00     0.031 C 
ATOM     68  C   UNL A   1      44.283  29.345  31.885  1.00  0.00     0.031 A 
BRANCH  55  69
ATOM     69  C   UNL A   1      41.910  34.631  34.039  1.00  0.00    -0.014 A 
ATOM     70  C   UNL A   1      42.467  35.809  33.516  1.00  0.00     0.009 A 
ATOM     71  C   UNL A   1      41.496  34.614  35.380  1.00  0.00     0.009 A 
ATOM     72  C   UNL A   1      42.637  36.932  34.329  1.00  0.00     0.001 A 
ATOM     73  C   UNL A   1      41.640  35.748  36.182  1.00  0.00     0.001 A 
ATOM     74  C   UNL A   1      42.219  36.902  35.659  1.00  0.00     0.000 A 
ENDBRANCH  55  69
BRANCH  56  75
ATOM     75  C   UNL A   1      40.289  26.697  28.185  1.00  0.00    -0.014 A 
ATOM     76  C   UNL A   1      40.754  26.717  26.861  1.00  0.00     0.009 A 
ATOM     77  C   UNL A   1      39.604  25.561  28.645  1.00  0.00     0.009 A 
ATOM     78  C   UNL A   1      40.516  25.634  26.012  1.00  0.00     0.001 A 
ATOM     79  C   UNL A   1      39.396  24.467  27.803  1.00  0.00     0.001 A 
ATOM     80  C   UNL A   1      39.844  24.509  26.485  1.00  0.00     0.000 A 
ENDBRANCH  56  75
BRANCH  68  81
ATOM     81  C   UNL A   1      45.615  28.719  32.189  1.00  0.00    -0.014 A 
ATOM     82  C   UNL A   1      46.756  29.022  31.430  1.00  0.00     0.009 A 
ATOM     83  C   UNL A   1      45.735  27.839  33.275  1.00  0.00     0.009 A 
ATOM     84  C   UNL A   1      47.983  28.428  31.734  1.00  0.00     0.001 A 
ATOM     85  C   UNL A   1      46.969  27.271  33.596  1.00  0.00     0.001 A 
ATOM     86  C   UNL A   1      48.088  27.559  32.818  1.00  0.00     0.000 A 
ENDBRANCH  68  81
ENDBRANCH  42  43
ENDBRANCH  35  37
ENDBRANCH  34  35
ENDBRANCH  33  34
ENDBRANCH   1  33
TORSDOF 15
ENDMDL
