MODEL 1
REMARK VINA RESULT:     -10.0      0.000      0.000
REMARK SMILES O=C(OCCOC(=O)c1ccc(Br)c(NC(=S)NC(=O)c2cccs2)c1)c1ccc(-c2c3nc(c(-c4ccccc4)c4ccc([nH]4)c(-c4ccccc4)c4nc(c(-c5ccccc5)c5ccc2[nH]5)C=C4)C=C3)cc1
REMARK SMILES IDX 5 1 4 2 3 3 2 4 1 5 27 6 28 7 74 8 29 9 73 10 30 11 31 12
REMARK SMILES IDX 32 13 67 14 33 15 72 16 66 17 68 18 34 19 71 20 65 21 64 22
REMARK SMILES IDX 35 24 57 25 42 26 56 27 43 28 46 29 55 30 69 31 44 32 45 33
REMARK SMILES IDX 54 35 70 36 47 37 36 38 37 39 41 40 38 41 40 42 39 43 58 44
REMARK SMILES IDX 59 45 63 46 60 47 62 48 61 49 48 50 49 51 53 52 50 53 52 54
REMARK SMILES IDX 51 55 6 56 7 57 8 58 9 59 10 60 26 61 11 62 14 63 12 64
REMARK SMILES IDX 13 65 15 66 16 68 17 69 18 70 19 71 20 73 21 74 22 75 25 76
REMARK SMILES IDX 23 77 24 78
REMARK H PARENT 68 23 46 34 15 67 18 72
REMARK Flexibility Score: inf
ROOT
ATOM      1  C   UNL A   1      44.296  18.590  25.177  1.00  0.00     0.275 C 
ENDROOT
BRANCH   1   2
ATOM      2  C   UNL A   1      44.735  19.325  23.889  1.00  0.00     0.275 C 
BRANCH   2   3
ATOM      3  O   UNL A   1      44.653  20.746  23.973  1.00  0.00    -0.458 OA
BRANCH   3   4
ATOM      4  C   UNL A   1      45.498  21.542  24.656  1.00  0.00     0.338 C 
ATOM      5  O   UNL A   1      46.700  21.277  24.621  1.00  0.00    -0.246 OA
BRANCH   4   6
ATOM      6  C   UNL A   1      45.060  22.722  25.490  1.00  0.00     0.060 A 
ATOM      7  C   UNL A   1      45.327  22.978  26.843  1.00  0.00     0.016 A 
ATOM      8  C   UNL A   1      44.499  23.763  24.752  1.00  0.00     0.016 A 
ATOM      9  C   UNL A   1      45.232  24.262  27.392  1.00  0.00     0.010 A 
ATOM     10  C   UNL A   1      44.523  25.064  25.257  1.00  0.00     0.010 A 
ATOM     11  C   UNL A   1      44.892  25.335  26.587  1.00  0.00    -0.014 A 
BRANCH  11  12
ATOM     12  C   UNL A   1      44.701  26.707  27.126  1.00  0.00     0.031 A 
ATOM     13  C   UNL A   1      45.958  27.469  27.416  1.00  0.00     0.074 A 
ATOM     14  C   UNL A   1      43.508  27.285  27.384  1.00  0.00     0.049 A 
ATOM     15  N   UNL A   1      46.129  28.556  28.111  1.00  0.00    -0.248 NA
ATOM     16  C   UNL A   1      47.207  26.884  26.883  1.00  0.00     0.031 C 
ATOM     17  C   UNL A   1      42.191  26.762  27.028  1.00  0.00     0.029 A 
ATOM     18  N   UNL A   1      43.214  28.455  28.052  1.00  0.00    -0.354 N 
ATOM     19  C   UNL A   1      47.497  28.756  28.090  1.00  0.00     0.074 A 
ATOM     20  C   UNL A   1      48.110  27.566  27.558  1.00  0.00     0.031 C 
ATOM     21  C   UNL A   1      41.237  27.559  27.545  1.00  0.00     0.029 A 
ATOM     22  C   UNL A   1      41.869  28.636  28.291  1.00  0.00     0.049 A 
ATOM     23  H   UNL A   1      43.902  29.101  28.331  1.00  0.00     0.167 HD
ATOM     24  C   UNL A   1      48.186  29.890  28.327  1.00  0.00     0.031 A 
ATOM     25  C   UNL A   1      41.223  29.556  29.037  1.00  0.00     0.031 A 
ATOM     26  C   UNL A   1      47.567  31.096  28.774  1.00  0.00     0.049 A 
ATOM     27  C   UNL A   1      42.013  30.731  29.546  1.00  0.00     0.074 A 
ATOM     28  C   UNL A   1      48.148  32.322  29.013  1.00  0.00     0.029 A 
ATOM     29  N   UNL A   1      46.213  31.214  29.054  1.00  0.00    -0.354 N 
ATOM     30  N   UNL A   1      43.302  30.947  29.455  1.00  0.00    -0.248 NA
ATOM     31  C   UNL A   1      41.258  31.831  30.162  1.00  0.00     0.031 C 
ATOM     32  C   UNL A   1      47.159  33.160  29.533  1.00  0.00     0.029 A 
ATOM     33  C   UNL A   1      45.947  32.483  29.521  1.00  0.00     0.049 A 
ATOM     34  H   UNL A   1      45.546  30.501  28.937  1.00  0.00     0.167 HD
ATOM     35  C   UNL A   1      43.502  32.245  29.902  1.00  0.00     0.074 A 
ATOM     36  C   UNL A   1      42.206  32.749  30.314  1.00  0.00     0.031 C 
ATOM     37  C   UNL A   1      44.647  32.968  29.913  1.00  0.00     0.031 A 
BRANCH  24  38
ATOM     38  C   UNL A   1      49.665  29.820  28.083  1.00  0.00    -0.014 A 
ATOM     39  C   UNL A   1      50.207  30.011  26.797  1.00  0.00     0.009 A 
ATOM     40  C   UNL A   1      50.505  29.412  29.124  1.00  0.00     0.009 A 
ATOM     41  C   UNL A   1      51.539  29.686  26.538  1.00  0.00     0.001 A 
ATOM     42  C   UNL A   1      51.848  29.139  28.872  1.00  0.00     0.001 A 
ATOM     43  C   UNL A   1      52.356  29.248  27.577  1.00  0.00     0.000 A 
ENDBRANCH  24  38
BRANCH  25  44
ATOM     44  C   UNL A   1      39.759  29.446  29.301  1.00  0.00    -0.014 A 
ATOM     45  C   UNL A   1      39.267  28.849  30.471  1.00  0.00     0.009 A 
ATOM     46  C   UNL A   1      38.834  29.914  28.354  1.00  0.00     0.009 A 
ATOM     47  C   UNL A   1      37.888  28.709  30.676  1.00  0.00     0.001 A 
ATOM     48  C   UNL A   1      37.456  29.791  28.566  1.00  0.00     0.001 A 
ATOM     49  C   UNL A   1      36.984  29.184  29.726  1.00  0.00     0.000 A 
ENDBRANCH  25  44
BRANCH  37  50
ATOM     50  C   UNL A   1      44.570  34.413  30.308  1.00  0.00    -0.014 A 
ATOM     51  C   UNL A   1      44.298  35.419  29.373  1.00  0.00     0.009 A 
ATOM     52  C   UNL A   1      44.621  34.739  31.675  1.00  0.00     0.009 A 
ATOM     53  C   UNL A   1      44.076  36.729  29.802  1.00  0.00     0.001 A 
ATOM     54  C   UNL A   1      44.361  36.039  32.102  1.00  0.00     0.001 A 
ATOM     55  C   UNL A   1      44.091  37.033  31.165  1.00  0.00     0.000 A 
ENDBRANCH  37  50
ENDBRANCH  11  12
ENDBRANCH   4   6
ENDBRANCH   3   4
ENDBRANCH   2   3
ENDBRANCH   1   2
BRANCH   1  56
ATOM     56  O   UNL A   1      42.858  18.550  25.437  1.00  0.00    -0.458 OA
BRANCH  56  57
ATOM     57  C   UNL A   1      42.461  18.945  26.692  1.00  0.00     0.338 C 
ATOM     58  O   UNL A   1      42.713  18.297  27.696  1.00  0.00    -0.246 OA
BRANCH  57  59
ATOM     59  C   UNL A   1      41.482  20.203  26.662  1.00  0.00     0.062 A 
ATOM     60  C   UNL A   1      42.302  21.549  27.566  1.00  0.00     0.017 A 
ATOM     61  C   UNL A   1      39.656  20.735  25.866  1.00  0.00     0.043 A 
ATOM     62  C   UNL A   1      41.423  23.103  27.666  1.00  0.00     0.019 A 
ATOM     63  C   UNL A   1      38.876  22.165  26.152  1.00  0.00     0.055 A 
ATOM     64  C   UNL A   1      39.778  23.365  27.011  1.00  0.00     0.041 A 
ATOM     65  Br  UNL A   1      38.840  24.910  27.594  1.00  0.00    -0.049 Br
BRANCH  63  66
ATOM     66  N   UNL A   1      37.484  21.903  26.123  1.00  0.00    -0.331 N 
ATOM     67  H   UNL A   1      37.062  21.798  27.006  1.00  0.00     0.169 HD
BRANCH  66  68
ATOM     68  C   UNL A   1      36.616  21.768  25.038  1.00  0.00     0.177 C 
ATOM     69  S   UNL A   1      36.691  22.988  23.882  1.00  0.00    -0.040 S 
BRANCH  68  70
ATOM     70  N   UNL A   1      35.662  20.712  24.761  1.00  0.00    -0.298 N 
ATOM     71  C   UNL A   1      34.294  20.022  24.900  1.00  0.00     0.267 C 
ATOM     72  H   UNL A   1      36.157  20.111  24.158  1.00  0.00     0.172 HD
ATOM     73  O   UNL A   1      34.212  18.833  24.604  1.00  0.00    -0.268 OA
BRANCH  71  74
ATOM     74  C   UNL A   1      33.105  20.875  25.359  1.00  0.00     0.092 A 
ATOM     75  C   UNL A   1      32.640  21.904  24.101  1.00  0.00     0.025 A 
ATOM     76  S   UNL A   1      33.521  21.930  27.370  1.00  0.00    -0.139 S 
ATOM     77  C   UNL A   1      32.894  23.752  24.464  1.00  0.00     0.012 A 
ATOM     78  C   UNL A   1      33.460  24.032  26.345  1.00  0.00     0.065 A 
ENDBRANCH  71  74
ENDBRANCH  68  70
ENDBRANCH  66  68
ENDBRANCH  63  66
ENDBRANCH  57  59
ENDBRANCH  56  57
ENDBRANCH   1  56
TORSDOF 15
ENDMDL
MODEL 2
REMARK VINA RESULT:     -10.0      4.073      6.197
REMARK SMILES O=C(OCCOC(=O)c1ccc(Br)c(NC(=S)NC(=O)c2cccs2)c1)c1ccc(-c2c3nc(c(-c4ccccc4)c4ccc([nH]4)c(-c4ccccc4)c4nc(c(-c5ccccc5)c5ccc2[nH]5)C=C4)C=C3)cc1
REMARK SMILES IDX 5 1 4 2 3 3 2 4 1 5 27 6 28 7 74 8 29 9 73 10 30 11 31 12
REMARK SMILES IDX 32 13 67 14 33 15 72 16 66 17 68 18 34 19 71 20 65 21 64 22
REMARK SMILES IDX 35 24 57 25 42 26 56 27 43 28 46 29 55 30 69 31 44 32 45 33
REMARK SMILES IDX 54 35 70 36 47 37 36 38 37 39 41 40 38 41 40 42 39 43 58 44
REMARK SMILES IDX 59 45 63 46 60 47 62 48 61 49 48 50 49 51 53 52 50 53 52 54
REMARK SMILES IDX 51 55 6 56 7 57 8 58 9 59 10 60 26 61 11 62 14 63 12 64
REMARK SMILES IDX 13 65 15 66 16 68 17 69 18 70 19 71 20 73 21 74 22 75 25 76
REMARK SMILES IDX 23 77 24 78
REMARK H PARENT 68 23 46 34 15 67 18 72
REMARK Flexibility Score: inf
ROOT
ATOM      1  C   UNL A   1      35.882  21.545  25.407  1.00  0.00     0.275 C 
ENDROOT
BRANCH   1   2
ATOM      2  C   UNL A   1      37.246  22.054  24.885  1.00  0.00     0.275 C 
BRANCH   2   3
ATOM      3  O   UNL A   1      37.822  23.091  25.675  1.00  0.00    -0.458 OA
BRANCH   3   4
ATOM      4  C   UNL A   1      39.061  23.076  26.207  1.00  0.00     0.338 C 
ATOM      5  O   UNL A   1      39.675  22.009  26.215  1.00  0.00    -0.246 OA
BRANCH   4   6
ATOM      6  C   UNL A   1      39.730  24.281  26.823  1.00  0.00     0.060 A 
ATOM      7  C   UNL A   1      40.412  25.322  26.176  1.00  0.00     0.016 A 
ATOM      8  C   UNL A   1      39.444  24.461  28.175  1.00  0.00     0.016 A 
ATOM      9  C   UNL A   1      40.625  26.565  26.784  1.00  0.00     0.010 A 
ATOM     10  C   UNL A   1      39.539  25.733  28.741  1.00  0.00     0.010 A 
ATOM     11  C   UNL A   1      40.131  26.808  28.053  1.00  0.00    -0.014 A 
BRANCH  11  12
ATOM     12  C   UNL A   1      40.390  28.078  28.779  1.00  0.00     0.031 A 
ATOM     13  C   UNL A   1      41.656  28.121  29.577  1.00  0.00     0.074 A 
ATOM     14  C   UNL A   1      39.573  29.154  28.784  1.00  0.00     0.049 A 
ATOM     15  N   UNL A   1      42.030  28.961  30.500  1.00  0.00    -0.248 NA
ATOM     16  C   UNL A   1      42.614  27.022  29.332  1.00  0.00     0.031 C 
ATOM     17  C   UNL A   1      38.387  29.353  27.954  1.00  0.00     0.029 A 
ATOM     18  N   UNL A   1      39.612  30.294  29.559  1.00  0.00    -0.354 N 
ATOM     19  C   UNL A   1      43.250  28.470  30.926  1.00  0.00     0.074 A 
ATOM     20  C   UNL A   1      43.416  27.152  30.369  1.00  0.00     0.031 C 
ATOM     21  C   UNL A   1      37.772  30.494  28.317  1.00  0.00     0.029 A 
ATOM     22  C   UNL A   1      38.501  31.099  29.419  1.00  0.00     0.049 A 
ATOM     23  H   UNL A   1      40.363  30.514  30.155  1.00  0.00     0.167 HD
ATOM     24  C   UNL A   1      44.234  29.116  31.584  1.00  0.00     0.031 A 
ATOM     25  C   UNL A   1      38.111  32.190  30.112  1.00  0.00     0.031 A 
ATOM     26  C   UNL A   1      44.100  30.453  32.063  1.00  0.00     0.049 A 
ATOM     27  C   UNL A   1      39.099  32.811  31.061  1.00  0.00     0.074 A 
ATOM     28  C   UNL A   1      45.035  31.231  32.709  1.00  0.00     0.029 A 
ATOM     29  N   UNL A   1      42.940  31.205  31.947  1.00  0.00    -0.354 N 
ATOM     30  N   UNL A   1      40.286  32.375  31.404  1.00  0.00    -0.248 NA
ATOM     31  C   UNL A   1      38.746  34.117  31.637  1.00  0.00     0.031 C 
ATOM     32  C   UNL A   1      44.408  32.425  33.072  1.00  0.00     0.029 A 
ATOM     33  C   UNL A   1      43.117  32.425  32.564  1.00  0.00     0.049 A 
ATOM     34  H   UNL A   1      42.117  30.912  31.494  1.00  0.00     0.167 HD
ATOM     35  C   UNL A   1      40.866  33.394  32.145  1.00  0.00     0.074 A 
ATOM     36  C   UNL A   1      39.877  34.450  32.248  1.00  0.00     0.031 C 
ATOM     37  C   UNL A   1      42.124  33.467  32.643  1.00  0.00     0.031 A 
BRANCH  24  38
ATOM     38  C   UNL A   1      45.505  28.343  31.781  1.00  0.00    -0.014 A 
ATOM     39  C   UNL A   1      46.499  28.298  30.783  1.00  0.00     0.009 A 
ATOM     40  C   UNL A   1      45.638  27.535  32.914  1.00  0.00     0.009 A 
ATOM     41  C   UNL A   1      47.542  27.376  30.869  1.00  0.00     0.001 A 
ATOM     42  C   UNL A   1      46.711  26.652  33.021  1.00  0.00     0.001 A 
ATOM     43  C   UNL A   1      47.645  26.553  31.988  1.00  0.00     0.000 A 
ENDBRANCH  24  38
BRANCH  25  44
ATOM     44  C   UNL A   1      36.765  32.796  29.902  1.00  0.00    -0.014 A 
ATOM     45  C   UNL A   1      35.683  32.493  30.741  1.00  0.00     0.009 A 
ATOM     46  C   UNL A   1      36.545  33.668  28.823  1.00  0.00     0.009 A 
ATOM     47  C   UNL A   1      34.415  33.034  30.495  1.00  0.00     0.001 A 
ATOM     48  C   UNL A   1      35.283  34.224  28.588  1.00  0.00     0.001 A 
ATOM     49  C   UNL A   1      34.216  33.903  29.422  1.00  0.00     0.000 A 
ENDBRANCH  25  44
BRANCH  37  50
ATOM     50  C   UNL A   1      42.560  34.752  33.283  1.00  0.00    -0.014 A 
ATOM     51  C   UNL A   1      43.169  35.774  32.546  1.00  0.00     0.009 A 
ATOM     52  C   UNL A   1      42.206  34.987  34.624  1.00  0.00     0.009 A 
ATOM     53  C   UNL A   1      43.414  37.012  33.141  1.00  0.00     0.001 A 
ATOM     54  C   UNL A   1      42.417  36.236  35.202  1.00  0.00     0.001 A 
ATOM     55  C   UNL A   1      43.023  37.247  34.461  1.00  0.00     0.000 A 
ENDBRANCH  37  50
ENDBRANCH  11  12
ENDBRANCH   4   6
ENDBRANCH   3   4
ENDBRANCH   2   3
ENDBRANCH   1   2
BRANCH   1  56
ATOM     56  O   UNL A   1      35.463  20.226  24.936  1.00  0.00    -0.458 OA
BRANCH  56  57
ATOM     57  C   UNL A   1      34.115  20.063  24.724  1.00  0.00     0.338 C 
ATOM     58  O   UNL A   1      33.622  18.988  24.420  1.00  0.00    -0.246 OA
BRANCH  57  59
ATOM     59  C   UNL A   1      33.321  21.446  24.715  1.00  0.00     0.062 A 
ATOM     60  C   UNL A   1      32.554  21.640  26.350  1.00  0.00     0.017 A 
ATOM     61  C   UNL A   1      32.985  23.039  23.450  1.00  0.00     0.043 A 
ATOM     62  C   UNL A   1      31.611  23.135  26.623  1.00  0.00     0.019 A 
ATOM     63  C   UNL A   1      31.968  24.305  23.767  1.00  0.00     0.055 A 
ATOM     64  C   UNL A   1      31.319  24.377  25.368  1.00  0.00     0.041 A 
ATOM     65  Br  UNL A   1      29.948  25.649  25.697  1.00  0.00    -0.049 Br
BRANCH  63  66
ATOM     66  N   UNL A   1      31.423  24.731  22.530  1.00  0.00    -0.331 N 
ATOM     67  H   UNL A   1      30.747  24.128  22.144  1.00  0.00     0.169 HD
BRANCH  66  68
ATOM     68  C   UNL A   1      31.694  25.871  21.772  1.00  0.00     0.177 C 
ATOM     69  S   UNL A   1      32.632  25.633  20.395  1.00  0.00    -0.040 S 
BRANCH  68  70
ATOM     70  N   UNL A   1      31.269  27.239  22.001  1.00  0.00    -0.298 N 
ATOM     71  C   UNL A   1      31.324  28.593  22.729  1.00  0.00     0.267 C 
ATOM     72  H   UNL A   1      30.565  27.374  21.327  1.00  0.00     0.172 HD
ATOM     73  O   UNL A   1      30.360  29.347  22.622  1.00  0.00    -0.268 OA
BRANCH  71  74
ATOM     74  C   UNL A   1      32.599  28.936  23.508  1.00  0.00     0.092 A 
ATOM     75  C   UNL A   1      33.618  27.586  23.530  1.00  0.00     0.025 A 
ATOM     76  S   UNL A   1      32.132  29.832  25.583  1.00  0.00    -0.139 S 
ATOM     77  C   UNL A   1      33.893  26.840  25.257  1.00  0.00     0.012 A 
ATOM     78  C   UNL A   1      33.068  27.977  26.659  1.00  0.00     0.065 A 
ENDBRANCH  71  74
ENDBRANCH  68  70
ENDBRANCH  66  68
ENDBRANCH  63  66
ENDBRANCH  57  59
ENDBRANCH  56  57
ENDBRANCH   1  56
TORSDOF 15
ENDMDL
MODEL 3
REMARK VINA RESULT:      -9.9      1.502      2.077
REMARK SMILES O=C(OCCOC(=O)c1ccc(Br)c(NC(=S)NC(=O)c2cccs2)c1)c1ccc(-c2c3nc(c(-c4ccccc4)c4ccc([nH]4)c(-c4ccccc4)c4nc(c(-c5ccccc5)c5ccc2[nH]5)C=C4)C=C3)cc1
REMARK SMILES IDX 5 1 4 2 3 3 2 4 1 5 27 6 28 7 74 8 29 9 73 10 30 11 31 12
REMARK SMILES IDX 32 13 67 14 33 15 72 16 66 17 68 18 34 19 71 20 65 21 64 22
REMARK SMILES IDX 35 24 57 25 42 26 56 27 43 28 46 29 55 30 69 31 44 32 45 33
REMARK SMILES IDX 54 35 70 36 47 37 36 38 37 39 41 40 38 41 40 42 39 43 58 44
REMARK SMILES IDX 59 45 63 46 60 47 62 48 61 49 48 50 49 51 53 52 50 53 52 54
REMARK SMILES IDX 51 55 6 56 7 57 8 58 9 59 10 60 26 61 11 62 14 63 12 64
REMARK SMILES IDX 13 65 15 66 16 68 17 69 18 70 19 71 20 73 21 74 22 75 25 76
REMARK SMILES IDX 23 77 24 78
REMARK H PARENT 68 23 46 34 15 67 18 72
REMARK Flexibility Score: inf
ROOT
ATOM      1  C   UNL A   1      43.405  18.879  25.701  1.00  0.00     0.275 C 
ENDROOT
BRANCH   1   2
ATOM      2  C   UNL A   1      44.486  19.435  24.747  1.00  0.00     0.275 C 
BRANCH   2   3
ATOM      3  O   UNL A   1      44.949  20.739  25.088  1.00  0.00    -0.458 OA
BRANCH   3   4
ATOM      4  C   UNL A   1      44.481  21.896  24.578  1.00  0.00     0.338 C 
ATOM      5  O   UNL A   1      44.476  22.029  23.353  1.00  0.00    -0.246 OA
BRANCH   4   6
ATOM      6  C   UNL A   1      43.993  23.053  25.415  1.00  0.00     0.060 A 
ATOM      7  C   UNL A   1      43.981  23.170  26.813  1.00  0.00     0.016 A 
ATOM      8  C   UNL A   1      43.719  24.209  24.686  1.00  0.00     0.016 A 
ATOM      9  C   UNL A   1      43.899  24.410  27.457  1.00  0.00     0.010 A 
ATOM     10  C   UNL A   1      43.765  25.454  25.314  1.00  0.00     0.010 A 
ATOM     11  C   UNL A   1      43.857  25.575  26.713  1.00  0.00    -0.014 A 
BRANCH  11  12
ATOM     12  C   UNL A   1      43.694  26.914  27.336  1.00  0.00     0.031 A 
ATOM     13  C   UNL A   1      44.958  27.570  27.799  1.00  0.00     0.074 A 
ATOM     14  C   UNL A   1      42.516  27.548  27.526  1.00  0.00     0.049 A 
ATOM     15  N   UNL A   1      45.124  28.592  28.589  1.00  0.00    -0.248 NA
ATOM     16  C   UNL A   1      46.218  26.946  27.341  1.00  0.00     0.031 C 
ATOM     17  C   UNL A   1      41.213  27.139  27.010  1.00  0.00     0.029 A 
ATOM     18  N   UNL A   1      42.227  28.684  28.252  1.00  0.00    -0.354 N 
ATOM     19  C   UNL A   1      46.496  28.704  28.711  1.00  0.00     0.074 A 
ATOM     20  C   UNL A   1      47.088  27.517  28.148  1.00  0.00     0.031 C 
ATOM     21  C   UNL A   1      40.261  27.957  27.496  1.00  0.00     0.029 A 
ATOM     22  C   UNL A   1      40.878  28.935  28.378  1.00  0.00     0.049 A 
ATOM     23  H   UNL A   1      42.920  29.263  28.642  1.00  0.00     0.167 HD
ATOM     24  C   UNL A   1      47.223  29.771  29.097  1.00  0.00     0.031 A 
ATOM     25  C   UNL A   1      40.216  29.839  29.130  1.00  0.00     0.031 A 
ATOM     26  C   UNL A   1      46.634  30.979  29.576  1.00  0.00     0.049 A 
ATOM     27  C   UNL A   1      41.019  30.921  29.799  1.00  0.00     0.074 A 
ATOM     28  C   UNL A   1      47.259  32.145  29.963  1.00  0.00     0.029 A 
ATOM     29  N   UNL A   1      45.269  31.165  29.738  1.00  0.00    -0.354 N 
ATOM     30  N   UNL A   1      42.322  31.058  29.846  1.00  0.00    -0.248 NA
ATOM     31  C   UNL A   1      40.273  32.021  30.426  1.00  0.00     0.031 C 
ATOM     32  C   UNL A   1      46.274  33.006  30.452  1.00  0.00     0.029 A 
ATOM     33  C   UNL A   1      45.032  32.412  30.275  1.00  0.00     0.049 A 
ATOM     34  H   UNL A   1      44.576  30.506  29.505  1.00  0.00     0.167 HD
ATOM     35  C   UNL A   1      42.551  32.306  30.408  1.00  0.00     0.074 A 
ATOM     36  C   UNL A   1      41.253  32.862  30.736  1.00  0.00     0.031 C 
ATOM     37  C   UNL A   1      43.730  32.951  30.581  1.00  0.00     0.031 A 
BRANCH  24  38
ATOM     38  C   UNL A   1      48.712  29.623  28.987  1.00  0.00    -0.014 A 
ATOM     39  C   UNL A   1      49.490  29.193  30.080  1.00  0.00     0.009 A 
ATOM     40  C   UNL A   1      49.353  30.061  27.824  1.00  0.00     0.009 A 
ATOM     41  C   UNL A   1      50.880  29.313  30.046  1.00  0.00     0.001 A 
ATOM     42  C   UNL A   1      50.744  30.128  27.774  1.00  0.00     0.001 A 
ATOM     43  C   UNL A   1      51.504  29.782  28.892  1.00  0.00     0.000 A 
ENDBRANCH  24  38
BRANCH  25  44
ATOM     44  C   UNL A   1      38.730  29.805  29.248  1.00  0.00    -0.014 A 
ATOM     45  C   UNL A   1      37.900  30.332  28.247  1.00  0.00     0.009 A 
ATOM     46  C   UNL A   1      38.126  29.267  30.397  1.00  0.00     0.009 A 
ATOM     47  C   UNL A   1      36.508  30.335  28.402  1.00  0.00     0.001 A 
ATOM     48  C   UNL A   1      36.735  29.254  30.544  1.00  0.00     0.001 A 
ATOM     49  C   UNL A   1      35.926  29.793  29.547  1.00  0.00     0.000 A 
ENDBRANCH  25  44
BRANCH  37  50
ATOM     50  C   UNL A   1      43.698  34.366  31.077  1.00  0.00    -0.014 A 
ATOM     51  C   UNL A   1      43.855  34.675  32.433  1.00  0.00     0.009 A 
ATOM     52  C   UNL A   1      43.662  35.408  30.133  1.00  0.00     0.009 A 
ATOM     53  C   UNL A   1      43.980  36.006  32.835  1.00  0.00     0.001 A 
ATOM     54  C   UNL A   1      43.826  36.731  30.534  1.00  0.00     0.001 A 
ATOM     55  C   UNL A   1      43.982  37.030  31.885  1.00  0.00     0.000 A 
ENDBRANCH  37  50
ENDBRANCH  11  12
ENDBRANCH   4   6
ENDBRANCH   3   4
ENDBRANCH   2   3
ENDBRANCH   1   2
BRANCH   1  56
ATOM     56  O   UNL A   1      42.040  19.353  25.476  1.00  0.00    -0.458 OA
BRANCH  56  57
ATOM     57  C   UNL A   1      41.380  19.837  26.580  1.00  0.00     0.338 C 
ATOM     58  O   UNL A   1      41.730  19.578  27.722  1.00  0.00    -0.246 OA
BRANCH  57  59
ATOM     59  C   UNL A   1      40.021  20.582  26.208  1.00  0.00     0.062 A 
ATOM     60  C   UNL A   1      40.220  22.330  26.661  1.00  0.00     0.017 A 
ATOM     61  C   UNL A   1      38.202  20.157  25.336  1.00  0.00     0.043 A 
ATOM     62  C   UNL A   1      38.835  23.411  26.326  1.00  0.00     0.019 A 
ATOM     63  C   UNL A   1      36.938  21.216  25.212  1.00  0.00     0.055 A 
ATOM     64  C   UNL A   1      37.269  22.853  25.662  1.00  0.00     0.041 A 
ATOM     65  Br  UNL A   1      35.791  24.038  25.792  1.00  0.00    -0.049 Br
BRANCH  63  66
ATOM     66  N   UNL A   1      35.741  20.461  25.294  1.00  0.00    -0.331 N 
ATOM     67  H   UNL A   1      35.809  19.630  25.816  1.00  0.00     0.169 HD
BRANCH  66  68
ATOM     68  C   UNL A   1      34.480  20.711  24.749  1.00  0.00     0.177 C 
ATOM     69  S   UNL A   1      33.300  19.555  25.068  1.00  0.00    -0.040 S 
BRANCH  68  70
ATOM     70  N   UNL A   1      34.041  21.839  23.950  1.00  0.00    -0.298 N 
ATOM     71  C   UNL A   1      32.976  22.805  23.402  1.00  0.00     0.267 C 
ATOM     72  H   UNL A   1      34.872  22.159  23.532  1.00  0.00     0.172 HD
ATOM     73  O   UNL A   1      33.245  23.450  22.392  1.00  0.00    -0.268 OA
BRANCH  71  74
ATOM     74  C   UNL A   1      31.660  22.935  24.178  1.00  0.00     0.092 A 
ATOM     75  C   UNL A   1      30.617  23.965  23.336  1.00  0.00     0.025 A 
ATOM     76  S   UNL A   1      32.009  23.503  26.388  1.00  0.00    -0.139 S 
ATOM     77  C   UNL A   1      30.217  25.587  24.242  1.00  0.00     0.012 A 
ATOM     78  C   UNL A   1      30.971  25.577  26.078  1.00  0.00     0.065 A 
ENDBRANCH  71  74
ENDBRANCH  68  70
ENDBRANCH  66  68
ENDBRANCH  63  66
ENDBRANCH  57  59
ENDBRANCH  56  57
ENDBRANCH   1  56
TORSDOF 15
ENDMDL
