MODEL 1
REMARK VINA RESULT:     -10.9      0.000      0.000
REMARK SMILES CC(=O)N[C@@]1(C(=O)OCCOC(=O)c2ccc(-c3c4nc(c(-c5ccccc5)c5ccc([nH]5)c(-c5ccccc5)c5nc(c(-c6ccccc6)c6ccc3[nH]6)C=C5)C=C4)cc2)CCCc2ccccc21
REMARK SMILES IDX 10 1 9 2 8 3 6 4 7 5 5 6 62 7 70 8 63 9 65 10 69 11 64 12
REMARK SMILES IDX 66 13 68 14 67 15 4 16 1 17 2 18 3 19 11 21 12 22 13 23
REMARK SMILES IDX 14 24 15 25 61 26 16 27 60 28 17 29 18 30 19 31 54 32 20 33
REMARK SMILES IDX 59 34 53 35 55 36 21 37 58 38 52 39 51 40 22 42 44 43 29 44
REMARK SMILES IDX 43 45 30 46 33 47 42 48 56 49 31 50 32 51 41 53 57 54 34 55
REMARK SMILES IDX 23 56 24 57 28 58 25 59 27 60 26 61 45 62 46 63 50 64 47 65
REMARK SMILES IDX 49 66 48 67 35 68 36 69 40 70 37 71 39 72 38 73
REMARK H PARENT 4 20 55 41 33 52
REMARK Flexibility Score: inf
ROOT
ATOM      1  C   UNL A   1      36.914  21.309  24.258  1.00  0.00     0.275 C 
ENDROOT
BRANCH   1   2
ATOM      2  C   UNL A   1      36.607  22.590  23.488  1.00  0.00     0.274 C 
BRANCH   2   3
ATOM      3  O   UNL A   1      35.848  23.516  24.296  1.00  0.00    -0.460 OA
BRANCH   3   4
ATOM      4  C   UNL A   1      34.627  23.888  23.812  1.00  0.00     0.336 C 
ATOM      5  O   UNL A   1      34.462  24.404  22.711  1.00  0.00    -0.249 OA
BRANCH   4   6
ATOM      6  C   UNL A   1      33.455  23.579  24.817  1.00  0.00     0.164 C 
ATOM      7  C   UNL A   1      33.904  23.987  26.243  1.00  0.00     0.046 C 
ATOM      8  C   UNL A   1      33.165  22.058  24.729  1.00  0.00    -0.008 A 
ATOM      9  C   UNL A   1      34.719  22.924  26.969  1.00  0.00     0.008 C 
ATOM     10  C   UNL A   1      33.352  21.190  25.826  1.00  0.00    -0.042 A 
ATOM     11  C   UNL A   1      32.739  21.500  23.504  1.00  0.00     0.007 A 
ATOM     12  C   UNL A   1      33.868  21.681  27.152  1.00  0.00     0.036 C 
ATOM     13  C   UNL A   1      33.045  19.826  25.701  1.00  0.00     0.004 A 
ATOM     14  C   UNL A   1      32.461  20.138  23.387  1.00  0.00     0.000 A 
ATOM     15  C   UNL A   1      32.603  19.305  24.489  1.00  0.00     0.000 A 
BRANCH   6  16
ATOM     16  N   UNL A   1      32.201  24.289  24.435  1.00  0.00    -0.337 N 
ATOM     17  C   UNL A   1      30.611  23.734  26.274  1.00  0.00     0.114 C 
ATOM     18  C   UNL A   1      31.003  24.490  25.039  1.00  0.00     0.218 C 
ATOM     19  O   UNL A   1      30.221  25.284  24.512  1.00  0.00    -0.275 OA
ATOM     20  H   UNL A   1      32.253  24.705  23.544  1.00  0.00     0.164 HD
ENDBRANCH   6  16
ENDBRANCH   4   6
ENDBRANCH   3   4
ENDBRANCH   2   3
ENDBRANCH   1   2
BRANCH   1  21
ATOM     21  O   UNL A   1      37.316  21.646  25.596  1.00  0.00    -0.458 OA
BRANCH  21  22
ATOM     22  C   UNL A   1      38.595  21.359  25.926  1.00  0.00     0.338 C 
ATOM     23  O   UNL A   1      39.188  20.307  25.775  1.00  0.00    -0.246 OA
BRANCH  22  24
ATOM     24  C   UNL A   1      39.228  22.565  26.483  1.00  0.00     0.060 A 
ATOM     25  C   UNL A   1      38.683  23.814  26.198  1.00  0.00     0.016 A 
ATOM     26  C   UNL A   1      40.430  22.470  27.182  1.00  0.00     0.016 A 
ATOM     27  C   UNL A   1      39.371  24.975  26.533  1.00  0.00     0.010 A 
ATOM     28  C   UNL A   1      41.076  23.638  27.600  1.00  0.00     0.010 A 
ATOM     29  C   UNL A   1      40.571  24.903  27.248  1.00  0.00    -0.014 A 
BRANCH  29  30
ATOM     30  C   UNL A   1      41.317  26.148  27.571  1.00  0.00     0.031 A 
ATOM     31  C   UNL A   1      40.733  27.146  28.535  1.00  0.00     0.074 A 
ATOM     32  C   UNL A   1      42.537  26.371  27.046  1.00  0.00     0.049 A 
ATOM     33  N   UNL A   1      41.147  28.354  28.825  1.00  0.00    -0.248 NA
ATOM     34  C   UNL A   1      39.521  26.736  29.263  1.00  0.00     0.031 C 
ATOM     35  C   UNL A   1      43.262  25.461  26.156  1.00  0.00     0.029 A 
ATOM     36  N   UNL A   1      43.395  27.433  27.201  1.00  0.00    -0.354 N 
ATOM     37  C   UNL A   1      40.214  28.869  29.717  1.00  0.00     0.074 A 
ATOM     38  C   UNL A   1      39.219  27.840  29.929  1.00  0.00     0.031 C 
ATOM     39  C   UNL A   1      44.471  25.977  25.887  1.00  0.00     0.029 A 
ATOM     40  C   UNL A   1      44.573  27.292  26.509  1.00  0.00     0.049 A 
ATOM     41  H   UNL A   1      43.186  28.218  27.756  1.00  0.00     0.167 HD
ATOM     42  C   UNL A   1      40.184  30.091  30.297  1.00  0.00     0.031 A 
ATOM     43  C   UNL A   1      45.605  28.143  26.356  1.00  0.00     0.031 A 
ATOM     44  C   UNL A   1      41.195  31.099  30.122  1.00  0.00     0.049 A 
ATOM     45  C   UNL A   1      45.535  29.505  26.980  1.00  0.00     0.074 A 
ATOM     46  C   UNL A   1      41.246  32.374  30.657  1.00  0.00     0.029 A 
ATOM     47  N   UNL A   1      42.346  30.935  29.369  1.00  0.00    -0.354 N 
ATOM     48  N   UNL A   1      44.600  30.013  27.746  1.00  0.00    -0.248 NA
ATOM     49  C   UNL A   1      46.647  30.422  26.693  1.00  0.00     0.031 C 
ATOM     50  C   UNL A   1      42.417  32.993  30.204  1.00  0.00     0.029 A 
ATOM     51  C   UNL A   1      43.111  32.087  29.418  1.00  0.00     0.049 A 
ATOM     52  H   UNL A   1      42.585  30.119  28.872  1.00  0.00     0.167 HD
ATOM     53  C   UNL A   1      45.010  31.308  28.030  1.00  0.00     0.074 A 
ATOM     54  C   UNL A   1      46.289  31.500  27.378  1.00  0.00     0.031 C 
ATOM     55  C   UNL A   1      44.375  32.260  28.755  1.00  0.00     0.031 A 
BRANCH  42  56
ATOM     56  C   UNL A   1      38.988  30.424  31.140  1.00  0.00    -0.014 A 
ATOM     57  C   UNL A   1      37.832  30.991  30.585  1.00  0.00     0.009 A 
ATOM     58  C   UNL A   1      39.016  30.137  32.515  1.00  0.00     0.009 A 
ATOM     59  C   UNL A   1      36.735  31.289  31.397  1.00  0.00     0.001 A 
ATOM     60  C   UNL A   1      37.910  30.417  33.319  1.00  0.00     0.001 A 
ATOM     61  C   UNL A   1      36.773  30.998  32.761  1.00  0.00     0.000 A 
ENDBRANCH  42  56
BRANCH  43  62
ATOM     62  C   UNL A   1      46.771  27.749  25.524  1.00  0.00    -0.014 A 
ATOM     63  C   UNL A   1      46.763  27.961  24.137  1.00  0.00     0.009 A 
ATOM     64  C   UNL A   1      47.902  27.164  26.116  1.00  0.00     0.009 A 
ATOM     65  C   UNL A   1      47.861  27.585  23.360  1.00  0.00     0.001 A 
ATOM     66  C   UNL A   1      49.008  26.814  25.340  1.00  0.00     0.001 A 
ATOM     67  C   UNL A   1      48.984  27.019  23.962  1.00  0.00     0.000 A 
ENDBRANCH  43  62
BRANCH  55  68
ATOM     68  C   UNL A   1      45.067  33.584  28.889  1.00  0.00    -0.014 A 
ATOM     69  C   UNL A   1      44.811  34.623  27.980  1.00  0.00     0.009 A 
ATOM     70  C   UNL A   1      45.961  33.803  29.947  1.00  0.00     0.009 A 
ATOM     71  C   UNL A   1      45.463  35.850  28.115  1.00  0.00     0.001 A 
ATOM     72  C   UNL A   1      46.595  35.037  30.091  1.00  0.00     0.001 A 
ATOM     73  C   UNL A   1      46.350  36.057  29.170  1.00  0.00     0.000 A 
ENDBRANCH  55  68
ENDBRANCH  29  30
ENDBRANCH  22  24
ENDBRANCH  21  22
ENDBRANCH   1  21
TORSDOF 12
ENDMDL
MODEL 2
REMARK VINA RESULT:     -10.8      1.401      2.656
REMARK SMILES CC(=O)N[C@@]1(C(=O)OCCOC(=O)c2ccc(-c3c4nc(c(-c5ccccc5)c5ccc([nH]5)c(-c5ccccc5)c5nc(c(-c6ccccc6)c6ccc3[nH]6)C=C5)C=C4)cc2)CCCc2ccccc21
REMARK SMILES IDX 10 1 9 2 8 3 6 4 7 5 5 6 62 7 70 8 63 9 65 10 69 11 64 12
REMARK SMILES IDX 66 13 68 14 67 15 4 16 1 17 2 18 3 19 11 21 12 22 13 23
REMARK SMILES IDX 14 24 15 25 61 26 16 27 60 28 17 29 18 30 19 31 54 32 20 33
REMARK SMILES IDX 59 34 53 35 55 36 21 37 58 38 52 39 51 40 22 42 44 43 29 44
REMARK SMILES IDX 43 45 30 46 33 47 42 48 56 49 31 50 32 51 41 53 57 54 34 55
REMARK SMILES IDX 23 56 24 57 28 58 25 59 27 60 26 61 45 62 46 63 50 64 47 65
REMARK SMILES IDX 49 66 48 67 35 68 36 69 40 70 37 71 39 72 38 73
REMARK H PARENT 4 20 55 41 33 52
REMARK Flexibility Score: inf
ROOT
ATOM      1  C   UNL A   1      35.896  20.727  24.950  1.00  0.00     0.275 C 
ENDROOT
BRANCH   1   2
ATOM      2  C   UNL A   1      34.500  21.340  24.907  1.00  0.00     0.274 C 
BRANCH   2   3
ATOM      3  O   UNL A   1      34.523  22.721  25.332  1.00  0.00    -0.460 OA
BRANCH   3   4
ATOM      4  C   UNL A   1      34.283  23.659  24.369  1.00  0.00     0.336 C 
ATOM      5  O   UNL A   1      35.076  23.930  23.473  1.00  0.00    -0.249 OA
BRANCH   4   6
ATOM      6  C   UNL A   1      32.879  24.351  24.532  1.00  0.00     0.164 C 
ATOM      7  C   UNL A   1      32.027  24.050  23.273  1.00  0.00     0.046 C 
ATOM      8  C   UNL A   1      33.133  25.873  24.691  1.00  0.00    -0.008 A 
ATOM      9  C   UNL A   1      32.284  24.993  22.105  1.00  0.00     0.008 C 
ATOM     10  C   UNL A   1      32.669  26.818  23.750  1.00  0.00    -0.042 A 
ATOM     11  C   UNL A   1      33.890  26.342  25.787  1.00  0.00     0.007 A 
ATOM     12  C   UNL A   1      31.913  26.406  22.515  1.00  0.00     0.036 C 
ATOM     13  C   UNL A   1      32.901  28.186  23.958  1.00  0.00     0.004 A 
ATOM     14  C   UNL A   1      34.134  27.703  25.968  1.00  0.00     0.000 A 
ATOM     15  C   UNL A   1      33.630  28.625  25.059  1.00  0.00     0.000 A 
BRANCH   6  16
ATOM     16  N   UNL A   1      32.178  23.891  25.766  1.00  0.00    -0.337 N 
ATOM     17  C   UNL A   1      30.178  25.373  25.911  1.00  0.00     0.114 C 
ATOM     18  C   UNL A   1      30.994  24.195  26.354  1.00  0.00     0.218 C 
ATOM     19  O   UNL A   1      30.627  23.495  27.300  1.00  0.00    -0.275 OA
ATOM     20  H   UNL A   1      32.691  23.217  26.268  1.00  0.00     0.164 HD
ENDBRANCH   6  16
ENDBRANCH   4   6
ENDBRANCH   3   4
ENDBRANCH   2   3
ENDBRANCH   1   2
BRANCH   1  21
ATOM     21  O   UNL A   1      36.726  21.500  25.832  1.00  0.00    -0.458 OA
BRANCH  21  22
ATOM     22  C   UNL A   1      38.059  21.301  25.727  1.00  0.00     0.338 C 
ATOM     23  O   UNL A   1      38.636  20.359  25.217  1.00  0.00    -0.246 OA
BRANCH  22  24
ATOM     24  C   UNL A   1      38.763  22.457  26.304  1.00  0.00     0.060 A 
ATOM     25  C   UNL A   1      38.231  23.733  26.135  1.00  0.00     0.016 A 
ATOM     26  C   UNL A   1      40.011  22.294  26.903  1.00  0.00     0.016 A 
ATOM     27  C   UNL A   1      38.973  24.856  26.483  1.00  0.00     0.010 A 
ATOM     28  C   UNL A   1      40.717  23.421  27.338  1.00  0.00     0.010 A 
ATOM     29  C   UNL A   1      40.220  24.715  27.099  1.00  0.00    -0.014 A 
BRANCH  29  30
ATOM     30  C   UNL A   1      41.021  25.922  27.437  1.00  0.00     0.031 A 
ATOM     31  C   UNL A   1      40.487  26.928  28.421  1.00  0.00     0.074 A 
ATOM     32  C   UNL A   1      42.246  26.102  26.905  1.00  0.00     0.049 A 
ATOM     33  N   UNL A   1      40.954  28.112  28.727  1.00  0.00    -0.248 NA
ATOM     34  C   UNL A   1      39.263  26.558  29.151  1.00  0.00     0.031 C 
ATOM     35  C   UNL A   1      42.926  25.176  25.996  1.00  0.00     0.029 A 
ATOM     36  N   UNL A   1      43.149  27.123  27.071  1.00  0.00    -0.354 N 
ATOM     37  C   UNL A   1      40.051  28.651  29.634  1.00  0.00     0.074 A 
ATOM     38  C   UNL A   1      39.014  27.663  29.838  1.00  0.00     0.031 C 
ATOM     39  C   UNL A   1      44.153  25.645  25.726  1.00  0.00     0.029 A 
ATOM     40  C   UNL A   1      44.316  26.944  26.368  1.00  0.00     0.049 A 
ATOM     41  H   UNL A   1      42.977  27.907  27.641  1.00  0.00     0.167 HD
ATOM     42  C   UNL A   1      40.077  29.865  30.235  1.00  0.00     0.031 A 
ATOM     43  C   UNL A   1      45.382  27.753  26.220  1.00  0.00     0.031 A 
ATOM     44  C   UNL A   1      41.128  30.831  30.068  1.00  0.00     0.049 A 
ATOM     45  C   UNL A   1      45.374  29.107  26.867  1.00  0.00     0.074 A 
ATOM     46  C   UNL A   1      41.237  32.094  30.623  1.00  0.00     0.029 A 
ATOM     47  N   UNL A   1      42.266  30.630  29.303  1.00  0.00    -0.354 N 
ATOM     48  N   UNL A   1      44.467  29.641  27.648  1.00  0.00    -0.248 NA
ATOM     49  C   UNL A   1      46.522  29.980  26.586  1.00  0.00     0.031 C 
ATOM     50  C   UNL A   1      42.430  32.670  30.171  1.00  0.00     0.029 A 
ATOM     51  C   UNL A   1      43.079  31.749  29.365  1.00  0.00     0.049 A 
ATOM     52  H   UNL A   1      42.466  29.813  28.792  1.00  0.00     0.167 HD
ATOM     53  C   UNL A   1      44.933  30.913  27.950  1.00  0.00     0.074 A 
ATOM     54  C   UNL A   1      46.215  31.060  27.291  1.00  0.00     0.031 C 
ATOM     55  C   UNL A   1      44.345  31.879  28.695  1.00  0.00     0.031 A 
BRANCH  42  56
ATOM     56  C   UNL A   1      38.902  30.234  31.092  1.00  0.00    -0.014 A 
ATOM     57  C   UNL A   1      38.889  29.980  32.471  1.00  0.00     0.009 A 
ATOM     58  C   UNL A   1      37.798  30.873  30.505  1.00  0.00     0.009 A 
ATOM     59  C   UNL A   1      37.780  30.336  33.242  1.00  0.00     0.001 A 
ATOM     60  C   UNL A   1      36.700  31.246  31.282  1.00  0.00     0.001 A 
ATOM     61  C   UNL A   1      36.689  30.972  32.648  1.00  0.00     0.000 A 
ENDBRANCH  42  56
BRANCH  43  62
ATOM     62  C   UNL A   1      46.524  27.324  25.373  1.00  0.00    -0.014 A 
ATOM     63  C   UNL A   1      46.712  27.873  24.096  1.00  0.00     0.009 A 
ATOM     64  C   UNL A   1      47.437  26.365  25.842  1.00  0.00     0.009 A 
ATOM     65  C   UNL A   1      47.786  27.462  23.302  1.00  0.00     0.001 A 
ATOM     66  C   UNL A   1      48.523  25.977  25.057  1.00  0.00     0.001 A 
ATOM     67  C   UNL A   1      48.693  26.521  23.786  1.00  0.00     0.000 A 
ENDBRANCH  43  62
BRANCH  55  68
ATOM     68  C   UNL A   1      45.093  33.169  28.845  1.00  0.00    -0.014 A 
ATOM     69  C   UNL A   1      46.033  33.341  29.873  1.00  0.00     0.009 A 
ATOM     70  C   UNL A   1      44.877  34.213  27.933  1.00  0.00     0.009 A 
ATOM     71  C   UNL A   1      46.721  34.548  30.001  1.00  0.00     0.001 A 
ATOM     72  C   UNL A   1      45.581  35.411  28.052  1.00  0.00     0.001 A 
ATOM     73  C   UNL A   1      46.498  35.580  29.090  1.00  0.00     0.000 A 
ENDBRANCH  55  68
ENDBRANCH  29  30
ENDBRANCH  22  24
ENDBRANCH  21  22
ENDBRANCH   1  21
TORSDOF 12
ENDMDL
MODEL 3
REMARK VINA RESULT:     -10.8      1.203      2.332
REMARK SMILES CC(=O)N[C@@]1(C(=O)OCCOC(=O)c2ccc(-c3c4nc(c(-c5ccccc5)c5ccc([nH]5)c(-c5ccccc5)c5nc(c(-c6ccccc6)c6ccc3[nH]6)C=C5)C=C4)cc2)CCCc2ccccc21
REMARK SMILES IDX 10 1 9 2 8 3 6 4 7 5 5 6 62 7 70 8 63 9 65 10 69 11 64 12
REMARK SMILES IDX 66 13 68 14 67 15 4 16 1 17 2 18 3 19 11 21 12 22 13 23
REMARK SMILES IDX 14 24 15 25 61 26 16 27 60 28 17 29 18 30 19 31 54 32 20 33
REMARK SMILES IDX 59 34 53 35 55 36 21 37 58 38 52 39 51 40 22 42 44 43 29 44
REMARK SMILES IDX 43 45 30 46 33 47 42 48 56 49 31 50 32 51 41 53 57 54 34 55
REMARK SMILES IDX 23 56 24 57 28 58 25 59 27 60 26 61 45 62 46 63 50 64 47 65
REMARK SMILES IDX 49 66 48 67 35 68 36 69 40 70 37 71 39 72 38 73
REMARK H PARENT 4 20 55 41 33 52
REMARK Flexibility Score: inf
ROOT
ATOM      1  C   UNL A   1      36.013  21.246  24.628  1.00  0.00     0.275 C 
ENDROOT
BRANCH   1   2
ATOM      2  C   UNL A   1      34.566  20.926  24.992  1.00  0.00     0.274 C 
BRANCH   2   3
ATOM      3  O   UNL A   1      33.757  22.122  25.015  1.00  0.00    -0.460 OA
BRANCH   3   4
ATOM      4  C   UNL A   1      33.207  22.509  23.826  1.00  0.00     0.336 C 
ATOM      5  O   UNL A   1      32.654  21.736  23.050  1.00  0.00    -0.249 OA
BRANCH   4   6
ATOM      6  C   UNL A   1      33.356  24.054  23.562  1.00  0.00     0.164 C 
ATOM      7  C   UNL A   1      34.790  24.489  23.956  1.00  0.00     0.046 C 
ATOM      8  C   UNL A   1      32.290  24.772  24.429  1.00  0.00    -0.008 A 
ATOM      9  C   UNL A   1      34.966  24.792  25.438  1.00  0.00     0.008 C 
ATOM     10  C   UNL A   1      32.637  25.662  25.469  1.00  0.00    -0.042 A 
ATOM     11  C   UNL A   1      30.920  24.505  24.212  1.00  0.00     0.007 A 
ATOM     12  C   UNL A   1      34.071  25.956  25.819  1.00  0.00     0.036 C 
ATOM     13  C   UNL A   1      31.631  26.309  26.203  1.00  0.00     0.004 A 
ATOM     14  C   UNL A   1      29.932  25.136  24.967  1.00  0.00     0.000 A 
ATOM     15  C   UNL A   1      30.288  26.046  25.954  1.00  0.00     0.000 A 
BRANCH   6  16
ATOM     16  N   UNL A   1      33.071  24.399  22.139  1.00  0.00    -0.337 N 
ATOM     17  C   UNL A   1      33.294  26.882  22.066  1.00  0.00     0.114 C 
ATOM     18  C   UNL A   1      33.126  25.542  21.411  1.00  0.00     0.218 C 
ATOM     19  O   UNL A   1      32.987  25.452  20.190  1.00  0.00    -0.275 OA
ATOM     20  H   UNL A   1      32.776  23.623  21.609  1.00  0.00     0.164 HD
ENDBRANCH   6  16
ENDBRANCH   4   6
ENDBRANCH   3   4
ENDBRANCH   2   3
ENDBRANCH   1   2
BRANCH   1  21
ATOM     21  O   UNL A   1      36.775  21.426  25.832  1.00  0.00    -0.458 OA
BRANCH  21  22
ATOM     22  C   UNL A   1      38.109  21.235  25.730  1.00  0.00     0.338 C 
ATOM     23  O   UNL A   1      38.693  20.294  25.224  1.00  0.00    -0.246 OA
BRANCH  22  24
ATOM     24  C   UNL A   1      38.806  22.398  26.303  1.00  0.00     0.060 A 
ATOM     25  C   UNL A   1      38.273  23.670  26.118  1.00  0.00     0.016 A 
ATOM     26  C   UNL A   1      40.048  22.242  26.915  1.00  0.00     0.016 A 
ATOM     27  C   UNL A   1      39.008  24.798  26.463  1.00  0.00     0.010 A 
ATOM     28  C   UNL A   1      40.747  23.375  27.347  1.00  0.00     0.010 A 
ATOM     29  C   UNL A   1      40.250  24.666  27.093  1.00  0.00    -0.014 A 
BRANCH  29  30
ATOM     30  C   UNL A   1      41.045  25.877  27.427  1.00  0.00     0.031 A 
ATOM     31  C   UNL A   1      40.511  26.878  28.416  1.00  0.00     0.074 A 
ATOM     32  C   UNL A   1      42.266  26.066  26.889  1.00  0.00     0.049 A 
ATOM     33  N   UNL A   1      40.972  28.065  28.722  1.00  0.00    -0.248 NA
ATOM     34  C   UNL A   1      39.294  26.498  29.154  1.00  0.00     0.031 C 
ATOM     35  C   UNL A   1      42.946  25.147  25.973  1.00  0.00     0.029 A 
ATOM     36  N   UNL A   1      43.163  27.093  27.051  1.00  0.00    -0.354 N 
ATOM     37  C   UNL A   1      40.071  28.596  29.636  1.00  0.00     0.074 A 
ATOM     38  C   UNL A   1      39.042  27.600  29.844  1.00  0.00     0.031 C 
ATOM     39  C   UNL A   1      44.168  25.624  25.696  1.00  0.00     0.029 A 
ATOM     40  C   UNL A   1      44.326  26.923  26.340  1.00  0.00     0.049 A 
ATOM     41  H   UNL A   1      42.990  27.875  27.623  1.00  0.00     0.167 HD
ATOM     42  C   UNL A   1      40.093  29.808  30.238  1.00  0.00     0.031 A 
ATOM     43  C   UNL A   1      45.386  27.738  26.187  1.00  0.00     0.031 A 
ATOM     44  C   UNL A   1      41.137  30.782  30.066  1.00  0.00     0.049 A 
ATOM     45  C   UNL A   1      45.373  29.091  26.836  1.00  0.00     0.074 A 
ATOM     46  C   UNL A   1      41.241  32.045  30.623  1.00  0.00     0.029 A 
ATOM     47  N   UNL A   1      42.271  30.590  29.294  1.00  0.00    -0.354 N 
ATOM     48  N   UNL A   1      44.468  29.618  27.624  1.00  0.00    -0.248 NA
ATOM     49  C   UNL A   1      46.514  29.972  26.549  1.00  0.00     0.031 C 
ATOM     50  C   UNL A   1      42.427  32.630  30.164  1.00  0.00     0.029 A 
ATOM     51  C   UNL A   1      43.077  31.714  29.353  1.00  0.00     0.049 A 
ATOM     52  H   UNL A   1      42.473  29.776  28.780  1.00  0.00     0.167 HD
ATOM     53  C   UNL A   1      44.928  30.892  27.925  1.00  0.00     0.074 A 
ATOM     54  C   UNL A   1      46.204  31.050  27.258  1.00  0.00     0.031 C 
ATOM     55  C   UNL A   1      44.338  31.853  28.676  1.00  0.00     0.031 A 
BRANCH  42  56
ATOM     56  C   UNL A   1      38.920  30.168  31.104  1.00  0.00    -0.014 A 
ATOM     57  C   UNL A   1      38.941  29.964  32.491  1.00  0.00     0.009 A 
ATOM     58  C   UNL A   1      37.785  30.748  30.515  1.00  0.00     0.009 A 
ATOM     59  C   UNL A   1      37.833  30.311  33.269  1.00  0.00     0.001 A 
ATOM     60  C   UNL A   1      36.688  31.111  31.298  1.00  0.00     0.001 A 
ATOM     61  C   UNL A   1      36.710  30.887  32.673  1.00  0.00     0.000 A 
ENDBRANCH  42  56
BRANCH  43  62
ATOM     62  C   UNL A   1      46.526  27.319  25.332  1.00  0.00    -0.014 A 
ATOM     63  C   UNL A   1      47.454  26.373  25.792  1.00  0.00     0.009 A 
ATOM     64  C   UNL A   1      46.687  27.861  24.046  1.00  0.00     0.009 A 
ATOM     65  C   UNL A   1      48.526  25.986  24.984  1.00  0.00     0.001 A 
ATOM     66  C   UNL A   1      47.744  27.452  23.232  1.00  0.00     0.001 A 
ATOM     67  C   UNL A   1      48.666  26.520  23.704  1.00  0.00     0.000 A 
ENDBRANCH  43  62
BRANCH  55  68
ATOM     68  C   UNL A   1      45.078  33.149  28.823  1.00  0.00    -0.014 A 
ATOM     69  C   UNL A   1      44.863  34.205  27.924  1.00  0.00     0.009 A 
ATOM     70  C   UNL A   1      45.979  33.324  29.884  1.00  0.00     0.009 A 
ATOM     71  C   UNL A   1      45.560  35.406  28.072  1.00  0.00     0.001 A 
ATOM     72  C   UNL A   1      46.658  34.532  30.040  1.00  0.00     0.001 A 
ATOM     73  C   UNL A   1      46.454  35.569  29.130  1.00  0.00     0.000 A 
ENDBRANCH  55  68
ENDBRANCH  29  30
ENDBRANCH  22  24
ENDBRANCH  21  22
ENDBRANCH   1  21
TORSDOF 12
ENDMDL
