MODEL 1
REMARK VINA RESULT:     -10.1      0.000      0.000
REMARK SMILES Cc1cc(C)cc(-c2ccc([C@@H](C)C(=O)OCCOC(=O)c3ccc(-c4c5nc(c(-c6ccccc6)c6ccc([nH]6)c(-c6ccccc6)c6nc(c(-c7ccccc7)c7ccc4[nH]7)C=C6)C=C5)cc3)cc2F)c1
REMARK SMILES IDX 17 1 16 2 14 3 15 4 12 5 13 6 11 7 8 8 9 9 71 10 10 11 70 12
REMARK SMILES IDX 72 13 7 14 1 15 2 16 3 17 73 18 4 19 5 20 6 21 18 22 19 23
REMARK SMILES IDX 20 24 21 25 22 26 23 27 69 28 24 29 68 30 25 31 26 32 27 33
REMARK SMILES IDX 62 34 28 35 67 36 61 37 63 38 29 39 66 40 60 41 59 42 30 44
REMARK SMILES IDX 52 45 37 46 51 47 38 48 41 49 50 50 64 51 39 52 40 53 49 55
REMARK SMILES IDX 65 56 42 57 31 58 32 59 36 60 33 61 35 62 34 63 53 64 54 65
REMARK SMILES IDX 58 66 55 67 57 68 56 69 43 70 44 71 48 72 45 73 47 74 46 75
REMARK H PARENT 63 43 41 54
REMARK Flexibility Score: inf
ROOT
ATOM      1  C   UNL A   1      33.408  36.786  30.234  1.00  0.00     0.274 C 
ENDROOT
BRANCH   1   2
ATOM      2  O   UNL A   1      32.444  37.076  31.264  1.00  0.00    -0.462 OA
BRANCH   2   3
ATOM      3  C   UNL A   1      32.260  36.127  32.219  1.00  0.00     0.313 C 
ATOM      4  O   UNL A   1      31.355  35.298  32.202  1.00  0.00    -0.252 OA
BRANCH   3   5
ATOM      5  C   UNL A   1      33.258  36.211  33.367  1.00  0.00     0.126 C 
ATOM      6  C   UNL A   1      33.971  37.562  33.335  1.00  0.00     0.025 C 
BRANCH   5   7
ATOM      7  C   UNL A   1      34.223  35.042  33.495  1.00  0.00    -0.031 A 
ATOM      8  C   UNL A   1      36.092  32.905  33.720  1.00  0.00     0.017 A 
ATOM      9  C   UNL A   1      34.987  32.818  32.859  1.00  0.00     0.012 A 
ATOM     10  C   UNL A   1      36.226  34.070  34.482  1.00  0.00     0.131 A 
ATOM     11  C   UNL A   1      34.067  33.868  32.747  1.00  0.00     0.005 A 
ATOM     12  C   UNL A   1      35.318  35.124  34.368  1.00  0.00     0.044 A 
ATOM     13  F   UNL A   1      37.261  34.219  35.323  1.00  0.00    -0.206 F 
BRANCH   8  14
ATOM     14  C   UNL A   1      37.083  31.820  33.770  1.00  0.00    -0.015 A 
ATOM     15  C   UNL A   1      37.845  28.470  32.096  1.00  0.00     0.044 C 
ATOM     16  C   UNL A   1      37.947  29.671  32.990  1.00  0.00    -0.050 A 
ATOM     17  C   UNL A   1      39.022  29.784  33.880  1.00  0.00     0.006 A 
ATOM     18  C   UNL A   1      36.983  30.689  32.945  1.00  0.00     0.012 A 
ATOM     19  C   UNL A   1      39.139  30.894  34.723  1.00  0.00    -0.050 A 
ATOM     20  C   UNL A   1      40.295  31.003  35.672  1.00  0.00     0.044 C 
ATOM     21  C   UNL A   1      38.170  31.902  34.657  1.00  0.00     0.012 A 
ENDBRANCH   8  14
ENDBRANCH   5   7
ENDBRANCH   3   5
ENDBRANCH   2   3
ENDBRANCH   1   2
BRANCH   1  22
ATOM     22  C   UNL A   1      32.776  36.013  29.073  1.00  0.00     0.275 C 
BRANCH  22  23
ATOM     23  O   UNL A   1      32.734  34.600  29.346  1.00  0.00    -0.458 OA
BRANCH  23  24
ATOM     24  C   UNL A   1      33.072  33.808  28.304  1.00  0.00     0.338 C 
ATOM     25  O   UNL A   1      32.454  33.639  27.267  1.00  0.00    -0.246 OA
BRANCH  24  26
ATOM     26  C   UNL A   1      34.410  33.243  28.527  1.00  0.00     0.060 A 
ATOM     27  C   UNL A   1      34.501  32.072  29.280  1.00  0.00     0.016 A 
ATOM     28  C   UNL A   1      35.562  33.899  28.094  1.00  0.00     0.016 A 
ATOM     29  C   UNL A   1      35.745  31.558  29.630  1.00  0.00     0.010 A 
ATOM     30  C   UNL A   1      36.815  33.377  28.435  1.00  0.00     0.010 A 
ATOM     31  C   UNL A   1      36.912  32.215  29.221  1.00  0.00    -0.014 A 
BRANCH  31  32
ATOM     32  C   UNL A   1      38.225  31.699  29.672  1.00  0.00     0.031 A 
ATOM     33  C   UNL A   1      39.016  32.456  30.699  1.00  0.00     0.074 A 
ATOM     34  C   UNL A   1      38.678  30.521  29.204  1.00  0.00     0.049 A 
ATOM     35  N   UNL A   1      40.186  32.173  31.213  1.00  0.00    -0.248 NA
ATOM     36  C   UNL A   1      38.410  33.693  31.218  1.00  0.00     0.031 C 
ATOM     37  C   UNL A   1      37.978  29.667  28.244  1.00  0.00     0.029 A 
ATOM     38  N   UNL A   1      39.832  29.836  29.486  1.00  0.00    -0.354 N 
ATOM     39  C   UNL A   1      40.466  33.203  32.103  1.00  0.00     0.074 A 
ATOM     40  C   UNL A   1      39.350  34.125  32.047  1.00  0.00     0.031 C 
ATOM     41  C   UNL A   1      38.712  28.562  28.030  1.00  0.00     0.029 A 
ATOM     42  C   UNL A   1      39.946  28.650  28.805  1.00  0.00     0.049 A 
ATOM     43  H   UNL A   1      40.513  30.164  30.117  1.00  0.00     0.167 HD
ATOM     44  C   UNL A   1      41.550  33.364  32.897  1.00  0.00     0.031 A 
ATOM     45  C   UNL A   1      40.940  27.744  28.795  1.00  0.00     0.031 A 
ATOM     46  C   UNL A   1      42.660  32.450  32.956  1.00  0.00     0.049 A 
ATOM     47  C   UNL A   1      42.158  27.975  29.644  1.00  0.00     0.074 A 
ATOM     48  C   UNL A   1      43.805  32.530  33.729  1.00  0.00     0.029 A 
ATOM     49  N   UNL A   1      42.759  31.283  32.214  1.00  0.00    -0.354 N 
ATOM     50  N   UNL A   1      42.414  28.958  30.471  1.00  0.00    -0.248 NA
ATOM     51  C   UNL A   1      43.224  26.967  29.555  1.00  0.00     0.031 C 
ATOM     52  C   UNL A   1      44.616  31.430  33.426  1.00  0.00     0.029 A 
ATOM     53  C   UNL A   1      43.953  30.644  32.497  1.00  0.00     0.049 A 
ATOM     54  H   UNL A   1      42.080  30.958  31.580  1.00  0.00     0.167 HD
ATOM     55  C   UNL A   1      43.662  28.682  31.012  1.00  0.00     0.074 A 
ATOM     56  C   UNL A   1      44.103  27.429  30.434  1.00  0.00     0.031 C 
ATOM     57  C   UNL A   1      44.379  29.402  31.907  1.00  0.00     0.031 A 
BRANCH  44  58
ATOM     58  C   UNL A   1      41.604  34.604  33.741  1.00  0.00    -0.014 A 
ATOM     59  C   UNL A   1      42.438  35.680  33.404  1.00  0.00     0.009 A 
ATOM     60  C   UNL A   1      40.787  34.705  34.878  1.00  0.00     0.009 A 
ATOM     61  C   UNL A   1      42.475  36.823  34.207  1.00  0.00     0.001 A 
ATOM     62  C   UNL A   1      40.810  35.856  35.667  1.00  0.00     0.001 A 
ATOM     63  C   UNL A   1      41.660  36.911  35.335  1.00  0.00     0.000 A 
ENDBRANCH  44  58
BRANCH  45  64
ATOM     64  C   UNL A   1      40.835  26.539  27.934  1.00  0.00    -0.014 A 
ATOM     65  C   UNL A   1      41.386  26.531  26.644  1.00  0.00     0.009 A 
ATOM     66  C   UNL A   1      40.177  25.390  28.401  1.00  0.00     0.009 A 
ATOM     67  C   UNL A   1      41.262  25.403  25.831  1.00  0.00     0.001 A 
ATOM     68  C   UNL A   1      40.076  24.255  27.595  1.00  0.00     0.001 A 
ATOM     69  C   UNL A   1      40.612  24.265  26.308  1.00  0.00     0.000 A 
ENDBRANCH  45  64
BRANCH  57  70
ATOM     70  C   UNL A   1      45.705  28.837  32.328  1.00  0.00    -0.014 A 
ATOM     71  C   UNL A   1      45.816  28.022  33.466  1.00  0.00     0.009 A 
ATOM     72  C   UNL A   1      46.852  29.105  31.566  1.00  0.00     0.009 A 
ATOM     73  C   UNL A   1      47.058  27.514  33.849  1.00  0.00     0.001 A 
ATOM     74  C   UNL A   1      48.088  28.576  31.938  1.00  0.00     0.001 A 
ATOM     75  C   UNL A   1      48.191  27.789  33.084  1.00  0.00     0.000 A 
ENDBRANCH  57  70
ENDBRANCH  31  32
ENDBRANCH  24  26
ENDBRANCH  23  24
ENDBRANCH  22  23
ENDBRANCH   1  22
TORSDOF 13
ENDMDL
MODEL 2
REMARK VINA RESULT:      -9.5      2.475      4.271
REMARK SMILES Cc1cc(C)cc(-c2ccc([C@@H](C)C(=O)OCCOC(=O)c3ccc(-c4c5nc(c(-c6ccccc6)c6ccc([nH]6)c(-c6ccccc6)c6nc(c(-c7ccccc7)c7ccc4[nH]7)C=C6)C=C5)cc3)cc2F)c1
REMARK SMILES IDX 17 1 16 2 14 3 15 4 12 5 13 6 11 7 8 8 9 9 71 10 10 11 70 12
REMARK SMILES IDX 72 13 7 14 1 15 2 16 3 17 73 18 4 19 5 20 6 21 18 22 19 23
REMARK SMILES IDX 20 24 21 25 22 26 23 27 69 28 24 29 68 30 25 31 26 32 27 33
REMARK SMILES IDX 62 34 28 35 67 36 61 37 63 38 29 39 66 40 60 41 59 42 30 44
REMARK SMILES IDX 52 45 37 46 51 47 38 48 41 49 50 50 64 51 39 52 40 53 49 55
REMARK SMILES IDX 65 56 42 57 31 58 32 59 36 60 33 61 35 62 34 63 53 64 54 65
REMARK SMILES IDX 58 66 55 67 57 68 56 69 43 70 44 71 48 72 45 73 47 74 46 75
REMARK H PARENT 63 43 41 54
REMARK Flexibility Score: inf
ROOT
ATOM      1  C   UNL A   1      33.805  34.414  29.237  1.00  0.00     0.274 C 
ENDROOT
BRANCH   1   2
ATOM      2  O   UNL A   1      33.718  33.872  30.568  1.00  0.00    -0.462 OA
BRANCH   2   3
ATOM      3  C   UNL A   1      34.588  34.362  31.489  1.00  0.00     0.313 C 
ATOM      4  O   UNL A   1      34.522  35.491  31.968  1.00  0.00    -0.252 OA
BRANCH   3   5
ATOM      5  C   UNL A   1      35.711  33.397  31.848  1.00  0.00     0.126 C 
ATOM      6  C   UNL A   1      35.797  33.246  33.366  1.00  0.00     0.025 C 
BRANCH   5   7
ATOM      7  C   UNL A   1      37.062  33.683  31.210  1.00  0.00    -0.031 A 
ATOM      8  C   UNL A   1      39.591  34.292  30.051  1.00  0.00     0.017 A 
ATOM      9  C   UNL A   1      38.525  33.821  29.268  1.00  0.00     0.012 A 
ATOM     10  C   UNL A   1      39.371  34.427  31.425  1.00  0.00     0.131 A 
ATOM     11  C   UNL A   1      37.282  33.520  29.836  1.00  0.00     0.005 A 
ATOM     12  C   UNL A   1      38.130  34.138  31.997  1.00  0.00     0.044 A 
ATOM     13  F   UNL A   1      40.346  34.876  32.230  1.00  0.00    -0.206 F 
BRANCH   8  14
ATOM     14  C   UNL A   1      40.866  34.668  29.422  1.00  0.00    -0.015 A 
ATOM     15  C   UNL A   1      42.289  37.270  27.012  1.00  0.00     0.044 C 
ATOM     16  C   UNL A   1      42.188  36.106  27.954  1.00  0.00    -0.050 A 
ATOM     17  C   UNL A   1      43.335  35.368  28.270  1.00  0.00     0.006 A 
ATOM     18  C   UNL A   1      40.961  35.748  28.531  1.00  0.00     0.012 A 
ATOM     19  C   UNL A   1      43.267  34.280  29.146  1.00  0.00    -0.050 A 
ATOM     20  C   UNL A   1      44.503  33.496  29.475  1.00  0.00     0.044 C 
ATOM     21  C   UNL A   1      42.034  33.942  29.715  1.00  0.00     0.012 A 
ENDBRANCH   8  14
ENDBRANCH   5   7
ENDBRANCH   3   5
ENDBRANCH   2   3
ENDBRANCH   1   2
BRANCH   1  22
ATOM     22  C   UNL A   1      34.008  33.313  28.192  1.00  0.00     0.275 C 
BRANCH  22  23
ATOM     23  O   UNL A   1      34.302  32.049  28.814  1.00  0.00    -0.458 OA
BRANCH  23  24
ATOM     24  C   UNL A   1      34.478  31.019  27.956  1.00  0.00     0.338 C 
ATOM     25  O   UNL A   1      33.782  30.718  27.003  1.00  0.00    -0.246 OA
BRANCH  24  26
ATOM     26  C   UNL A   1      35.750  30.344  28.250  1.00  0.00     0.060 A 
ATOM     27  C   UNL A   1      35.939  29.850  29.542  1.00  0.00     0.016 A 
ATOM     28  C   UNL A   1      36.779  30.282  27.310  1.00  0.00     0.016 A 
ATOM     29  C   UNL A   1      37.166  29.314  29.916  1.00  0.00     0.010 A 
ATOM     30  C   UNL A   1      38.012  29.732  27.681  1.00  0.00     0.010 A 
ATOM     31  C   UNL A   1      38.216  29.263  28.991  1.00  0.00    -0.014 A 
BRANCH  31  32
ATOM     32  C   UNL A   1      39.540  28.764  29.432  1.00  0.00     0.031 A 
ATOM     33  C   UNL A   1      40.336  29.540  30.440  1.00  0.00     0.074 A 
ATOM     34  C   UNL A   1      39.998  27.585  28.971  1.00  0.00     0.049 A 
ATOM     35  N   UNL A   1      41.516  29.274  30.942  1.00  0.00    -0.248 NA
ATOM     36  C   UNL A   1      39.726  30.777  30.953  1.00  0.00     0.031 C 
ATOM     37  C   UNL A   1      39.294  26.714  28.030  1.00  0.00     0.029 A 
ATOM     38  N   UNL A   1      41.161  26.914  29.246  1.00  0.00    -0.354 N 
ATOM     39  C   UNL A   1      41.797  30.316  31.817  1.00  0.00     0.074 A 
ATOM     40  C   UNL A   1      40.672  31.227  31.764  1.00  0.00     0.031 C 
ATOM     41  C   UNL A   1      40.035  25.613  27.818  1.00  0.00     0.029 A 
ATOM     42  C   UNL A   1      41.278  25.722  28.576  1.00  0.00     0.049 A 
ATOM     43  H   UNL A   1      41.848  27.255  29.864  1.00  0.00     0.167 HD
ATOM     44  C   UNL A   1      42.890  30.496  32.594  1.00  0.00     0.031 A 
ATOM     45  C   UNL A   1      42.281  24.825  28.564  1.00  0.00     0.031 A 
ATOM     46  C   UNL A   1      44.009  29.593  32.650  1.00  0.00     0.049 A 
ATOM     47  C   UNL A   1      43.507  25.077  29.394  1.00  0.00     0.074 A 
ATOM     48  C   UNL A   1      45.163  29.693  33.407  1.00  0.00     0.029 A 
ATOM     49  N   UNL A   1      44.109  28.419  31.920  1.00  0.00    -0.354 N 
ATOM     50  N   UNL A   1      43.764  26.071  30.207  1.00  0.00    -0.248 NA
ATOM     51  C   UNL A   1      44.581  24.078  29.303  1.00  0.00     0.031 C 
ATOM     52  C   UNL A   1      45.980  28.597  33.106  1.00  0.00     0.029 A 
ATOM     53  C   UNL A   1      45.313  27.794  32.194  1.00  0.00     0.049 A 
ATOM     54  H   UNL A   1      43.426  28.080  31.298  1.00  0.00     0.167 HD
ATOM     55  C   UNL A   1      45.021  25.813  30.735  1.00  0.00     0.074 A 
ATOM     56  C   UNL A   1      45.467  24.557  30.166  1.00  0.00     0.031 C 
ATOM     57  C   UNL A   1      45.744  26.550  31.613  1.00  0.00     0.031 A 
BRANCH  44  58
ATOM     58  C   UNL A   1      42.942  31.746  33.424  1.00  0.00    -0.014 A 
ATOM     59  C   UNL A   1      43.478  32.938  32.914  1.00  0.00     0.009 A 
ATOM     60  C   UNL A   1      42.424  31.735  34.729  1.00  0.00     0.009 A 
ATOM     61  C   UNL A   1      43.522  34.088  33.706  1.00  0.00     0.001 A 
ATOM     62  C   UNL A   1      42.449  32.892  35.510  1.00  0.00     0.001 A 
ATOM     63  C   UNL A   1      43.005  34.065  35.001  1.00  0.00     0.000 A 
ENDBRANCH  44  58
BRANCH  45  64
ATOM     64  C   UNL A   1      42.176  23.609  27.718  1.00  0.00    -0.014 A 
ATOM     65  C   UNL A   1      42.640  23.617  26.394  1.00  0.00     0.009 A 
ATOM     66  C   UNL A   1      41.606  22.434  28.233  1.00  0.00     0.009 A 
ATOM     67  C   UNL A   1      42.516  22.477  25.597  1.00  0.00     0.001 A 
ATOM     68  C   UNL A   1      41.506  21.289  27.441  1.00  0.00     0.001 A 
ATOM     69  C   UNL A   1      41.953  21.314  26.121  1.00  0.00     0.000 A 
ENDBRANCH  45  64
BRANCH  57  70
ATOM     70  C   UNL A   1      47.079  26.002  32.024  1.00  0.00    -0.014 A 
ATOM     71  C   UNL A   1      48.229  26.244  31.255  1.00  0.00     0.009 A 
ATOM     72  C   UNL A   1      47.193  25.254  33.206  1.00  0.00     0.009 A 
ATOM     73  C   UNL A   1      49.461  25.717  31.646  1.00  0.00     0.001 A 
ATOM     74  C   UNL A   1      48.430  24.749  33.606  1.00  0.00     0.001 A 
ATOM     75  C   UNL A   1      49.561  24.974  32.822  1.00  0.00     0.000 A 
ENDBRANCH  57  70
ENDBRANCH  31  32
ENDBRANCH  24  26
ENDBRANCH  23  24
ENDBRANCH  22  23
ENDBRANCH   1  22
TORSDOF 13
ENDMDL
MODEL 3
REMARK VINA RESULT:      -9.5      3.750      6.240
REMARK SMILES Cc1cc(C)cc(-c2ccc([C@@H](C)C(=O)OCCOC(=O)c3ccc(-c4c5nc(c(-c6ccccc6)c6ccc([nH]6)c(-c6ccccc6)c6nc(c(-c7ccccc7)c7ccc4[nH]7)C=C6)C=C5)cc3)cc2F)c1
REMARK SMILES IDX 17 1 16 2 14 3 15 4 12 5 13 6 11 7 8 8 9 9 71 10 10 11 70 12
REMARK SMILES IDX 72 13 7 14 1 15 2 16 3 17 73 18 4 19 5 20 6 21 18 22 19 23
REMARK SMILES IDX 20 24 21 25 22 26 23 27 69 28 24 29 68 30 25 31 26 32 27 33
REMARK SMILES IDX 62 34 28 35 67 36 61 37 63 38 29 39 66 40 60 41 59 42 30 44
REMARK SMILES IDX 52 45 37 46 51 47 38 48 41 49 50 50 64 51 39 52 40 53 49 55
REMARK SMILES IDX 65 56 42 57 31 58 32 59 36 60 33 61 35 62 34 63 53 64 54 65
REMARK SMILES IDX 58 66 55 67 57 68 56 69 43 70 44 71 48 72 45 73 47 74 46 75
REMARK H PARENT 63 43 41 54
REMARK Flexibility Score: inf
ROOT
ATOM      1  C   UNL A   1      33.265  34.707  29.054  1.00  0.00     0.274 C 
ENDROOT
BRANCH   1   2
ATOM      2  O   UNL A   1      34.580  34.170  29.292  1.00  0.00    -0.462 OA
BRANCH   2   3
ATOM      3  C   UNL A   1      34.650  32.879  29.710  1.00  0.00     0.313 C 
ATOM      4  O   UNL A   1      34.221  32.479  30.789  1.00  0.00    -0.252 OA
BRANCH   3   5
ATOM      5  C   UNL A   1      35.368  31.955  28.734  1.00  0.00     0.126 C 
ATOM      6  C   UNL A   1      36.333  32.767  27.871  1.00  0.00     0.025 C 
BRANCH   5   7
ATOM      7  C   UNL A   1      34.477  31.037  27.912  1.00  0.00    -0.031 A 
ATOM      8  C   UNL A   1      32.746  29.331  26.426  1.00  0.00     0.017 A 
ATOM      9  C   UNL A   1      34.014  28.897  26.844  1.00  0.00     0.012 A 
ATOM     10  C   UNL A   1      32.376  30.642  26.745  1.00  0.00     0.131 A 
ATOM     11  C   UNL A   1      34.866  29.734  27.575  1.00  0.00     0.005 A 
ATOM     12  C   UNL A   1      33.217  31.479  27.481  1.00  0.00     0.044 A 
ATOM     13  F   UNL A   1      31.177  31.119  26.378  1.00  0.00    -0.206 F 
BRANCH   8  14
ATOM     14  C   UNL A   1      31.840  28.412  25.721  1.00  0.00    -0.015 A 
ATOM     15  C   UNL A   1      30.338  24.919  26.097  1.00  0.00     0.044 C 
ATOM     16  C   UNL A   1      30.664  26.278  25.549  1.00  0.00    -0.050 A 
ATOM     17  C   UNL A   1      30.076  26.702  24.351  1.00  0.00     0.006 A 
ATOM     18  C   UNL A   1      31.545  27.136  26.224  1.00  0.00     0.012 A 
ATOM     19  C   UNL A   1      30.363  27.964  23.821  1.00  0.00    -0.050 A 
ATOM     20  C   UNL A   1      29.729  28.406  22.536  1.00  0.00     0.044 C 
ATOM     21  C   UNL A   1      31.240  28.808  24.513  1.00  0.00     0.012 A 
ENDBRANCH   8  14
ENDBRANCH   5   7
ENDBRANCH   3   5
ENDBRANCH   2   3
ENDBRANCH   1   2
BRANCH   1  22
ATOM     22  C   UNL A   1      32.915  35.806  30.061  1.00  0.00     0.275 C 
BRANCH  22  23
ATOM     23  O   UNL A   1      32.478  35.250  31.314  1.00  0.00    -0.458 OA
BRANCH  23  24
ATOM     24  C   UNL A   1      32.977  35.859  32.413  1.00  0.00     0.338 C 
ATOM     25  O   UNL A   1      32.495  36.794  33.028  1.00  0.00    -0.246 OA
BRANCH  24  26
ATOM     26  C   UNL A   1      34.169  35.138  32.879  1.00  0.00     0.060 A 
ATOM     27  C   UNL A   1      35.416  35.625  32.487  1.00  0.00     0.016 A 
ATOM     28  C   UNL A   1      34.067  33.950  33.604  1.00  0.00     0.016 A 
ATOM     29  C   UNL A   1      36.574  34.917  32.792  1.00  0.00     0.010 A 
ATOM     30  C   UNL A   1      35.232  33.242  33.922  1.00  0.00     0.010 A 
ATOM     31  C   UNL A   1      36.489  33.713  33.501  1.00  0.00    -0.014 A 
BRANCH  31  32
ATOM     32  C   UNL A   1      37.724  32.932  33.744  1.00  0.00     0.031 A 
ATOM     33  C   UNL A   1      38.492  33.122  35.020  1.00  0.00     0.074 A 
ATOM     34  C   UNL A   1      38.122  32.011  32.846  1.00  0.00     0.049 A 
ATOM     35  N   UNL A   1      39.598  32.541  35.411  1.00  0.00    -0.248 NA
ATOM     36  C   UNL A   1      37.944  34.090  35.982  1.00  0.00     0.031 C 
ATOM     37  C   UNL A   1      37.432  31.698  31.594  1.00  0.00     0.029 A 
ATOM     38  N   UNL A   1      39.198  31.163  32.859  1.00  0.00    -0.354 N 
ATOM     39  C   UNL A   1      39.888  33.083  36.657  1.00  0.00     0.074 A 
ATOM     40  C   UNL A   1      38.851  34.051  36.948  1.00  0.00     0.031 C 
ATOM     41  C   UNL A   1      38.096  30.712  30.967  1.00  0.00     0.029 A 
ATOM     42  C   UNL A   1      39.273  30.355  31.752  1.00  0.00     0.049 A 
ATOM     43  H   UNL A   1      39.855  31.135  33.593  1.00  0.00     0.167 HD
ATOM     44  C   UNL A   1      40.922  32.799  37.484  1.00  0.00     0.031 A 
ATOM     45  C   UNL A   1      40.196  29.440  31.403  1.00  0.00     0.031 A 
ATOM     46  C   UNL A   1      41.953  31.837  37.198  1.00  0.00     0.049 A 
ATOM     47  C   UNL A   1      41.363  29.184  32.314  1.00  0.00     0.074 A 
ATOM     48  C   UNL A   1      43.043  31.482  37.975  1.00  0.00     0.029 A 
ATOM     49  N   UNL A   1      42.019  31.073  36.044  1.00  0.00    -0.354 N 
ATOM     50  N   UNL A   1      41.630  29.712  33.483  1.00  0.00    -0.248 NA
ATOM     51  C   UNL A   1      42.356  28.202  31.853  1.00  0.00     0.031 C 
ATOM     52  C   UNL A   1      43.789  30.530  37.272  1.00  0.00     0.029 A 
ATOM     53  C   UNL A   1      43.140  30.262  36.078  1.00  0.00     0.049 A 
ATOM     54  H   UNL A   1      41.366  31.104  35.308  1.00  0.00     0.167 HD
ATOM     55  C   UNL A   1      42.812  29.119  33.904  1.00  0.00     0.074 A 
ATOM     56  C   UNL A   1      43.200  28.176  32.875  1.00  0.00     0.031 C 
ATOM     57  C   UNL A   1      43.514  29.335  35.042  1.00  0.00     0.031 A 
BRANCH  44  58
ATOM     58  C   UNL A   1      41.005  33.573  38.768  1.00  0.00    -0.014 A 
ATOM     59  C   UNL A   1      41.687  34.796  38.838  1.00  0.00     0.009 A 
ATOM     60  C   UNL A   1      40.369  33.079  39.918  1.00  0.00     0.009 A 
ATOM     61  C   UNL A   1      41.756  35.497  40.044  1.00  0.00     0.001 A 
ATOM     62  C   UNL A   1      40.422  33.792  41.116  1.00  0.00     0.001 A 
ATOM     63  C   UNL A   1      41.122  34.997  41.181  1.00  0.00     0.000 A 
ENDBRANCH  44  58
BRANCH  45  64
ATOM     64  C   UNL A   1      40.065  28.709  30.117  1.00  0.00    -0.014 A 
ATOM     65  C   UNL A   1      40.566  29.260  28.928  1.00  0.00     0.009 A 
ATOM     66  C   UNL A   1      39.431  27.458  30.075  1.00  0.00     0.009 A 
ATOM     67  C   UNL A   1      40.417  28.578  27.718  1.00  0.00     0.001 A 
ATOM     68  C   UNL A   1      39.305  26.768  28.868  1.00  0.00     0.001 A 
ATOM     69  C   UNL A   1      39.792  27.332  27.689  1.00  0.00     0.000 A 
ENDBRANCH  45  64
BRANCH  57  70
ATOM     70  C   UNL A   1      44.760  28.522  35.238  1.00  0.00    -0.014 A 
ATOM     71  C   UNL A   1      46.008  28.990  34.798  1.00  0.00     0.009 A 
ATOM     72  C   UNL A   1      44.688  27.281  35.890  1.00  0.00     0.009 A 
ATOM     73  C   UNL A   1      47.155  28.215  34.979  1.00  0.00     0.001 A 
ATOM     74  C   UNL A   1      45.839  26.520  36.090  1.00  0.00     0.001 A 
ATOM     75  C   UNL A   1      47.070  26.983  35.628  1.00  0.00     0.000 A 
ENDBRANCH  57  70
ENDBRANCH  31  32
ENDBRANCH  24  26
ENDBRANCH  23  24
ENDBRANCH  22  23
ENDBRANCH   1  22
TORSDOF 13
ENDMDL
