MODEL 1
REMARK VINA RESULT:     -10.5      0.000      0.000
REMARK SMILES CC1=C(C)C[C@H](C(=O)OCCOC(=O)c2ccc(-c3c4nc(c(-c5ccccc5)c5ccc([nH]5)c(-c5ccccc5)c5nc(c(-c6ccccc6)c6ccc3[nH]6)C=C5)C=C4)cc2)[C@@H](C(=O)N[C@@H](C)CCc2ccccc2)C1
REMARK SMILES IDX 9 1 7 2 8 3 6 4 1 5 2 6 3 7 77 8 4 9 5 10 63 11 64 12 65 13
REMARK SMILES IDX 66 14 67 16 68 17 69 18 70 19 71 20 72 21 76 22 73 23 75 24
REMARK SMILES IDX 74 25 10 26 11 27 12 28 13 29 14 30 15 31 16 32 62 33 17 34
REMARK SMILES IDX 61 35 18 36 19 37 20 38 55 39 21 40 60 41 54 42 56 43 22 44
REMARK SMILES IDX 59 45 53 46 52 47 23 49 45 50 30 51 44 52 31 53 34 54 43 55
REMARK SMILES IDX 57 56 32 57 33 58 42 60 58 61 35 62 24 63 25 64 29 65 26 66
REMARK SMILES IDX 28 67 27 68 46 69 47 70 51 71 48 72 50 73 49 74 36 75 37 76
REMARK SMILES IDX 41 77 38 78 40 79 39 80
REMARK H PARENT 66 15 56 48 34 59
REMARK Flexibility Score: inf
ROOT
ATOM      1  O   UNL A   1      32.391  28.303  26.141  1.00  0.00    -0.462 OA
ENDROOT
BRANCH   1   2
ATOM      2  C   UNL A   1      31.807  27.102  26.389  1.00  0.00     0.310 C 
ATOM      3  O   UNL A   1      30.924  26.910  27.217  1.00  0.00    -0.252 OA
BRANCH   2   4
ATOM      4  C   UNL A   1      32.401  25.975  25.566  1.00  0.00     0.116 C 
ATOM      5  C   UNL A   1      31.635  21.564  25.543  1.00  0.00     0.039 C 
ATOM      6  C   UNL A   1      31.975  23.033  25.614  1.00  0.00    -0.074 C 
ATOM      7  C   UNL A   1      32.956  23.551  26.373  1.00  0.00    -0.073 C 
ATOM      8  C   UNL A   1      31.084  23.878  24.749  1.00  0.00     0.045 C 
ATOM      9  C   UNL A   1      33.848  22.741  27.284  1.00  0.00     0.039 C 
ATOM     10  C   UNL A   1      33.264  25.023  26.403  1.00  0.00     0.046 C 
ATOM     11  C   UNL A   1      31.276  25.393  24.709  1.00  0.00     0.097 C 
BRANCH  11  12
ATOM     12  C   UNL A   1      31.536  25.841  23.274  1.00  0.00     0.224 C 
ATOM     13  O   UNL A   1      31.059  26.890  22.834  1.00  0.00    -0.275 OA
ATOM     14  N   UNL A   1      32.245  25.060  22.413  1.00  0.00    -0.353 N 
ATOM     15  H   UNL A   1      32.239  25.372  21.480  1.00  0.00     0.163 HD
BRANCH  14  16
ATOM     16  C   UNL A   1      33.013  23.836  22.635  1.00  0.00     0.079 C 
ATOM     17  C   UNL A   1      33.042  23.008  21.349  1.00  0.00     0.031 C 
BRANCH  16  18
ATOM     18  C   UNL A   1      34.452  24.172  23.073  1.00  0.00     0.029 C 
BRANCH  18  19
ATOM     19  C   UNL A   1      35.436  22.990  23.057  1.00  0.00     0.037 C 
BRANCH  19  20
ATOM     20  C   UNL A   1      36.444  22.883  24.178  1.00  0.00    -0.048 A 
ATOM     21  C   UNL A   1      37.146  21.674  24.329  1.00  0.00     0.004 A 
ATOM     22  C   UNL A   1      36.684  23.908  25.100  1.00  0.00     0.004 A 
ATOM     23  C   UNL A   1      38.107  21.523  25.330  1.00  0.00     0.000 A 
ATOM     24  C   UNL A   1      37.651  23.759  26.099  1.00  0.00     0.000 A 
ATOM     25  C   UNL A   1      38.370  22.571  26.207  1.00  0.00     0.000 A 
ENDBRANCH  19  20
ENDBRANCH  18  19
ENDBRANCH  16  18
ENDBRANCH  14  16
ENDBRANCH  11  12
ENDBRANCH   2   4
ENDBRANCH   1   2
BRANCH   1  26
ATOM     26  C   UNL A   1      31.724  29.442  26.719  1.00  0.00     0.274 C 
BRANCH  26  27
ATOM     27  C   UNL A   1      32.728  30.562  26.982  1.00  0.00     0.275 C 
BRANCH  27  28
ATOM     28  O   UNL A   1      33.894  30.020  27.626  1.00  0.00    -0.458 OA
BRANCH  28  29
ATOM     29  C   UNL A   1      34.815  30.920  28.031  1.00  0.00     0.338 C 
ATOM     30  O   UNL A   1      34.672  32.129  28.155  1.00  0.00    -0.246 OA
BRANCH  29  31
ATOM     31  C   UNL A   1      36.087  30.235  28.310  1.00  0.00     0.060 A 
ATOM     32  C   UNL A   1      36.300  29.607  29.539  1.00  0.00     0.016 A 
ATOM     33  C   UNL A   1      37.117  30.305  27.372  1.00  0.00     0.016 A 
ATOM     34  C   UNL A   1      37.555  29.095  29.860  1.00  0.00     0.010 A 
ATOM     35  C   UNL A   1      38.354  29.731  27.665  1.00  0.00     0.010 A 
ATOM     36  C   UNL A   1      38.592  29.145  28.922  1.00  0.00    -0.014 A 
BRANCH  36  37
ATOM     37  C   UNL A   1      39.942  28.628  29.254  1.00  0.00     0.031 A 
ATOM     38  C   UNL A   1      40.913  29.504  29.993  1.00  0.00     0.074 A 
ATOM     39  C   UNL A   1      40.307  27.389  28.879  1.00  0.00     0.049 A 
ATOM     40  N   UNL A   1      42.193  29.329  30.203  1.00  0.00    -0.248 NA
ATOM     41  C   UNL A   1      40.375  30.752  30.560  1.00  0.00     0.031 C 
ATOM     42  C   UNL A   1      39.447  26.414  28.207  1.00  0.00     0.029 A 
ATOM     43  N   UNL A   1      41.510  26.741  29.006  1.00  0.00    -0.354 N 
ATOM     44  C   UNL A   1      42.622  30.462  30.879  1.00  0.00     0.074 A 
ATOM     45  C   UNL A   1      41.468  31.319  31.049  1.00  0.00     0.031 C 
ATOM     46  C   UNL A   1      40.147  25.291  27.985  1.00  0.00     0.029 A 
ATOM     47  C   UNL A   1      41.520  25.491  28.438  1.00  0.00     0.049 A 
ATOM     48  H   UNL A   1      42.291  27.134  29.459  1.00  0.00     0.167 HD
ATOM     49  C   UNL A   1      43.869  30.766  31.311  1.00  0.00     0.031 A 
ATOM     50  C   UNL A   1      42.529  24.620  28.260  1.00  0.00     0.031 A 
ATOM     51  C   UNL A   1      45.009  29.902  31.167  1.00  0.00     0.049 A 
ATOM     52  C   UNL A   1      43.912  24.992  28.715  1.00  0.00     0.074 A 
ATOM     53  C   UNL A   1      46.313  30.115  31.580  1.00  0.00     0.029 A 
ATOM     54  N   UNL A   1      44.977  28.651  30.572  1.00  0.00    -0.354 N 
ATOM     55  N   UNL A   1      44.316  26.088  29.310  1.00  0.00    -0.248 NA
ATOM     56  C   UNL A   1      44.977  24.014  28.458  1.00  0.00     0.031 C 
ATOM     57  C   UNL A   1      47.077  29.004  31.205  1.00  0.00     0.029 A 
ATOM     58  C   UNL A   1      46.240  28.086  30.593  1.00  0.00     0.049 A 
ATOM     59  H   UNL A   1      44.174  28.227  30.192  1.00  0.00     0.167 HD
ATOM     60  C   UNL A   1      45.681  25.928  29.505  1.00  0.00     0.074 A 
ATOM     61  C   UNL A   1      46.032  24.623  28.982  1.00  0.00     0.031 C 
ATOM     62  C   UNL A   1      46.567  26.789  30.063  1.00  0.00     0.031 A 
BRANCH  49  63
ATOM     63  C   UNL A   1      44.069  32.115  31.937  1.00  0.00    -0.014 A 
ATOM     64  C   UNL A   1      44.394  33.240  31.165  1.00  0.00     0.009 A 
ATOM     65  C   UNL A   1      43.911  32.262  33.324  1.00  0.00     0.009 A 
ATOM     66  C   UNL A   1      44.587  34.482  31.777  1.00  0.00     0.001 A 
ATOM     67  C   UNL A   1      44.085  33.507  33.930  1.00  0.00     0.001 A 
ATOM     68  C   UNL A   1      44.430  34.614  33.157  1.00  0.00     0.000 A 
ENDBRANCH  49  63
BRANCH  50  69
ATOM     69  C   UNL A   1      42.278  23.330  27.571  1.00  0.00    -0.014 A 
ATOM     70  C   UNL A   1      42.557  23.186  26.204  1.00  0.00     0.009 A 
ATOM     71  C   UNL A   1      41.770  22.232  28.282  1.00  0.00     0.009 A 
ATOM     72  C   UNL A   1      42.319  21.969  25.561  1.00  0.00     0.001 A 
ATOM     73  C   UNL A   1      41.555  21.011  27.642  1.00  0.00     0.001 A 
ATOM     74  C   UNL A   1      41.824  20.883  26.280  1.00  0.00     0.000 A 
ENDBRANCH  50  69
BRANCH  62  75
ATOM     75  C   UNL A   1      47.993  26.332  30.152  1.00  0.00    -0.014 A 
ATOM     76  C   UNL A   1      48.880  26.526  29.083  1.00  0.00     0.009 A 
ATOM     77  C   UNL A   1      48.460  25.732  31.331  1.00  0.00     0.009 A 
ATOM     78  C   UNL A   1      50.206  26.102  29.184  1.00  0.00     0.001 A 
ATOM     79  C   UNL A   1      49.790  25.327  31.436  1.00  0.00     0.001 A 
ATOM     80  C   UNL A   1      50.660  25.506  30.361  1.00  0.00     0.000 A 
ENDBRANCH  62  75
ENDBRANCH  36  37
ENDBRANCH  29  31
ENDBRANCH  28  29
ENDBRANCH  27  28
ENDBRANCH  26  27
ENDBRANCH   1  26
TORSDOF 16
ENDMDL
MODEL 2
REMARK VINA RESULT:     -10.4      3.210      6.448
REMARK SMILES CC1=C(C)C[C@H](C(=O)OCCOC(=O)c2ccc(-c3c4nc(c(-c5ccccc5)c5ccc([nH]5)c(-c5ccccc5)c5nc(c(-c6ccccc6)c6ccc3[nH]6)C=C5)C=C4)cc2)[C@@H](C(=O)N[C@@H](C)CCc2ccccc2)C1
REMARK SMILES IDX 9 1 7 2 8 3 6 4 1 5 2 6 3 7 77 8 4 9 5 10 63 11 64 12 65 13
REMARK SMILES IDX 66 14 67 16 68 17 69 18 70 19 71 20 72 21 76 22 73 23 75 24
REMARK SMILES IDX 74 25 10 26 11 27 12 28 13 29 14 30 15 31 16 32 62 33 17 34
REMARK SMILES IDX 61 35 18 36 19 37 20 38 55 39 21 40 60 41 54 42 56 43 22 44
REMARK SMILES IDX 59 45 53 46 52 47 23 49 45 50 30 51 44 52 31 53 34 54 43 55
REMARK SMILES IDX 57 56 32 57 33 58 42 60 58 61 35 62 24 63 25 64 29 65 26 66
REMARK SMILES IDX 28 67 27 68 46 69 47 70 51 71 48 72 50 73 49 74 36 75 37 76
REMARK SMILES IDX 41 77 38 78 40 79 39 80
REMARK H PARENT 66 15 56 48 34 59
REMARK Flexibility Score: inf
ROOT
ATOM      1  O   UNL A   1      35.320  23.766  24.451  1.00  0.00    -0.462 OA
ENDROOT
BRANCH   1   2
ATOM      2  C   UNL A   1      34.334  24.289  23.677  1.00  0.00     0.310 C 
ATOM      3  O   UNL A   1      34.100  23.959  22.520  1.00  0.00    -0.252 OA
BRANCH   2   4
ATOM      4  C   UNL A   1      33.559  25.393  24.373  1.00  0.00     0.116 C 
ATOM      5  C   UNL A   1      29.842  27.612  23.235  1.00  0.00     0.039 C 
ATOM      6  C   UNL A   1      31.151  26.943  23.579  1.00  0.00    -0.074 C 
ATOM      7  C   UNL A   1      32.361  27.430  23.255  1.00  0.00    -0.073 C 
ATOM      8  C   UNL A   1      30.965  25.649  24.318  1.00  0.00     0.045 C 
ATOM      9  C   UNL A   1      32.589  28.706  22.480  1.00  0.00     0.039 C 
ATOM     10  C   UNL A   1      33.639  26.731  23.629  1.00  0.00     0.046 C 
ATOM     11  C   UNL A   1      32.185  24.829  24.734  1.00  0.00     0.097 C 
BRANCH  11  12
ATOM     12  C   UNL A   1      32.174  24.621  26.245  1.00  0.00     0.224 C 
ATOM     13  O   UNL A   1      31.726  25.482  27.007  1.00  0.00    -0.275 OA
ATOM     14  N   UNL A   1      32.724  23.508  26.804  1.00  0.00    -0.353 N 
ATOM     15  H   UNL A   1      32.788  23.534  27.786  1.00  0.00     0.163 HD
BRANCH  14  16
ATOM     16  C   UNL A   1      33.235  22.280  26.198  1.00  0.00     0.079 C 
ATOM     17  C   UNL A   1      33.942  21.439  27.262  1.00  0.00     0.031 C 
BRANCH  16  18
ATOM     18  C   UNL A   1      32.088  21.468  25.566  1.00  0.00     0.029 C 
BRANCH  18  19
ATOM     19  C   UNL A   1      32.310  21.046  24.105  1.00  0.00     0.037 C 
BRANCH  19  20
ATOM     20  C   UNL A   1      32.855  19.663  23.835  1.00  0.00    -0.048 A 
ATOM     21  C   UNL A   1      32.286  18.915  22.789  1.00  0.00     0.004 A 
ATOM     22  C   UNL A   1      33.868  19.070  24.598  1.00  0.00     0.004 A 
ATOM     23  C   UNL A   1      32.762  17.640  22.476  1.00  0.00     0.000 A 
ATOM     24  C   UNL A   1      34.350  17.797  24.280  1.00  0.00     0.000 A 
ATOM     25  C   UNL A   1      33.805  17.087  23.213  1.00  0.00     0.000 A 
ENDBRANCH  19  20
ENDBRANCH  18  19
ENDBRANCH  16  18
ENDBRANCH  14  16
ENDBRANCH  11  12
ENDBRANCH   2   4
ENDBRANCH   1   2
BRANCH   1  26
ATOM     26  C   UNL A   1      36.285  22.956  23.752  1.00  0.00     0.274 C 
BRANCH  26  27
ATOM     27  C   UNL A   1      36.481  21.628  24.480  1.00  0.00     0.275 C 
BRANCH  27  28
ATOM     28  O   UNL A   1      37.045  21.871  25.781  1.00  0.00    -0.458 OA
BRANCH  28  29
ATOM     29  C   UNL A   1      38.359  21.594  25.915  1.00  0.00     0.338 C 
ATOM     30  O   UNL A   1      38.932  20.545  25.651  1.00  0.00    -0.246 OA
BRANCH  29  31
ATOM     31  C   UNL A   1      39.059  22.769  26.458  1.00  0.00     0.060 A 
ATOM     32  C   UNL A   1      38.599  24.059  26.184  1.00  0.00     0.016 A 
ATOM     33  C   UNL A   1      40.246  22.585  27.167  1.00  0.00     0.016 A 
ATOM     34  C   UNL A   1      39.347  25.169  26.567  1.00  0.00     0.010 A 
ATOM     35  C   UNL A   1      40.961  23.698  27.612  1.00  0.00     0.010 A 
ATOM     36  C   UNL A   1      40.532  24.999  27.292  1.00  0.00    -0.014 A 
BRANCH  36  37
ATOM     37  C   UNL A   1      41.355  26.168  27.687  1.00  0.00     0.031 A 
ATOM     38  C   UNL A   1      40.795  27.183  28.643  1.00  0.00     0.074 A 
ATOM     39  C   UNL A   1      42.589  26.334  27.178  1.00  0.00     0.049 A 
ATOM     40  N   UNL A   1      41.257  28.365  28.960  1.00  0.00    -0.248 NA
ATOM     41  C   UNL A   1      39.540  26.823  29.324  1.00  0.00     0.031 C 
ATOM     42  C   UNL A   1      43.275  25.400  26.284  1.00  0.00     0.029 A 
ATOM     43  N   UNL A   1      43.483  27.363  27.336  1.00  0.00    -0.354 N 
ATOM     44  C   UNL A   1      40.327  28.910  29.834  1.00  0.00     0.074 A 
ATOM     45  C   UNL A   1      39.276  27.930  30.004  1.00  0.00     0.031 C 
ATOM     46  C   UNL A   1      44.484  25.895  25.978  1.00  0.00     0.029 A 
ATOM     47  C   UNL A   1      44.630  27.208  26.598  1.00  0.00     0.049 A 
ATOM     48  H   UNL A   1      43.318  28.138  27.922  1.00  0.00     0.167 HD
ATOM     49  C   UNL A   1      40.345  30.124  30.435  1.00  0.00     0.031 A 
ATOM     50  C   UNL A   1      45.665  28.046  26.404  1.00  0.00     0.031 A 
ATOM     51  C   UNL A   1      41.403  31.086  30.290  1.00  0.00     0.049 A 
ATOM     52  C   UNL A   1      45.646  29.401  27.052  1.00  0.00     0.074 A 
ATOM     53  C   UNL A   1      41.517  32.340  30.865  1.00  0.00     0.029 A 
ATOM     54  N   UNL A   1      42.539  30.893  29.520  1.00  0.00    -0.354 N 
ATOM     55  N   UNL A   1      44.738  29.926  27.838  1.00  0.00    -0.248 NA
ATOM     56  C   UNL A   1      46.786  30.283  26.771  1.00  0.00     0.031 C 
ATOM     57  C   UNL A   1      42.710  32.919  30.417  1.00  0.00     0.029 A 
ATOM     58  C   UNL A   1      43.353  32.009  29.593  1.00  0.00     0.049 A 
ATOM     59  H   UNL A   1      42.738  30.081  29.000  1.00  0.00     0.167 HD
ATOM     60  C   UNL A   1      45.200  31.196  28.152  1.00  0.00     0.074 A 
ATOM     61  C   UNL A   1      46.477  31.357  27.486  1.00  0.00     0.031 C 
ATOM     62  C   UNL A   1      44.617  32.149  28.919  1.00  0.00     0.031 A 
BRANCH  49  63
ATOM     63  C   UNL A   1      39.151  30.494  31.268  1.00  0.00    -0.014 A 
ATOM     64  C   UNL A   1      39.106  30.224  32.644  1.00  0.00     0.009 A 
ATOM     65  C   UNL A   1      38.062  31.140  30.663  1.00  0.00     0.009 A 
ATOM     66  C   UNL A   1      37.977  30.567  33.391  1.00  0.00     0.001 A 
ATOM     67  C   UNL A   1      36.944  31.501  31.416  1.00  0.00     0.001 A 
ATOM     68  C   UNL A   1      36.899  31.207  32.778  1.00  0.00     0.000 A 
ENDBRANCH  49  63
BRANCH  50  69
ATOM     69  C   UNL A   1      46.782  27.645  25.513  1.00  0.00    -0.014 A 
ATOM     70  C   UNL A   1      46.760  27.976  24.151  1.00  0.00     0.009 A 
ATOM     71  C   UNL A   1      47.882  26.941  26.026  1.00  0.00     0.009 A 
ATOM     72  C   UNL A   1      47.815  27.597  23.316  1.00  0.00     0.001 A 
ATOM     73  C   UNL A   1      48.945  26.584  25.196  1.00  0.00     0.001 A 
ATOM     74  C   UNL A   1      48.907  26.907  23.840  1.00  0.00     0.000 A 
ENDBRANCH  50  69
BRANCH  62  75
ATOM     75  C   UNL A   1      45.368  33.436  29.092  1.00  0.00    -0.014 A 
ATOM     76  C   UNL A   1      46.306  33.591  30.123  1.00  0.00     0.009 A 
ATOM     77  C   UNL A   1      45.157  34.490  28.191  1.00  0.00     0.009 A 
ATOM     78  C   UNL A   1      47.002  34.792  30.264  1.00  0.00     0.001 A 
ATOM     79  C   UNL A   1      45.868  35.683  28.324  1.00  0.00     0.001 A 
ATOM     80  C   UNL A   1      46.785  35.835  29.364  1.00  0.00     0.000 A 
ENDBRANCH  62  75
ENDBRANCH  36  37
ENDBRANCH  29  31
ENDBRANCH  28  29
ENDBRANCH  27  28
ENDBRANCH  26  27
ENDBRANCH   1  26
TORSDOF 16
ENDMDL
MODEL 3
REMARK VINA RESULT:     -10.3      1.716      3.984
REMARK SMILES CC1=C(C)C[C@H](C(=O)OCCOC(=O)c2ccc(-c3c4nc(c(-c5ccccc5)c5ccc([nH]5)c(-c5ccccc5)c5nc(c(-c6ccccc6)c6ccc3[nH]6)C=C5)C=C4)cc2)[C@@H](C(=O)N[C@@H](C)CCc2ccccc2)C1
REMARK SMILES IDX 9 1 7 2 8 3 6 4 1 5 2 6 3 7 77 8 4 9 5 10 63 11 64 12 65 13
REMARK SMILES IDX 66 14 67 16 68 17 69 18 70 19 71 20 72 21 76 22 73 23 75 24
REMARK SMILES IDX 74 25 10 26 11 27 12 28 13 29 14 30 15 31 16 32 62 33 17 34
REMARK SMILES IDX 61 35 18 36 19 37 20 38 55 39 21 40 60 41 54 42 56 43 22 44
REMARK SMILES IDX 59 45 53 46 52 47 23 49 45 50 30 51 44 52 31 53 34 54 43 55
REMARK SMILES IDX 57 56 32 57 33 58 42 60 58 61 35 62 24 63 25 64 29 65 26 66
REMARK SMILES IDX 28 67 27 68 46 69 47 70 51 71 48 72 50 73 49 74 36 75 37 76
REMARK SMILES IDX 41 77 38 78 40 79 39 80
REMARK H PARENT 66 15 56 48 34 59
REMARK Flexibility Score: inf
ROOT
ATOM      1  O   UNL A   1      33.914  27.392  25.198  1.00  0.00    -0.462 OA
ENDROOT
BRANCH   1   2
ATOM      2  C   UNL A   1      33.796  26.763  23.999  1.00  0.00     0.310 C 
ATOM      3  O   UNL A   1      33.689  27.329  22.918  1.00  0.00    -0.252 OA
BRANCH   2   4
ATOM      4  C   UNL A   1      33.750  25.252  24.127  1.00  0.00     0.116 C 
ATOM      5  C   UNL A   1      34.112  22.540  27.671  1.00  0.00     0.039 C 
ATOM      6  C   UNL A   1      34.092  23.438  26.458  1.00  0.00    -0.074 C 
ATOM      7  C   UNL A   1      35.177  23.759  25.731  1.00  0.00    -0.073 C 
ATOM      8  C   UNL A   1      32.719  23.962  26.146  1.00  0.00     0.045 C 
ATOM      9  C   UNL A   1      36.578  23.283  26.034  1.00  0.00     0.039 C 
ATOM     10  C   UNL A   1      35.105  24.651  24.523  1.00  0.00     0.046 C 
ATOM     11  C   UNL A   1      32.516  24.900  24.958  1.00  0.00     0.097 C 
BRANCH  11  12
ATOM     12  C   UNL A   1      31.493  24.299  23.998  1.00  0.00     0.224 C 
ATOM     13  O   UNL A   1      31.766  23.317  23.303  1.00  0.00    -0.275 OA
ATOM     14  N   UNL A   1      30.270  24.872  23.827  1.00  0.00    -0.353 N 
ATOM     15  H   UNL A   1      29.740  24.491  23.091  1.00  0.00     0.163 HD
BRANCH  14  16
ATOM     16  C   UNL A   1      29.607  25.957  24.549  1.00  0.00     0.079 C 
ATOM     17  C   UNL A   1      29.540  25.615  26.039  1.00  0.00     0.031 C 
BRANCH  16  18
ATOM     18  C   UNL A   1      30.365  27.284  24.350  1.00  0.00     0.029 C 
BRANCH  18  19
ATOM     19  C   UNL A   1      30.107  27.991  23.009  1.00  0.00     0.037 C 
BRANCH  19  20
ATOM     20  C   UNL A   1      29.330  29.287  23.023  1.00  0.00    -0.048 A 
ATOM     21  C   UNL A   1      29.774  30.321  23.866  1.00  0.00     0.004 A 
ATOM     22  C   UNL A   1      28.167  29.498  22.272  1.00  0.00     0.004 A 
ATOM     23  C   UNL A   1      29.113  31.550  23.905  1.00  0.00     0.000 A 
ATOM     24  C   UNL A   1      27.509  30.731  22.306  1.00  0.00     0.000 A 
ATOM     25  C   UNL A   1      27.988  31.760  23.113  1.00  0.00     0.000 A 
ENDBRANCH  19  20
ENDBRANCH  18  19
ENDBRANCH  16  18
ENDBRANCH  14  16
ENDBRANCH  11  12
ENDBRANCH   2   4
ENDBRANCH   1   2
BRANCH   1  26
ATOM     26  C   UNL A   1      33.703  28.816  25.167  1.00  0.00     0.274 C 
BRANCH  26  27
ATOM     27  C   UNL A   1      33.057  29.280  26.470  1.00  0.00     0.275 C 
BRANCH  27  28
ATOM     28  O   UNL A   1      34.001  29.148  27.548  1.00  0.00    -0.458 OA
BRANCH  28  29
ATOM     29  C   UNL A   1      34.640  30.280  27.913  1.00  0.00     0.338 C 
ATOM     30  O   UNL A   1      34.184  31.415  27.952  1.00  0.00    -0.246 OA
BRANCH  29  31
ATOM     31  C   UNL A   1      36.033  29.968  28.267  1.00  0.00     0.060 A 
ATOM     32  C   UNL A   1      37.054  30.106  27.323  1.00  0.00     0.016 A 
ATOM     33  C   UNL A   1      36.312  29.436  29.526  1.00  0.00     0.016 A 
ATOM     34  C   UNL A   1      38.342  29.666  27.610  1.00  0.00     0.010 A 
ATOM     35  C   UNL A   1      37.619  29.059  29.839  1.00  0.00     0.010 A 
ATOM     36  C   UNL A   1      38.639  29.145  28.875  1.00  0.00    -0.014 A 
BRANCH  36  37
ATOM     37  C   UNL A   1      40.000  28.647  29.191  1.00  0.00     0.031 A 
ATOM     38  C   UNL A   1      40.977  29.547  29.892  1.00  0.00     0.074 A 
ATOM     39  C   UNL A   1      40.370  27.403  28.834  1.00  0.00     0.049 A 
ATOM     40  N   UNL A   1      42.262  29.388  30.081  1.00  0.00    -0.248 NA
ATOM     41  C   UNL A   1      40.437  30.801  30.444  1.00  0.00     0.031 C 
ATOM     42  C   UNL A   1      39.506  26.408  28.199  1.00  0.00     0.029 A 
ATOM     43  N   UNL A   1      41.582  26.770  28.950  1.00  0.00    -0.354 N 
ATOM     44  C   UNL A   1      42.693  30.539  30.725  1.00  0.00     0.074 A 
ATOM     45  C   UNL A   1      41.535  31.388  30.901  1.00  0.00     0.031 C 
ATOM     46  C   UNL A   1      40.213  25.286  27.986  1.00  0.00     0.029 A 
ATOM     47  C   UNL A   1      41.592  25.509  28.408  1.00  0.00     0.049 A 
ATOM     48  H   UNL A   1      42.367  27.180  29.380  1.00  0.00     0.167 HD
ATOM     49  C   UNL A   1      43.946  30.863  31.126  1.00  0.00     0.031 A 
ATOM     50  C   UNL A   1      42.606  24.643  28.228  1.00  0.00     0.031 A 
ATOM     51  C   UNL A   1      45.091  30.007  30.978  1.00  0.00     0.049 A 
ATOM     52  C   UNL A   1      43.994  25.038  28.648  1.00  0.00     0.074 A 
ATOM     53  C   UNL A   1      46.401  30.241  31.361  1.00  0.00     0.029 A 
ATOM     54  N   UNL A   1      45.059  28.744  30.409  1.00  0.00    -0.354 N 
ATOM     55  N   UNL A   1      44.399  26.149  29.213  1.00  0.00    -0.248 NA
ATOM     56  C   UNL A   1      45.063  24.065  28.390  1.00  0.00     0.031 C 
ATOM     57  C   UNL A   1      47.168  29.130  30.994  1.00  0.00     0.029 A 
ATOM     58  C   UNL A   1      46.328  28.191  30.417  1.00  0.00     0.049 A 
ATOM     59  H   UNL A   1      44.253  28.304  30.054  1.00  0.00     0.167 HD
ATOM     60  C   UNL A   1      45.769  26.007  29.384  1.00  0.00     0.074 A 
ATOM     61  C   UNL A   1      46.123  24.694  28.881  1.00  0.00     0.031 C 
ATOM     62  C   UNL A   1      46.657  26.886  29.908  1.00  0.00     0.031 A 
BRANCH  49  63
ATOM     63  C   UNL A   1      44.144  32.227  31.721  1.00  0.00    -0.014 A 
ATOM     64  C   UNL A   1      43.984  32.457  33.096  1.00  0.00     0.009 A 
ATOM     65  C   UNL A   1      44.516  33.294  30.890  1.00  0.00     0.009 A 
ATOM     66  C   UNL A   1      44.161  33.740  33.620  1.00  0.00     0.001 A 
ATOM     67  C   UNL A   1      44.712  34.571  31.419  1.00  0.00     0.001 A 
ATOM     68  C   UNL A   1      44.528  34.794  32.782  1.00  0.00     0.000 A 
ENDBRANCH  49  63
BRANCH  50  69
ATOM     69  C   UNL A   1      42.355  23.337  27.570  1.00  0.00    -0.014 A 
ATOM     70  C   UNL A   1      41.896  22.241  28.314  1.00  0.00     0.009 A 
ATOM     71  C   UNL A   1      42.560  23.187  26.190  1.00  0.00     0.009 A 
ATOM     72  C   UNL A   1      41.660  21.014  27.688  1.00  0.00     0.001 A 
ATOM     73  C   UNL A   1      42.301  21.967  25.564  1.00  0.00     0.001 A 
ATOM     74  C   UNL A   1      41.857  20.880  26.315  1.00  0.00     0.000 A 
ENDBRANCH  50  69
BRANCH  62  75
ATOM     75  C   UNL A   1      48.089  26.445  29.978  1.00  0.00    -0.014 A 
ATOM     76  C   UNL A   1      48.978  26.712  28.926  1.00  0.00     0.009 A 
ATOM     77  C   UNL A   1      48.559  25.785  31.123  1.00  0.00     0.009 A 
ATOM     78  C   UNL A   1      50.309  26.301  29.010  1.00  0.00     0.001 A 
ATOM     79  C   UNL A   1      49.895  25.393  31.212  1.00  0.00     0.001 A 
ATOM     80  C   UNL A   1      50.766  25.645  30.154  1.00  0.00     0.000 A 
ENDBRANCH  62  75
ENDBRANCH  36  37
ENDBRANCH  29  31
ENDBRANCH  28  29
ENDBRANCH  27  28
ENDBRANCH  26  27
ENDBRANCH   1  26
TORSDOF 16
ENDMDL
