MODEL 1
REMARK VINA RESULT:     -11.4      0.000      0.000
REMARK SMILES CC1=C[C@@H]([C@@H]2N=N[C@H](S)N2/N=C/c2ccc(C(=O)OCCOC(=O)c3ccc(-c4c5nc(c(-c6ccccc6)c6ccc([nH]6)c(-c6ccccc6)c6nc(c(-c7ccccc7)c7ccc4[nH]7)C=C6)C=C5)cc3)cc2)N=N1
REMARK SMILES IDX 20 1 19 2 17 3 18 4 16 5 13 6 14 7 74 8 15 9 73 10 12 11
REMARK SMILES IDX 11 12 10 13 5 14 6 15 7 16 8 17 4 18 1 19 2 20 3 21 76 22
REMARK SMILES IDX 75 23 9 24 21 26 22 27 23 28 24 29 25 30 26 31 72 32 27 33
REMARK SMILES IDX 71 34 28 35 29 36 30 37 65 38 31 39 70 40 64 41 66 42 32 43
REMARK SMILES IDX 69 44 63 45 62 46 33 48 55 49 40 50 54 51 41 52 44 53 53 54
REMARK SMILES IDX 67 55 42 56 43 57 52 59 68 60 45 61 34 62 35 63 39 64 36 65
REMARK SMILES IDX 38 66 37 67 56 68 57 69 61 70 58 71 60 72 59 73 46 74 47 75
REMARK SMILES IDX 51 76 48 77 50 78 49 79
REMARK H PARENT 9 25 66 47 44 58
REMARK Flexibility Score: inf
ROOT
ATOM      1  C   UNL A   1      42.463  19.200  26.713  1.00  0.00     0.275 C 
ENDROOT
BRANCH   1   2
ATOM      2  O   UNL A   1      41.542  20.085  26.055  1.00  0.00    -0.458 OA
BRANCH   2   3
ATOM      3  C   UNL A   1      40.641  20.695  26.861  1.00  0.00     0.338 C 
ATOM      4  O   UNL A   1      40.807  21.003  28.033  1.00  0.00    -0.246 OA
BRANCH   3   5
ATOM      5  C   UNL A   1      39.413  21.044  26.103  1.00  0.00     0.060 A 
ATOM      6  C   UNL A   1      37.017  21.758  24.880  1.00  0.00    -0.005 A 
ATOM      7  C   UNL A   1      37.757  22.729  25.558  1.00  0.00     0.010 A 
ATOM      8  C   UNL A   1      37.503  20.453  24.744  1.00  0.00     0.010 A 
ATOM      9  C   UNL A   1      38.950  22.366  26.181  1.00  0.00     0.016 A 
ATOM     10  C   UNL A   1      38.710  20.098  25.349  1.00  0.00     0.016 A 
BRANCH   6  11
ATOM     11  C   UNL A   1      35.667  22.114  24.414  1.00  0.00     0.141 C 
ATOM     12  N   UNL A   1      35.186  23.296  24.624  1.00  0.00    -0.180 NA
BRANCH  12  13
ATOM     13  N   UNL A   1      33.983  23.582  24.099  1.00  0.00    -0.233 NA
ATOM     14  C   UNL A   1      33.708  24.815  23.374  1.00  0.00     0.274 C 
ATOM     15  N   UNL A   1      32.301  24.734  22.897  1.00  0.00    -0.161 NA
ATOM     16  N   UNL A   1      31.758  23.677  23.304  1.00  0.00    -0.153 NA
ATOM     17  C   UNL A   1      32.698  22.901  24.145  1.00  0.00     0.298 C 
BRANCH  14  18
ATOM     18  C   UNL A   1      33.942  26.094  24.218  1.00  0.00     0.201 C 
ATOM     19  C   UNL A   1      31.423  27.213  26.684  1.00  0.00     0.068 C 
ATOM     20  C   UNL A   1      32.389  26.968  25.585  1.00  0.00     0.058 C 
ATOM     21  C   UNL A   1      33.361  26.061  25.588  1.00  0.00     0.031 C 
ATOM     22  N   UNL A   1      32.334  27.673  24.410  1.00  0.00    -0.160 NA
ATOM     23  N   UNL A   1      33.220  27.255  23.610  1.00  0.00    -0.177 NA
ENDBRANCH  14  18
BRANCH  17  24
ATOM     24  S   UNL A   1      32.096  22.655  25.856  1.00  0.00    -0.128 SA
ATOM     25  H   UNL A   1      33.114  22.873  26.731  1.00  0.00     0.106 HD
ENDBRANCH  17  24
ENDBRANCH  12  13
ENDBRANCH   6  11
ENDBRANCH   3   5
ENDBRANCH   2   3
ENDBRANCH   1   2
BRANCH   1  26
ATOM     26  C   UNL A   1      43.388  18.528  25.707  1.00  0.00     0.275 C 
BRANCH  26  27
ATOM     27  O   UNL A   1      43.434  19.242  24.471  1.00  0.00    -0.458 OA
BRANCH  27  28
ATOM     28  C   UNL A   1      44.664  19.624  24.062  1.00  0.00     0.338 C 
ATOM     29  O   UNL A   1      45.543  18.917  23.598  1.00  0.00    -0.246 OA
BRANCH  28  30
ATOM     30  C   UNL A   1      44.890  21.021  24.455  1.00  0.00     0.060 A 
ATOM     31  C   UNL A   1      45.879  21.272  25.412  1.00  0.00     0.016 A 
ATOM     32  C   UNL A   1      43.964  22.007  24.084  1.00  0.00     0.016 A 
ATOM     33  C   UNL A   1      45.833  22.459  26.118  1.00  0.00     0.010 A 
ATOM     34  C   UNL A   1      43.917  23.188  24.791  1.00  0.00     0.010 A 
ATOM     35  C   UNL A   1      44.802  23.367  25.853  1.00  0.00    -0.014 A 
BRANCH  35  36
ATOM     36  C   UNL A   1      44.671  24.524  26.716  1.00  0.00     0.031 A 
ATOM     37  C   UNL A   1      45.801  25.481  26.672  1.00  0.00     0.074 A 
ATOM     38  C   UNL A   1      43.540  24.781  27.400  1.00  0.00     0.049 A 
ATOM     39  N   UNL A   1      46.540  25.889  27.649  1.00  0.00    -0.248 NA
ATOM     40  C   UNL A   1      46.204  25.988  25.351  1.00  0.00     0.031 C 
ATOM     41  C   UNL A   1      42.242  24.105  27.294  1.00  0.00     0.029 A 
ATOM     42  N   UNL A   1      43.285  25.810  28.251  1.00  0.00    -0.354 N 
ATOM     43  C   UNL A   1      47.423  26.814  27.098  1.00  0.00     0.074 A 
ATOM     44  C   UNL A   1      47.244  26.757  25.669  1.00  0.00     0.031 C 
ATOM     45  C   UNL A   1      41.292  24.886  27.856  1.00  0.00     0.029 A 
ATOM     46  C   UNL A   1      41.936  26.032  28.476  1.00  0.00     0.049 A 
ATOM     47  H   UNL A   1      43.995  26.349  28.670  1.00  0.00     0.167 HD
ATOM     48  C   UNL A   1      48.121  27.698  27.861  1.00  0.00     0.031 A 
ATOM     49  C   UNL A   1      41.390  27.127  29.056  1.00  0.00     0.031 A 
ATOM     50  C   UNL A   1      48.155  27.320  29.245  1.00  0.00     0.049 A 
ATOM     51  C   UNL A   1      42.459  27.824  29.807  1.00  0.00     0.074 A 
ATOM     52  C   UNL A   1      48.672  26.251  29.948  1.00  0.00     0.029 A 
ATOM     53  N   UNL A   1      47.279  27.946  30.098  1.00  0.00    -0.354 N 
ATOM     54  N   UNL A   1      43.026  27.341  30.875  1.00  0.00    -0.248 NA
ATOM     55  C   UNL A   1      43.198  28.884  29.136  1.00  0.00     0.031 C 
ATOM     56  C   UNL A   1      47.739  26.016  30.999  1.00  0.00     0.029 A 
ATOM     57  C   UNL A   1      46.729  26.975  30.893  1.00  0.00     0.049 A 
ATOM     58  H   UNL A   1      47.084  28.911  30.131  1.00  0.00     0.167 HD
ATOM     59  C   UNL A   1      44.357  27.722  30.777  1.00  0.00     0.074 A 
ATOM     60  C   UNL A   1      44.378  28.761  29.751  1.00  0.00     0.031 C 
ATOM     61  C   UNL A   1      45.351  26.967  31.331  1.00  0.00     0.031 A 
BRANCH  48  62
ATOM     62  C   UNL A   1      48.477  29.084  27.401  1.00  0.00    -0.014 A 
ATOM     63  C   UNL A   1      49.832  29.445  27.307  1.00  0.00     0.009 A 
ATOM     64  C   UNL A   1      47.533  30.125  27.321  1.00  0.00     0.009 A 
ATOM     65  C   UNL A   1      50.220  30.786  27.195  1.00  0.00     0.001 A 
ATOM     66  C   UNL A   1      47.915  31.460  27.167  1.00  0.00     0.001 A 
ATOM     67  C   UNL A   1      49.261  31.793  27.131  1.00  0.00     0.000 A 
ENDBRANCH  48  62
BRANCH  49  68
ATOM     68  C   UNL A   1      40.091  27.758  28.749  1.00  0.00    -0.014 A 
ATOM     69  C   UNL A   1      39.091  27.861  29.725  1.00  0.00     0.009 A 
ATOM     70  C   UNL A   1      39.926  28.492  27.559  1.00  0.00     0.009 A 
ATOM     71  C   UNL A   1      37.980  28.692  29.529  1.00  0.00     0.001 A 
ATOM     72  C   UNL A   1      38.816  29.317  27.359  1.00  0.00     0.001 A 
ATOM     73  C   UNL A   1      37.849  29.428  28.352  1.00  0.00     0.000 A 
ENDBRANCH  49  68
BRANCH  61  74
ATOM     74  C   UNL A   1      44.952  25.833  32.243  1.00  0.00    -0.014 A 
ATOM     75  C   UNL A   1      44.583  24.566  31.755  1.00  0.00     0.009 A 
ATOM     76  C   UNL A   1      45.125  25.990  33.625  1.00  0.00     0.009 A 
ATOM     77  C   UNL A   1      44.373  23.495  32.630  1.00  0.00     0.001 A 
ATOM     78  C   UNL A   1      44.935  24.915  34.496  1.00  0.00     0.001 A 
ATOM     79  C   UNL A   1      44.556  23.669  33.999  1.00  0.00     0.000 A 
ENDBRANCH  61  74
ENDBRANCH  35  36
ENDBRANCH  28  30
ENDBRANCH  27  28
ENDBRANCH  26  27
ENDBRANCH   1  26
TORSDOF 15
ENDMDL
MODEL 2
REMARK VINA RESULT:     -11.2      6.203     11.064
REMARK SMILES CC1=C[C@@H]([C@@H]2N=N[C@H](S)N2/N=C/c2ccc(C(=O)OCCOC(=O)c3ccc(-c4c5nc(c(-c6ccccc6)c6ccc([nH]6)c(-c6ccccc6)c6nc(c(-c7ccccc7)c7ccc4[nH]7)C=C6)C=C5)cc3)cc2)N=N1
REMARK SMILES IDX 20 1 19 2 17 3 18 4 16 5 13 6 14 7 74 8 15 9 73 10 12 11
REMARK SMILES IDX 11 12 10 13 5 14 6 15 7 16 8 17 4 18 1 19 2 20 3 21 76 22
REMARK SMILES IDX 75 23 9 24 21 26 22 27 23 28 24 29 25 30 26 31 72 32 27 33
REMARK SMILES IDX 71 34 28 35 29 36 30 37 65 38 31 39 70 40 64 41 66 42 32 43
REMARK SMILES IDX 69 44 63 45 62 46 33 48 55 49 40 50 54 51 41 52 44 53 53 54
REMARK SMILES IDX 67 55 42 56 43 57 52 59 68 60 45 61 34 62 35 63 39 64 36 65
REMARK SMILES IDX 38 66 37 67 56 68 57 69 61 70 58 71 60 72 59 73 46 74 47 75
REMARK SMILES IDX 51 76 48 77 50 78 49 79
REMARK H PARENT 9 25 66 47 44 58
REMARK Flexibility Score: inf
ROOT
ATOM      1  C   UNL A   1      33.927  35.256  29.035  1.00  0.00     0.275 C 
ENDROOT
BRANCH   1   2
ATOM      2  O   UNL A   1      33.646  33.851  28.926  1.00  0.00    -0.458 OA
BRANCH   2   3
ATOM      3  C   UNL A   1      34.306  33.199  27.940  1.00  0.00     0.338 C 
ATOM      4  O   UNL A   1      35.420  33.466  27.512  1.00  0.00    -0.246 OA
BRANCH   3   5
ATOM      5  C   UNL A   1      33.531  32.018  27.484  1.00  0.00     0.060 A 
ATOM      6  C   UNL A   1      32.237  29.772  26.470  1.00  0.00    -0.005 A 
ATOM      7  C   UNL A   1      33.517  29.640  27.011  1.00  0.00     0.010 A 
ATOM      8  C   UNL A   1      31.570  31.001  26.502  1.00  0.00     0.010 A 
ATOM      9  C   UNL A   1      34.168  30.767  27.507  1.00  0.00     0.016 A 
ATOM     10  C   UNL A   1      32.215  32.126  27.020  1.00  0.00     0.016 A 
BRANCH   6  11
ATOM     11  C   UNL A   1      31.657  28.615  25.767  1.00  0.00     0.141 C 
ATOM     12  N   UNL A   1      32.364  27.932  24.927  1.00  0.00    -0.180 NA
BRANCH  12  13
ATOM     13  N   UNL A   1      31.802  26.839  24.384  1.00  0.00    -0.233 NA
ATOM     14  C   UNL A   1      31.174  25.792  25.180  1.00  0.00     0.274 C 
ATOM     15  N   UNL A   1      30.616  24.796  24.226  1.00  0.00    -0.161 NA
ATOM     16  N   UNL A   1      30.899  25.113  23.044  1.00  0.00    -0.153 NA
ATOM     17  C   UNL A   1      31.718  26.346  23.018  1.00  0.00     0.298 C 
BRANCH  14  18
ATOM     18  C   UNL A   1      32.138  25.122  26.193  1.00  0.00     0.201 C 
ATOM     19  C   UNL A   1      32.950  21.524  25.924  1.00  0.00     0.068 C 
ATOM     20  C   UNL A   1      32.530  22.911  26.240  1.00  0.00     0.058 C 
ATOM     21  C   UNL A   1      32.964  24.014  25.638  1.00  0.00     0.031 C 
ATOM     22  N   UNL A   1      31.593  23.175  27.206  1.00  0.00    -0.160 NA
ATOM     23  N   UNL A   1      31.360  24.418  27.259  1.00  0.00    -0.177 NA
ENDBRANCH  14  18
BRANCH  17  24
ATOM     24  S   UNL A   1      33.366  26.098  22.261  1.00  0.00    -0.128 SA
ATOM     25  H   UNL A   1      34.000  27.296  22.151  1.00  0.00     0.106 HD
ENDBRANCH  17  24
ENDBRANCH  12  13
ENDBRANCH   6  11
ENDBRANCH   3   5
ENDBRANCH   2   3
ENDBRANCH   1   2
BRANCH   1  26
ATOM     26  C   UNL A   1      32.923  35.944  29.951  1.00  0.00     0.275 C 
BRANCH  26  27
ATOM     27  O   UNL A   1      32.512  35.092  31.021  1.00  0.00    -0.458 OA
BRANCH  27  28
ATOM     28  C   UNL A   1      32.898  35.477  32.257  1.00  0.00     0.338 C 
ATOM     29  O   UNL A   1      32.456  36.404  32.917  1.00  0.00    -0.246 OA
BRANCH  28  30
ATOM     30  C   UNL A   1      34.110  34.737  32.635  1.00  0.00     0.060 A 
ATOM     31  C   UNL A   1      35.264  35.480  32.904  1.00  0.00     0.016 A 
ATOM     32  C   UNL A   1      34.158  33.346  32.461  1.00  0.00     0.016 A 
ATOM     33  C   UNL A   1      36.491  34.848  32.831  1.00  0.00     0.010 A 
ATOM     34  C   UNL A   1      35.382  32.720  32.385  1.00  0.00     0.010 A 
ATOM     35  C   UNL A   1      36.536  33.492  32.492  1.00  0.00    -0.014 A 
BRANCH  35  36
ATOM     36  C   UNL A   1      37.834  32.889  32.254  1.00  0.00     0.031 A 
ATOM     37  C   UNL A   1      38.743  32.857  33.423  1.00  0.00     0.074 A 
ATOM     38  C   UNL A   1      38.135  32.277  31.094  1.00  0.00     0.049 A 
ATOM     39  N   UNL A   1      39.931  33.353  33.526  1.00  0.00    -0.248 NA
ATOM     40  C   UNL A   1      38.225  32.258  34.664  1.00  0.00     0.031 C 
ATOM     41  C   UNL A   1      37.239  31.955  29.978  1.00  0.00     0.029 A 
ATOM     42  N   UNL A   1      39.306  31.690  30.731  1.00  0.00    -0.354 N 
ATOM     43  C   UNL A   1      40.376  33.014  34.800  1.00  0.00     0.074 A 
ATOM     44  C   UNL A   1      39.252  32.437  35.492  1.00  0.00     0.031 C 
ATOM     45  C   UNL A   1      37.832  31.029  29.191  1.00  0.00     0.029 A 
ATOM     46  C   UNL A   1      39.187  30.808  29.669  1.00  0.00     0.049 A 
ATOM     47  H   UNL A   1      40.162  31.874  31.182  1.00  0.00     0.167 HD
ATOM     48  C   UNL A   1      41.690  33.065  35.150  1.00  0.00     0.031 A 
ATOM     49  C   UNL A   1      40.112  29.903  29.270  1.00  0.00     0.031 A 
ATOM     50  C   UNL A   1      42.469  33.854  34.238  1.00  0.00     0.049 A 
ATOM     51  C   UNL A   1      41.417  30.306  29.843  1.00  0.00     0.074 A 
ATOM     52  C   UNL A   1      42.480  35.182  33.866  1.00  0.00     0.029 A 
ATOM     53  N   UNL A   1      43.200  33.187  33.285  1.00  0.00    -0.354 N 
ATOM     54  N   UNL A   1      42.068  31.373  29.479  1.00  0.00    -0.248 NA
ATOM     55  C   UNL A   1      41.814  29.742  31.125  1.00  0.00     0.031 C 
ATOM     56  C   UNL A   1      42.805  35.173  32.479  1.00  0.00     0.029 A 
ATOM     57  C   UNL A   1      43.006  33.844  32.098  1.00  0.00     0.049 A 
ATOM     58  H   UNL A   1      43.758  32.389  33.428  1.00  0.00     0.167 HD
ATOM     59  C   UNL A   1      42.645  31.855  30.646  1.00  0.00     0.074 A 
ATOM     60  C   UNL A   1      42.550  30.752  31.597  1.00  0.00     0.031 C 
ATOM     61  C   UNL A   1      42.890  33.187  30.815  1.00  0.00     0.031 A 
BRANCH  48  62
ATOM     62  C   UNL A   1      42.322  32.115  36.128  1.00  0.00    -0.014 A 
ATOM     63  C   UNL A   1      42.853  32.621  37.326  1.00  0.00     0.009 A 
ATOM     64  C   UNL A   1      42.657  30.789  35.792  1.00  0.00     0.009 A 
ATOM     65  C   UNL A   1      43.719  31.855  38.117  1.00  0.00     0.001 A 
ATOM     66  C   UNL A   1      43.487  30.008  36.599  1.00  0.00     0.001 A 
ATOM     67  C   UNL A   1      44.040  30.552  37.750  1.00  0.00     0.000 A 
ENDBRANCH  48  62
BRANCH  49  68
ATOM     68  C   UNL A   1      39.875  28.567  28.690  1.00  0.00    -0.014 A 
ATOM     69  C   UNL A   1      40.401  28.222  27.437  1.00  0.00     0.009 A 
ATOM     70  C   UNL A   1      39.341  27.535  29.485  1.00  0.00     0.009 A 
ATOM     71  C   UNL A   1      40.417  26.887  27.010  1.00  0.00     0.001 A 
ATOM     72  C   UNL A   1      39.352  26.205  29.058  1.00  0.00     0.001 A 
ATOM     73  C   UNL A   1      39.904  25.879  27.824  1.00  0.00     0.000 A 
ENDBRANCH  49  68
BRANCH  61  74
ATOM     74  C   UNL A   1      42.727  34.093  29.619  1.00  0.00    -0.014 A 
ATOM     75  C   UNL A   1      41.514  34.739  29.322  1.00  0.00     0.009 A 
ATOM     76  C   UNL A   1      43.867  34.444  28.882  1.00  0.00     0.009 A 
ATOM     77  C   UNL A   1      41.441  35.693  28.300  1.00  0.00     0.001 A 
ATOM     78  C   UNL A   1      43.798  35.411  27.876  1.00  0.00     0.001 A 
ATOM     79  C   UNL A   1      42.586  36.033  27.584  1.00  0.00     0.000 A 
ENDBRANCH  61  74
ENDBRANCH  35  36
ENDBRANCH  28  30
ENDBRANCH  27  28
ENDBRANCH  26  27
ENDBRANCH   1  26
TORSDOF 15
ENDMDL
MODEL 3
REMARK VINA RESULT:     -11.0      3.078      4.561
REMARK SMILES CC1=C[C@@H]([C@@H]2N=N[C@H](S)N2/N=C/c2ccc(C(=O)OCCOC(=O)c3ccc(-c4c5nc(c(-c6ccccc6)c6ccc([nH]6)c(-c6ccccc6)c6nc(c(-c7ccccc7)c7ccc4[nH]7)C=C6)C=C5)cc3)cc2)N=N1
REMARK SMILES IDX 20 1 19 2 17 3 18 4 16 5 13 6 14 7 74 8 15 9 73 10 12 11
REMARK SMILES IDX 11 12 10 13 5 14 6 15 7 16 8 17 4 18 1 19 2 20 3 21 76 22
REMARK SMILES IDX 75 23 9 24 21 26 22 27 23 28 24 29 25 30 26 31 72 32 27 33
REMARK SMILES IDX 71 34 28 35 29 36 30 37 65 38 31 39 70 40 64 41 66 42 32 43
REMARK SMILES IDX 69 44 63 45 62 46 33 48 55 49 40 50 54 51 41 52 44 53 53 54
REMARK SMILES IDX 67 55 42 56 43 57 52 59 68 60 45 61 34 62 35 63 39 64 36 65
REMARK SMILES IDX 38 66 37 67 56 68 57 69 61 70 58 71 60 72 59 73 46 74 47 75
REMARK SMILES IDX 51 76 48 77 50 78 49 79
REMARK H PARENT 9 25 66 47 44 58
REMARK Flexibility Score: inf
ROOT
ATOM      1  C   UNL A   1      42.561  20.322  26.068  1.00  0.00     0.275 C 
ENDROOT
BRANCH   1   2
ATOM      2  O   UNL A   1      41.177  20.610  25.814  1.00  0.00    -0.458 OA
BRANCH   2   3
ATOM      3  C   UNL A   1      40.502  21.180  26.840  1.00  0.00     0.338 C 
ATOM      4  O   UNL A   1      40.801  21.127  28.025  1.00  0.00    -0.246 OA
BRANCH   3   5
ATOM      5  C   UNL A   1      39.365  21.989  26.333  1.00  0.00     0.060 A 
ATOM      6  C   UNL A   1      37.166  23.528  25.598  1.00  0.00    -0.005 A 
ATOM      7  C   UNL A   1      38.156  24.089  26.406  1.00  0.00     0.010 A 
ATOM      8  C   UNL A   1      37.304  22.231  25.093  1.00  0.00     0.010 A 
ATOM      9  C   UNL A   1      39.250  23.313  26.784  1.00  0.00     0.016 A 
ATOM     10  C   UNL A   1      38.412  21.462  25.453  1.00  0.00     0.016 A 
BRANCH   6  11
ATOM     11  C   UNL A   1      35.926  24.294  25.387  1.00  0.00     0.141 C 
ATOM     12  N   UNL A   1      35.218  24.122  24.318  1.00  0.00    -0.180 NA
BRANCH  12  13
ATOM     13  N   UNL A   1      34.055  24.789  24.227  1.00  0.00    -0.233 NA
ATOM     14  C   UNL A   1      33.040  24.757  25.272  1.00  0.00     0.274 C 
ATOM     15  N   UNL A   1      31.941  25.661  24.837  1.00  0.00    -0.161 NA
ATOM     16  N   UNL A   1      32.180  26.128  23.695  1.00  0.00    -0.153 NA
ATOM     17  C   UNL A   1      33.453  25.584  23.168  1.00  0.00     0.298 C 
BRANCH  14  18
ATOM     18  C   UNL A   1      32.508  23.332  25.574  1.00  0.00     0.201 C 
ATOM     19  C   UNL A   1      29.247  22.853  27.251  1.00  0.00     0.068 C 
ATOM     20  C   UNL A   1      30.647  22.942  26.769  1.00  0.00     0.058 C 
ATOM     21  C   UNL A   1      31.028  23.186  25.519  1.00  0.00     0.031 C 
ATOM     22  N   UNL A   1      31.711  22.799  27.623  1.00  0.00    -0.160 NA
ATOM     23  N   UNL A   1      32.798  22.964  26.995  1.00  0.00    -0.177 NA
ENDBRANCH  14  18
BRANCH  17  24
ATOM     24  S   UNL A   1      33.243  24.638  21.615  1.00  0.00    -0.128 SA
ATOM     25  H   UNL A   1      32.086  25.014  21.008  1.00  0.00     0.106 HD
ENDBRANCH  17  24
ENDBRANCH  12  13
ENDBRANCH   6  11
ENDBRANCH   3   5
ENDBRANCH   2   3
ENDBRANCH   1   2
BRANCH   1  26
ATOM     26  C   UNL A   1      43.454  21.445  25.557  1.00  0.00     0.275 C 
BRANCH  26  27
ATOM     27  O   UNL A   1      42.690  22.551  25.076  1.00  0.00    -0.458 OA
BRANCH  27  28
ATOM     28  C   UNL A   1      43.309  23.752  25.118  1.00  0.00     0.338 C 
ATOM     29  O   UNL A   1      44.424  24.026  24.705  1.00  0.00    -0.246 OA
BRANCH  28  30
ATOM     30  C   UNL A   1      42.516  24.674  25.942  1.00  0.00     0.060 A 
ATOM     31  C   UNL A   1      41.916  25.762  25.302  1.00  0.00     0.016 A 
ATOM     32  C   UNL A   1      42.598  24.602  27.341  1.00  0.00     0.016 A 
ATOM     33  C   UNL A   1      41.548  26.858  26.059  1.00  0.00     0.010 A 
ATOM     34  C   UNL A   1      42.235  25.696  28.093  1.00  0.00     0.010 A 
ATOM     35  C   UNL A   1      41.788  26.840  27.437  1.00  0.00    -0.014 A 
BRANCH  35  36
ATOM     36  C   UNL A   1      41.553  28.059  28.188  1.00  0.00     0.031 A 
ATOM     37  C   UNL A   1      42.582  29.113  28.027  1.00  0.00     0.074 A 
ATOM     38  C   UNL A   1      40.411  28.269  28.869  1.00  0.00     0.049 A 
ATOM     39  N   UNL A   1      43.289  29.685  28.944  1.00  0.00    -0.248 NA
ATOM     40  C   UNL A   1      42.916  29.525  26.655  1.00  0.00     0.031 C 
ATOM     41  C   UNL A   1      39.186  27.462  28.858  1.00  0.00     0.029 A 
ATOM     42  N   UNL A   1      40.066  29.347  29.622  1.00  0.00    -0.354 N 
ATOM     43  C   UNL A   1      44.068  30.633  28.287  1.00  0.00     0.074 A 
ATOM     44  C   UNL A   1      43.878  30.419  26.874  1.00  0.00     0.031 C 
ATOM     45  C   UNL A   1      38.170  28.198  29.363  1.00  0.00     0.029 A 
ATOM     46  C   UNL A   1      38.705  29.457  29.854  1.00  0.00     0.049 A 
ATOM     47  H   UNL A   1      40.724  29.991  29.971  1.00  0.00     0.167 HD
ATOM     48  C   UNL A   1      44.684  31.652  28.945  1.00  0.00     0.031 A 
ATOM     49  C   UNL A   1      38.059  30.544  30.338  1.00  0.00     0.031 A 
ATOM     50  C   UNL A   1      44.773  31.417  30.358  1.00  0.00     0.049 A 
ATOM     51  C   UNL A   1      39.063  31.413  30.995  1.00  0.00     0.074 A 
ATOM     52  C   UNL A   1      45.403  30.478  31.149  1.00  0.00     0.029 A 
ATOM     53  N   UNL A   1      43.850  32.035  31.166  1.00  0.00    -0.354 N 
ATOM     54  N   UNL A   1      39.689  31.095  32.091  1.00  0.00    -0.248 NA
ATOM     55  C   UNL A   1      39.684  32.469  30.209  1.00  0.00     0.031 C 
ATOM     56  C   UNL A   1      44.511  30.257  32.238  1.00  0.00     0.029 A 
ATOM     57  C   UNL A   1      43.409  31.098  32.063  1.00  0.00     0.049 A 
ATOM     58  H   UNL A   1      43.560  32.974  31.110  1.00  0.00     0.167 HD
ATOM     59  C   UNL A   1      40.974  31.593  31.927  1.00  0.00     0.074 A 
ATOM     60  C   UNL A   1      40.878  32.523  30.806  1.00  0.00     0.031 C 
ATOM     61  C   UNL A   1      42.044  30.998  32.530  1.00  0.00     0.031 A 
BRANCH  48  62
ATOM     62  C   UNL A   1      44.895  33.015  28.346  1.00  0.00    -0.014 A 
ATOM     63  C   UNL A   1      43.782  33.844  28.128  1.00  0.00     0.009 A 
ATOM     64  C   UNL A   1      46.106  33.400  27.740  1.00  0.00     0.009 A 
ATOM     65  C   UNL A   1      43.867  34.971  27.301  1.00  0.00     0.001 A 
ATOM     66  C   UNL A   1      46.205  34.546  26.948  1.00  0.00     0.001 A 
ATOM     67  C   UNL A   1      45.077  35.317  26.707  1.00  0.00     0.000 A 
ENDBRANCH  48  62
BRANCH  49  68
ATOM     68  C   UNL A   1      36.700  31.012  30.001  1.00  0.00    -0.014 A 
ATOM     69  C   UNL A   1      35.947  31.759  30.917  1.00  0.00     0.009 A 
ATOM     70  C   UNL A   1      36.237  30.940  28.673  1.00  0.00     0.009 A 
ATOM     71  C   UNL A   1      34.788  32.434  30.510  1.00  0.00     0.001 A 
ATOM     72  C   UNL A   1      35.079  31.608  28.268  1.00  0.00     0.001 A 
ATOM     73  C   UNL A   1      34.362  32.368  29.184  1.00  0.00     0.000 A 
ENDBRANCH  49  68
BRANCH  61  74
ATOM     74  C   UNL A   1      41.772  29.925  33.555  1.00  0.00    -0.014 A 
ATOM     75  C   UNL A   1      41.625  28.570  33.209  1.00  0.00     0.009 A 
ATOM     76  C   UNL A   1      41.845  30.260  34.914  1.00  0.00     0.009 A 
ATOM     77  C   UNL A   1      41.530  27.583  34.197  1.00  0.00     0.001 A 
ATOM     78  C   UNL A   1      41.772  29.274  35.900  1.00  0.00     0.001 A 
ATOM     79  C   UNL A   1      41.612  27.936  35.542  1.00  0.00     0.000 A 
ENDBRANCH  61  74
ENDBRANCH  35  36
ENDBRANCH  28  30
ENDBRANCH  27  28
ENDBRANCH  26  27
ENDBRANCH   1  26
TORSDOF 15
ENDMDL
