MODEL 1
REMARK VINA RESULT:     -11.3      0.000      0.000
REMARK SMILES Cc1ccc(O[C@H](C)C(=O)Nc2ccsc2C(=O)OCCOC(=O)c2ccc(-c3c4nc(c(-c5ccccc5)c5ccc([nH]5)c(-c5ccccc5)c5nc(c(-c6ccccc6)c6ccc3[nH]6)C=C5)C=C4)cc2)cc1
REMARK SMILES IDX 20 1 19 2 17 3 18 4 16 5 12 6 13 7 14 8 15 9 11 10 9 11
REMARK SMILES IDX 10 12 7 14 8 15 6 16 5 17 1 18 2 19 3 20 74 21 4 22 73 23
REMARK SMILES IDX 21 24 22 25 23 26 24 27 25 28 26 29 72 30 27 31 71 32 28 33
REMARK SMILES IDX 29 34 30 35 65 36 31 37 70 38 64 39 66 40 32 41 69 42 63 43
REMARK SMILES IDX 62 44 33 46 55 47 40 48 54 49 41 50 44 51 53 52 67 53 42 54
REMARK SMILES IDX 43 55 52 57 68 58 45 59 34 60 35 61 39 62 36 63 38 64 37 65
REMARK SMILES IDX 56 66 57 67 61 68 58 69 60 70 59 71 46 72 47 73 51 74 48 75
REMARK SMILES IDX 50 76 49 77
REMARK H PARENT 11 13 66 45 44 56
REMARK Flexibility Score: inf
ROOT
ATOM      1  C   UNL A   1      33.229  29.847  26.895  1.00  0.00     0.275 C 
ENDROOT
BRANCH   1   2
ATOM      2  O   UNL A   1      32.585  30.148  25.651  1.00  0.00    -0.458 OA
BRANCH   2   3
ATOM      3  C   UNL A   1      32.818  29.194  24.702  1.00  0.00     0.350 C 
ATOM      4  O   UNL A   1      33.893  28.609  24.579  1.00  0.00    -0.245 OA
BRANCH   3   5
ATOM      5  C   UNL A   1      31.692  28.949  23.823  1.00  0.00     0.136 A 
ATOM      6  C   UNL A   1      31.720  28.073  22.755  1.00  0.00     0.066 A 
ATOM      7  C   UNL A   1      30.428  27.801  22.231  1.00  0.00     0.039 A 
ATOM      8  C   UNL A   1      29.480  28.634  22.783  1.00  0.00     0.068 A 
ATOM      9  S   UNL A   1      30.171  29.709  23.921  1.00  0.00    -0.135 S 
BRANCH   6  10
ATOM     10  N   UNL A   1      32.926  27.579  22.271  1.00  0.00    -0.321 N 
ATOM     11  C   UNL A   1      33.122  26.204  22.268  1.00  0.00     0.265 C 
ATOM     12  O   UNL A   1      33.690  25.683  21.305  1.00  0.00    -0.270 OA
ATOM     13  H   UNL A   1      33.623  28.190  21.939  1.00  0.00     0.170 HD
BRANCH  11  14
ATOM     14  C   UNL A   1      32.688  25.379  23.509  1.00  0.00     0.259 C 
ATOM     15  C   UNL A   1      31.975  24.149  22.963  1.00  0.00     0.064 C 
BRANCH  14  16
ATOM     16  O   UNL A   1      33.758  25.277  24.449  1.00  0.00    -0.481 OA
BRANCH  16  17
ATOM     17  C   UNL A   1      34.715  24.315  24.563  1.00  0.00     0.120 A 
ATOM     18  C   UNL A   1      38.202  21.825  25.251  1.00  0.00     0.044 C 
ATOM     19  C   UNL A   1      36.961  22.645  25.056  1.00  0.00    -0.051 A 
ATOM     20  C   UNL A   1      36.334  22.666  23.810  1.00  0.00     0.007 A 
ATOM     21  C   UNL A   1      36.434  23.437  26.076  1.00  0.00     0.007 A 
ATOM     22  C   UNL A   1      35.215  23.481  23.574  1.00  0.00     0.047 A 
ATOM     23  C   UNL A   1      35.319  24.253  25.829  1.00  0.00     0.047 A 
ENDBRANCH  16  17
ENDBRANCH  14  16
ENDBRANCH  11  14
ENDBRANCH   6  10
ENDBRANCH   3   5
ENDBRANCH   2   3
ENDBRANCH   1   2
BRANCH   1  24
ATOM     24  C   UNL A   1      34.006  31.034  27.477  1.00  0.00     0.275 C 
BRANCH  24  25
ATOM     25  O   UNL A   1      35.448  30.919  27.642  1.00  0.00    -0.458 OA
BRANCH  25  26
ATOM     26  C   UNL A   1      36.203  30.923  28.767  1.00  0.00     0.338 C 
ATOM     27  O   UNL A   1      35.923  31.632  29.729  1.00  0.00    -0.246 OA
BRANCH  26  28
ATOM     28  C   UNL A   1      37.354  30.012  28.838  1.00  0.00     0.060 A 
ATOM     29  C   UNL A   1      37.398  29.047  29.854  1.00  0.00     0.016 A 
ATOM     30  C   UNL A   1      38.336  30.050  27.858  1.00  0.00     0.016 A 
ATOM     31  C   UNL A   1      38.345  28.034  29.824  1.00  0.00     0.010 A 
ATOM     32  C   UNL A   1      39.192  28.985  27.738  1.00  0.00     0.010 A 
ATOM     33  C   UNL A   1      39.231  28.019  28.755  1.00  0.00    -0.014 A 
BRANCH  33  34
ATOM     34  C   UNL A   1      40.503  27.328  28.826  1.00  0.00     0.031 A 
ATOM     35  C   UNL A   1      40.628  25.900  28.540  1.00  0.00     0.074 A 
ATOM     36  C   UNL A   1      41.504  28.188  29.115  1.00  0.00     0.049 A 
ATOM     37  N   UNL A   1      41.532  25.150  29.063  1.00  0.00    -0.248 NA
ATOM     38  C   UNL A   1      39.706  25.162  27.675  1.00  0.00     0.031 C 
ATOM     39  C   UNL A   1      42.945  28.073  29.055  1.00  0.00     0.029 A 
ATOM     40  N   UNL A   1      41.297  29.432  29.729  1.00  0.00    -0.354 N 
ATOM     41  C   UNL A   1      41.559  23.996  28.311  1.00  0.00     0.074 A 
ATOM     42  C   UNL A   1      40.305  23.967  27.599  1.00  0.00     0.031 C 
ATOM     43  C   UNL A   1      43.474  29.026  29.854  1.00  0.00     0.029 A 
ATOM     44  C   UNL A   1      42.371  29.661  30.578  1.00  0.00     0.049 A 
ATOM     45  H   UNL A   1      40.531  30.034  29.584  1.00  0.00     0.167 HD
ATOM     46  C   UNL A   1      42.739  23.329  28.182  1.00  0.00     0.031 A 
ATOM     47  C   UNL A   1      42.120  29.563  31.920  1.00  0.00     0.031 A 
ATOM     48  C   UNL A   1      43.790  24.011  28.934  1.00  0.00     0.049 A 
ATOM     49  C   UNL A   1      42.810  28.362  32.536  1.00  0.00     0.074 A 
ATOM     50  C   UNL A   1      44.767  24.923  28.566  1.00  0.00     0.029 A 
ATOM     51  N   UNL A   1      43.658  24.120  30.307  1.00  0.00    -0.354 N 
ATOM     52  N   UNL A   1      43.261  27.344  31.856  1.00  0.00    -0.248 NA
ATOM     53  C   UNL A   1      42.980  28.188  33.974  1.00  0.00     0.031 C 
ATOM     54  C   UNL A   1      45.206  25.597  29.743  1.00  0.00     0.029 A 
ATOM     55  C   UNL A   1      44.502  25.086  30.817  1.00  0.00     0.049 A 
ATOM     56  H   UNL A   1      43.041  23.577  30.850  1.00  0.00     0.167 HD
ATOM     57  C   UNL A   1      43.836  26.439  32.703  1.00  0.00     0.074 A 
ATOM     58  C   UNL A   1      43.574  26.983  34.025  1.00  0.00     0.031 C 
ATOM     59  C   UNL A   1      44.481  25.322  32.252  1.00  0.00     0.031 A 
BRANCH  46  60
ATOM     60  C   UNL A   1      43.016  22.285  27.133  1.00  0.00    -0.014 A 
ATOM     61  C   UNL A   1      42.175  21.157  27.055  1.00  0.00     0.009 A 
ATOM     62  C   UNL A   1      44.073  22.338  26.209  1.00  0.00     0.009 A 
ATOM     63  C   UNL A   1      42.408  20.111  26.157  1.00  0.00     0.001 A 
ATOM     64  C   UNL A   1      44.323  21.280  25.317  1.00  0.00     0.001 A 
ATOM     65  C   UNL A   1      43.495  20.164  25.297  1.00  0.00     0.000 A 
ENDBRANCH  46  60
BRANCH  47  66
ATOM     66  C   UNL A   1      40.768  30.075  32.361  1.00  0.00    -0.014 A 
ATOM     67  C   UNL A   1      40.314  31.330  31.889  1.00  0.00     0.009 A 
ATOM     68  C   UNL A   1      39.835  29.265  33.026  1.00  0.00     0.009 A 
ATOM     69  C   UNL A   1      38.969  31.711  31.984  1.00  0.00     0.001 A 
ATOM     70  C   UNL A   1      38.494  29.664  33.153  1.00  0.00     0.001 A 
ATOM     71  C   UNL A   1      38.056  30.872  32.609  1.00  0.00     0.000 A 
ENDBRANCH  47  66
BRANCH  59  72
ATOM     72  C   UNL A   1      45.134  24.296  33.138  1.00  0.00    -0.014 A 
ATOM     73  C   UNL A   1      44.484  23.152  33.608  1.00  0.00     0.009 A 
ATOM     74  C   UNL A   1      46.450  24.510  33.606  1.00  0.00     0.009 A 
ATOM     75  C   UNL A   1      45.157  22.208  34.390  1.00  0.00     0.001 A 
ATOM     76  C   UNL A   1      47.119  23.588  34.407  1.00  0.00     0.001 A 
ATOM     77  C   UNL A   1      46.477  22.419  34.777  1.00  0.00     0.000 A 
ENDBRANCH  59  72
ENDBRANCH  33  34
ENDBRANCH  26  28
ENDBRANCH  25  26
ENDBRANCH  24  25
ENDBRANCH   1  24
TORSDOF 15
ENDMDL
MODEL 2
REMARK VINA RESULT:     -11.3      3.854      6.424
REMARK SMILES Cc1ccc(O[C@H](C)C(=O)Nc2ccsc2C(=O)OCCOC(=O)c2ccc(-c3c4nc(c(-c5ccccc5)c5ccc([nH]5)c(-c5ccccc5)c5nc(c(-c6ccccc6)c6ccc3[nH]6)C=C5)C=C4)cc2)cc1
REMARK SMILES IDX 20 1 19 2 17 3 18 4 16 5 12 6 13 7 14 8 15 9 11 10 9 11
REMARK SMILES IDX 10 12 7 14 8 15 6 16 5 17 1 18 2 19 3 20 74 21 4 22 73 23
REMARK SMILES IDX 21 24 22 25 23 26 24 27 25 28 26 29 72 30 27 31 71 32 28 33
REMARK SMILES IDX 29 34 30 35 65 36 31 37 70 38 64 39 66 40 32 41 69 42 63 43
REMARK SMILES IDX 62 44 33 46 55 47 40 48 54 49 41 50 44 51 53 52 67 53 42 54
REMARK SMILES IDX 43 55 52 57 68 58 45 59 34 60 35 61 39 62 36 63 38 64 37 65
REMARK SMILES IDX 56 66 57 67 61 68 58 69 60 70 59 71 46 72 47 73 51 74 48 75
REMARK SMILES IDX 50 76 49 77
REMARK H PARENT 11 13 66 45 44 56
REMARK Flexibility Score: inf
ROOT
ATOM      1  C   UNL A   1      34.026  32.437  28.383  1.00  0.00     0.275 C 
ENDROOT
BRANCH   1   2
ATOM      2  O   UNL A   1      33.404  33.524  29.078  1.00  0.00    -0.458 OA
BRANCH   2   3
ATOM      3  C   UNL A   1      34.265  34.562  29.292  1.00  0.00     0.350 C 
ATOM      4  O   UNL A   1      35.337  34.687  28.702  1.00  0.00    -0.245 OA
BRANCH   3   5
ATOM      5  C   UNL A   1      33.821  35.497  30.306  1.00  0.00     0.136 A 
ATOM      6  C   UNL A   1      33.800  35.219  31.660  1.00  0.00     0.066 A 
ATOM      7  C   UNL A   1      33.596  36.377  32.457  1.00  0.00     0.039 A 
ATOM      8  C   UNL A   1      33.265  37.465  31.681  1.00  0.00     0.068 A 
ATOM      9  S   UNL A   1      33.220  37.064  30.019  1.00  0.00    -0.135 S 
BRANCH   6  10
ATOM     10  N   UNL A   1      33.931  33.914  32.120  1.00  0.00    -0.321 N 
ATOM     11  C   UNL A   1      34.981  33.621  32.981  1.00  0.00     0.265 C 
ATOM     12  O   UNL A   1      34.782  32.856  33.928  1.00  0.00    -0.270 OA
ATOM     13  H   UNL A   1      33.295  33.215  31.843  1.00  0.00     0.170 HD
BRANCH  11  14
ATOM     14  C   UNL A   1      36.387  34.205  32.680  1.00  0.00     0.259 C 
ATOM     15  C   UNL A   1      37.150  34.153  33.996  1.00  0.00     0.064 C 
BRANCH  14  16
ATOM     16  O   UNL A   1      36.919  33.650  31.476  1.00  0.00    -0.481 OA
BRANCH  16  17
ATOM     17  C   UNL A   1      38.208  33.342  31.166  1.00  0.00     0.120 A 
ATOM     18  C   UNL A   1      42.328  33.070  29.830  1.00  0.00     0.044 C 
ATOM     19  C   UNL A   1      40.927  33.160  30.357  1.00  0.00    -0.051 A 
ATOM     20  C   UNL A   1      40.029  32.119  30.122  1.00  0.00     0.007 A 
ATOM     21  C   UNL A   1      40.468  34.287  31.040  1.00  0.00     0.007 A 
ATOM     22  C   UNL A   1      38.691  32.205  30.536  1.00  0.00     0.047 A 
ATOM     23  C   UNL A   1      39.126  34.368  31.445  1.00  0.00     0.047 A 
ENDBRANCH  16  17
ENDBRANCH  14  16
ENDBRANCH  11  14
ENDBRANCH   6  10
ENDBRANCH   3   5
ENDBRANCH   2   3
ENDBRANCH   1   2
BRANCH   1  24
ATOM     24  C   UNL A   1      34.993  31.632  29.260  1.00  0.00     0.275 C 
BRANCH  24  25
ATOM     25  O   UNL A   1      36.203  31.090  28.659  1.00  0.00    -0.458 OA
BRANCH  25  26
ATOM     26  C   UNL A   1      36.434  29.881  28.095  1.00  0.00     0.338 C 
ATOM     27  O   UNL A   1      35.586  29.316  27.410  1.00  0.00    -0.246 OA
BRANCH  26  28
ATOM     28  C   UNL A   1      37.757  29.267  28.278  1.00  0.00     0.060 A 
ATOM     29  C   UNL A   1      38.772  29.548  27.352  1.00  0.00     0.016 A 
ATOM     30  C   UNL A   1      38.020  28.494  29.400  1.00  0.00     0.016 A 
ATOM     31  C   UNL A   1      40.083  29.172  27.607  1.00  0.00     0.010 A 
ATOM     32  C   UNL A   1      39.325  28.234  29.733  1.00  0.00     0.010 A 
ATOM     33  C   UNL A   1      40.339  28.519  28.806  1.00  0.00    -0.014 A 
BRANCH  33  34
ATOM     34  C   UNL A   1      41.519  27.699  28.993  1.00  0.00     0.031 A 
ATOM     35  C   UNL A   1      41.576  26.307  28.551  1.00  0.00     0.074 A 
ATOM     36  C   UNL A   1      42.522  28.416  29.546  1.00  0.00     0.049 A 
ATOM     37  N   UNL A   1      42.313  25.416  29.113  1.00  0.00    -0.248 NA
ATOM     38  C   UNL A   1      40.760  25.768  27.462  1.00  0.00     0.031 C 
ATOM     39  C   UNL A   1      43.937  28.164  29.705  1.00  0.00     0.029 A 
ATOM     40  N   UNL A   1      42.313  29.599  30.272  1.00  0.00    -0.354 N 
ATOM     41  C   UNL A   1      42.376  24.356  28.235  1.00  0.00     0.074 A 
ATOM     42  C   UNL A   1      41.265  24.534  27.333  1.00  0.00     0.031 C 
ATOM     43  C   UNL A   1      44.395  28.963  30.694  1.00  0.00     0.029 A 
ATOM     44  C   UNL A   1      43.239  29.621  31.305  1.00  0.00     0.049 A 
ATOM     45  H   UNL A   1      41.634  30.287  30.083  1.00  0.00     0.167 HD
ATOM     46  C   UNL A   1      43.503  23.593  28.214  1.00  0.00     0.031 A 
ATOM     47  C   UNL A   1      42.754  29.400  32.566  1.00  0.00     0.031 A 
ATOM     48  C   UNL A   1      44.460  24.077  29.207  1.00  0.00     0.049 A 
ATOM     49  C   UNL A   1      43.228  28.074  33.127  1.00  0.00     0.074 A 
ATOM     50  C   UNL A   1      45.556  24.921  29.120  1.00  0.00     0.029 A 
ATOM     51  N   UNL A   1      44.103  24.044  30.542  1.00  0.00    -0.354 N 
ATOM     52  N   UNL A   1      43.706  27.098  32.405  1.00  0.00    -0.248 NA
ATOM     53  C   UNL A   1      43.134  27.725  34.540  1.00  0.00     0.031 C 
ATOM     54  C   UNL A   1      45.838  25.412  30.429  1.00  0.00     0.029 A 
ATOM     55  C   UNL A   1      44.921  24.858  31.301  1.00  0.00     0.049 A 
ATOM     56  H   UNL A   1      43.360  23.509  30.906  1.00  0.00     0.167 HD
ATOM     57  C   UNL A   1      44.052  26.051  33.211  1.00  0.00     0.074 A 
ATOM     58  C   UNL A   1      43.611  26.467  34.532  1.00  0.00     0.031 C 
ATOM     59  C   UNL A   1      44.673  24.932  32.732  1.00  0.00     0.031 A 
BRANCH  46  60
ATOM     60  C   UNL A   1      43.872  22.650  27.100  1.00  0.00    -0.014 A 
ATOM     61  C   UNL A   1      42.979  21.614  26.761  1.00  0.00     0.009 A 
ATOM     62  C   UNL A   1      45.062  22.713  26.357  1.00  0.00     0.009 A 
ATOM     63  C   UNL A   1      43.280  20.655  25.788  1.00  0.00     0.001 A 
ATOM     64  C   UNL A   1      45.379  21.742  25.391  1.00  0.00     0.001 A 
ATOM     65  C   UNL A   1      44.490  20.710  25.112  1.00  0.00     0.000 A 
ENDBRANCH  46  60
BRANCH  47  66
ATOM     66  C   UNL A   1      41.391  29.993  32.844  1.00  0.00    -0.014 A 
ATOM     67  C   UNL A   1      40.240  29.179  32.711  1.00  0.00     0.009 A 
ATOM     68  C   UNL A   1      41.224  31.244  33.456  1.00  0.00     0.009 A 
ATOM     69  C   UNL A   1      39.006  29.554  33.258  1.00  0.00     0.001 A 
ATOM     70  C   UNL A   1      39.978  31.634  33.972  1.00  0.00     0.001 A 
ATOM     71  C   UNL A   1      38.877  30.780  33.898  1.00  0.00     0.000 A 
ENDBRANCH  47  66
BRANCH  59  72
ATOM     72  C   UNL A   1      45.079  23.752  33.574  1.00  0.00    -0.014 A 
ATOM     73  C   UNL A   1      44.184  22.778  34.025  1.00  0.00     0.009 A 
ATOM     74  C   UNL A   1      46.415  23.636  34.019  1.00  0.00     0.009 A 
ATOM     75  C   UNL A   1      44.627  21.678  34.765  1.00  0.00     0.001 A 
ATOM     76  C   UNL A   1      46.859  22.557  34.779  1.00  0.00     0.001 A 
ATOM     77  C   UNL A   1      45.965  21.560  35.129  1.00  0.00     0.000 A 
ENDBRANCH  59  72
ENDBRANCH  33  34
ENDBRANCH  26  28
ENDBRANCH  25  26
ENDBRANCH  24  25
ENDBRANCH   1  24
TORSDOF 15
ENDMDL
MODEL 3
REMARK VINA RESULT:     -11.3      3.620      8.971
REMARK SMILES Cc1ccc(O[C@H](C)C(=O)Nc2ccsc2C(=O)OCCOC(=O)c2ccc(-c3c4nc(c(-c5ccccc5)c5ccc([nH]5)c(-c5ccccc5)c5nc(c(-c6ccccc6)c6ccc3[nH]6)C=C5)C=C4)cc2)cc1
REMARK SMILES IDX 20 1 19 2 17 3 18 4 16 5 12 6 13 7 14 8 15 9 11 10 9 11
REMARK SMILES IDX 10 12 7 14 8 15 6 16 5 17 1 18 2 19 3 20 74 21 4 22 73 23
REMARK SMILES IDX 21 24 22 25 23 26 24 27 25 28 26 29 72 30 27 31 71 32 28 33
REMARK SMILES IDX 29 34 30 35 65 36 31 37 70 38 64 39 66 40 32 41 69 42 63 43
REMARK SMILES IDX 62 44 33 46 55 47 40 48 54 49 41 50 44 51 53 52 67 53 42 54
REMARK SMILES IDX 43 55 52 57 68 58 45 59 34 60 35 61 39 62 36 63 38 64 37 65
REMARK SMILES IDX 56 66 57 67 61 68 58 69 60 70 59 71 46 72 47 73 51 74 48 75
REMARK SMILES IDX 50 76 49 77
REMARK H PARENT 11 13 66 45 44 56
REMARK Flexibility Score: inf
ROOT
ATOM      1  C   UNL A   1      36.904  23.028  25.208  1.00  0.00     0.275 C 
ENDROOT
BRANCH   1   2
ATOM      2  O   UNL A   1      36.341  21.848  25.793  1.00  0.00    -0.458 OA
BRANCH   2   3
ATOM      3  C   UNL A   1      35.107  22.074  26.331  1.00  0.00     0.350 C 
ATOM      4  O   UNL A   1      34.905  22.850  27.264  1.00  0.00    -0.245 OA
BRANCH   3   5
ATOM      5  C   UNL A   1      34.047  21.292  25.725  1.00  0.00     0.136 A 
ATOM      6  C   UNL A   1      32.700  21.530  25.922  1.00  0.00     0.066 A 
ATOM      7  C   UNL A   1      31.877  20.817  25.010  1.00  0.00     0.039 A 
ATOM      8  C   UNL A   1      32.609  19.905  24.284  1.00  0.00     0.068 A 
ATOM      9  S   UNL A   1      34.264  19.940  24.713  1.00  0.00    -0.135 S 
BRANCH   6  10
ATOM     10  N   UNL A   1      32.266  22.359  26.949  1.00  0.00    -0.321 N 
ATOM     11  C   UNL A   1      31.591  23.526  26.613  1.00  0.00     0.265 C 
ATOM     12  O   UNL A   1      30.623  23.874  27.295  1.00  0.00    -0.270 OA
ATOM     13  H   UNL A   1      32.434  22.126  27.891  1.00  0.00     0.170 HD
BRANCH  11  14
ATOM     14  C   UNL A   1      32.121  24.393  25.440  1.00  0.00     0.259 C 
ATOM     15  C   UNL A   1      30.894  24.799  24.635  1.00  0.00     0.064 C 
BRANCH  14  16
ATOM     16  O   UNL A   1      33.071  25.351  25.907  1.00  0.00    -0.481 OA
BRANCH  16  17
ATOM     17  C   UNL A   1      32.899  26.676  26.169  1.00  0.00     0.120 A 
ATOM     18  C   UNL A   1      33.086  30.862  27.299  1.00  0.00     0.044 C 
ATOM     19  C   UNL A   1      33.015  29.435  26.842  1.00  0.00    -0.051 A 
ATOM     20  C   UNL A   1      31.922  28.646  27.201  1.00  0.00     0.007 A 
ATOM     21  C   UNL A   1      34.040  28.846  26.104  1.00  0.00     0.007 A 
ATOM     22  C   UNL A   1      31.860  27.288  26.854  1.00  0.00     0.047 A 
ATOM     23  C   UNL A   1      33.975  27.485  25.766  1.00  0.00     0.047 A 
ENDBRANCH  16  17
ENDBRANCH  14  16
ENDBRANCH  11  14
ENDBRANCH   6  10
ENDBRANCH   3   5
ENDBRANCH   2   3
ENDBRANCH   1   2
BRANCH   1  24
ATOM     24  C   UNL A   1      37.846  23.782  26.155  1.00  0.00     0.275 C 
BRANCH  24  25
ATOM     25  O   UNL A   1      39.194  23.273  26.359  1.00  0.00    -0.458 OA
BRANCH  25  26
ATOM     26  C   UNL A   1      40.263  23.843  26.966  1.00  0.00     0.338 C 
ATOM     27  O   UNL A   1      41.347  23.271  27.036  1.00  0.00    -0.246 OA
BRANCH  26  28
ATOM     28  C   UNL A   1      40.116  25.203  27.504  1.00  0.00     0.060 A 
ATOM     29  C   UNL A   1      40.422  26.298  26.683  1.00  0.00     0.016 A 
ATOM     30  C   UNL A   1      39.595  25.399  28.775  1.00  0.00     0.016 A 
ATOM     31  C   UNL A   1      40.088  27.586  27.072  1.00  0.00     0.010 A 
ATOM     32  C   UNL A   1      39.137  26.645  29.117  1.00  0.00     0.010 A 
ATOM     33  C   UNL A   1      39.442  27.738  28.292  1.00  0.00    -0.014 A 
BRANCH  33  34
ATOM     34  C   UNL A   1      39.444  28.999  29.006  1.00  0.00     0.031 A 
ATOM     35  C   UNL A   1      38.496  30.069  28.697  1.00  0.00     0.074 A 
ATOM     36  C   UNL A   1      40.367  28.994  29.993  1.00  0.00     0.049 A 
ATOM     37  N   UNL A   1      38.751  31.315  28.882  1.00  0.00    -0.248 NA
ATOM     38  C   UNL A   1      37.184  29.839  28.091  1.00  0.00     0.031 C 
ATOM     39  C   UNL A   1      40.601  29.867  31.123  1.00  0.00     0.029 A 
ATOM     40  N   UNL A   1      41.468  28.125  30.013  1.00  0.00    -0.354 N 
ATOM     41  C   UNL A   1      37.540  31.970  28.819  1.00  0.00     0.074 A 
ATOM     42  C   UNL A   1      36.643  31.063  28.147  1.00  0.00     0.031 C 
ATOM     43  C   UNL A   1      41.878  29.691  31.529  1.00  0.00     0.029 A 
ATOM     44  C   UNL A   1      42.539  28.824  30.552  1.00  0.00     0.049 A 
ATOM     45  H   UNL A   1      41.480  27.191  29.702  1.00  0.00     0.167 HD
ATOM     46  C   UNL A   1      37.369  33.096  29.563  1.00  0.00     0.031 A 
ATOM     47  C   UNL A   1      43.530  29.191  29.681  1.00  0.00     0.031 A 
ATOM     48  C   UNL A   1      38.591  33.405  30.304  1.00  0.00     0.049 A 
ATOM     49  C   UNL A   1      43.575  30.693  29.481  1.00  0.00     0.074 A 
ATOM     50  C   UNL A   1      38.996  33.135  31.601  1.00  0.00     0.029 A 
ATOM     51  N   UNL A   1      39.742  33.691  29.592  1.00  0.00    -0.354 N 
ATOM     52  N   UNL A   1      42.595  31.504  29.773  1.00  0.00    -0.248 NA
ATOM     53  C   UNL A   1      44.704  31.384  28.872  1.00  0.00     0.031 C 
ATOM     54  C   UNL A   1      40.416  33.243  31.651  1.00  0.00     0.029 A 
ATOM     55  C   UNL A   1      40.864  33.587  30.390  1.00  0.00     0.049 A 
ATOM     56  H   UNL A   1      39.759  33.936  28.638  1.00  0.00     0.167 HD
ATOM     57  C   UNL A   1      42.956  32.789  29.486  1.00  0.00     0.074 A 
ATOM     58  C   UNL A   1      44.261  32.654  28.860  1.00  0.00     0.031 C 
ATOM     59  C   UNL A   1      42.159  33.859  29.785  1.00  0.00     0.031 A 
BRANCH  46  60
ATOM     60  C   UNL A   1      36.032  33.711  29.882  1.00  0.00    -0.014 A 
ATOM     61  C   UNL A   1      35.271  34.267  28.834  1.00  0.00     0.009 A 
ATOM     62  C   UNL A   1      35.469  33.786  31.166  1.00  0.00     0.009 A 
ATOM     63  C   UNL A   1      34.054  34.919  29.056  1.00  0.00     0.001 A 
ATOM     64  C   UNL A   1      34.255  34.457  31.399  1.00  0.00     0.001 A 
ATOM     65  C   UNL A   1      33.552  35.029  30.345  1.00  0.00     0.000 A 
ENDBRANCH  46  60
BRANCH  47  66
ATOM     66  C   UNL A   1      43.835  28.187  28.594  1.00  0.00    -0.014 A 
ATOM     67  C   UNL A   1      44.051  26.832  28.942  1.00  0.00     0.009 A 
ATOM     68  C   UNL A   1      43.683  28.482  27.231  1.00  0.00     0.009 A 
ATOM     69  C   UNL A   1      44.010  25.810  27.984  1.00  0.00     0.001 A 
ATOM     70  C   UNL A   1      43.680  27.460  26.267  1.00  0.00     0.001 A 
ATOM     71  C   UNL A   1      43.815  26.124  26.645  1.00  0.00     0.000 A 
ENDBRANCH  47  66
BRANCH  59  72
ATOM     72  C   UNL A   1      42.508  35.293  29.495  1.00  0.00    -0.014 A 
ATOM     73  C   UNL A   1      43.324  36.073  30.318  1.00  0.00     0.009 A 
ATOM     74  C   UNL A   1      41.930  35.943  28.381  1.00  0.00     0.009 A 
ATOM     75  C   UNL A   1      43.652  37.388  29.973  1.00  0.00     0.001 A 
ATOM     76  C   UNL A   1      42.231  37.260  28.045  1.00  0.00     0.001 A 
ATOM     77  C   UNL A   1      43.118  37.976  28.829  1.00  0.00     0.000 A 
ENDBRANCH  59  72
ENDBRANCH  33  34
ENDBRANCH  26  28
ENDBRANCH  25  26
ENDBRANCH  24  25
ENDBRANCH   1  24
TORSDOF 15
ENDMDL
