MODEL 1
REMARK VINA RESULT:     -10.3      0.000      0.000
REMARK SMILES Cc1cnc(S[C@H]2CC[C@@]([NH2+]C(C)C)(C(=O)OCCOC(=O)c3ccc(-c4c5nc(c(-c6ccccc6)c6ccc([nH]6)c(-c6ccccc6)c6nc(c(-c7ccccc7)c7ccc4[nH]7)C=C6)C=C5)cc3)C2)nc1
REMARK SMILES IDX 18 1 17 2 15 3 16 4 10 5 7 6 8 7 71 8 9 9 6 10 5 11 1 12
REMARK SMILES IDX 2 13 3 14 73 15 4 16 72 17 11 18 12 21 13 22 14 23 19 24
REMARK SMILES IDX 20 25 21 26 22 27 23 28 24 29 70 30 25 31 69 32 26 33 27 34
REMARK SMILES IDX 28 35 63 36 29 37 68 38 62 39 64 40 30 41 67 42 61 43 60 44
REMARK SMILES IDX 31 46 53 47 38 48 52 49 39 50 42 51 51 52 65 53 40 54 41 55
REMARK SMILES IDX 50 57 66 58 43 59 32 60 33 61 37 62 34 63 36 64 35 65 54 66
REMARK SMILES IDX 55 67 59 68 56 69 58 70 57 71 44 72 45 73 49 74 46 75 48 76
REMARK SMILES IDX 47 77
REMARK H PARENT 11 19 11 20 64 45 42 56
REMARK Flexibility Score: inf
ROOT
ATOM      1  C   UNL A   1      38.061  21.313  25.290  1.00  0.00     0.274 C 
ENDROOT
BRANCH   1   2
ATOM      2  O   UNL A   1      36.704  21.225  25.781  1.00  0.00    -0.457 OA
BRANCH   2   3
ATOM      3  C   UNL A   1      35.735  21.432  24.848  1.00  0.00     0.368 C 
ATOM      4  O   UNL A   1      35.889  22.177  23.880  1.00  0.00    -0.245 OA
BRANCH   3   5
ATOM      5  C   UNL A   1      34.392  20.669  25.114  1.00  0.00     0.195 C 
ATOM      6  C   UNL A   1      32.835  22.133  26.384  1.00  0.00     0.062 C 
ATOM      7  C   UNL A   1      32.087  21.602  25.168  1.00  0.00     0.022 C 
ATOM      8  C   UNL A   1      33.888  21.020  26.546  1.00  0.00     0.096 C 
ATOM      9  C   UNL A   1      33.188  21.099  24.218  1.00  0.00     0.082 C 
BRANCH   6  10
ATOM     10  S   UNL A   1      33.613  23.734  25.960  1.00  0.00    -0.083 SA
BRANCH  10  11
ATOM     11  C   UNL A   1      32.279  24.807  25.522  1.00  0.00     0.187 A 
ATOM     12  C   UNL A   1      28.769  26.526  23.976  1.00  0.00     0.048 C 
ATOM     13  C   UNL A   1      30.037  25.980  24.540  1.00  0.00    -0.014 A 
ATOM     14  C   UNL A   1      30.190  25.652  25.874  1.00  0.00     0.119 A 
ATOM     15  C   UNL A   1      31.129  25.710  23.753  1.00  0.00     0.119 A 
ATOM     16  N   UNL A   1      31.294  25.064  26.394  1.00  0.00    -0.231 NA
ATOM     17  N   UNL A   1      32.250  25.137  24.220  1.00  0.00    -0.231 NA
ENDBRANCH  10  11
ENDBRANCH   6  10
BRANCH   5  18
ATOM     18  N   UNL A   1      34.575  19.199  24.906  1.00  0.00    -0.330 N 
ATOM     19  H   UNL A   1      34.799  18.796  25.816  1.00  0.00     0.347 HD
ATOM     20  H   UNL A   1      35.298  19.143  24.189  1.00  0.00     0.347 HD
BRANCH  18  21
ATOM     21  C   UNL A   1      33.466  18.412  24.348  1.00  0.00     0.176 C 
ATOM     22  C   UNL A   1      33.912  17.338  23.358  1.00  0.00     0.075 C 
ATOM     23  C   UNL A   1      32.722  17.756  25.516  1.00  0.00     0.075 C 
ENDBRANCH  18  21
ENDBRANCH   5  18
ENDBRANCH   3   5
ENDBRANCH   2   3
ENDBRANCH   1   2
BRANCH   1  24
ATOM     24  C   UNL A   1      38.740  19.942  25.167  1.00  0.00     0.275 C 
BRANCH  24  25
ATOM     25  O   UNL A   1      39.663  19.755  26.249  1.00  0.00    -0.458 OA
BRANCH  25  26
ATOM     26  C   UNL A   1      40.981  19.893  25.962  1.00  0.00     0.338 C 
ATOM     27  O   UNL A   1      41.643  19.142  25.266  1.00  0.00    -0.246 OA
BRANCH  26  28
ATOM     28  C   UNL A   1      41.498  21.157  26.572  1.00  0.00     0.060 A 
ATOM     29  C   UNL A   1      41.553  21.320  27.957  1.00  0.00     0.016 A 
ATOM     30  C   UNL A   1      41.838  22.244  25.762  1.00  0.00     0.016 A 
ATOM     31  C   UNL A   1      41.826  22.561  28.529  1.00  0.00     0.010 A 
ATOM     32  C   UNL A   1      42.215  23.469  26.339  1.00  0.00     0.010 A 
ATOM     33  C   UNL A   1      42.195  23.650  27.733  1.00  0.00    -0.014 A 
BRANCH  33  34
ATOM     34  C   UNL A   1      42.578  24.946  28.364  1.00  0.00     0.031 A 
ATOM     35  C   UNL A   1      41.550  26.015  28.628  1.00  0.00     0.074 A 
ATOM     36  C   UNL A   1      43.861  25.176  28.718  1.00  0.00     0.049 A 
ATOM     37  N   UNL A   1      41.731  27.268  28.967  1.00  0.00    -0.248 NA
ATOM     38  C   UNL A   1      40.137  25.629  28.492  1.00  0.00     0.031 C 
ATOM     39  C   UNL A   1      44.966  24.224  28.591  1.00  0.00     0.029 A 
ATOM     40  N   UNL A   1      44.452  26.292  29.263  1.00  0.00    -0.354 N 
ATOM     41  C   UNL A   1      40.464  27.836  29.021  1.00  0.00     0.074 A 
ATOM     42  C   UNL A   1      39.519  26.786  28.697  1.00  0.00     0.031 C 
ATOM     43  C   UNL A   1      46.086  24.776  29.081  1.00  0.00     0.029 A 
ATOM     44  C   UNL A   1      45.806  26.156  29.454  1.00  0.00     0.049 A 
ATOM     45  H   UNL A   1      43.953  27.108  29.494  1.00  0.00     0.167 HD
ATOM     46  C   UNL A   1      40.121  29.116  29.303  1.00  0.00     0.031 A 
ATOM     47  C   UNL A   1      46.741  27.050  29.827  1.00  0.00     0.031 A 
ATOM     48  C   UNL A   1      41.052  30.152  29.676  1.00  0.00     0.049 A 
ATOM     49  C   UNL A   1      46.344  28.475  30.073  1.00  0.00     0.074 A 
ATOM     50  C   UNL A   1      40.788  31.476  29.990  1.00  0.00     0.029 A 
ATOM     51  N   UNL A   1      42.420  29.981  29.798  1.00  0.00    -0.354 N 
ATOM     52  N   UNL A   1      45.152  29.016  30.042  1.00  0.00    -0.248 NA
ATOM     53  C   UNL A   1      47.430  29.416  30.382  1.00  0.00     0.031 C 
ATOM     54  C   UNL A   1      42.002  32.114  30.267  1.00  0.00     0.029 A 
ATOM     55  C   UNL A   1      43.016  31.178  30.167  1.00  0.00     0.049 A 
ATOM     56  H   UNL A   1      42.900  29.134  29.647  1.00  0.00     0.167 HD
ATOM     57  C   UNL A   1      45.343  30.361  30.327  1.00  0.00     0.074 A 
ATOM     58  C   UNL A   1      46.761  30.547  30.559  1.00  0.00     0.031 C 
ATOM     59  C   UNL A   1      44.426  31.355  30.383  1.00  0.00     0.031 A 
BRANCH  46  60
ATOM     60  C   UNL A   1      38.674  29.500  29.178  1.00  0.00    -0.014 A 
ATOM     61  C   UNL A   1      38.116  29.874  27.948  1.00  0.00     0.009 A 
ATOM     62  C   UNL A   1      37.840  29.400  30.303  1.00  0.00     0.009 A 
ATOM     63  C   UNL A   1      36.750  30.155  27.850  1.00  0.00     0.001 A 
ATOM     64  C   UNL A   1      36.473  29.660  30.199  1.00  0.00     0.001 A 
ATOM     65  C   UNL A   1      35.930  30.041  28.974  1.00  0.00     0.000 A 
ENDBRANCH  46  60
BRANCH  47  66
ATOM     66  C   UNL A   1      48.168  26.643  29.903  1.00  0.00    -0.014 A 
ATOM     67  C   UNL A   1      48.693  26.098  31.084  1.00  0.00     0.009 A 
ATOM     68  C   UNL A   1      49.013  26.806  28.793  1.00  0.00     0.009 A 
ATOM     69  C   UNL A   1      50.041  25.739  31.155  1.00  0.00     0.001 A 
ATOM     70  C   UNL A   1      50.351  26.417  28.859  1.00  0.00     0.001 A 
ATOM     71  C   UNL A   1      50.867  25.892  30.042  1.00  0.00     0.000 A 
ENDBRANCH  47  66
BRANCH  59  72
ATOM     72  C   UNL A   1      44.934  32.725  30.729  1.00  0.00    -0.014 A 
ATOM     73  C   UNL A   1      45.322  33.627  29.727  1.00  0.00     0.009 A 
ATOM     74  C   UNL A   1      45.035  33.112  32.073  1.00  0.00     0.009 A 
ATOM     75  C   UNL A   1      45.838  34.879  30.066  1.00  0.00     0.001 A 
ATOM     76  C   UNL A   1      45.529  34.374  32.409  1.00  0.00     0.001 A 
ATOM     77  C   UNL A   1      45.941  35.251  31.407  1.00  0.00     0.000 A 
ENDBRANCH  59  72
ENDBRANCH  33  34
ENDBRANCH  26  28
ENDBRANCH  25  26
ENDBRANCH  24  25
ENDBRANCH   1  24
TORSDOF 15
ENDMDL
MODEL 2
REMARK VINA RESULT:     -10.3      2.953      7.566
REMARK SMILES Cc1cnc(S[C@H]2CC[C@@]([NH2+]C(C)C)(C(=O)OCCOC(=O)c3ccc(-c4c5nc(c(-c6ccccc6)c6ccc([nH]6)c(-c6ccccc6)c6nc(c(-c7ccccc7)c7ccc4[nH]7)C=C6)C=C5)cc3)C2)nc1
REMARK SMILES IDX 18 1 17 2 15 3 16 4 10 5 7 6 8 7 71 8 9 9 6 10 5 11 1 12
REMARK SMILES IDX 2 13 3 14 73 15 4 16 72 17 11 18 12 21 13 22 14 23 19 24
REMARK SMILES IDX 20 25 21 26 22 27 23 28 24 29 70 30 25 31 69 32 26 33 27 34
REMARK SMILES IDX 28 35 63 36 29 37 68 38 62 39 64 40 30 41 67 42 61 43 60 44
REMARK SMILES IDX 31 46 53 47 38 48 52 49 39 50 42 51 51 52 65 53 40 54 41 55
REMARK SMILES IDX 50 57 66 58 43 59 32 60 33 61 37 62 34 63 36 64 35 65 54 66
REMARK SMILES IDX 55 67 59 68 56 69 58 70 57 71 44 72 45 73 49 74 46 75 48 76
REMARK SMILES IDX 47 77
REMARK H PARENT 11 19 11 20 64 45 42 56
REMARK Flexibility Score: inf
ROOT
ATOM      1  C   UNL A   1      31.757  28.044  27.490  1.00  0.00     0.274 C 
ENDROOT
BRANCH   1   2
ATOM      2  O   UNL A   1      32.369  26.988  26.715  1.00  0.00    -0.457 OA
BRANCH   2   3
ATOM      3  C   UNL A   1      31.508  26.241  25.971  1.00  0.00     0.368 C 
ATOM      4  O   UNL A   1      30.411  25.872  26.390  1.00  0.00    -0.245 OA
BRANCH   3   5
ATOM      5  C   UNL A   1      32.031  25.860  24.544  1.00  0.00     0.195 C 
ATOM      6  C   UNL A   1      31.079  27.421  22.859  1.00  0.00     0.062 C 
ATOM      7  C   UNL A   1      32.588  27.386  22.660  1.00  0.00     0.022 C 
ATOM      8  C   UNL A   1      30.872  26.043  23.517  1.00  0.00     0.096 C 
ATOM      9  C   UNL A   1      33.143  26.790  23.966  1.00  0.00     0.082 C 
BRANCH   6  10
ATOM     10  S   UNL A   1      30.655  28.781  24.006  1.00  0.00    -0.083 SA
BRANCH  10  11
ATOM     11  C   UNL A   1      29.509  29.801  23.128  1.00  0.00     0.187 A 
ATOM     12  C   UNL A   1      27.643  32.708  20.734  1.00  0.00     0.048 C 
ATOM     13  C   UNL A   1      28.243  31.663  21.612  1.00  0.00    -0.014 A 
ATOM     14  C   UNL A   1      28.335  30.332  21.246  1.00  0.00     0.119 A 
ATOM     15  C   UNL A   1      28.802  31.964  22.829  1.00  0.00     0.119 A 
ATOM     16  N   UNL A   1      28.961  29.381  21.979  1.00  0.00    -0.231 NA
ATOM     17  N   UNL A   1      29.427  31.057  23.597  1.00  0.00    -0.231 NA
ENDBRANCH  10  11
ENDBRANCH   6  10
BRANCH   5  18
ATOM     18  N   UNL A   1      32.592  24.473  24.544  1.00  0.00    -0.330 N 
ATOM     19  H   UNL A   1      32.531  24.127  23.588  1.00  0.00     0.347 HD
ATOM     20  H   UNL A   1      32.034  23.986  25.245  1.00  0.00     0.347 HD
BRANCH  18  21
ATOM     21  C   UNL A   1      33.977  24.263  24.991  1.00  0.00     0.176 C 
ATOM     22  C   UNL A   1      34.086  23.592  26.359  1.00  0.00     0.075 C 
ATOM     23  C   UNL A   1      34.683  23.401  23.940  1.00  0.00     0.075 C 
ENDBRANCH  18  21
ENDBRANCH   5  18
ENDBRANCH   3   5
ENDBRANCH   2   3
ENDBRANCH   1   2
BRANCH   1  24
ATOM     24  C   UNL A   1      32.453  29.400  27.301  1.00  0.00     0.275 C 
BRANCH  24  25
ATOM     25  O   UNL A   1      33.861  29.262  27.534  1.00  0.00    -0.458 OA
BRANCH  25  26
ATOM     26  C   UNL A   1      34.514  30.354  28.003  1.00  0.00     0.338 C 
ATOM     27  O   UNL A   1      34.013  31.441  28.237  1.00  0.00    -0.246 OA
BRANCH  26  28
ATOM     28  C   UNL A   1      35.947  30.010  28.262  1.00  0.00     0.060 A 
ATOM     29  C   UNL A   1      36.905  30.095  27.250  1.00  0.00     0.016 A 
ATOM     30  C   UNL A   1      36.334  29.493  29.501  1.00  0.00     0.016 A 
ATOM     31  C   UNL A   1      38.186  29.574  27.422  1.00  0.00     0.010 A 
ATOM     32  C   UNL A   1      37.656  29.062  29.709  1.00  0.00     0.010 A 
ATOM     33  C   UNL A   1      38.596  29.079  28.664  1.00  0.00    -0.014 A 
BRANCH  33  34
ATOM     34  C   UNL A   1      40.000  28.614  28.860  1.00  0.00     0.031 A 
ATOM     35  C   UNL A   1      41.063  29.548  29.376  1.00  0.00     0.074 A 
ATOM     36  C   UNL A   1      40.337  27.336  28.583  1.00  0.00     0.049 A 
ATOM     37  N   UNL A   1      42.363  29.383  29.407  1.00  0.00    -0.248 NA
ATOM     38  C   UNL A   1      40.610  30.835  29.926  1.00  0.00     0.031 C 
ATOM     39  C   UNL A   1      39.416  26.287  28.137  1.00  0.00     0.029 A 
ATOM     40  N   UNL A   1      41.555  26.699  28.640  1.00  0.00    -0.354 N 
ATOM     41  C   UNL A   1      42.887  30.565  29.916  1.00  0.00     0.074 A 
ATOM     42  C   UNL A   1      41.763  31.435  30.199  1.00  0.00     0.031 C 
ATOM     43  C   UNL A   1      40.089  25.135  28.002  1.00  0.00     0.029 A 
ATOM     44  C   UNL A   1      41.504  25.384  28.243  1.00  0.00     0.049 A 
ATOM     45  H   UNL A   1      42.381  27.143  28.936  1.00  0.00     0.167 HD
ATOM     46  C   UNL A   1      44.184  30.898  30.119  1.00  0.00     0.031 A 
ATOM     47  C   UNL A   1      42.484  24.486  28.032  1.00  0.00     0.031 A 
ATOM     48  C   UNL A   1      45.303  30.020  29.888  1.00  0.00     0.049 A 
ATOM     49  C   UNL A   1      43.915  24.899  28.205  1.00  0.00     0.074 A 
ATOM     50  C   UNL A   1      46.652  30.273  30.078  1.00  0.00     0.029 A 
ATOM     51  N   UNL A   1      45.205  28.716  29.430  1.00  0.00    -0.354 N 
ATOM     52  N   UNL A   1      44.399  26.046  28.610  1.00  0.00    -0.248 NA
ATOM     53  C   UNL A   1      44.934  23.897  27.864  1.00  0.00     0.031 C 
ATOM     54  C   UNL A   1      47.373  29.135  29.699  1.00  0.00     0.029 A 
ATOM     55  C   UNL A   1      46.471  28.159  29.315  1.00  0.00     0.049 A 
ATOM     56  H   UNL A   1      44.363  28.253  29.217  1.00  0.00     0.167 HD
ATOM     57  C   UNL A   1      45.779  25.904  28.574  1.00  0.00     0.074 A 
ATOM     58  C   UNL A   1      46.054  24.551  28.137  1.00  0.00     0.031 C 
ATOM     59  C   UNL A   1      46.734  26.818  28.868  1.00  0.00     0.031 A 
BRANCH  46  60
ATOM     60  C   UNL A   1      44.487  32.297  30.576  1.00  0.00    -0.014 A 
ATOM     61  C   UNL A   1      44.641  33.351  29.665  1.00  0.00     0.009 A 
ATOM     62  C   UNL A   1      44.533  32.572  31.952  1.00  0.00     0.009 A 
ATOM     63  C   UNL A   1      44.850  34.655  30.125  1.00  0.00     0.001 A 
ATOM     64  C   UNL A   1      44.720  33.877  32.409  1.00  0.00     0.001 A 
ATOM     65  C   UNL A   1      44.883  34.916  31.496  1.00  0.00     0.000 A 
ENDBRANCH  46  60
BRANCH  47  66
ATOM     66  C   UNL A   1      42.148  23.123  27.544  1.00  0.00    -0.014 A 
ATOM     67  C   UNL A   1      42.044  22.862  26.170  1.00  0.00     0.009 A 
ATOM     68  C   UNL A   1      41.921  22.079  28.455  1.00  0.00     0.009 A 
ATOM     69  C   UNL A   1      41.704  21.584  25.720  1.00  0.00     0.001 A 
ATOM     70  C   UNL A   1      41.612  20.797  28.001  1.00  0.00     0.001 A 
ATOM     71  C   UNL A   1      41.496  20.552  26.634  1.00  0.00     0.000 A 
ENDBRANCH  47  66
BRANCH  59  72
ATOM     72  C   UNL A   1      48.161  26.368  28.745  1.00  0.00    -0.014 A 
ATOM     73  C   UNL A   1      48.835  25.795  29.834  1.00  0.00     0.009 A 
ATOM     74  C   UNL A   1      48.840  26.529  27.529  1.00  0.00     0.009 A 
ATOM     75  C   UNL A   1      50.177  25.426  29.718  1.00  0.00     0.001 A 
ATOM     76  C   UNL A   1      50.175  26.137  27.408  1.00  0.00     0.001 A 
ATOM     77  C   UNL A   1      50.844  25.597  28.506  1.00  0.00     0.000 A 
ENDBRANCH  59  72
ENDBRANCH  33  34
ENDBRANCH  26  28
ENDBRANCH  25  26
ENDBRANCH  24  25
ENDBRANCH   1  24
TORSDOF 15
ENDMDL
MODEL 3
REMARK VINA RESULT:     -10.3      4.319      8.554
REMARK SMILES Cc1cnc(S[C@H]2CC[C@@]([NH2+]C(C)C)(C(=O)OCCOC(=O)c3ccc(-c4c5nc(c(-c6ccccc6)c6ccc([nH]6)c(-c6ccccc6)c6nc(c(-c7ccccc7)c7ccc4[nH]7)C=C6)C=C5)cc3)C2)nc1
REMARK SMILES IDX 18 1 17 2 15 3 16 4 10 5 7 6 8 7 71 8 9 9 6 10 5 11 1 12
REMARK SMILES IDX 2 13 3 14 73 15 4 16 72 17 11 18 12 21 13 22 14 23 19 24
REMARK SMILES IDX 20 25 21 26 22 27 23 28 24 29 70 30 25 31 69 32 26 33 27 34
REMARK SMILES IDX 28 35 63 36 29 37 68 38 62 39 64 40 30 41 67 42 61 43 60 44
REMARK SMILES IDX 31 46 53 47 38 48 52 49 39 50 42 51 51 52 65 53 40 54 41 55
REMARK SMILES IDX 50 57 66 58 43 59 32 60 33 61 37 62 34 63 36 64 35 65 54 66
REMARK SMILES IDX 55 67 59 68 56 69 58 70 57 71 44 72 45 73 49 74 46 75 48 76
REMARK SMILES IDX 47 77
REMARK H PARENT 11 19 11 20 64 45 42 56
REMARK Flexibility Score: inf
ROOT
ATOM      1  C   UNL A   1      32.331  29.094  25.274  1.00  0.00     0.274 C 
ENDROOT
BRANCH   1   2
ATOM      2  O   UNL A   1      31.701  27.885  25.757  1.00  0.00    -0.457 OA
BRANCH   2   3
ATOM      3  C   UNL A   1      32.368  26.732  25.477  1.00  0.00     0.368 C 
ATOM      4  O   UNL A   1      33.581  26.696  25.271  1.00  0.00    -0.245 OA
BRANCH   3   5
ATOM      5  C   UNL A   1      31.468  25.451  25.407  1.00  0.00     0.195 C 
ATOM      6  C   UNL A   1      29.927  25.615  23.462  1.00  0.00     0.062 C 
ATOM      7  C   UNL A   1      30.639  24.271  23.381  1.00  0.00     0.022 C 
ATOM      8  C   UNL A   1      30.029  25.870  24.979  1.00  0.00     0.096 C 
ATOM      9  C   UNL A   1      31.859  24.415  24.307  1.00  0.00     0.082 C 
BRANCH   6  10
ATOM     10  S   UNL A   1      30.875  26.857  22.511  1.00  0.00    -0.083 SA
BRANCH  10  11
ATOM     11  C   UNL A   1      29.849  28.295  22.457  1.00  0.00     0.187 A 
ATOM     12  C   UNL A   1      27.539  31.690  23.352  1.00  0.00     0.048 C 
ATOM     13  C   UNL A   1      28.330  30.485  22.971  1.00  0.00    -0.014 A 
ATOM     14  C   UNL A   1      29.575  30.557  22.372  1.00  0.00     0.119 A 
ATOM     15  C   UNL A   1      27.897  29.210  23.244  1.00  0.00     0.119 A 
ATOM     16  N   UNL A   1      30.356  29.484  22.106  1.00  0.00    -0.231 NA
ATOM     17  N   UNL A   1      28.629  28.114  22.992  1.00  0.00    -0.231 NA
ENDBRANCH  10  11
ENDBRANCH   6  10
BRANCH   5  18
ATOM     18  N   UNL A   1      31.496  24.720  26.712  1.00  0.00    -0.330 N 
ATOM     19  H   UNL A   1      30.695  25.044  27.252  1.00  0.00     0.347 HD
ATOM     20  H   UNL A   1      32.420  24.933  27.089  1.00  0.00     0.347 HD
BRANCH  18  21
ATOM     21  C   UNL A   1      31.449  23.251  26.709  1.00  0.00     0.176 C 
ATOM     22  C   UNL A   1      32.462  22.601  27.651  1.00  0.00     0.075 C 
ATOM     23  C   UNL A   1      30.032  22.827  27.109  1.00  0.00     0.075 C 
ENDBRANCH  18  21
ENDBRANCH   5  18
ENDBRANCH   3   5
ENDBRANCH   2   3
ENDBRANCH   1   2
BRANCH   1  24
ATOM     24  C   UNL A   1      31.576  30.364  25.691  1.00  0.00     0.275 C 
BRANCH  24  25
ATOM     25  O   UNL A   1      31.938  30.730  27.031  1.00  0.00    -0.458 OA
BRANCH  25  26
ATOM     26  C   UNL A   1      32.642  31.879  27.183  1.00  0.00     0.338 C 
ATOM     27  O   UNL A   1      32.236  33.003  26.942  1.00  0.00    -0.246 OA
BRANCH  26  28
ATOM     28  C   UNL A   1      33.984  31.571  27.767  1.00  0.00     0.060 A 
ATOM     29  C   UNL A   1      34.406  30.254  27.954  1.00  0.00     0.016 A 
ATOM     30  C   UNL A   1      34.803  32.603  28.235  1.00  0.00     0.016 A 
ATOM     31  C   UNL A   1      35.552  29.959  28.690  1.00  0.00     0.010 A 
ATOM     32  C   UNL A   1      36.013  32.308  28.886  1.00  0.00     0.010 A 
ATOM     33  C   UNL A   1      36.395  30.979  29.140  1.00  0.00    -0.014 A 
BRANCH  33  34
ATOM     34  C   UNL A   1      37.668  30.646  29.841  1.00  0.00     0.031 A 
ATOM     35  C   UNL A   1      38.752  29.857  29.153  1.00  0.00     0.074 A 
ATOM     36  C   UNL A   1      37.873  31.059  31.111  1.00  0.00     0.049 A 
ATOM     37  N   UNL A   1      39.819  29.298  29.667  1.00  0.00    -0.248 NA
ATOM     38  C   UNL A   1      38.617  29.667  27.700  1.00  0.00     0.031 C 
ATOM     39  C   UNL A   1      36.955  31.886  31.898  1.00  0.00     0.029 A 
ATOM     40  N   UNL A   1      38.928  30.839  31.965  1.00  0.00    -0.354 N 
ATOM     41  C   UNL A   1      40.449  28.638  28.619  1.00  0.00     0.074 A 
ATOM     42  C   UNL A   1      39.652  28.880  27.432  1.00  0.00     0.031 C 
ATOM     43  C   UNL A   1      37.502  32.137  33.097  1.00  0.00     0.029 A 
ATOM     44  C   UNL A   1      38.755  31.402  33.207  1.00  0.00     0.049 A 
ATOM     45  H   UNL A   1      39.730  30.328  31.710  1.00  0.00     0.167 HD
ATOM     46  C   UNL A   1      41.578  27.891  28.645  1.00  0.00     0.031 A 
ATOM     47  C   UNL A   1      39.481  31.296  34.335  1.00  0.00     0.031 A 
ATOM     48  C   UNL A   1      42.402  27.688  29.810  1.00  0.00     0.049 A 
ATOM     49  C   UNL A   1      40.693  30.413  34.353  1.00  0.00     0.074 A 
ATOM     50  C   UNL A   1      43.572  26.954  29.922  1.00  0.00     0.029 A 
ATOM     51  N   UNL A   1      42.153  28.230  31.060  1.00  0.00    -0.354 N 
ATOM     52  N   UNL A   1      41.231  29.730  33.374  1.00  0.00    -0.248 NA
ATOM     53  C   UNL A   1      41.381  30.268  35.643  1.00  0.00     0.031 C 
ATOM     54  C   UNL A   1      44.010  27.021  31.249  1.00  0.00     0.029 A 
ATOM     55  C   UNL A   1      43.138  27.833  31.953  1.00  0.00     0.049 A 
ATOM     56  H   UNL A   1      41.391  28.812  31.282  1.00  0.00     0.167 HD
ATOM     57  C   UNL A   1      42.322  29.075  33.928  1.00  0.00     0.074 A 
ATOM     58  C   UNL A   1      42.387  29.466  35.322  1.00  0.00     0.031 C 
ATOM     59  C   UNL A   1      43.187  28.217  33.337  1.00  0.00     0.031 A 
BRANCH  46  60
ATOM     60  C   UNL A   1      41.982  27.184  27.382  1.00  0.00    -0.014 A 
ATOM     61  C   UNL A   1      42.862  27.768  26.461  1.00  0.00     0.009 A 
ATOM     62  C   UNL A   1      41.533  25.871  27.160  1.00  0.00     0.009 A 
ATOM     63  C   UNL A   1      43.275  27.055  25.332  1.00  0.00     0.001 A 
ATOM     64  C   UNL A   1      41.964  25.154  26.043  1.00  0.00     0.001 A 
ATOM     65  C   UNL A   1      42.831  25.747  25.128  1.00  0.00     0.000 A 
ENDBRANCH  46  60
BRANCH  47  66
ATOM     66  C   UNL A   1      39.029  31.979  35.574  1.00  0.00    -0.014 A 
ATOM     67  C   UNL A   1      39.468  33.276  35.877  1.00  0.00     0.009 A 
ATOM     68  C   UNL A   1      38.159  31.329  36.466  1.00  0.00     0.009 A 
ATOM     69  C   UNL A   1      39.058  33.902  37.056  1.00  0.00     0.001 A 
ATOM     70  C   UNL A   1      37.726  31.970  37.627  1.00  0.00     0.001 A 
ATOM     71  C   UNL A   1      38.182  33.253  37.925  1.00  0.00     0.000 A 
ENDBRANCH  47  66
BRANCH  59  72
ATOM     72  C   UNL A   1      44.286  27.667  34.198  1.00  0.00    -0.014 A 
ATOM     73  C   UNL A   1      45.514  28.335  34.318  1.00  0.00     0.009 A 
ATOM     74  C   UNL A   1      44.095  26.461  34.889  1.00  0.00     0.009 A 
ATOM     75  C   UNL A   1      46.545  27.786  35.083  1.00  0.00     0.001 A 
ATOM     76  C   UNL A   1      45.118  25.926  35.673  1.00  0.00     0.001 A 
ATOM     77  C   UNL A   1      46.345  26.582  35.760  1.00  0.00     0.000 A 
ENDBRANCH  59  72
ENDBRANCH  33  34
ENDBRANCH  26  28
ENDBRANCH  25  26
ENDBRANCH  24  25
ENDBRANCH   1  24
TORSDOF 15
ENDMDL
