MODEL 1
REMARK VINA RESULT:     -10.4      0.000      0.000
REMARK SMILES O=C(OCCOC(=O)c1ccc(C[NH2+]C[C@H]2C[C@H](O)C2)nc1)c1ccc(-c2c3nc(c(-c4ccccc4)c4ccc([nH]4)c(-c4ccccc4)c4nc(c(-c5ccccc5)c5ccc2[nH]5)C=C4)C=C3)cc1
REMARK SMILES IDX 6 1 5 2 4 3 3 4 2 5 1 6 23 7 24 8 70 9 25 10 69 11 26 12
REMARK SMILES IDX 27 13 28 14 63 15 29 16 68 17 62 18 64 19 30 20 67 21 61 22
REMARK SMILES IDX 60 23 31 25 53 26 38 27 52 28 39 29 42 30 51 31 65 32 40 33
REMARK SMILES IDX 41 34 50 36 66 37 43 38 32 39 33 40 37 41 34 42 36 43 35 44
REMARK SMILES IDX 54 45 55 46 59 47 56 48 58 49 57 50 44 51 45 52 49 53 46 54
REMARK SMILES IDX 48 55 47 56 7 57 8 58 9 59 10 60 22 61 11 62 21 63 12 64
REMARK SMILES IDX 13 65 14 66 15 69 16 70 20 71 17 72 18 73 19 74
REMARK H PARENT 64 24 42 35 14 67 14 68 19 75
REMARK Flexibility Score: inf
ROOT
ATOM      1  O   UNL A   1      41.382  21.063  25.717  1.00  0.00    -0.458 OA
ENDROOT
BRANCH   1   2
ATOM      2  C   UNL A   1      42.673  20.578  26.119  1.00  0.00     0.275 C 
BRANCH   2   3
ATOM      3  C   UNL A   1      43.840  21.284  25.425  1.00  0.00     0.275 C 
BRANCH   3   4
ATOM      4  O   UNL A   1      43.478  22.473  24.702  1.00  0.00    -0.458 OA
BRANCH   4   5
ATOM      5  C   UNL A   1      43.865  23.754  24.906  1.00  0.00     0.338 C 
ATOM      6  O   UNL A   1      44.821  24.195  24.272  1.00  0.00    -0.246 OA
BRANCH   5   7
ATOM      7  C   UNL A   1      43.305  24.613  25.996  1.00  0.00     0.060 A 
ATOM      8  C   UNL A   1      42.342  24.234  26.934  1.00  0.00     0.016 A 
ATOM      9  C   UNL A   1      43.799  25.927  26.058  1.00  0.00     0.016 A 
ATOM     10  C   UNL A   1      41.956  25.100  27.965  1.00  0.00     0.010 A 
ATOM     11  C   UNL A   1      43.420  26.795  27.085  1.00  0.00     0.010 A 
ATOM     12  C   UNL A   1      42.503  26.378  28.056  1.00  0.00    -0.014 A 
BRANCH  12  13
ATOM     13  C   UNL A   1      42.051  27.327  29.095  1.00  0.00     0.031 A 
ATOM     14  C   UNL A   1      42.718  27.297  30.435  1.00  0.00     0.074 A 
ATOM     15  C   UNL A   1      41.045  28.189  28.854  1.00  0.00     0.049 A 
ATOM     16  N   UNL A   1      42.448  28.003  31.500  1.00  0.00    -0.248 NA
ATOM     17  C   UNL A   1      43.861  26.381  30.585  1.00  0.00     0.031 C 
ATOM     18  C   UNL A   1      40.394  28.390  27.562  1.00  0.00     0.029 A 
ATOM     19  N   UNL A   1      40.363  29.027  29.699  1.00  0.00    -0.354 N 
ATOM     20  C   UNL A   1      43.416  27.652  32.429  1.00  0.00     0.074 A 
ATOM     21  C   UNL A   1      44.235  26.622  31.832  1.00  0.00     0.031 C 
ATOM     22  C   UNL A   1      39.337  29.205  27.722  1.00  0.00     0.029 A 
ATOM     23  C   UNL A   1      39.247  29.587  29.124  1.00  0.00     0.049 A 
ATOM     24  H   UNL A   1      40.646  29.209  30.624  1.00  0.00     0.167 HD
ATOM     25  C   UNL A   1      43.622  28.176  33.659  1.00  0.00     0.031 A 
ATOM     26  C   UNL A   1      38.247  30.299  29.681  1.00  0.00     0.031 A 
ATOM     27  C   UNL A   1      42.782  29.179  34.251  1.00  0.00     0.049 A 
ATOM     28  C   UNL A   1      38.371  30.690  31.129  1.00  0.00     0.074 A 
ATOM     29  C   UNL A   1      42.927  29.817  35.469  1.00  0.00     0.029 A 
ATOM     30  N   UNL A   1      41.620  29.664  33.674  1.00  0.00    -0.354 N 
ATOM     31  N   UNL A   1      39.352  30.442  31.961  1.00  0.00    -0.248 NA
ATOM     32  C   UNL A   1      37.279  31.490  31.701  1.00  0.00     0.031 C 
ATOM     33  C   UNL A   1      41.813  30.641  35.658  1.00  0.00     0.029 A 
ATOM     34  C   UNL A   1      41.002  30.551  34.536  1.00  0.00     0.049 A 
ATOM     35  H   UNL A   1      41.284  29.415  32.783  1.00  0.00     0.167 HD
ATOM     36  C   UNL A   1      39.032  31.113  33.133  1.00  0.00     0.074 A 
ATOM     37  C   UNL A   1      37.758  31.764  32.908  1.00  0.00     0.031 C 
ATOM     38  C   UNL A   1      39.742  31.202  34.284  1.00  0.00     0.031 A 
BRANCH  25  39
ATOM     39  C   UNL A   1      44.795  27.658  34.435  1.00  0.00    -0.014 A 
ATOM     40  C   UNL A   1      44.662  26.555  35.294  1.00  0.00     0.009 A 
ATOM     41  C   UNL A   1      46.048  28.269  34.296  1.00  0.00     0.009 A 
ATOM     42  C   UNL A   1      45.759  26.092  36.023  1.00  0.00     0.001 A 
ATOM     43  C   UNL A   1      47.148  27.790  35.010  1.00  0.00     0.001 A 
ATOM     44  C   UNL A   1      47.002  26.709  35.877  1.00  0.00     0.000 A 
ENDBRANCH  25  39
BRANCH  26  45
ATOM     45  C   UNL A   1      37.035  30.648  28.893  1.00  0.00    -0.014 A 
ATOM     46  C   UNL A   1      36.769  31.968  28.504  1.00  0.00     0.009 A 
ATOM     47  C   UNL A   1      36.097  29.650  28.576  1.00  0.00     0.009 A 
ATOM     48  C   UNL A   1      35.568  32.289  27.862  1.00  0.00     0.001 A 
ATOM     49  C   UNL A   1      34.905  29.969  27.922  1.00  0.00     0.001 A 
ATOM     50  C   UNL A   1      34.636  31.291  27.578  1.00  0.00     0.000 A 
ENDBRANCH  26  45
BRANCH  38  51
ATOM     51  C   UNL A   1      39.186  32.077  35.368  1.00  0.00    -0.014 A 
ATOM     52  C   UNL A   1      39.439  33.456  35.391  1.00  0.00     0.009 A 
ATOM     53  C   UNL A   1      38.344  31.517  36.343  1.00  0.00     0.009 A 
ATOM     54  C   UNL A   1      38.872  34.256  36.384  1.00  0.00     0.001 A 
ATOM     55  C   UNL A   1      37.756  32.325  37.315  1.00  0.00     0.001 A 
ATOM     56  C   UNL A   1      38.025  33.692  37.339  1.00  0.00     0.000 A 
ENDBRANCH  38  51
ENDBRANCH  12  13
ENDBRANCH   5   7
ENDBRANCH   4   5
ENDBRANCH   3   4
ENDBRANCH   2   3
ENDBRANCH   1   2
BRANCH   1  57
ATOM     57  C   UNL A   1      40.514  21.301  26.741  1.00  0.00     0.339 C 
ATOM     58  O   UNL A   1      40.709  21.130  27.923  1.00  0.00    -0.246 OA
BRANCH  57  59
ATOM     59  C   UNL A   1      39.308  21.940  26.194  1.00  0.00     0.078 A 
ATOM     60  C   UNL A   1      38.927  23.236  26.525  1.00  0.00     0.019 A 
ATOM     61  C   UNL A   1      38.491  21.205  25.355  1.00  0.00     0.127 A 
ATOM     62  C   UNL A   1      37.706  23.718  26.052  1.00  0.00     0.031 A 
ATOM     63  N   UNL A   1      37.272  21.633  24.933  1.00  0.00    -0.254 NA
ATOM     64  C   UNL A   1      36.874  22.872  25.319  1.00  0.00     0.094 A 
BRANCH  64  65
ATOM     65  C   UNL A   1      35.456  23.310  24.982  1.00  0.00     0.317 C 
BRANCH  65  66
ATOM     66  N   UNL A   1      35.005  22.799  23.690  1.00  0.00    -0.341 N 
ATOM     67  H   UNL A   1      35.672  22.096  23.371  1.00  0.00     0.346 HD
ATOM     68  H   UNL A   1      34.946  23.595  23.055  1.00  0.00     0.346 HD
BRANCH  66  69
ATOM     69  C   UNL A   1      33.678  22.189  23.736  1.00  0.00     0.264 C 
BRANCH  69  70
ATOM     70  C   UNL A   1      33.538  21.177  24.873  1.00  0.00     0.049 C 
ATOM     71  C   UNL A   1      34.060  19.738  24.609  1.00  0.00     0.041 C 
ATOM     72  C   UNL A   1      32.127  20.555  25.032  1.00  0.00     0.041 C 
ATOM     73  C   UNL A   1      32.798  19.195  25.315  1.00  0.00     0.115 C 
BRANCH  73  74
ATOM     74  O   UNL A   1      32.938  18.819  26.698  1.00  0.00    -0.393 OA
ATOM     75  H   UNL A   1      33.725  18.263  26.804  1.00  0.00     0.210 HD
ENDBRANCH  73  74
ENDBRANCH  69  70
ENDBRANCH  66  69
ENDBRANCH  65  66
ENDBRANCH  64  65
ENDBRANCH  57  59
ENDBRANCH   1  57
TORSDOF 16
ENDMDL
MODEL 2
REMARK VINA RESULT:      -9.9      3.651      7.489
REMARK SMILES O=C(OCCOC(=O)c1ccc(C[NH2+]C[C@H]2C[C@H](O)C2)nc1)c1ccc(-c2c3nc(c(-c4ccccc4)c4ccc([nH]4)c(-c4ccccc4)c4nc(c(-c5ccccc5)c5ccc2[nH]5)C=C4)C=C3)cc1
REMARK SMILES IDX 6 1 5 2 4 3 3 4 2 5 1 6 23 7 24 8 70 9 25 10 69 11 26 12
REMARK SMILES IDX 27 13 28 14 63 15 29 16 68 17 62 18 64 19 30 20 67 21 61 22
REMARK SMILES IDX 60 23 31 25 53 26 38 27 52 28 39 29 42 30 51 31 65 32 40 33
REMARK SMILES IDX 41 34 50 36 66 37 43 38 32 39 33 40 37 41 34 42 36 43 35 44
REMARK SMILES IDX 54 45 55 46 59 47 56 48 58 49 57 50 44 51 45 52 49 53 46 54
REMARK SMILES IDX 48 55 47 56 7 57 8 58 9 59 10 60 22 61 11 62 21 63 12 64
REMARK SMILES IDX 13 65 14 66 15 69 16 70 20 71 17 72 18 73 19 74
REMARK H PARENT 64 24 42 35 14 67 14 68 19 75
REMARK Flexibility Score: inf
ROOT
ATOM      1  O   UNL A   1      37.963  21.633  25.492  1.00  0.00    -0.458 OA
ENDROOT
BRANCH   1   2
ATOM      2  C   UNL A   1      39.225  21.192  26.017  1.00  0.00     0.275 C 
BRANCH   2   3
ATOM      3  C   UNL A   1      39.546  19.729  25.702  1.00  0.00     0.275 C 
BRANCH   3   4
ATOM      4  O   UNL A   1      40.857  19.301  26.109  1.00  0.00    -0.458 OA
BRANCH   4   5
ATOM      5  C   UNL A   1      42.063  19.851  25.834  1.00  0.00     0.338 C 
ATOM      6  O   UNL A   1      42.932  19.152  25.318  1.00  0.00    -0.246 OA
BRANCH   5   7
ATOM      7  C   UNL A   1      42.460  21.220  26.291  1.00  0.00     0.060 A 
ATOM      8  C   UNL A   1      42.872  22.276  25.475  1.00  0.00     0.016 A 
ATOM      9  C   UNL A   1      42.419  21.440  27.679  1.00  0.00     0.016 A 
ATOM     10  C   UNL A   1      43.137  23.543  26.011  1.00  0.00     0.010 A 
ATOM     11  C   UNL A   1      42.680  22.702  28.219  1.00  0.00     0.010 A 
ATOM     12  C   UNL A   1      43.028  23.768  27.382  1.00  0.00    -0.014 A 
BRANCH  12  13
ATOM     13  C   UNL A   1      43.376  25.079  27.967  1.00  0.00     0.031 A 
ATOM     14  C   UNL A   1      42.295  26.102  28.131  1.00  0.00     0.074 A 
ATOM     15  C   UNL A   1      44.641  25.361  28.329  1.00  0.00     0.049 A 
ATOM     16  N   UNL A   1      42.387  27.327  28.574  1.00  0.00    -0.248 NA
ATOM     17  C   UNL A   1      40.926  25.681  27.786  1.00  0.00     0.031 C 
ATOM     18  C   UNL A   1      45.754  24.416  28.323  1.00  0.00     0.029 A 
ATOM     19  N   UNL A   1      45.215  26.541  28.731  1.00  0.00    -0.354 N 
ATOM     20  C   UNL A   1      41.086  27.806  28.607  1.00  0.00     0.074 A 
ATOM     21  C   UNL A   1      40.231  26.770  28.074  1.00  0.00     0.031 C 
ATOM     22  C   UNL A   1      46.895  25.074  28.592  1.00  0.00     0.029 A 
ATOM     23  C   UNL A   1      46.587  26.483  28.798  1.00  0.00     0.049 A 
ATOM     24  H   UNL A   1      44.695  27.348  28.950  1.00  0.00     0.167 HD
ATOM     25  C   UNL A   1      40.645  28.994  29.079  1.00  0.00     0.031 A 
ATOM     26  C   UNL A   1      47.491  27.467  28.969  1.00  0.00     0.031 A 
ATOM     27  C   UNL A   1      41.508  30.025  29.580  1.00  0.00     0.049 A 
ATOM     28  C   UNL A   1      46.988  28.853  29.270  1.00  0.00     0.074 A 
ATOM     29  C   UNL A   1      41.167  31.247  30.129  1.00  0.00     0.029 A 
ATOM     30  N   UNL A   1      42.893  29.962  29.559  1.00  0.00    -0.354 N 
ATOM     31  N   UNL A   1      45.750  29.260  29.409  1.00  0.00    -0.248 NA
ATOM     32  C   UNL A   1      47.997  29.899  29.482  1.00  0.00     0.031 C 
ATOM     33  C   UNL A   1      42.348  31.952  30.379  1.00  0.00     0.029 A 
ATOM     34  C   UNL A   1      43.424  31.149  30.031  1.00  0.00     0.049 A 
ATOM     35  H   UNL A   1      43.419  29.189  29.255  1.00  0.00     0.167 HD
ATOM     36  C   UNL A   1      45.832  30.592  29.792  1.00  0.00     0.074 A 
ATOM     37  C   UNL A   1      47.240  30.926  29.847  1.00  0.00     0.031 C 
ATOM     38  C   UNL A   1      44.830  31.453  30.095  1.00  0.00     0.031 A 
BRANCH  25  39
ATOM     39  C   UNL A   1      39.165  29.230  29.061  1.00  0.00    -0.014 A 
ATOM     40  C   UNL A   1      38.526  29.720  27.910  1.00  0.00     0.009 A 
ATOM     41  C   UNL A   1      38.398  28.947  30.199  1.00  0.00     0.009 A 
ATOM     42  C   UNL A   1      37.149  29.949  27.911  1.00  0.00     0.001 A 
ATOM     43  C   UNL A   1      37.018  29.158  30.190  1.00  0.00     0.001 A 
ATOM     44  C   UNL A   1      36.396  29.665  29.051  1.00  0.00     0.000 A 
ENDBRANCH  25  39
BRANCH  26  45
ATOM     45  C   UNL A   1      48.945  27.194  28.820  1.00  0.00    -0.014 A 
ATOM     46  C   UNL A   1      49.581  27.262  27.573  1.00  0.00     0.009 A 
ATOM     47  C   UNL A   1      49.700  26.800  29.940  1.00  0.00     0.009 A 
ATOM     48  C   UNL A   1      50.923  26.893  27.440  1.00  0.00     0.001 A 
ATOM     49  C   UNL A   1      51.044  26.446  29.809  1.00  0.00     0.001 A 
ATOM     50  C   UNL A   1      51.651  26.479  28.556  1.00  0.00     0.000 A 
ENDBRANCH  26  45
BRANCH  38  51
ATOM     51  C   UNL A   1      45.221  32.823  30.566  1.00  0.00    -0.014 A 
ATOM     52  C   UNL A   1      45.357  33.890  29.667  1.00  0.00     0.009 A 
ATOM     53  C   UNL A   1      45.392  33.057  31.940  1.00  0.00     0.009 A 
ATOM     54  C   UNL A   1      45.677  35.165  30.136  1.00  0.00     0.001 A 
ATOM     55  C   UNL A   1      45.682  34.338  32.407  1.00  0.00     0.001 A 
ATOM     56  C   UNL A   1      45.831  35.389  31.505  1.00  0.00     0.000 A 
ENDBRANCH  38  51
ENDBRANCH  12  13
ENDBRANCH   5   7
ENDBRANCH   4   5
ENDBRANCH   3   4
ENDBRANCH   2   3
ENDBRANCH   1   2
BRANCH   1  57
ATOM     57  C   UNL A   1      37.693  22.956  25.683  1.00  0.00     0.339 C 
ATOM     58  O   UNL A   1      38.322  23.744  26.352  1.00  0.00    -0.246 OA
BRANCH  57  59
ATOM     59  C   UNL A   1      36.559  23.332  24.826  1.00  0.00     0.078 A 
ATOM     60  C   UNL A   1      35.432  23.984  25.312  1.00  0.00     0.019 A 
ATOM     61  C   UNL A   1      36.593  22.977  23.489  1.00  0.00     0.127 A 
ATOM     62  C   UNL A   1      34.355  24.195  24.451  1.00  0.00     0.031 A 
ATOM     63  N   UNL A   1      35.534  23.118  22.651  1.00  0.00    -0.254 NA
ATOM     64  C   UNL A   1      34.409  23.691  23.151  1.00  0.00     0.094 A 
BRANCH  64  65
ATOM     65  C   UNL A   1      33.166  23.724  22.273  1.00  0.00     0.317 C 
BRANCH  65  66
ATOM     66  N   UNL A   1      32.070  22.931  22.824  1.00  0.00    -0.341 N 
ATOM     67  H   UNL A   1      31.196  23.261  22.415  1.00  0.00     0.346 HD
ATOM     68  H   UNL A   1      32.093  23.050  23.837  1.00  0.00     0.346 HD
BRANCH  66  69
ATOM     69  C   UNL A   1      32.194  21.500  22.557  1.00  0.00     0.264 C 
BRANCH  69  70
ATOM     70  C   UNL A   1      32.326  20.675  23.836  1.00  0.00     0.049 C 
ATOM     71  C   UNL A   1      32.013  21.392  25.177  1.00  0.00     0.041 C 
ATOM     72  C   UNL A   1      33.775  20.495  24.358  1.00  0.00     0.041 C 
ATOM     73  C   UNL A   1      33.244  20.691  25.793  1.00  0.00     0.115 C 
BRANCH  73  74
ATOM     74  O   UNL A   1      32.996  19.497  26.559  1.00  0.00    -0.393 OA
ATOM     75  H   UNL A   1      33.260  18.720  26.042  1.00  0.00     0.210 HD
ENDBRANCH  73  74
ENDBRANCH  69  70
ENDBRANCH  66  69
ENDBRANCH  65  66
ENDBRANCH  64  65
ENDBRANCH  57  59
ENDBRANCH   1  57
TORSDOF 16
ENDMDL
MODEL 3
REMARK VINA RESULT:      -9.9      1.701      2.249
REMARK SMILES O=C(OCCOC(=O)c1ccc(C[NH2+]C[C@H]2C[C@H](O)C2)nc1)c1ccc(-c2c3nc(c(-c4ccccc4)c4ccc([nH]4)c(-c4ccccc4)c4nc(c(-c5ccccc5)c5ccc2[nH]5)C=C4)C=C3)cc1
REMARK SMILES IDX 6 1 5 2 4 3 3 4 2 5 1 6 23 7 24 8 70 9 25 10 69 11 26 12
REMARK SMILES IDX 27 13 28 14 63 15 29 16 68 17 62 18 64 19 30 20 67 21 61 22
REMARK SMILES IDX 60 23 31 25 53 26 38 27 52 28 39 29 42 30 51 31 65 32 40 33
REMARK SMILES IDX 41 34 50 36 66 37 43 38 32 39 33 40 37 41 34 42 36 43 35 44
REMARK SMILES IDX 54 45 55 46 59 47 56 48 58 49 57 50 44 51 45 52 49 53 46 54
REMARK SMILES IDX 48 55 47 56 7 57 8 58 9 59 10 60 22 61 11 62 21 63 12 64
REMARK SMILES IDX 13 65 14 66 15 69 16 70 20 71 17 72 18 73 19 74
REMARK H PARENT 64 24 42 35 14 67 14 68 19 75
REMARK Flexibility Score: inf
ROOT
ATOM      1  O   UNL A   1      40.988  20.900  25.838  1.00  0.00    -0.458 OA
ENDROOT
BRANCH   1   2
ATOM      2  C   UNL A   1      42.297  20.488  26.259  1.00  0.00     0.275 C 
BRANCH   2   3
ATOM      3  C   UNL A   1      43.433  21.145  25.469  1.00  0.00     0.275 C 
BRANCH   3   4
ATOM      4  O   UNL A   1      43.080  22.382  24.827  1.00  0.00    -0.458 OA
BRANCH   4   5
ATOM      5  C   UNL A   1      43.691  23.588  24.892  1.00  0.00     0.338 C 
ATOM      6  O   UNL A   1      44.675  23.795  24.185  1.00  0.00    -0.246 OA
BRANCH   5   7
ATOM      7  C   UNL A   1      43.343  24.627  25.911  1.00  0.00     0.060 A 
ATOM      8  C   UNL A   1      43.897  25.905  26.010  1.00  0.00     0.016 A 
ATOM      9  C   UNL A   1      42.373  24.257  26.859  1.00  0.00     0.016 A 
ATOM     10  C   UNL A   1      43.429  26.825  26.958  1.00  0.00     0.010 A 
ATOM     11  C   UNL A   1      41.901  25.170  27.804  1.00  0.00     0.010 A 
ATOM     12  C   UNL A   1      42.419  26.469  27.849  1.00  0.00    -0.014 A 
BRANCH  12  13
ATOM     13  C   UNL A   1      41.968  27.405  28.901  1.00  0.00     0.031 A 
ATOM     14  C   UNL A   1      42.663  27.385  30.226  1.00  0.00     0.074 A 
ATOM     15  C   UNL A   1      40.940  28.246  28.682  1.00  0.00     0.049 A 
ATOM     16  N   UNL A   1      42.401  28.082  31.299  1.00  0.00    -0.248 NA
ATOM     17  C   UNL A   1      43.828  26.493  30.350  1.00  0.00     0.031 C 
ATOM     18  C   UNL A   1      40.258  28.437  27.406  1.00  0.00     0.029 A 
ATOM     19  N   UNL A   1      40.258  29.068  29.544  1.00  0.00    -0.354 N 
ATOM     20  C   UNL A   1      43.394  27.749  32.207  1.00  0.00     0.074 A 
ATOM     21  C   UNL A   1      44.222  26.738  31.590  1.00  0.00     0.031 C 
ATOM     22  C   UNL A   1      39.189  29.230  27.589  1.00  0.00     0.029 A 
ATOM     23  C   UNL A   1      39.119  29.607  28.994  1.00  0.00     0.049 A 
ATOM     24  H   UNL A   1      40.557  29.253  30.465  1.00  0.00     0.167 HD
ATOM     25  C   UNL A   1      43.615  28.273  33.434  1.00  0.00     0.031 A 
ATOM     26  C   UNL A   1      38.117  30.295  29.574  1.00  0.00     0.031 A 
ATOM     27  C   UNL A   1      42.768  29.257  34.046  1.00  0.00     0.049 A 
ATOM     28  C   UNL A   1      38.262  30.685  31.020  1.00  0.00     0.074 A 
ATOM     29  C   UNL A   1      42.924  29.895  35.263  1.00  0.00     0.029 A 
ATOM     30  N   UNL A   1      41.583  29.720  33.495  1.00  0.00    -0.354 N 
ATOM     31  N   UNL A   1      39.265  30.455  31.831  1.00  0.00    -0.248 NA
ATOM     32  C   UNL A   1      37.166  31.460  31.617  1.00  0.00     0.031 C 
ATOM     33  C   UNL A   1      41.797  30.695  35.478  1.00  0.00     0.029 A 
ATOM     34  C   UNL A   1      40.966  30.592  34.372  1.00  0.00     0.049 A 
ATOM     35  H   UNL A   1      41.235  29.466  32.610  1.00  0.00     0.167 HD
ATOM     36  C   UNL A   1      38.956  31.116  33.012  1.00  0.00     0.074 A 
ATOM     37  C   UNL A   1      37.664  31.741  32.815  1.00  0.00     0.031 C 
ATOM     38  C   UNL A   1      39.688  31.217  34.148  1.00  0.00     0.031 A 
BRANCH  25  39
ATOM     39  C   UNL A   1      44.814  27.778  34.184  1.00  0.00    -0.014 A 
ATOM     40  C   UNL A   1      44.756  26.595  34.939  1.00  0.00     0.009 A 
ATOM     41  C   UNL A   1      46.019  28.491  34.125  1.00  0.00     0.009 A 
ATOM     42  C   UNL A   1      45.875  26.153  35.645  1.00  0.00     0.001 A 
ATOM     43  C   UNL A   1      47.143  28.035  34.815  1.00  0.00     0.001 A 
ATOM     44  C   UNL A   1      47.069  26.872  35.579  1.00  0.00     0.000 A 
ENDBRANCH  25  39
BRANCH  26  45
ATOM     45  C   UNL A   1      36.882  30.622  28.812  1.00  0.00    -0.014 A 
ATOM     46  C   UNL A   1      36.588  31.935  28.419  1.00  0.00     0.009 A 
ATOM     47  C   UNL A   1      35.950  29.608  28.526  1.00  0.00     0.009 A 
ATOM     48  C   UNL A   1      35.369  32.234  27.804  1.00  0.00     0.001 A 
ATOM     49  C   UNL A   1      34.739  29.906  27.898  1.00  0.00     0.001 A 
ATOM     50  C   UNL A   1      34.443  31.221  27.550  1.00  0.00     0.000 A 
ENDBRANCH  26  45
BRANCH  38  51
ATOM     51  C   UNL A   1      39.136  32.077  35.247  1.00  0.00    -0.014 A 
ATOM     52  C   UNL A   1      39.343  33.463  35.257  1.00  0.00     0.009 A 
ATOM     53  C   UNL A   1      38.343  31.493  36.248  1.00  0.00     0.009 A 
ATOM     54  C   UNL A   1      38.780  34.248  36.266  1.00  0.00     0.001 A 
ATOM     55  C   UNL A   1      37.758  32.285  37.235  1.00  0.00     0.001 A 
ATOM     56  C   UNL A   1      37.983  33.660  37.247  1.00  0.00     0.000 A 
ENDBRANCH  38  51
ENDBRANCH  12  13
ENDBRANCH   5   7
ENDBRANCH   4   5
ENDBRANCH   3   4
ENDBRANCH   2   3
ENDBRANCH   1   2
BRANCH   1  57
ATOM     57  C   UNL A   1      40.218  21.453  26.819  1.00  0.00     0.339 C 
ATOM     58  O   UNL A   1      40.473  21.526  27.999  1.00  0.00    -0.246 OA
BRANCH  57  59
ATOM     59  C   UNL A   1      39.047  22.087  26.194  1.00  0.00     0.078 A 
ATOM     60  C   UNL A   1      38.752  23.437  26.345  1.00  0.00     0.019 A 
ATOM     61  C   UNL A   1      38.175  21.297  25.467  1.00  0.00     0.127 A 
ATOM     62  C   UNL A   1      37.558  23.927  25.815  1.00  0.00     0.031 A 
ATOM     63  N   UNL A   1      36.980  21.740  24.996  1.00  0.00    -0.254 NA
ATOM     64  C   UNL A   1      36.665  23.043  25.209  1.00  0.00     0.094 A 
BRANCH  64  65
ATOM     65  C   UNL A   1      35.273  23.520  24.821  1.00  0.00     0.317 C 
BRANCH  65  66
ATOM     66  N   UNL A   1      35.046  24.921  25.165  1.00  0.00    -0.341 N 
ATOM     67  H   UNL A   1      35.379  25.501  24.394  1.00  0.00     0.346 HD
ATOM     68  H   UNL A   1      35.549  25.104  26.033  1.00  0.00     0.346 HD
BRANCH  66  69
ATOM     69  C   UNL A   1      33.641  25.241  25.408  1.00  0.00     0.264 C 
BRANCH  69  70
ATOM     70  C   UNL A   1      33.047  26.133  24.319  1.00  0.00     0.049 C 
ATOM     71  C   UNL A   1      33.768  26.148  22.943  1.00  0.00     0.041 C 
ATOM     72  C   UNL A   1      33.399  27.639  24.434  1.00  0.00     0.041 C 
ATOM     73  C   UNL A   1      33.571  27.679  22.902  1.00  0.00     0.115 C 
BRANCH  73  74
ATOM     74  O   UNL A   1      32.452  28.169  22.139  1.00  0.00    -0.393 OA
ATOM     75  H   UNL A   1      32.743  28.898  21.569  1.00  0.00     0.210 HD
ENDBRANCH  73  74
ENDBRANCH  69  70
ENDBRANCH  66  69
ENDBRANCH  65  66
ENDBRANCH  64  65
ENDBRANCH  57  59
ENDBRANCH   1  57
TORSDOF 16
ENDMDL
