MODEL 1
REMARK VINA RESULT:     -11.9      0.000      0.000
REMARK SMILES O=C(OCCOC(=O)c1ccc(F)c(S(=O)(=O)N2CCOc3ccccc32)c1)c1ccc(-c2c3nc(c(-c4ccccc4)c4ccc([nH]4)c(-c4ccccc4)c4nc(c(-c5ccccc5)c5ccc2[nH]5)C=C4)C=C3)cc1
REMARK SMILES IDX 4 1 3 2 2 3 1 4 29 5 30 6 76 7 31 8 75 9 32 10 33 11 34 12
REMARK SMILES IDX 69 13 35 14 74 15 68 16 70 17 36 18 73 19 67 20 66 21 37 23
REMARK SMILES IDX 59 24 44 25 58 26 45 27 48 28 57 29 71 30 46 31 47 32 56 34
REMARK SMILES IDX 72 35 49 36 38 37 39 38 43 39 40 40 42 41 41 42 60 43 61 44
REMARK SMILES IDX 65 45 62 46 64 47 63 48 50 49 51 50 55 51 52 52 54 53 53 54
REMARK SMILES IDX 5 55 6 56 7 57 8 58 9 59 10 60 28 61 11 62 14 63 12 64 13 65
REMARK SMILES IDX 15 66 16 67 17 68 18 69 19 70 27 71 20 72 22 73 26 74 21 75
REMARK SMILES IDX 23 76 25 77 24 78
REMARK H PARENT 70 22 48 33
REMARK Flexibility Score: inf
ROOT
ATOM      1  C   UNL A   1      31.518  32.337  27.024  1.00  0.00     0.275 C 
ENDROOT
BRANCH   1   2
ATOM      2  O   UNL A   1      32.205  33.589  27.201  1.00  0.00    -0.458 OA
BRANCH   2   3
ATOM      3  C   UNL A   1      32.906  34.083  28.246  1.00  0.00     0.338 C 
ATOM      4  O   UNL A   1      32.533  35.136  28.761  1.00  0.00    -0.246 OA
BRANCH   3   5
ATOM      5  C   UNL A   1      34.177  33.482  28.760  1.00  0.00     0.060 A 
ATOM      6  C   UNL A   1      34.310  32.741  29.934  1.00  0.00     0.016 A 
ATOM      7  C   UNL A   1      35.339  33.715  27.998  1.00  0.00     0.016 A 
ATOM      8  C   UNL A   1      35.537  32.180  30.295  1.00  0.00     0.010 A 
ATOM      9  C   UNL A   1      36.571  33.152  28.350  1.00  0.00     0.010 A 
ATOM     10  C   UNL A   1      36.672  32.375  29.504  1.00  0.00    -0.014 A 
BRANCH  10  11
ATOM     11  C   UNL A   1      37.964  31.838  29.980  1.00  0.00     0.031 A 
ATOM     12  C   UNL A   1      38.678  32.545  31.090  1.00  0.00     0.074 A 
ATOM     13  C   UNL A   1      38.425  30.666  29.506  1.00  0.00     0.049 A 
ATOM     14  N   UNL A   1      39.725  32.155  31.768  1.00  0.00    -0.248 NA
ATOM     15  C   UNL A   1      38.112  33.830  31.529  1.00  0.00     0.031 C 
ATOM     16  C   UNL A   1      37.754  29.848  28.500  1.00  0.00     0.029 A 
ATOM     17  N   UNL A   1      39.554  29.952  29.810  1.00  0.00    -0.354 N 
ATOM     18  C   UNL A   1      39.905  33.114  32.754  1.00  0.00     0.074 A 
ATOM     19  C   UNL A   1      38.908  34.141  32.542  1.00  0.00     0.031 C 
ATOM     20  C   UNL A   1      38.507  28.772  28.223  1.00  0.00     0.029 A 
ATOM     21  C   UNL A   1      39.702  28.812  29.057  1.00  0.00     0.049 A 
ATOM     22  H   UNL A   1      40.197  30.227  30.502  1.00  0.00     0.167 HD
ATOM     23  C   UNL A   1      40.798  33.116  33.770  1.00  0.00     0.031 A 
ATOM     24  C   UNL A   1      40.687  27.895  29.050  1.00  0.00     0.031 A 
ATOM     25  C   UNL A   1      41.827  32.126  33.931  1.00  0.00     0.049 A 
ATOM     26  C   UNL A   1      41.769  28.009  30.086  1.00  0.00     0.074 A 
ATOM     27  C   UNL A   1      42.821  32.059  34.889  1.00  0.00     0.029 A 
ATOM     28  N   UNL A   1      42.000  31.033  33.093  1.00  0.00    -0.354 N 
ATOM     29  N   UNL A   1      41.904  28.901  31.040  1.00  0.00    -0.248 NA
ATOM     30  C   UNL A   1      42.806  26.969  30.079  1.00  0.00     0.031 C 
ATOM     31  C   UNL A   1      43.630  30.954  34.597  1.00  0.00     0.029 A 
ATOM     32  C   UNL A   1      43.104  30.299  33.494  1.00  0.00     0.049 A 
ATOM     33  H   UNL A   1      41.424  30.813  32.326  1.00  0.00     0.167 HD
ATOM     34  C   UNL A   1      43.015  28.510  31.770  1.00  0.00     0.074 A 
ATOM     35  C   UNL A   1      43.507  27.291  31.157  1.00  0.00     0.031 C 
ATOM     36  C   UNL A   1      43.576  29.097  32.856  1.00  0.00     0.031 A 
BRANCH  23  37
ATOM     37  C   UNL A   1      40.695  34.243  34.755  1.00  0.00    -0.014 A 
ATOM     38  C   UNL A   1      39.880  34.128  35.894  1.00  0.00     0.009 A 
ATOM     39  C   UNL A   1      41.396  35.437  34.537  1.00  0.00     0.009 A 
ATOM     40  C   UNL A   1      39.743  35.201  36.777  1.00  0.00     0.001 A 
ATOM     41  C   UNL A   1      41.273  36.500  35.434  1.00  0.00     0.001 A 
ATOM     42  C   UNL A   1      40.440  36.386  36.546  1.00  0.00     0.000 A 
ENDBRANCH  23  37
BRANCH  24  43
ATOM     43  C   UNL A   1      40.691  26.798  28.046  1.00  0.00    -0.014 A 
ATOM     44  C   UNL A   1      40.121  25.548  28.325  1.00  0.00     0.009 A 
ATOM     45  C   UNL A   1      41.304  26.997  26.797  1.00  0.00     0.009 A 
ATOM     46  C   UNL A   1      40.196  24.510  27.390  1.00  0.00     0.001 A 
ATOM     47  C   UNL A   1      41.354  25.968  25.855  1.00  0.00     0.001 A 
ATOM     48  C   UNL A   1      40.811  24.720  26.157  1.00  0.00     0.000 A 
ENDBRANCH  24  43
BRANCH  36  49
ATOM     49  C   UNL A   1      44.767  28.407  33.454  1.00  0.00    -0.014 A 
ATOM     50  C   UNL A   1      46.074  28.743  33.068  1.00  0.00     0.009 A 
ATOM     51  C   UNL A   1      44.576  27.420  34.434  1.00  0.00     0.009 A 
ATOM     52  C   UNL A   1      47.165  28.073  33.621  1.00  0.00     0.001 A 
ATOM     53  C   UNL A   1      45.671  26.776  35.009  1.00  0.00     0.001 A 
ATOM     54  C   UNL A   1      46.964  27.093  34.593  1.00  0.00     0.000 A 
ENDBRANCH  36  49
ENDBRANCH  10  11
ENDBRANCH   3   5
ENDBRANCH   2   3
ENDBRANCH   1   2
BRANCH   1  55
ATOM     55  C   UNL A   1      32.425  31.112  26.873  1.00  0.00     0.275 C 
BRANCH  55  56
ATOM     56  O   UNL A   1      31.769  29.965  26.317  1.00  0.00    -0.458 OA
BRANCH  56  57
ATOM     57  C   UNL A   1      32.274  28.762  26.701  1.00  0.00     0.338 C 
ATOM     58  O   UNL A   1      33.001  28.537  27.652  1.00  0.00    -0.246 OA
BRANCH  57  59
ATOM     59  C   UNL A   1      31.723  27.710  25.820  1.00  0.00     0.061 A 
ATOM     60  C   UNL A   1      31.040  28.060  24.652  1.00  0.00     0.019 A 
ATOM     61  C   UNL A   1      31.854  26.363  26.186  1.00  0.00     0.041 A 
ATOM     62  C   UNL A   1      30.435  27.066  23.885  1.00  0.00     0.041 A 
ATOM     63  C   UNL A   1      31.208  25.374  25.424  1.00  0.00     0.124 A 
ATOM     64  C   UNL A   1      30.478  25.738  24.298  1.00  0.00     0.143 A 
ATOM     65  F   UNL A   1      29.771  24.860  23.581  1.00  0.00    -0.205 F 
BRANCH  63  66
ATOM     66  S   UNL A   1      31.281  23.692  25.991  1.00  0.00     0.267 S 
ATOM     67  O   UNL A   1      30.574  23.668  27.256  1.00  0.00    -0.201 OA
ATOM     68  O   UNL A   1      30.818  22.908  24.867  1.00  0.00    -0.201 OA
BRANCH  66  69
ATOM     69  N   UNL A   1      32.917  23.403  26.327  1.00  0.00    -0.259 N 
ATOM     70  C   UNL A   1      33.210  22.716  27.616  1.00  0.00     0.177 C 
ATOM     71  C   UNL A   1      33.891  23.163  25.279  1.00  0.00     0.094 A 
ATOM     72  C   UNL A   1      33.812  21.349  27.337  1.00  0.00     0.252 C 
ATOM     73  C   UNL A   1      34.951  22.264  25.518  1.00  0.00     0.143 A 
ATOM     74  C   UNL A   1      33.938  23.929  24.108  1.00  0.00     0.031 A 
ATOM     75  O   UNL A   1      35.056  21.476  26.643  1.00  0.00    -0.489 OA
ATOM     76  C   UNL A   1      36.011  22.140  24.615  1.00  0.00     0.049 A 
ATOM     77  C   UNL A   1      34.982  23.778  23.188  1.00  0.00     0.002 A 
ATOM     78  C   UNL A   1      36.022  22.890  23.444  1.00  0.00     0.004 A 
ENDBRANCH  66  69
ENDBRANCH  63  66
ENDBRANCH  57  59
ENDBRANCH  56  57
ENDBRANCH  55  56
ENDBRANCH   1  55
TORSDOF 13
ENDMDL
MODEL 2
REMARK VINA RESULT:     -11.8      4.490      7.716
REMARK SMILES O=C(OCCOC(=O)c1ccc(F)c(S(=O)(=O)N2CCOc3ccccc32)c1)c1ccc(-c2c3nc(c(-c4ccccc4)c4ccc([nH]4)c(-c4ccccc4)c4nc(c(-c5ccccc5)c5ccc2[nH]5)C=C4)C=C3)cc1
REMARK SMILES IDX 4 1 3 2 2 3 1 4 29 5 30 6 76 7 31 8 75 9 32 10 33 11 34 12
REMARK SMILES IDX 69 13 35 14 74 15 68 16 70 17 36 18 73 19 67 20 66 21 37 23
REMARK SMILES IDX 59 24 44 25 58 26 45 27 48 28 57 29 71 30 46 31 47 32 56 34
REMARK SMILES IDX 72 35 49 36 38 37 39 38 43 39 40 40 42 41 41 42 60 43 61 44
REMARK SMILES IDX 65 45 62 46 64 47 63 48 50 49 51 50 55 51 52 52 54 53 53 54
REMARK SMILES IDX 5 55 6 56 7 57 8 58 9 59 10 60 28 61 11 62 14 63 12 64 13 65
REMARK SMILES IDX 15 66 16 67 17 68 18 69 19 70 27 71 20 72 22 73 26 74 21 75
REMARK SMILES IDX 23 76 25 77 24 78
REMARK H PARENT 70 22 48 33
REMARK Flexibility Score: inf
ROOT
ATOM      1  C   UNL A   1      34.826  33.195  28.036  1.00  0.00     0.275 C 
ENDROOT
BRANCH   1   2
ATOM      2  O   UNL A   1      34.115  31.948  28.151  1.00  0.00    -0.458 OA
BRANCH   2   3
ATOM      3  C   UNL A   1      34.520  30.670  27.979  1.00  0.00     0.338 C 
ATOM      4  O   UNL A   1      33.726  29.858  27.507  1.00  0.00    -0.246 OA
BRANCH   3   5
ATOM      5  C   UNL A   1      35.851  30.147  28.423  1.00  0.00     0.060 A 
ATOM      6  C   UNL A   1      36.159  29.689  29.703  1.00  0.00     0.016 A 
ATOM      7  C   UNL A   1      36.881  30.147  27.462  1.00  0.00     0.016 A 
ATOM      8  C   UNL A   1      37.422  29.171  29.997  1.00  0.00     0.010 A 
ATOM      9  C   UNL A   1      38.148  29.625  27.746  1.00  0.00     0.010 A 
ATOM     10  C   UNL A   1      38.422  29.128  29.021  1.00  0.00    -0.014 A 
BRANCH  10  11
ATOM     11  C   UNL A   1      39.768  28.657  29.410  1.00  0.00     0.031 A 
ATOM     12  C   UNL A   1      40.571  29.473  30.375  1.00  0.00     0.074 A 
ATOM     13  C   UNL A   1      40.208  27.454  28.998  1.00  0.00     0.049 A 
ATOM     14  N   UNL A   1      41.689  29.163  30.975  1.00  0.00    -0.248 NA
ATOM     15  C   UNL A   1      40.020  30.784  30.753  1.00  0.00     0.031 C 
ATOM     16  C   UNL A   1      39.460  26.537  28.142  1.00  0.00     0.029 A 
ATOM     17  N   UNL A   1      41.379  26.788  29.248  1.00  0.00    -0.354 N 
ATOM     18  C   UNL A   1      41.943  30.210  31.848  1.00  0.00     0.074 A 
ATOM     19  C   UNL A   1      40.905  31.198  31.648  1.00  0.00     0.031 C 
ATOM     20  C   UNL A   1      40.209  25.453  27.886  1.00  0.00     0.029 A 
ATOM     21  C   UNL A   1      41.479  25.587  28.588  1.00  0.00     0.049 A 
ATOM     22  H   UNL A   1      42.080  27.135  29.844  1.00  0.00     0.167 HD
ATOM     23  C   UNL A   1      42.932  30.319  32.764  1.00  0.00     0.031 A 
ATOM     24  C   UNL A   1      42.480  24.688  28.563  1.00  0.00     0.031 A 
ATOM     25  C   UNL A   1      43.996  29.363  32.908  1.00  0.00     0.049 A 
ATOM     26  C   UNL A   1      43.657  24.913  29.470  1.00  0.00     0.074 A 
ATOM     27  C   UNL A   1      45.082  29.399  33.762  1.00  0.00     0.029 A 
ATOM     28  N   UNL A   1      44.112  28.201  32.157  1.00  0.00    -0.354 N 
ATOM     29  N   UNL A   1      43.864  25.890  30.322  1.00  0.00    -0.248 NA
ATOM     30  C   UNL A   1      44.713  23.893  29.451  1.00  0.00     0.031 C 
ATOM     31  C   UNL A   1      45.885  28.285  33.489  1.00  0.00     0.029 A 
ATOM     32  C   UNL A   1      45.268  27.525  32.508  1.00  0.00     0.049 A 
ATOM     33  H   UNL A   1      43.468  27.904  31.475  1.00  0.00     0.167 HD
ATOM     34  C   UNL A   1      45.052  25.585  30.968  1.00  0.00     0.074 A 
ATOM     35  C   UNL A   1      45.511  24.322  30.419  1.00  0.00     0.031 C 
ATOM     36  C   UNL A   1      45.703  26.277  31.934  1.00  0.00     0.031 A 
BRANCH  23  37
ATOM     37  C   UNL A   1      42.900  31.529  33.650  1.00  0.00    -0.014 A 
ATOM     38  C   UNL A   1      43.569  32.708  33.279  1.00  0.00     0.009 A 
ATOM     39  C   UNL A   1      42.220  31.489  34.875  1.00  0.00     0.009 A 
ATOM     40  C   UNL A   1      43.585  33.811  34.134  1.00  0.00     0.001 A 
ATOM     41  C   UNL A   1      42.219  32.603  35.717  1.00  0.00     0.001 A 
ATOM     42  C   UNL A   1      42.909  33.758  35.352  1.00  0.00     0.000 A 
ENDBRANCH  23  37
BRANCH  24  43
ATOM     43  C   UNL A   1      42.412  23.505  27.665  1.00  0.00    -0.014 A 
ATOM     44  C   UNL A   1      42.829  23.575  26.328  1.00  0.00     0.009 A 
ATOM     45  C   UNL A   1      41.891  22.292  28.148  1.00  0.00     0.009 A 
ATOM     46  C   UNL A   1      42.691  22.468  25.485  1.00  0.00     0.001 A 
ATOM     47  C   UNL A   1      41.780  21.180  27.310  1.00  0.00     0.001 A 
ATOM     48  C   UNL A   1      42.169  21.272  25.975  1.00  0.00     0.000 A 
ENDBRANCH  24  43
BRANCH  36  49
ATOM     49  C   UNL A   1      46.965  25.663  32.468  1.00  0.00    -0.014 A 
ATOM     50  C   UNL A   1      48.205  25.898  31.856  1.00  0.00     0.009 A 
ATOM     51  C   UNL A   1      46.910  24.852  33.613  1.00  0.00     0.009 A 
ATOM     52  C   UNL A   1      49.362  25.299  32.356  1.00  0.00     0.001 A 
ATOM     53  C   UNL A   1      48.073  24.282  34.130  1.00  0.00     0.001 A 
ATOM     54  C   UNL A   1      49.296  24.495  33.494  1.00  0.00     0.000 A 
ENDBRANCH  36  49
ENDBRANCH  10  11
ENDBRANCH   3   5
ENDBRANCH   2   3
ENDBRANCH   1   2
BRANCH   1  55
ATOM     55  C   UNL A   1      33.958  34.412  27.705  1.00  0.00     0.275 C 
BRANCH  55  56
ATOM     56  O   UNL A   1      32.919  34.665  28.659  1.00  0.00    -0.458 OA
BRANCH  56  57
ATOM     57  C   UNL A   1      32.926  35.907  29.213  1.00  0.00     0.338 C 
ATOM     58  O   UNL A   1      32.622  36.956  28.674  1.00  0.00    -0.246 OA
BRANCH  57  59
ATOM     59  C   UNL A   1      33.282  35.791  30.644  1.00  0.00     0.061 A 
ATOM     60  C   UNL A   1      32.791  36.720  31.565  1.00  0.00     0.019 A 
ATOM     61  C   UNL A   1      34.146  34.768  31.060  1.00  0.00     0.041 A 
ATOM     62  C   UNL A   1      33.217  36.662  32.891  1.00  0.00     0.041 A 
ATOM     63  C   UNL A   1      34.595  34.744  32.391  1.00  0.00     0.124 A 
ATOM     64  C   UNL A   1      34.151  35.710  33.287  1.00  0.00     0.143 A 
ATOM     65  F   UNL A   1      34.606  35.795  34.541  1.00  0.00    -0.205 F 
BRANCH  63  66
ATOM     66  S   UNL A   1      35.794  33.518  32.853  1.00  0.00     0.267 S 
ATOM     67  O   UNL A   1      35.463  33.129  34.209  1.00  0.00    -0.201 OA
ATOM     68  O   UNL A   1      35.763  32.553  31.775  1.00  0.00    -0.201 OA
BRANCH  66  69
ATOM     69  N   UNL A   1      37.276  34.339  32.916  1.00  0.00    -0.259 N 
ATOM     70  C   UNL A   1      37.885  34.489  34.267  1.00  0.00     0.177 C 
ATOM     71  C   UNL A   1      38.229  34.299  31.824  1.00  0.00     0.094 A 
ATOM     72  C   UNL A   1      39.185  33.706  34.326  1.00  0.00     0.252 C 
ATOM     73  C   UNL A   1      39.609  34.314  32.114  1.00  0.00     0.143 A 
ATOM     74  C   UNL A   1      37.844  34.440  30.485  1.00  0.00     0.031 A 
ATOM     75  O   UNL A   1      40.131  34.223  33.386  1.00  0.00    -0.489 OA
ATOM     76  C   UNL A   1      40.560  34.463  31.100  1.00  0.00     0.049 A 
ATOM     77  C   UNL A   1      38.798  34.554  29.467  1.00  0.00     0.002 A 
ATOM     78  C   UNL A   1      40.155  34.573  29.775  1.00  0.00     0.004 A 
ENDBRANCH  66  69
ENDBRANCH  63  66
ENDBRANCH  57  59
ENDBRANCH  56  57
ENDBRANCH  55  56
ENDBRANCH   1  55
TORSDOF 13
ENDMDL
MODEL 3
REMARK VINA RESULT:     -11.8      1.237      1.820
REMARK SMILES O=C(OCCOC(=O)c1ccc(F)c(S(=O)(=O)N2CCOc3ccccc32)c1)c1ccc(-c2c3nc(c(-c4ccccc4)c4ccc([nH]4)c(-c4ccccc4)c4nc(c(-c5ccccc5)c5ccc2[nH]5)C=C4)C=C3)cc1
REMARK SMILES IDX 4 1 3 2 2 3 1 4 29 5 30 6 76 7 31 8 75 9 32 10 33 11 34 12
REMARK SMILES IDX 69 13 35 14 74 15 68 16 70 17 36 18 73 19 67 20 66 21 37 23
REMARK SMILES IDX 59 24 44 25 58 26 45 27 48 28 57 29 71 30 46 31 47 32 56 34
REMARK SMILES IDX 72 35 49 36 38 37 39 38 43 39 40 40 42 41 41 42 60 43 61 44
REMARK SMILES IDX 65 45 62 46 64 47 63 48 50 49 51 50 55 51 52 52 54 53 53 54
REMARK SMILES IDX 5 55 6 56 7 57 8 58 9 59 10 60 28 61 11 62 14 63 12 64 13 65
REMARK SMILES IDX 15 66 16 67 17 68 18 69 19 70 27 71 20 72 22 73 26 74 21 75
REMARK SMILES IDX 23 76 25 77 24 78
REMARK H PARENT 70 22 48 33
REMARK Flexibility Score: inf
ROOT
ATOM      1  C   UNL A   1      31.565  32.186  27.008  1.00  0.00     0.275 C 
ENDROOT
BRANCH   1   2
ATOM      2  O   UNL A   1      32.198  33.470  27.160  1.00  0.00    -0.458 OA
BRANCH   2   3
ATOM      3  C   UNL A   1      32.904  34.001  28.184  1.00  0.00     0.338 C 
ATOM      4  O   UNL A   1      32.538  35.076  28.656  1.00  0.00    -0.246 OA
BRANCH   3   5
ATOM      5  C   UNL A   1      34.172  33.414  28.720  1.00  0.00     0.060 A 
ATOM      6  C   UNL A   1      34.292  32.669  29.893  1.00  0.00     0.016 A 
ATOM      7  C   UNL A   1      35.345  33.665  27.982  1.00  0.00     0.016 A 
ATOM      8  C   UNL A   1      35.519  32.122  30.276  1.00  0.00     0.010 A 
ATOM      9  C   UNL A   1      36.578  33.116  28.355  1.00  0.00     0.010 A 
ATOM     10  C   UNL A   1      36.667  32.334  29.507  1.00  0.00    -0.014 A 
BRANCH  10  11
ATOM     11  C   UNL A   1      37.956  31.812  30.006  1.00  0.00     0.031 A 
ATOM     12  C   UNL A   1      38.630  32.512  31.145  1.00  0.00     0.074 A 
ATOM     13  C   UNL A   1      38.449  30.657  29.524  1.00  0.00     0.049 A 
ATOM     14  N   UNL A   1      39.667  32.128  31.842  1.00  0.00    -0.248 NA
ATOM     15  C   UNL A   1      38.031  33.779  31.592  1.00  0.00     0.031 C 
ATOM     16  C   UNL A   1      37.816  29.844  28.488  1.00  0.00     0.029 A 
ATOM     17  N   UNL A   1      39.582  29.956  29.843  1.00  0.00    -0.354 N 
ATOM     18  C   UNL A   1      39.806  33.073  32.848  1.00  0.00     0.074 A 
ATOM     19  C   UNL A   1      38.797  34.086  32.629  1.00  0.00     0.031 C 
ATOM     20  C   UNL A   1      38.595  28.786  28.211  1.00  0.00     0.029 A 
ATOM     21  C   UNL A   1      39.769  28.832  29.075  1.00  0.00     0.049 A 
ATOM     22  H   UNL A   1      40.203  30.231  30.555  1.00  0.00     0.167 HD
ATOM     23  C   UNL A   1      40.674  33.073  33.885  1.00  0.00     0.031 A 
ATOM     24  C   UNL A   1      40.769  27.932  29.077  1.00  0.00     0.031 A 
ATOM     25  C   UNL A   1      41.715  32.097  34.055  1.00  0.00     0.049 A 
ATOM     26  C   UNL A   1      41.824  28.047  30.141  1.00  0.00     0.074 A 
ATOM     27  C   UNL A   1      42.687  32.031  35.036  1.00  0.00     0.029 A 
ATOM     28  N   UNL A   1      41.928  31.022  33.203  1.00  0.00    -0.354 N 
ATOM     29  N   UNL A   1      41.919  28.925  31.112  1.00  0.00    -0.248 NA
ATOM     30  C   UNL A   1      42.878  27.026  30.142  1.00  0.00     0.031 C 
ATOM     31  C   UNL A   1      43.522  30.945  34.745  1.00  0.00     0.029 A 
ATOM     32  C   UNL A   1      43.035  30.301  33.619  1.00  0.00     0.049 A 
ATOM     33  H   UNL A   1      41.375  30.806  32.418  1.00  0.00     0.167 HD
ATOM     34  C   UNL A   1      43.019  28.540  31.863  1.00  0.00     0.074 A 
ATOM     35  C   UNL A   1      43.548  27.341  31.242  1.00  0.00     0.031 C 
ATOM     36  C   UNL A   1      43.543  29.118  32.972  1.00  0.00     0.031 A 
BRANCH  23  37
ATOM     37  C   UNL A   1      40.527  34.180  34.886  1.00  0.00    -0.014 A 
ATOM     38  C   UNL A   1      39.715  34.018  36.022  1.00  0.00     0.009 A 
ATOM     39  C   UNL A   1      41.182  35.403  34.687  1.00  0.00     0.009 A 
ATOM     40  C   UNL A   1      39.536  35.072  36.920  1.00  0.00     0.001 A 
ATOM     41  C   UNL A   1      41.018  36.447  35.599  1.00  0.00     0.001 A 
ATOM     42  C   UNL A   1      40.189  36.286  36.708  1.00  0.00     0.000 A 
ENDBRANCH  23  37
BRANCH  24  43
ATOM     43  C   UNL A   1      40.817  26.853  28.054  1.00  0.00    -0.014 A 
ATOM     44  C   UNL A   1      40.302  25.576  28.314  1.00  0.00     0.009 A 
ATOM     45  C   UNL A   1      41.417  27.099  26.808  1.00  0.00     0.009 A 
ATOM     46  C   UNL A   1      40.419  24.558  27.362  1.00  0.00     0.001 A 
ATOM     47  C   UNL A   1      41.508  26.089  25.848  1.00  0.00     0.001 A 
ATOM     48  C   UNL A   1      41.020  24.814  26.131  1.00  0.00     0.000 A 
ENDBRANCH  24  43
BRANCH  36  49
ATOM     49  C   UNL A   1      44.732  28.439  33.588  1.00  0.00    -0.014 A 
ATOM     50  C   UNL A   1      44.576  27.431  34.552  1.00  0.00     0.009 A 
ATOM     51  C   UNL A   1      46.025  28.802  33.181  1.00  0.00     0.009 A 
ATOM     52  C   UNL A   1      45.695  26.829  35.127  1.00  0.00     0.001 A 
ATOM     53  C   UNL A   1      47.141  28.174  33.734  1.00  0.00     0.001 A 
ATOM     54  C   UNL A   1      46.976  27.198  34.716  1.00  0.00     0.000 A 
ENDBRANCH  36  49
ENDBRANCH  10  11
ENDBRANCH   3   5
ENDBRANCH   2   3
ENDBRANCH   1   2
BRANCH   1  55
ATOM     55  C   UNL A   1      32.503  30.980  27.110  1.00  0.00     0.275 C 
BRANCH  55  56
ATOM     56  O   UNL A   1      32.604  30.216  25.901  1.00  0.00    -0.458 OA
BRANCH  56  57
ATOM     57  C   UNL A   1      33.693  29.405  25.814  1.00  0.00     0.338 C 
ATOM     58  O   UNL A   1      34.627  29.339  26.592  1.00  0.00    -0.246 OA
BRANCH  57  59
ATOM     59  C   UNL A   1      33.533  28.515  24.643  1.00  0.00     0.061 A 
ATOM     60  C   UNL A   1      34.028  28.904  23.395  1.00  0.00     0.019 A 
ATOM     61  C   UNL A   1      32.848  27.301  24.786  1.00  0.00     0.041 A 
ATOM     62  C   UNL A   1      33.780  28.107  22.280  1.00  0.00     0.041 A 
ATOM     63  C   UNL A   1      32.573  26.525  23.647  1.00  0.00     0.124 A 
ATOM     64  C   UNL A   1      33.015  26.951  22.400  1.00  0.00     0.143 A 
ATOM     65  F   UNL A   1      32.714  26.306  21.269  1.00  0.00    -0.205 F 
BRANCH  63  66
ATOM     66  S   UNL A   1      31.585  25.062  23.843  1.00  0.00     0.267 S 
ATOM     67  O   UNL A   1      30.226  25.455  23.529  1.00  0.00    -0.201 OA
ATOM     68  O   UNL A   1      32.267  24.054  23.060  1.00  0.00    -0.201 OA
BRANCH  66  69
ATOM     69  N   UNL A   1      31.633  24.707  25.500  1.00  0.00    -0.259 N 
ATOM     70  C   UNL A   1      30.321  24.683  26.204  1.00  0.00     0.177 C 
ATOM     71  C   UNL A   1      32.644  23.840  26.076  1.00  0.00     0.094 A 
ATOM     72  C   UNL A   1      30.029  23.273  26.686  1.00  0.00     0.252 C 
ATOM     73  C   UNL A   1      32.298  23.006  27.159  1.00  0.00     0.143 A 
ATOM     74  C   UNL A   1      33.997  23.932  25.731  1.00  0.00     0.031 A 
ATOM     75  O   UNL A   1      31.014  22.848  27.632  1.00  0.00    -0.489 OA
ATOM     76  C   UNL A   1      33.273  22.294  27.864  1.00  0.00     0.049 A 
ATOM     77  C   UNL A   1      34.969  23.192  26.415  1.00  0.00     0.002 A 
ATOM     78  C   UNL A   1      34.608  22.379  27.486  1.00  0.00     0.004 A 
ENDBRANCH  66  69
ENDBRANCH  63  66
ENDBRANCH  57  59
ENDBRANCH  56  57
ENDBRANCH  55  56
ENDBRANCH   1  55
TORSDOF 13
ENDMDL
