MODEL 1
REMARK VINA RESULT:     -12.6      0.000      0.000
REMARK SMILES CCCn1nc(C(=O)OCCOC(=O)c2ccc(-c3c4nc(c(-c5ccccc5)c5ccc([nH]5)c(-c5ccccc5)c5nc(c(-c6ccccc6)c6ccc3[nH]6)C=C5)C=C4)cc2)c2c1CC[C@@H]([NH+]1CC[NH+](Cc3ccccn3)CC1)C2
REMARK SMILES IDX 10 1 9 2 7 3 8 4 6 5 4 6 5 7 64 8 63 9 65 10 81 11 66 12
REMARK SMILES IDX 67 13 3 14 2 15 1 16 68 17 69 18 80 19 70 21 79 22 71 23
REMARK SMILES IDX 72 25 73 26 74 27 78 28 75 29 77 30 76 31 11 32 12 33 13 34
REMARK SMILES IDX 14 35 15 36 16 37 62 38 17 39 61 40 18 41 19 42 20 43 55 44
REMARK SMILES IDX 21 45 60 46 54 47 56 48 22 49 59 50 53 51 52 52 23 54 45 55
REMARK SMILES IDX 30 56 44 57 31 58 34 59 43 60 57 61 32 62 33 63 42 65 58 66
REMARK SMILES IDX 35 67 24 68 25 69 29 70 26 71 28 72 27 73 46 74 47 75 51 76
REMARK SMILES IDX 48 77 50 78 49 79 36 80 37 81 41 82 38 83 40 84 39 85
REMARK H PARENT 68 20 71 24 56 53 34 64
REMARK Flexibility Score: inf
ROOT
ATOM      1  C   UNL A   1      32.853  31.326  27.229  1.00  0.00     0.275 C 
ENDROOT
BRANCH   1   2
ATOM      2  O   UNL A   1      33.109  29.935  27.433  1.00  0.00    -0.457 OA
BRANCH   2   3
ATOM      3  C   UNL A   1      33.535  29.202  26.359  1.00  0.00     0.359 C 
ATOM      4  O   UNL A   1      34.717  28.954  26.129  1.00  0.00    -0.244 OA
BRANCH   3   5
ATOM      5  C   UNL A   1      32.392  28.703  25.581  1.00  0.00     0.174 A 
ATOM      6  N   UNL A   1      30.678  28.661  24.280  1.00  0.00    -0.268 N 
ATOM      7  N   UNL A   1      31.582  29.499  24.850  1.00  0.00    -0.165 NA
ATOM      8  C   UNL A   1      30.803  27.392  24.766  1.00  0.00     0.043 A 
ATOM      9  C   UNL A   1      31.996  27.347  25.450  1.00  0.00     0.014 A 
ATOM     10  C   UNL A   1      29.921  26.222  24.603  1.00  0.00     0.062 C 
ATOM     11  C   UNL A   1      32.618  26.085  25.973  1.00  0.00     0.105 C 
ATOM     12  C   UNL A   1      30.309  25.142  25.622  1.00  0.00     0.072 C 
ATOM     13  C   UNL A   1      31.814  24.804  25.602  1.00  0.00     0.189 C 
BRANCH   6  14
ATOM     14  C   UNL A   1      29.833  29.231  23.241  1.00  0.00     0.144 C 
BRANCH  14  15
ATOM     15  C   UNL A   1      29.207  30.619  23.419  1.00  0.00     0.020 C 
ATOM     16  C   UNL A   1      27.686  30.597  23.363  1.00  0.00     0.006 C 
ENDBRANCH  14  15
ENDBRANCH   6  14
BRANCH  13  17
ATOM     17  N   UNL A   1      32.280  24.063  24.420  1.00  0.00    -0.323 N 
ATOM     18  C   UNL A   1      31.455  23.037  23.797  1.00  0.00     0.324 C 
ATOM     19  C   UNL A   1      33.729  23.852  24.334  1.00  0.00     0.324 C 
ATOM     20  H   UNL A   1      32.058  24.795  23.744  1.00  0.00     0.348 HD
ATOM     21  C   UNL A   1      31.985  21.573  23.802  1.00  0.00     0.324 C 
ATOM     22  C   UNL A   1      34.191  22.583  23.586  1.00  0.00     0.324 C 
ATOM     23  N   UNL A   1      33.430  21.375  23.885  1.00  0.00    -0.321 N 
ATOM     24  H   UNL A   1      33.635  20.753  23.104  1.00  0.00     0.348 HD
BRANCH  23  25
ATOM     25  C   UNL A   1      33.936  20.509  24.960  1.00  0.00     0.319 C 
BRANCH  25  26
ATOM     26  C   UNL A   1      33.694  19.005  24.905  1.00  0.00     0.095 A 
ATOM     27  C   UNL A   1      34.653  18.152  24.357  1.00  0.00     0.030 A 
ATOM     28  N   UNL A   1      32.551  18.518  25.457  1.00  0.00    -0.255 NA
ATOM     29  C   UNL A   1      34.395  16.782  24.288  1.00  0.00     0.004 A 
ATOM     30  C   UNL A   1      32.329  17.183  25.380  1.00  0.00     0.111 A 
ATOM     31  C   UNL A   1      33.201  16.286  24.791  1.00  0.00     0.020 A 
ENDBRANCH  25  26
ENDBRANCH  23  25
ENDBRANCH  13  17
ENDBRANCH   3   5
ENDBRANCH   2   3
ENDBRANCH   1   2
BRANCH   1  32
ATOM     32  C   UNL A   1      33.888  32.151  27.979  1.00  0.00     0.275 C 
BRANCH  32  33
ATOM     33  O   UNL A   1      35.063  31.373  28.200  1.00  0.00    -0.458 OA
BRANCH  33  34
ATOM     34  C   UNL A   1      36.139  32.017  28.706  1.00  0.00     0.338 C 
ATOM     35  O   UNL A   1      36.246  33.200  28.968  1.00  0.00    -0.246 OA
BRANCH  34  36
ATOM     36  C   UNL A   1      37.261  31.072  28.705  1.00  0.00     0.060 A 
ATOM     37  C   UNL A   1      37.042  29.742  28.340  1.00  0.00     0.016 A 
ATOM     38  C   UNL A   1      38.474  31.489  29.272  1.00  0.00     0.016 A 
ATOM     39  C   UNL A   1      38.014  28.804  28.646  1.00  0.00     0.010 A 
ATOM     40  C   UNL A   1      39.429  30.559  29.592  1.00  0.00     0.010 A 
ATOM     41  C   UNL A   1      39.169  29.218  29.326  1.00  0.00    -0.014 A 
BRANCH  41  42
ATOM     42  C   UNL A   1      40.223  28.263  29.610  1.00  0.00     0.031 A 
ATOM     43  C   UNL A   1      40.606  28.253  31.040  1.00  0.00     0.074 A 
ATOM     44  C   UNL A   1      40.655  27.358  28.708  1.00  0.00     0.049 A 
ATOM     45  N   UNL A   1      41.739  28.612  31.541  1.00  0.00    -0.248 NA
ATOM     46  C   UNL A   1      39.567  27.971  32.047  1.00  0.00     0.031 C 
ATOM     47  C   UNL A   1      40.126  27.122  27.358  1.00  0.00     0.029 A 
ATOM     48  N   UNL A   1      41.590  26.375  28.843  1.00  0.00    -0.354 N 
ATOM     49  C   UNL A   1      41.632  28.384  32.909  1.00  0.00     0.074 A 
ATOM     50  C   UNL A   1      40.235  28.176  33.182  1.00  0.00     0.031 C 
ATOM     51  C   UNL A   1      40.589  25.938  26.893  1.00  0.00     0.029 A 
ATOM     52  C   UNL A   1      41.557  25.410  27.840  1.00  0.00     0.049 A 
ATOM     53  H   UNL A   1      42.235  26.349  29.587  1.00  0.00     0.167 HD
ATOM     54  C   UNL A   1      42.736  28.069  33.638  1.00  0.00     0.031 A 
ATOM     55  C   UNL A   1      42.268  24.257  27.797  1.00  0.00     0.031 A 
ATOM     56  C   UNL A   1      43.941  28.351  32.901  1.00  0.00     0.049 A 
ATOM     57  C   UNL A   1      43.433  24.424  28.687  1.00  0.00     0.074 A 
ATOM     58  C   UNL A   1      44.655  29.468  32.534  1.00  0.00     0.029 A 
ATOM     59  N   UNL A   1      44.327  27.325  32.077  1.00  0.00    -0.354 N 
ATOM     60  N   UNL A   1      44.409  25.242  28.422  1.00  0.00    -0.248 NA
ATOM     61  C   UNL A   1      43.374  23.941  30.061  1.00  0.00     0.031 C 
ATOM     62  C   UNL A   1      45.332  29.123  31.326  1.00  0.00     0.029 A 
ATOM     63  C   UNL A   1      45.054  27.793  31.017  1.00  0.00     0.049 A 
ATOM     64  H   UNL A   1      44.109  26.376  32.228  1.00  0.00     0.167 HD
ATOM     65  C   UNL A   1      44.782  25.728  29.659  1.00  0.00     0.074 A 
ATOM     66  C   UNL A   1      44.266  24.763  30.622  1.00  0.00     0.031 C 
ATOM     67  C   UNL A   1      45.184  27.023  29.800  1.00  0.00     0.031 A 
BRANCH  54  68
ATOM     68  C   UNL A   1      42.734  27.019  34.728  1.00  0.00    -0.014 A 
ATOM     69  C   UNL A   1      43.100  25.704  34.385  1.00  0.00     0.009 A 
ATOM     70  C   UNL A   1      42.094  27.191  35.971  1.00  0.00     0.009 A 
ATOM     71  C   UNL A   1      42.779  24.618  35.210  1.00  0.00     0.001 A 
ATOM     72  C   UNL A   1      41.803  26.113  36.812  1.00  0.00     0.001 A 
ATOM     73  C   UNL A   1      42.123  24.824  36.419  1.00  0.00     0.000 A 
ENDBRANCH  54  68
BRANCH  55  74
ATOM     74  C   UNL A   1      41.983  22.956  27.160  1.00  0.00    -0.014 A 
ATOM     75  C   UNL A   1      42.904  22.372  26.273  1.00  0.00     0.009 A 
ATOM     76  C   UNL A   1      40.953  22.145  27.667  1.00  0.00     0.009 A 
ATOM     77  C   UNL A   1      42.828  21.012  25.946  1.00  0.00     0.001 A 
ATOM     78  C   UNL A   1      40.881  20.785  27.343  1.00  0.00     0.001 A 
ATOM     79  C   UNL A   1      41.828  20.214  26.496  1.00  0.00     0.000 A 
ENDBRANCH  55  74
BRANCH  67  80
ATOM     80  C   UNL A   1      45.616  27.745  28.555  1.00  0.00    -0.014 A 
ATOM     81  C   UNL A   1      46.859  27.543  27.930  1.00  0.00     0.009 A 
ATOM     82  C   UNL A   1      44.696  28.615  27.954  1.00  0.00     0.009 A 
ATOM     83  C   UNL A   1      47.178  28.217  26.747  1.00  0.00     0.001 A 
ATOM     84  C   UNL A   1      45.007  29.270  26.764  1.00  0.00     0.001 A 
ATOM     85  C   UNL A   1      46.248  29.078  26.163  1.00  0.00     0.000 A 
ENDBRANCH  67  80
ENDBRANCH  41  42
ENDBRANCH  34  36
ENDBRANCH  33  34
ENDBRANCH  32  33
ENDBRANCH   1  32
TORSDOF 16
ENDMDL
MODEL 2
REMARK VINA RESULT:     -12.5      1.118      1.856
REMARK SMILES CCCn1nc(C(=O)OCCOC(=O)c2ccc(-c3c4nc(c(-c5ccccc5)c5ccc([nH]5)c(-c5ccccc5)c5nc(c(-c6ccccc6)c6ccc3[nH]6)C=C5)C=C4)cc2)c2c1CC[C@@H]([NH+]1CC[NH+](Cc3ccccn3)CC1)C2
REMARK SMILES IDX 10 1 9 2 7 3 8 4 6 5 4 6 5 7 64 8 63 9 65 10 81 11 66 12
REMARK SMILES IDX 67 13 3 14 2 15 1 16 68 17 69 18 80 19 70 21 79 22 71 23
REMARK SMILES IDX 72 25 73 26 74 27 78 28 75 29 77 30 76 31 11 32 12 33 13 34
REMARK SMILES IDX 14 35 15 36 16 37 62 38 17 39 61 40 18 41 19 42 20 43 55 44
REMARK SMILES IDX 21 45 60 46 54 47 56 48 22 49 59 50 53 51 52 52 23 54 45 55
REMARK SMILES IDX 30 56 44 57 31 58 34 59 43 60 57 61 32 62 33 63 42 65 58 66
REMARK SMILES IDX 35 67 24 68 25 69 29 70 26 71 28 72 27 73 46 74 47 75 51 76
REMARK SMILES IDX 48 77 50 78 49 79 36 80 37 81 41 82 38 83 40 84 39 85
REMARK H PARENT 68 20 71 24 56 53 34 64
REMARK Flexibility Score: inf
ROOT
ATOM      1  C   UNL A   1      32.683  31.010  26.961  1.00  0.00     0.275 C 
ENDROOT
BRANCH   1   2
ATOM      2  O   UNL A   1      33.068  29.635  27.014  1.00  0.00    -0.457 OA
BRANCH   2   3
ATOM      3  C   UNL A   1      33.366  29.011  25.834  1.00  0.00     0.359 C 
ATOM      4  O   UNL A   1      34.507  28.902  25.390  1.00  0.00    -0.244 OA
BRANCH   3   5
ATOM      5  C   UNL A   1      32.156  28.439  25.225  1.00  0.00     0.174 A 
ATOM      6  N   UNL A   1      30.362  28.250  24.052  1.00  0.00    -0.268 N 
ATOM      7  N   UNL A   1      31.334  29.129  24.406  1.00  0.00    -0.165 NA
ATOM      8  C   UNL A   1      30.465  27.086  24.757  1.00  0.00     0.043 A 
ATOM      9  C   UNL A   1      31.697  27.105  25.370  1.00  0.00     0.014 A 
ATOM     10  C   UNL A   1      29.528  25.953  24.862  1.00  0.00     0.062 C 
ATOM     11  C   UNL A   1      32.299  25.928  26.082  1.00  0.00     0.105 C 
ATOM     12  C   UNL A   1      29.935  25.059  26.040  1.00  0.00     0.072 C 
ATOM     13  C   UNL A   1      31.421  24.645  26.000  1.00  0.00     0.189 C 
BRANCH   6  14
ATOM     14  C   UNL A   1      29.477  28.664  22.974  1.00  0.00     0.144 C 
BRANCH  14  15
ATOM     15  C   UNL A   1      29.150  30.146  22.759  1.00  0.00     0.020 C 
ATOM     16  C   UNL A   1      27.655  30.427  22.717  1.00  0.00     0.006 C 
ENDBRANCH  14  15
ENDBRANCH   6  14
BRANCH  13  17
ATOM     17  N   UNL A   1      31.780  23.678  24.951  1.00  0.00    -0.323 N 
ATOM     18  C   UNL A   1      31.196  22.343  24.922  1.00  0.00     0.324 C 
ATOM     19  C   UNL A   1      33.147  23.785  24.431  1.00  0.00     0.324 C 
ATOM     20  H   UNL A   1      31.170  24.070  24.234  1.00  0.00     0.348 HD
ATOM     21  C   UNL A   1      32.150  21.126  25.107  1.00  0.00     0.324 C 
ATOM     22  C   UNL A   1      33.783  22.479  23.907  1.00  0.00     0.324 C 
ATOM     23  N   UNL A   1      33.552  21.301  24.737  1.00  0.00    -0.321 N 
ATOM     24  H   UNL A   1      33.738  20.517  24.111  1.00  0.00     0.348 HD
BRANCH  23  25
ATOM     25  C   UNL A   1      34.567  20.983  25.752  1.00  0.00     0.319 C 
BRANCH  25  26
ATOM     26  C   UNL A   1      35.902  21.718  25.751  1.00  0.00     0.095 A 
ATOM     27  C   UNL A   1      37.067  21.070  25.338  1.00  0.00     0.030 A 
ATOM     28  N   UNL A   1      35.913  23.031  26.102  1.00  0.00    -0.255 NA
ATOM     29  C   UNL A   1      38.284  21.754  25.376  1.00  0.00     0.004 A 
ATOM     30  C   UNL A   1      37.107  23.671  26.125  1.00  0.00     0.111 A 
ATOM     31  C   UNL A   1      38.311  23.076  25.796  1.00  0.00     0.020 A 
ENDBRANCH  25  26
ENDBRANCH  23  25
ENDBRANCH  13  17
ENDBRANCH   3   5
ENDBRANCH   2   3
ENDBRANCH   1   2
BRANCH   1  32
ATOM     32  C   UNL A   1      33.699  31.854  27.716  1.00  0.00     0.275 C 
BRANCH  32  33
ATOM     33  O   UNL A   1      34.947  31.167  27.784  1.00  0.00    -0.458 OA
BRANCH  33  34
ATOM     34  C   UNL A   1      35.956  31.789  28.435  1.00  0.00     0.338 C 
ATOM     35  O   UNL A   1      36.010  32.952  28.791  1.00  0.00    -0.246 OA
BRANCH  34  36
ATOM     36  C   UNL A   1      37.094  30.866  28.474  1.00  0.00     0.060 A 
ATOM     37  C   UNL A   1      36.913  29.531  28.104  1.00  0.00     0.016 A 
ATOM     38  C   UNL A   1      38.280  31.307  29.079  1.00  0.00     0.016 A 
ATOM     39  C   UNL A   1      37.892  28.613  28.444  1.00  0.00     0.010 A 
ATOM     40  C   UNL A   1      39.241  30.396  29.432  1.00  0.00     0.010 A 
ATOM     41  C   UNL A   1      39.016  29.050  29.160  1.00  0.00    -0.014 A 
BRANCH  41  42
ATOM     42  C   UNL A   1      40.078  28.115  29.481  1.00  0.00     0.031 A 
ATOM     43  C   UNL A   1      40.441  28.142  30.916  1.00  0.00     0.074 A 
ATOM     44  C   UNL A   1      40.534  27.195  28.606  1.00  0.00     0.049 A 
ATOM     45  N   UNL A   1      41.562  28.527  31.424  1.00  0.00    -0.248 NA
ATOM     46  C   UNL A   1      39.391  27.870  31.915  1.00  0.00     0.031 C 
ATOM     47  C   UNL A   1      40.028  26.922  27.255  1.00  0.00     0.029 A 
ATOM     48  N   UNL A   1      41.480  26.228  28.777  1.00  0.00    -0.354 N 
ATOM     49  C   UNL A   1      41.438  28.329  32.796  1.00  0.00     0.074 A 
ATOM     50  C   UNL A   1      40.040  28.109  33.055  1.00  0.00     0.031 C 
ATOM     51  C   UNL A   1      40.513  25.734  26.823  1.00  0.00     0.029 A 
ATOM     52  C   UNL A   1      41.473  25.241  27.796  1.00  0.00     0.049 A 
ATOM     53  H   UNL A   1      42.114  26.228  29.531  1.00  0.00     0.167 HD
ATOM     54  C   UNL A   1      42.535  28.045  33.547  1.00  0.00     0.031 A 
ATOM     55  C   UNL A   1      42.200  24.096  27.789  1.00  0.00     0.031 A 
ATOM     56  C   UNL A   1      43.747  28.326  32.821  1.00  0.00     0.049 A 
ATOM     57  C   UNL A   1      43.349  24.299  28.691  1.00  0.00     0.074 A 
ATOM     58  C   UNL A   1      44.452  29.444  32.439  1.00  0.00     0.029 A 
ATOM     59  N   UNL A   1      44.157  27.287  32.026  1.00  0.00    -0.354 N 
ATOM     60  N   UNL A   1      44.318  25.123  28.421  1.00  0.00    -0.248 NA
ATOM     61  C   UNL A   1      43.277  23.846  30.075  1.00  0.00     0.031 C 
ATOM     62  C   UNL A   1      45.151  29.081  31.249  1.00  0.00     0.029 A 
ATOM     63  C   UNL A   1      44.894  27.740  30.966  1.00  0.00     0.049 A 
ATOM     64  H   UNL A   1      43.950  26.339  32.196  1.00  0.00     0.167 HD
ATOM     65  C   UNL A   1      44.668  25.641  29.652  1.00  0.00     0.074 A 
ATOM     66  C   UNL A   1      44.151  24.692  30.630  1.00  0.00     0.031 C 
ATOM     67  C   UNL A   1      45.051  26.945  29.769  1.00  0.00     0.031 A 
BRANCH  54  68
ATOM     68  C   UNL A   1      42.531  27.020  34.661  1.00  0.00    -0.014 A 
ATOM     69  C   UNL A   1      42.670  25.663  34.316  1.00  0.00     0.009 A 
ATOM     70  C   UNL A   1      42.085  27.295  35.968  1.00  0.00     0.009 A 
ATOM     71  C   UNL A   1      42.314  24.643  35.208  1.00  0.00     0.001 A 
ATOM     72  C   UNL A   1      41.760  26.279  36.872  1.00  0.00     0.001 A 
ATOM     73  C   UNL A   1      41.851  24.953  36.482  1.00  0.00     0.000 A 
ENDBRANCH  54  68
BRANCH  55  74
ATOM     74  C   UNL A   1      41.941  22.777  27.179  1.00  0.00    -0.014 A 
ATOM     75  C   UNL A   1      42.720  22.316  26.104  1.00  0.00     0.009 A 
ATOM     76  C   UNL A   1      41.136  21.844  27.855  1.00  0.00     0.009 A 
ATOM     77  C   UNL A   1      42.734  20.960  25.752  1.00  0.00     0.001 A 
ATOM     78  C   UNL A   1      41.154  20.489  27.505  1.00  0.00     0.001 A 
ATOM     79  C   UNL A   1      41.966  20.044  26.465  1.00  0.00     0.000 A 
ENDBRANCH  55  74
BRANCH  67  80
ATOM     80  C   UNL A   1      45.492  27.644  28.514  1.00  0.00    -0.014 A 
ATOM     81  C   UNL A   1      44.623  28.367  27.680  1.00  0.00     0.009 A 
ATOM     82  C   UNL A   1      46.859  27.624  28.204  1.00  0.00     0.009 A 
ATOM     83  C   UNL A   1      45.111  29.033  26.550  1.00  0.00     0.001 A 
ATOM     84  C   UNL A   1      47.347  28.304  27.090  1.00  0.00     0.001 A 
ATOM     85  C   UNL A   1      46.474  29.003  26.259  1.00  0.00     0.000 A 
ENDBRANCH  67  80
ENDBRANCH  41  42
ENDBRANCH  34  36
ENDBRANCH  33  34
ENDBRANCH  32  33
ENDBRANCH   1  32
TORSDOF 16
ENDMDL
MODEL 3
REMARK VINA RESULT:     -12.5      3.184      9.131
REMARK SMILES CCCn1nc(C(=O)OCCOC(=O)c2ccc(-c3c4nc(c(-c5ccccc5)c5ccc([nH]5)c(-c5ccccc5)c5nc(c(-c6ccccc6)c6ccc3[nH]6)C=C5)C=C4)cc2)c2c1CC[C@@H]([NH+]1CC[NH+](Cc3ccccn3)CC1)C2
REMARK SMILES IDX 10 1 9 2 7 3 8 4 6 5 4 6 5 7 64 8 63 9 65 10 81 11 66 12
REMARK SMILES IDX 67 13 3 14 2 15 1 16 68 17 69 18 80 19 70 21 79 22 71 23
REMARK SMILES IDX 72 25 73 26 74 27 78 28 75 29 77 30 76 31 11 32 12 33 13 34
REMARK SMILES IDX 14 35 15 36 16 37 62 38 17 39 61 40 18 41 19 42 20 43 55 44
REMARK SMILES IDX 21 45 60 46 54 47 56 48 22 49 59 50 53 51 52 52 23 54 45 55
REMARK SMILES IDX 30 56 44 57 31 58 34 59 43 60 57 61 32 62 33 63 42 65 58 66
REMARK SMILES IDX 35 67 24 68 25 69 29 70 26 71 28 72 27 73 46 74 47 75 51 76
REMARK SMILES IDX 48 77 50 78 49 79 36 80 37 81 41 82 38 83 40 84 39 85
REMARK H PARENT 68 20 71 24 56 53 34 64
REMARK Flexibility Score: inf
ROOT
ATOM      1  C   UNL A   1      38.724  21.727  25.371  1.00  0.00     0.275 C 
ENDROOT
BRANCH   1   2
ATOM      2  O   UNL A   1      37.389  21.339  25.701  1.00  0.00    -0.457 OA
BRANCH   2   3
ATOM      3  C   UNL A   1      36.429  22.313  25.724  1.00  0.00     0.359 C 
ATOM      4  O   UNL A   1      36.610  23.438  26.187  1.00  0.00    -0.244 OA
BRANCH   3   5
ATOM      5  C   UNL A   1      35.200  21.851  25.064  1.00  0.00     0.174 A 
ATOM      6  N   UNL A   1      33.547  20.600  24.484  1.00  0.00    -0.268 N 
ATOM      7  N   UNL A   1      34.671  20.621  25.245  1.00  0.00    -0.165 NA
ATOM      8  C   UNL A   1      33.451  21.720  23.709  1.00  0.00     0.043 A 
ATOM      9  C   UNL A   1      34.382  22.612  24.190  1.00  0.00     0.014 A 
ATOM     10  C   UNL A   1      32.535  22.029  22.597  1.00  0.00     0.062 C 
ATOM     11  C   UNL A   1      34.475  24.046  23.754  1.00  0.00     0.105 C 
ATOM     12  C   UNL A   1      33.054  23.253  21.831  1.00  0.00     0.072 C 
ATOM     13  C   UNL A   1      33.359  24.456  22.748  1.00  0.00     0.189 C 
BRANCH   6  14
ATOM     14  C   UNL A   1      32.650  19.472  24.687  1.00  0.00     0.144 C 
BRANCH  14  15
ATOM     15  C   UNL A   1      32.515  18.381  23.619  1.00  0.00     0.020 C 
ATOM     16  C   UNL A   1      33.756  17.508  23.499  1.00  0.00     0.006 C 
ENDBRANCH  14  15
ENDBRANCH   6  14
BRANCH  13  17
ATOM     17  N   UNL A   1      32.183  25.129  23.320  1.00  0.00    -0.323 N 
ATOM     18  C   UNL A   1      31.230  25.835  22.474  1.00  0.00     0.324 C 
ATOM     19  C   UNL A   1      32.358  25.673  24.671  1.00  0.00     0.324 C 
ATOM     20  H   UNL A   1      31.620  24.284  23.424  1.00  0.00     0.348 HD
ATOM     21  C   UNL A   1      31.079  27.372  22.671  1.00  0.00     0.324 C 
ATOM     22  C   UNL A   1      31.504  26.909  25.025  1.00  0.00     0.324 C 
ATOM     23  N   UNL A   1      31.418  27.924  23.980  1.00  0.00    -0.321 N 
ATOM     24  H   UNL A   1      30.595  28.471  24.233  1.00  0.00     0.348 HD
BRANCH  23  25
ATOM     25  C   UNL A   1      32.398  29.018  24.022  1.00  0.00     0.319 C 
BRANCH  25  26
ATOM     26  C   UNL A   1      33.032  29.423  25.348  1.00  0.00     0.095 A 
ATOM     27  C   UNL A   1      32.433  30.392  26.154  1.00  0.00     0.030 A 
ATOM     28  N   UNL A   1      34.157  28.772  25.748  1.00  0.00    -0.255 NA
ATOM     29  C   UNL A   1      33.050  30.769  27.349  1.00  0.00     0.004 A 
ATOM     30  C   UNL A   1      34.731  29.155  26.914  1.00  0.00     0.111 A 
ATOM     31  C   UNL A   1      34.233  30.154  27.730  1.00  0.00     0.020 A 
ENDBRANCH  25  26
ENDBRANCH  23  25
ENDBRANCH  13  17
ENDBRANCH   3   5
ENDBRANCH   2   3
ENDBRANCH   1   2
BRANCH   1  32
ATOM     32  C   UNL A   1      39.568  21.780  26.635  1.00  0.00     0.275 C 
BRANCH  32  33
ATOM     33  O   UNL A   1      39.847  23.137  26.978  1.00  0.00    -0.458 OA
BRANCH  33  34
ATOM     34  C   UNL A   1      40.983  23.373  27.673  1.00  0.00     0.338 C 
ATOM     35  O   UNL A   1      41.697  22.563  28.233  1.00  0.00    -0.246 OA
BRANCH  34  36
ATOM     36  C   UNL A   1      41.117  24.826  27.820  1.00  0.00     0.060 A 
ATOM     37  C   UNL A   1      42.018  25.344  28.754  1.00  0.00     0.016 A 
ATOM     38  C   UNL A   1      40.186  25.644  27.165  1.00  0.00     0.016 A 
ATOM     39  C   UNL A   1      41.907  26.679  29.107  1.00  0.00     0.010 A 
ATOM     40  C   UNL A   1      40.064  26.960  27.527  1.00  0.00     0.010 A 
ATOM     41  C   UNL A   1      40.889  27.453  28.533  1.00  0.00    -0.014 A 
BRANCH  41  42
ATOM     42  C   UNL A   1      40.788  28.865  28.850  1.00  0.00     0.031 A 
ATOM     43  C   UNL A   1      41.977  29.630  28.410  1.00  0.00     0.074 A 
ATOM     44  C   UNL A   1      39.654  29.434  29.310  1.00  0.00     0.049 A 
ATOM     45  N   UNL A   1      42.837  30.226  29.165  1.00  0.00    -0.248 NA
ATOM     46  C   UNL A   1      42.352  29.594  26.985  1.00  0.00     0.031 C 
ATOM     47  C   UNL A   1      38.349  28.790  29.505  1.00  0.00     0.029 A 
ATOM     48  N   UNL A   1      39.395  30.741  29.602  1.00  0.00    -0.354 N 
ATOM     49  C   UNL A   1      43.737  30.834  28.296  1.00  0.00     0.074 A 
ATOM     50  C   UNL A   1      43.505  30.262  26.997  1.00  0.00     0.031 C 
ATOM     51  C   UNL A   1      37.397  29.740  29.663  1.00  0.00     0.029 A 
ATOM     52  C   UNL A   1      38.042  31.040  29.732  1.00  0.00     0.049 A 
ATOM     53  H   UNL A   1      40.104  31.415  29.710  1.00  0.00     0.167 HD
ATOM     54  C   UNL A   1      44.369  31.982  28.662  1.00  0.00     0.031 A 
ATOM     55  C   UNL A   1      37.492  32.271  29.877  1.00  0.00     0.031 A 
ATOM     56  C   UNL A   1      44.242  32.215  30.077  1.00  0.00     0.049 A 
ATOM     57  C   UNL A   1      38.547  33.168  30.386  1.00  0.00     0.074 A 
ATOM     58  C   UNL A   1      44.781  31.698  31.232  1.00  0.00     0.029 A 
ATOM     59  N   UNL A   1      43.087  32.872  30.417  1.00  0.00    -0.354 N 
ATOM     60  N   UNL A   1      39.048  33.057  31.581  1.00  0.00    -0.248 NA
ATOM     61  C   UNL A   1      39.313  33.990  29.458  1.00  0.00     0.031 C 
ATOM     62  C   UNL A   1      43.798  31.895  32.248  1.00  0.00     0.029 A 
ATOM     63  C   UNL A   1      42.710  32.572  31.697  1.00  0.00     0.049 A 
ATOM     64  H   UNL A   1      42.596  33.481  29.820  1.00  0.00     0.167 HD
ATOM     65  C   UNL A   1      40.378  33.388  31.417  1.00  0.00     0.074 A 
ATOM     66  C   UNL A   1      40.437  34.135  30.166  1.00  0.00     0.031 C 
ATOM     67  C   UNL A   1      41.343  32.748  32.136  1.00  0.00     0.031 A 
BRANCH  54  68
ATOM     68  C   UNL A   1      44.594  33.139  27.712  1.00  0.00    -0.014 A 
ATOM     69  C   UNL A   1      44.952  34.386  28.257  1.00  0.00     0.009 A 
ATOM     70  C   UNL A   1      44.165  33.137  26.370  1.00  0.00     0.009 A 
ATOM     71  C   UNL A   1      44.820  35.570  27.519  1.00  0.00     0.001 A 
ATOM     72  C   UNL A   1      44.064  34.313  25.621  1.00  0.00     0.001 A 
ATOM     73  C   UNL A   1      44.368  35.532  26.205  1.00  0.00     0.000 A 
ENDBRANCH  54  68
BRANCH  55  74
ATOM     74  C   UNL A   1      36.166  32.800  29.500  1.00  0.00    -0.014 A 
ATOM     75  C   UNL A   1      35.234  33.172  30.484  1.00  0.00     0.009 A 
ATOM     76  C   UNL A   1      35.940  33.233  28.183  1.00  0.00     0.009 A 
ATOM     77  C   UNL A   1      34.142  33.991  30.170  1.00  0.00     0.001 A 
ATOM     78  C   UNL A   1      34.851  34.056  27.871  1.00  0.00     0.001 A 
ATOM     79  C   UNL A   1      33.961  34.449  28.868  1.00  0.00     0.000 A 
ENDBRANCH  55  74
BRANCH  67  80
ATOM     80  C   UNL A   1      40.905  32.022  33.376  1.00  0.00    -0.014 A 
ATOM     81  C   UNL A   1      40.811  32.628  34.640  1.00  0.00     0.009 A 
ATOM     82  C   UNL A   1      40.505  30.686  33.241  1.00  0.00     0.009 A 
ATOM     83  C   UNL A   1      40.351  31.903  35.745  1.00  0.00     0.001 A 
ATOM     84  C   UNL A   1      40.027  29.970  34.337  1.00  0.00     0.001 A 
ATOM     85  C   UNL A   1      39.956  30.574  35.590  1.00  0.00     0.000 A 
ENDBRANCH  67  80
ENDBRANCH  41  42
ENDBRANCH  34  36
ENDBRANCH  33  34
ENDBRANCH  32  33
ENDBRANCH   1  32
TORSDOF 16
ENDMDL
