MODEL 1
REMARK VINA RESULT:     -12.2      0.000      0.000
REMARK SMILES O=C(OCCOC(=O)c1ccc(-c2c3nc(c(-c4ccccc4)c4ccc([nH]4)c(-c4ccccc4)c4nc(c(-c5ccccc5)c5ccc2[nH]5)C=C4)C=C3)cc1)C1=Cc2cc(S(F)(F)(F)(F)F)cc(Br)c2O[C@@H]1C(F)(F)F
REMARK SMILES IDX 5 1 4 2 3 3 2 4 1 5 57 6 58 7 73 8 59 9 72 10 60 11 71 12
REMARK SMILES IDX 61 13 69 14 68 15 70 16 74 17 75 18 76 19 77 20 62 21 63 22
REMARK SMILES IDX 64 23 65 24 66 25 67 26 6 27 7 28 8 29 9 30 10 31 56 32
REMARK SMILES IDX 11 33 55 34 12 35 13 36 14 37 49 38 15 39 54 40 48 41 50 42
REMARK SMILES IDX 16 43 53 44 47 45 46 46 17 48 39 49 24 50 38 51 25 52 28 53
REMARK SMILES IDX 37 54 51 55 26 56 27 57 36 59 52 60 29 61 18 62 19 63 23 64
REMARK SMILES IDX 20 65 22 66 21 67 40 68 41 69 45 70 42 71 44 72 43 73 30 74
REMARK SMILES IDX 31 75 35 76 32 77 34 78 33 79
REMARK H PARENT 50 47 28 58
REMARK Flexibility Score: inf
ROOT
ATOM      1  C   UNL A   1      32.711  25.989  22.940  1.00  0.00     0.275 C 
ENDROOT
BRANCH   1   2
ATOM      2  C   UNL A   1      33.878  25.017  22.883  1.00  0.00     0.275 C 
BRANCH   2   3
ATOM      3  O   UNL A   1      33.713  24.020  23.879  1.00  0.00    -0.459 OA
BRANCH   3   4
ATOM      4  C   UNL A   1      32.858  22.910  23.638  1.00  0.00     0.338 C 
ATOM      5  O   UNL A   1      33.033  22.185  22.609  1.00  0.00    -0.246 OA
BRANCH   4   6
ATOM      6  C   UNL A   1      31.736  22.589  24.611  1.00  0.00     0.087 C 
ATOM      7  C   UNL A   1      31.707  21.384  25.242  1.00  0.00     0.027 C 
ATOM      8  C   UNL A   1      30.645  23.613  24.878  1.00  0.00     0.316 C 
ATOM      9  C   UNL A   1      32.798  20.360  24.975  1.00  0.00     0.020 A 
ATOM     10  O   UNL A   1      34.273  22.220  25.096  1.00  0.00    -0.474 OA
ATOM     11  C   UNL A   1      32.526  19.030  24.699  1.00  0.00     0.036 A 
ATOM     12  C   UNL A   1      34.042  20.825  24.968  1.00  0.00     0.142 A 
ATOM     13  C   UNL A   1      33.670  18.197  24.709  1.00  0.00     0.109 A 
ATOM     14  C   UNL A   1      35.108  19.968  24.837  1.00  0.00     0.062 A 
ATOM     15  C   UNL A   1      34.914  18.632  24.622  1.00  0.00     0.044 A 
ATOM     16  Br  UNL A   1      36.933  20.670  24.965  1.00  0.00    -0.047 Br
BRANCH   8  17
ATOM     17  C   UNL A   1      30.639  23.973  26.355  1.00  0.00     0.430 C 
ATOM     18  F   UNL A   1      29.832  23.144  27.010  1.00  0.00    -0.167 F 
ATOM     19  F   UNL A   1      31.872  23.867  26.841  1.00  0.00    -0.167 F 
ATOM     20  F   UNL A   1      30.209  25.222  26.504  1.00  0.00    -0.167 F 
ENDBRANCH   8  17
BRANCH  13  21
ATOM     21  S   UNL A   1      33.410  16.412  24.853  1.00  0.00     0.310 S 
ATOM     22  F   UNL A   1      34.951  16.142  25.110  1.00  0.00    -0.094 F 
ATOM     23  F   UNL A   1      33.711  16.272  23.313  1.00  0.00    -0.094 F 
ATOM     24  F   UNL A   1      33.183  14.878  24.977  1.00  0.00    -0.094 F 
ATOM     25  F   UNL A   1      33.249  16.553  26.418  1.00  0.00    -0.094 F 
ATOM     26  F   UNL A   1      33.748  17.953  24.763  1.00  0.00    -0.094 F 
ENDBRANCH  13  21
ENDBRANCH   4   6
ENDBRANCH   3   4
ENDBRANCH   2   3
ENDBRANCH   1   2
BRANCH   1  27
ATOM     27  O   UNL A   1      32.364  26.234  24.296  1.00  0.00    -0.458 OA
BRANCH  27  28
ATOM     28  C   UNL A   1      31.988  27.540  24.707  1.00  0.00     0.338 C 
ATOM     29  O   UNL A   1      30.859  28.014  24.365  1.00  0.00    -0.246 OA
BRANCH  28  30
ATOM     30  C   UNL A   1      32.935  28.372  25.556  1.00  0.00     0.060 A 
ATOM     31  C   UNL A   1      33.781  29.310  24.987  1.00  0.00     0.016 A 
ATOM     32  C   UNL A   1      33.002  28.079  26.849  1.00  0.00     0.016 A 
ATOM     33  C   UNL A   1      34.869  29.677  25.815  1.00  0.00     0.010 A 
ATOM     34  C   UNL A   1      34.015  28.582  27.629  1.00  0.00     0.010 A 
ATOM     35  C   UNL A   1      34.922  29.467  27.119  1.00  0.00    -0.014 A 
BRANCH  35  36
ATOM     36  C   UNL A   1      35.938  30.173  28.002  1.00  0.00     0.031 A 
ATOM     37  C   UNL A   1      35.418  31.248  28.725  1.00  0.00     0.074 A 
ATOM     38  C   UNL A   1      37.223  29.683  28.161  1.00  0.00     0.049 A 
ATOM     39  N   UNL A   1      36.021  31.950  29.686  1.00  0.00    -0.248 NA
ATOM     40  C   UNL A   1      34.065  31.792  28.535  1.00  0.00     0.031 C 
ATOM     41  C   UNL A   1      37.752  28.594  27.440  1.00  0.00     0.029 A 
ATOM     42  N   UNL A   1      38.202  30.140  29.015  1.00  0.00    -0.354 N 
ATOM     43  C   UNL A   1      35.197  32.889  30.157  1.00  0.00     0.074 A 
ATOM     44  C   UNL A   1      33.929  32.805  29.418  1.00  0.00     0.031 C 
ATOM     45  C   UNL A   1      39.035  28.404  27.847  1.00  0.00     0.029 A 
ATOM     46  C   UNL A   1      39.328  29.370  28.828  1.00  0.00     0.049 A 
ATOM     47  H   UNL A   1      38.112  30.886  29.650  1.00  0.00     0.167 HD
ATOM     48  C   UNL A   1      35.453  33.810  31.173  1.00  0.00     0.031 A 
ATOM     49  C   UNL A   1      40.554  29.491  29.464  1.00  0.00     0.031 A 
ATOM     50  C   UNL A   1      36.664  33.902  31.841  1.00  0.00     0.049 A 
ATOM     51  C   UNL A   1      40.829  30.450  30.441  1.00  0.00     0.074 A 
ATOM     52  C   UNL A   1      36.936  34.820  32.873  1.00  0.00     0.029 A 
ATOM     53  N   UNL A   1      37.799  33.149  31.636  1.00  0.00    -0.354 N 
ATOM     54  N   UNL A   1      39.993  31.363  30.938  1.00  0.00    -0.248 NA
ATOM     55  C   UNL A   1      42.132  30.608  31.099  1.00  0.00     0.031 C 
ATOM     56  C   UNL A   1      38.219  34.630  33.279  1.00  0.00     0.029 A 
ATOM     57  C   UNL A   1      38.771  33.590  32.506  1.00  0.00     0.049 A 
ATOM     58  H   UNL A   1      37.898  32.421  30.981  1.00  0.00     0.167 HD
ATOM     59  C   UNL A   1      40.610  32.092  31.870  1.00  0.00     0.074 A 
ATOM     60  C   UNL A   1      41.999  31.622  31.982  1.00  0.00     0.031 C 
ATOM     61  C   UNL A   1      40.071  33.129  32.635  1.00  0.00     0.031 A 
BRANCH  48  62
ATOM     62  C   UNL A   1      34.340  34.767  31.571  1.00  0.00    -0.014 A 
ATOM     63  C   UNL A   1      33.640  34.607  32.756  1.00  0.00     0.009 A 
ATOM     64  C   UNL A   1      34.027  35.729  30.711  1.00  0.00     0.009 A 
ATOM     65  C   UNL A   1      32.430  35.337  32.811  1.00  0.00     0.001 A 
ATOM     66  C   UNL A   1      32.903  36.495  30.898  1.00  0.00     0.001 A 
ATOM     67  C   UNL A   1      32.131  36.351  32.017  1.00  0.00     0.000 A 
ENDBRANCH  48  62
BRANCH  49  68
ATOM     68  C   UNL A   1      41.661  28.523  29.078  1.00  0.00    -0.014 A 
ATOM     69  C   UNL A   1      42.426  28.848  27.969  1.00  0.00     0.009 A 
ATOM     70  C   UNL A   1      41.914  27.434  29.794  1.00  0.00     0.009 A 
ATOM     71  C   UNL A   1      43.262  27.798  27.522  1.00  0.00     0.001 A 
ATOM     72  C   UNL A   1      42.842  26.516  29.366  1.00  0.00     0.001 A 
ATOM     73  C   UNL A   1      43.592  26.744  28.245  1.00  0.00     0.000 A 
ENDBRANCH  49  68
BRANCH  61  74
ATOM     74  C   UNL A   1      40.965  33.790  33.671  1.00  0.00    -0.014 A 
ATOM     75  C   UNL A   1      41.029  33.346  34.982  1.00  0.00     0.009 A 
ATOM     76  C   UNL A   1      41.593  34.896  33.287  1.00  0.00     0.009 A 
ATOM     77  C   UNL A   1      41.547  34.302  35.886  1.00  0.00     0.001 A 
ATOM     78  C   UNL A   1      42.196  35.714  34.210  1.00  0.00     0.001 A 
ATOM     79  C   UNL A   1      42.245  35.367  35.532  1.00  0.00     0.000 A 
ENDBRANCH  61  74
ENDBRANCH  35  36
ENDBRANCH  28  30
ENDBRANCH  27  28
ENDBRANCH   1  27
TORSDOF 13
ENDMDL
MODEL 2
REMARK VINA RESULT:     -11.9      3.993      8.594
REMARK SMILES O=C(OCCOC(=O)c1ccc(-c2c3nc(c(-c4ccccc4)c4ccc([nH]4)c(-c4ccccc4)c4nc(c(-c5ccccc5)c5ccc2[nH]5)C=C4)C=C3)cc1)C1=Cc2cc(S(F)(F)(F)(F)F)cc(Br)c2O[C@@H]1C(F)(F)F
REMARK SMILES IDX 5 1 4 2 3 3 2 4 1 5 57 6 58 7 73 8 59 9 72 10 60 11 71 12
REMARK SMILES IDX 61 13 69 14 68 15 70 16 74 17 75 18 76 19 77 20 62 21 63 22
REMARK SMILES IDX 64 23 65 24 66 25 67 26 6 27 7 28 8 29 9 30 10 31 56 32
REMARK SMILES IDX 11 33 55 34 12 35 13 36 14 37 49 38 15 39 54 40 48 41 50 42
REMARK SMILES IDX 16 43 53 44 47 45 46 46 17 48 39 49 24 50 38 51 25 52 28 53
REMARK SMILES IDX 37 54 51 55 26 56 27 57 36 59 52 60 29 61 18 62 19 63 23 64
REMARK SMILES IDX 20 65 22 66 21 67 40 68 41 69 45 70 42 71 44 72 43 73 30 74
REMARK SMILES IDX 31 75 35 76 32 77 34 78 33 79
REMARK H PARENT 50 47 28 58
REMARK Flexibility Score: inf
ROOT
ATOM      1  C   UNL A   1      33.348  28.331  27.432  1.00  0.00     0.275 C 
ENDROOT
BRANCH   1   2
ATOM      2  C   UNL A   1      31.843  28.189  27.594  1.00  0.00     0.275 C 
BRANCH   2   3
ATOM      3  O   UNL A   1      31.430  26.927  27.093  1.00  0.00    -0.459 OA
BRANCH   3   4
ATOM      4  C   UNL A   1      30.907  26.822  25.776  1.00  0.00     0.338 C 
ATOM      5  O   UNL A   1      29.826  26.186  25.571  1.00  0.00    -0.246 OA
BRANCH   4   6
ATOM      6  C   UNL A   1      31.638  27.471  24.613  1.00  0.00     0.087 C 
ATOM      7  C   UNL A   1      32.784  26.914  24.135  1.00  0.00     0.027 C 
ATOM      8  C   UNL A   1      31.090  28.740  23.983  1.00  0.00     0.316 C 
ATOM      9  C   UNL A   1      33.332  25.644  24.765  1.00  0.00     0.020 A 
ATOM     10  O   UNL A   1      31.065  24.930  24.778  1.00  0.00    -0.474 OA
ATOM     11  C   UNL A   1      34.663  25.499  25.122  1.00  0.00     0.036 A 
ATOM     12  C   UNL A   1      32.445  24.686  25.008  1.00  0.00     0.142 A 
ATOM     13  C   UNL A   1      35.020  24.176  25.475  1.00  0.00     0.109 A 
ATOM     14  C   UNL A   1      32.850  23.462  25.481  1.00  0.00     0.062 A 
ATOM     15  C   UNL A   1      34.160  23.229  25.798  1.00  0.00     0.044 A 
ATOM     16  Br  UNL A   1      31.533  22.028  25.702  1.00  0.00    -0.047 Br
BRANCH   8  17
ATOM     17  C   UNL A   1      30.791  28.489  22.514  1.00  0.00     0.430 C 
ATOM     18  F   UNL A   1      31.933  28.360  21.845  1.00  0.00    -0.167 F 
ATOM     19  F   UNL A   1      30.078  27.373  22.392  1.00  0.00    -0.167 F 
ATOM     20  F   UNL A   1      30.100  29.512  22.021  1.00  0.00    -0.167 F 
ENDBRANCH   8  17
BRANCH  13  21
ATOM     21  S   UNL A   1      36.780  23.753  25.481  1.00  0.00     0.310 S 
ATOM     22  F   UNL A   1      36.481  22.234  25.824  1.00  0.00    -0.094 F 
ATOM     23  F   UNL A   1      36.812  24.026  27.032  1.00  0.00    -0.094 F 
ATOM     24  F   UNL A   1      38.293  23.392  25.485  1.00  0.00    -0.094 F 
ATOM     25  F   UNL A   1      36.697  23.349  23.956  1.00  0.00    -0.094 F 
ATOM     26  F   UNL A   1      35.221  24.007  25.484  1.00  0.00    -0.094 F 
ENDBRANCH  13  21
ENDBRANCH   4   6
ENDBRANCH   3   4
ENDBRANCH   2   3
ENDBRANCH   1   2
BRANCH   1  27
ATOM     27  O   UNL A   1      33.660  29.668  27.067  1.00  0.00    -0.458 OA
BRANCH  27  28
ATOM     28  C   UNL A   1      34.546  30.434  27.871  1.00  0.00     0.338 C 
ATOM     29  O   UNL A   1      34.194  31.583  28.286  1.00  0.00    -0.246 OA
BRANCH  28  30
ATOM     30  C   UNL A   1      35.913  29.880  28.235  1.00  0.00     0.060 A 
ATOM     31  C   UNL A   1      36.198  29.447  29.520  1.00  0.00     0.016 A 
ATOM     32  C   UNL A   1      36.857  29.940  27.304  1.00  0.00     0.016 A 
ATOM     33  C   UNL A   1      37.582  29.372  29.806  1.00  0.00     0.010 A 
ATOM     34  C   UNL A   1      38.174  29.722  27.627  1.00  0.00     0.010 A 
ATOM     35  C   UNL A   1      38.536  29.349  28.891  1.00  0.00    -0.014 A 
BRANCH  35  36
ATOM     36  C   UNL A   1      39.957  28.929  29.228  1.00  0.00     0.031 A 
ATOM     37  C   UNL A   1      40.277  27.628  28.836  1.00  0.00     0.074 A 
ATOM     38  C   UNL A   1      40.872  29.827  29.750  1.00  0.00     0.049 A 
ATOM     39  N   UNL A   1      41.476  27.044  28.857  1.00  0.00    -0.248 NA
ATOM     40  C   UNL A   1      39.300  26.661  28.313  1.00  0.00     0.031 C 
ATOM     41  C   UNL A   1      40.558  31.144  30.140  1.00  0.00     0.029 A 
ATOM     42  N   UNL A   1      42.214  29.626  29.985  1.00  0.00    -0.354 N 
ATOM     43  C   UNL A   1      41.390  25.798  28.386  1.00  0.00     0.074 A 
ATOM     44  C   UNL A   1      39.988  25.531  28.036  1.00  0.00     0.031 C 
ATOM     45  C   UNL A   1      41.692  31.724  30.614  1.00  0.00     0.029 A 
ATOM     46  C   UNL A   1      42.733  30.780  30.526  1.00  0.00     0.049 A 
ATOM     47  H   UNL A   1      42.715  28.800  29.798  1.00  0.00     0.167 HD
ATOM     48  C   UNL A   1      42.425  24.874  28.234  1.00  0.00     0.031 A 
ATOM     49  C   UNL A   1      44.038  31.016  30.932  1.00  0.00     0.031 A 
ATOM     50  C   UNL A   1      43.739  25.125  28.598  1.00  0.00     0.049 A 
ATOM     51  C   UNL A   1      45.062  30.072  30.834  1.00  0.00     0.074 A 
ATOM     52  C   UNL A   1      44.795  24.208  28.445  1.00  0.00     0.029 A 
ATOM     53  N   UNL A   1      44.253  26.271  29.163  1.00  0.00    -0.354 N 
ATOM     54  N   UNL A   1      44.984  28.841  30.327  1.00  0.00    -0.248 NA
ATOM     55  C   UNL A   1      46.440  30.298  31.289  1.00  0.00     0.031 C 
ATOM     56  C   UNL A   1      45.930  24.788  28.919  1.00  0.00     0.029 A 
ATOM     57  C   UNL A   1      45.600  26.078  29.377  1.00  0.00     0.049 A 
ATOM     58  H   UNL A   1      43.746  27.087  29.378  1.00  0.00     0.167 HD
ATOM     59  C   UNL A   1      46.175  28.242  30.387  1.00  0.00     0.074 A 
ATOM     60  C   UNL A   1      47.128  29.169  31.013  1.00  0.00     0.031 C 
ATOM     61  C   UNL A   1      46.507  26.961  29.940  1.00  0.00     0.031 A 
BRANCH  48  62
ATOM     62  C   UNL A   1      42.094  23.517  27.635  1.00  0.00    -0.014 A 
ATOM     63  C   UNL A   1      42.189  23.288  26.272  1.00  0.00     0.009 A 
ATOM     64  C   UNL A   1      41.654  22.576  28.462  1.00  0.00     0.009 A 
ATOM     65  C   UNL A   1      41.518  22.120  25.838  1.00  0.00     0.001 A 
ATOM     66  C   UNL A   1      41.135  21.402  27.974  1.00  0.00     0.001 A 
ATOM     67  C   UNL A   1      41.143  21.133  26.633  1.00  0.00     0.000 A 
ENDBRANCH  48  62
BRANCH  49  68
ATOM     68  C   UNL A   1      44.372  32.380  31.516  1.00  0.00    -0.014 A 
ATOM     69  C   UNL A   1      44.244  32.528  32.887  1.00  0.00     0.009 A 
ATOM     70  C   UNL A   1      44.809  33.375  30.753  1.00  0.00     0.009 A 
ATOM     71  C   UNL A   1      44.327  33.869  33.328  1.00  0.00     0.001 A 
ATOM     72  C   UNL A   1      44.998  34.628  31.281  1.00  0.00     0.001 A 
ATOM     73  C   UNL A   1      44.831  34.862  32.618  1.00  0.00     0.000 A 
ENDBRANCH  49  68
BRANCH  61  74
ATOM     74  C   UNL A   1      47.952  26.509  30.080  1.00  0.00    -0.014 A 
ATOM     75  C   UNL A   1      48.844  26.553  29.021  1.00  0.00     0.009 A 
ATOM     76  C   UNL A   1      48.285  25.954  31.240  1.00  0.00     0.009 A 
ATOM     77  C   UNL A   1      49.975  25.719  29.190  1.00  0.00     0.001 A 
ATOM     78  C   UNL A   1      49.468  25.270  31.373  1.00  0.00     0.001 A 
ATOM     79  C   UNL A   1      50.372  25.222  30.348  1.00  0.00     0.000 A 
ENDBRANCH  61  74
ENDBRANCH  35  36
ENDBRANCH  28  30
ENDBRANCH  27  28
ENDBRANCH   1  27
TORSDOF 13
ENDMDL
MODEL 3
REMARK VINA RESULT:     -11.8      3.421      6.178
REMARK SMILES O=C(OCCOC(=O)c1ccc(-c2c3nc(c(-c4ccccc4)c4ccc([nH]4)c(-c4ccccc4)c4nc(c(-c5ccccc5)c5ccc2[nH]5)C=C4)C=C3)cc1)C1=Cc2cc(S(F)(F)(F)(F)F)cc(Br)c2O[C@@H]1C(F)(F)F
REMARK SMILES IDX 5 1 4 2 3 3 2 4 1 5 57 6 58 7 73 8 59 9 72 10 60 11 71 12
REMARK SMILES IDX 61 13 69 14 68 15 70 16 74 17 75 18 76 19 77 20 62 21 63 22
REMARK SMILES IDX 64 23 65 24 66 25 67 26 6 27 7 28 8 29 9 30 10 31 56 32
REMARK SMILES IDX 11 33 55 34 12 35 13 36 14 37 49 38 15 39 54 40 48 41 50 42
REMARK SMILES IDX 16 43 53 44 47 45 46 46 17 48 39 49 24 50 38 51 25 52 28 53
REMARK SMILES IDX 37 54 51 55 26 56 27 57 36 59 52 60 29 61 18 62 19 63 23 64
REMARK SMILES IDX 20 65 22 66 21 67 40 68 41 69 45 70 42 71 44 72 43 73 30 74
REMARK SMILES IDX 31 75 35 76 32 77 34 78 33 79
REMARK H PARENT 50 47 28 58
REMARK Flexibility Score: inf
ROOT
ATOM      1  C   UNL A   1      37.387  22.098  24.809  1.00  0.00     0.275 C 
ENDROOT
BRANCH   1   2
ATOM      2  C   UNL A   1      37.203  23.338  23.949  1.00  0.00     0.275 C 
BRANCH   2   3
ATOM      3  O   UNL A   1      36.023  24.019  24.347  1.00  0.00    -0.459 OA
BRANCH   3   4
ATOM      4  C   UNL A   1      34.752  23.540  23.930  1.00  0.00     0.338 C 
ATOM      5  O   UNL A   1      34.508  23.381  22.693  1.00  0.00    -0.246 OA
BRANCH   4   6
ATOM      6  C   UNL A   1      33.685  23.218  24.962  1.00  0.00     0.087 C 
ATOM      7  C   UNL A   1      33.014  24.226  25.584  1.00  0.00     0.027 C 
ATOM      8  C   UNL A   1      33.366  21.771  25.301  1.00  0.00     0.316 C 
ATOM      9  C   UNL A   1      33.332  25.673  25.246  1.00  0.00     0.020 A 
ATOM     10  O   UNL A   1      33.389  24.908  22.996  1.00  0.00    -0.474 OA
ATOM     11  C   UNL A   1      33.543  26.640  26.215  1.00  0.00     0.036 A 
ATOM     12  C   UNL A   1      33.453  25.955  23.954  1.00  0.00     0.142 A 
ATOM     13  C   UNL A   1      33.597  27.959  25.706  1.00  0.00     0.109 A 
ATOM     14  C   UNL A   1      33.639  27.250  23.535  1.00  0.00     0.062 A 
ATOM     15  C   UNL A   1      33.795  28.265  24.437  1.00  0.00     0.044 A 
ATOM     16  Br  UNL A   1      33.678  27.648  21.617  1.00  0.00    -0.047 Br
BRANCH   8  17
ATOM     17  C   UNL A   1      31.905  21.488  24.988  1.00  0.00     0.430 C 
ATOM     18  F   UNL A   1      31.745  20.188  24.760  1.00  0.00    -0.167 F 
ATOM     19  F   UNL A   1      31.152  21.853  26.022  1.00  0.00    -0.167 F 
ATOM     20  F   UNL A   1      31.542  22.177  23.911  1.00  0.00    -0.167 F 
ENDBRANCH   8  17
BRANCH  13  21
ATOM     21  S   UNL A   1      33.375  29.322  26.876  1.00  0.00     0.310 S 
ATOM     22  F   UNL A   1      32.799  28.355  27.994  1.00  0.00    -0.094 F 
ATOM     23  F   UNL A   1      31.897  29.490  26.358  1.00  0.00    -0.094 F 
ATOM     24  F   UNL A   1      33.185  30.495  27.881  1.00  0.00    -0.094 F 
ATOM     25  F   UNL A   1      34.808  29.048  27.480  1.00  0.00    -0.094 F 
ATOM     26  F   UNL A   1      33.542  28.059  25.942  1.00  0.00    -0.094 F 
ENDBRANCH  13  21
ENDBRANCH   4   6
ENDBRANCH   3   4
ENDBRANCH   2   3
ENDBRANCH   1   2
BRANCH   1  27
ATOM     27  O   UNL A   1      37.787  22.483  26.116  1.00  0.00    -0.458 OA
BRANCH  27  28
ATOM     28  C   UNL A   1      39.132  22.866  26.363  1.00  0.00     0.338 C 
ATOM     29  O   UNL A   1      40.076  22.043  26.149  1.00  0.00    -0.246 OA
BRANCH  28  30
ATOM     30  C   UNL A   1      39.442  24.260  26.883  1.00  0.00     0.060 A 
ATOM     31  C   UNL A   1      40.137  25.179  26.114  1.00  0.00     0.016 A 
ATOM     32  C   UNL A   1      39.125  24.519  28.145  1.00  0.00     0.016 A 
ATOM     33  C   UNL A   1      40.711  26.235  26.862  1.00  0.00     0.010 A 
ATOM     34  C   UNL A   1      39.610  25.640  28.774  1.00  0.00     0.010 A 
ATOM     35  C   UNL A   1      40.354  26.562  28.091  1.00  0.00    -0.014 A 
BRANCH  35  36
ATOM     36  C   UNL A   1      40.749  27.891  28.712  1.00  0.00     0.031 A 
ATOM     37  C   UNL A   1      39.726  28.841  28.730  1.00  0.00     0.074 A 
ATOM     38  C   UNL A   1      41.979  28.067  29.324  1.00  0.00     0.049 A 
ATOM     39  N   UNL A   1      39.727  30.026  29.341  1.00  0.00    -0.248 NA
ATOM     40  C   UNL A   1      38.432  28.671  28.053  1.00  0.00     0.031 C 
ATOM     41  C   UNL A   1      43.013  27.111  29.317  1.00  0.00     0.029 A 
ATOM     42  N   UNL A   1      42.422  29.163  30.030  1.00  0.00    -0.354 N 
ATOM     43  C   UNL A   1      38.560  30.646  29.148  1.00  0.00     0.074 A 
ATOM     44  C   UNL A   1      37.713  29.785  28.311  1.00  0.00     0.031 C 
ATOM     45  C   UNL A   1      44.069  27.627  30.000  1.00  0.00     0.029 A 
ATOM     46  C   UNL A   1      43.711  28.914  30.446  1.00  0.00     0.049 A 
ATOM     47  H   UNL A   1      41.906  29.982  30.208  1.00  0.00     0.167 HD
ATOM     48  C   UNL A   1      38.169  31.892  29.638  1.00  0.00     0.031 A 
ATOM     49  C   UNL A   1      44.546  29.750  31.170  1.00  0.00     0.031 A 
ATOM     50  C   UNL A   1      38.989  32.710  30.401  1.00  0.00     0.049 A 
ATOM     51  C   UNL A   1      44.176  31.022  31.611  1.00  0.00     0.074 A 
ATOM     52  C   UNL A   1      38.608  33.967  30.908  1.00  0.00     0.029 A 
ATOM     53  N   UNL A   1      40.287  32.472  30.794  1.00  0.00    -0.354 N 
ATOM     54  N   UNL A   1      42.997  31.624  31.451  1.00  0.00    -0.248 NA
ATOM     55  C   UNL A   1      45.063  31.929  32.351  1.00  0.00     0.031 C 
ATOM     56  C   UNL A   1      39.664  34.483  31.592  1.00  0.00     0.029 A 
ATOM     57  C   UNL A   1      40.723  33.558  31.521  1.00  0.00     0.049 A 
ATOM     58  H   UNL A   1      40.813  31.664  30.591  1.00  0.00     0.167 HD
ATOM     59  C   UNL A   1      43.013  32.827  32.027  1.00  0.00     0.074 A 
ATOM     60  C   UNL A   1      44.345  33.045  32.609  1.00  0.00     0.031 C 
ATOM     61  C   UNL A   1      41.969  33.753  32.095  1.00  0.00     0.031 A 
BRANCH  48  62
ATOM     62  C   UNL A   1      36.766  32.381  29.319  1.00  0.00    -0.014 A 
ATOM     63  C   UNL A   1      36.500  33.117  28.176  1.00  0.00     0.009 A 
ATOM     64  C   UNL A   1      35.814  32.125  30.209  1.00  0.00     0.009 A 
ATOM     65  C   UNL A   1      35.257  33.790  28.202  1.00  0.00     0.001 A 
ATOM     66  C   UNL A   1      34.577  32.711  30.099  1.00  0.00     0.001 A 
ATOM     67  C   UNL A   1      34.264  33.498  29.025  1.00  0.00     0.000 A 
ENDBRANCH  48  62
BRANCH  49  68
ATOM     68  C   UNL A   1      45.945  29.254  31.503  1.00  0.00    -0.014 A 
ATOM     69  C   UNL A   1      46.950  29.540  30.593  1.00  0.00     0.009 A 
ATOM     70  C   UNL A   1      46.203  28.611  32.636  1.00  0.00     0.009 A 
ATOM     71  C   UNL A   1      48.157  28.844  30.837  1.00  0.00     0.001 A 
ATOM     72  C   UNL A   1      47.445  28.073  32.866  1.00  0.00     0.001 A 
ATOM     73  C   UNL A   1      48.471  28.265  31.981  1.00  0.00     0.000 A 
ENDBRANCH  49  68
BRANCH  61  74
ATOM     74  C   UNL A   1      42.214  35.051  32.846  1.00  0.00    -0.014 A 
ATOM     75  C   UNL A   1      42.991  36.071  32.321  1.00  0.00     0.009 A 
ATOM     76  C   UNL A   1      41.745  35.112  34.087  1.00  0.00     0.009 A 
ATOM     77  C   UNL A   1      43.464  36.988  33.289  1.00  0.00     0.001 A 
ATOM     78  C   UNL A   1      42.144  36.114  34.937  1.00  0.00     0.001 A 
ATOM     79  C   UNL A   1      42.959  37.122  34.503  1.00  0.00     0.000 A 
ENDBRANCH  61  74
ENDBRANCH  35  36
ENDBRANCH  28  30
ENDBRANCH  27  28
ENDBRANCH   1  27
TORSDOF 13
ENDMDL
