MODEL 1
REMARK VINA RESULT:     -11.0      0.000      0.000
REMARK SMILES COc1ccc(/C=N/NC(=O)c2ccc(Cl)cc2Cl)cc1C(=O)OCCOC(=O)c1ccc(-c2c3nc(c(-c4ccccc4)c4ccc([nH]4)c(-c4ccccc4)c4nc(c(-c5ccccc5)c5ccc2[nH]5)C=C4)C=C3)cc1
REMARK SMILES IDX 25 1 24 2 22 3 23 4 21 5 3 6 4 7 5 8 20 9 6 10 2 11 1 12
REMARK SMILES IDX 7 13 8 14 9 15 10 16 11 18 12 19 13 20 18 21 14 22 17 23
REMARK SMILES IDX 19 24 15 25 16 26 26 27 27 28 28 29 29 30 30 31 31 32 77 33
REMARK SMILES IDX 32 34 76 35 33 36 34 37 35 38 70 39 36 40 75 41 69 42 71 43
REMARK SMILES IDX 37 44 74 45 68 46 67 47 38 49 60 50 45 51 59 52 46 53 49 54
REMARK SMILES IDX 58 55 72 56 47 57 48 58 57 60 73 61 50 62 39 63 40 64 44 65
REMARK SMILES IDX 41 66 43 67 42 68 61 69 62 70 66 71 63 72 65 73 64 74 51 75
REMARK SMILES IDX 52 76 56 77 53 78 55 79 54 80
REMARK H PARENT 9 17 71 48 49 59
REMARK Flexibility Score: inf
ROOT
ATOM      1  C   UNL A   1      38.181  20.482  25.124  1.00  0.00     0.275 C 
ENDROOT
BRANCH   1   2
ATOM      2  O   UNL A   1      36.818  20.009  25.002  1.00  0.00    -0.458 OA
BRANCH   2   3
ATOM      3  C   UNL A   1      35.847  20.881  25.358  1.00  0.00     0.342 C 
ATOM      4  O   UNL A   1      35.983  21.827  26.125  1.00  0.00    -0.246 OA
BRANCH   3   5
ATOM      5  C   UNL A   1      34.555  20.625  24.670  1.00  0.00     0.102 A 
ATOM      6  C   UNL A   1      33.900  19.389  24.565  1.00  0.00     0.133 A 
ATOM      7  C   UNL A   1      32.668  19.341  23.879  1.00  0.00     0.048 A 
ATOM      8  C   UNL A   1      32.073  20.482  23.336  1.00  0.00     0.013 A 
ATOM      9  C   UNL A   1      33.932  21.788  24.134  1.00  0.00     0.029 A 
ATOM     10  C   UNL A   1      32.698  21.715  23.472  1.00  0.00    -0.004 A 
BRANCH   6  11
ATOM     11  O   UNL A   1      34.236  18.145  25.012  1.00  0.00    -0.496 OA
ATOM     12  C   UNL A   1      34.420  17.057  24.124  1.00  0.00     0.278 C 
ENDBRANCH   6  11
BRANCH  10  13
ATOM     13  C   UNL A   1      32.023  22.943  22.966  1.00  0.00     0.141 C 
ATOM     14  N   UNL A   1      32.684  23.858  22.332  1.00  0.00    -0.180 NA
BRANCH  14  15
ATOM     15  N   UNL A   1      32.137  25.010  21.822  1.00  0.00    -0.243 N 
ATOM     16  C   UNL A   1      31.824  26.255  22.341  1.00  0.00     0.272 C 
ATOM     17  H   UNL A   1      31.915  24.932  20.866  1.00  0.00     0.194 HD
ATOM     18  O   UNL A   1      31.257  27.111  21.667  1.00  0.00    -0.267 OA
BRANCH  16  19
ATOM     19  C   UNL A   1      32.121  26.566  23.734  1.00  0.00     0.060 A 
ATOM     20  C   UNL A   1      33.429  26.979  24.029  1.00  0.00     0.017 A 
ATOM     21  C   UNL A   1      31.113  26.644  24.685  1.00  0.00     0.055 A 
ATOM     22  C   UNL A   1      33.671  27.694  25.198  1.00  0.00     0.021 A 
ATOM     23  C   UNL A   1      31.379  27.344  25.853  1.00  0.00     0.041 A 
ATOM     24  Cl  UNL A   1      29.524  26.025  24.429  1.00  0.00    -0.083 Cl
ATOM     25  C   UNL A   1      32.614  27.954  26.054  1.00  0.00     0.042 A 
ATOM     26  Cl  UNL A   1      32.796  29.176  27.253  1.00  0.00    -0.084 Cl
ENDBRANCH  16  19
ENDBRANCH  14  15
ENDBRANCH  10  13
ENDBRANCH   3   5
ENDBRANCH   2   3
ENDBRANCH   1   2
BRANCH   1  27
ATOM     27  C   UNL A   1      39.147  19.321  25.365  1.00  0.00     0.275 C 
BRANCH  27  28
ATOM     28  O   UNL A   1      40.025  19.645  26.463  1.00  0.00    -0.458 OA
BRANCH  28  29
ATOM     29  C   UNL A   1      41.319  19.815  26.103  1.00  0.00     0.338 C 
ATOM     30  O   UNL A   1      41.985  19.089  25.386  1.00  0.00    -0.246 OA
BRANCH  29  31
ATOM     31  C   UNL A   1      41.784  21.153  26.515  1.00  0.00     0.060 A 
ATOM     32  C   UNL A   1      41.987  21.325  27.881  1.00  0.00     0.016 A 
ATOM     33  C   UNL A   1      41.910  22.242  25.647  1.00  0.00     0.016 A 
ATOM     34  C   UNL A   1      42.289  22.590  28.378  1.00  0.00     0.010 A 
ATOM     35  C   UNL A   1      42.261  23.513  26.155  1.00  0.00     0.010 A 
ATOM     36  C   UNL A   1      42.465  23.701  27.532  1.00  0.00    -0.014 A 
BRANCH  36  37
ATOM     37  C   UNL A   1      42.700  25.046  28.158  1.00  0.00     0.031 A 
ATOM     38  C   UNL A   1      44.104  25.578  28.205  1.00  0.00     0.074 A 
ATOM     39  C   UNL A   1      41.701  25.870  28.545  1.00  0.00     0.049 A 
ATOM     40  N   UNL A   1      44.529  26.753  28.596  1.00  0.00    -0.248 NA
ATOM     41  C   UNL A   1      45.166  24.655  27.782  1.00  0.00     0.031 C 
ATOM     42  C   UNL A   1      40.285  25.535  28.543  1.00  0.00     0.029 A 
ATOM     43  N   UNL A   1      41.716  27.206  28.903  1.00  0.00    -0.354 N 
ATOM     44  C   UNL A   1      45.913  26.685  28.539  1.00  0.00     0.074 A 
ATOM     45  C   UNL A   1      46.250  25.377  28.018  1.00  0.00     0.031 C 
ATOM     46  C   UNL A   1      39.565  26.661  28.705  1.00  0.00     0.029 A 
ATOM     47  C   UNL A   1      40.464  27.790  28.939  1.00  0.00     0.049 A 
ATOM     48  H   UNL A   1      42.544  27.697  29.112  1.00  0.00     0.167 HD
ATOM     49  C   UNL A   1      46.823  27.601  28.946  1.00  0.00     0.031 A 
ATOM     50  C   UNL A   1      40.086  29.074  29.133  1.00  0.00     0.031 A 
ATOM     51  C   UNL A   1      46.515  28.900  29.479  1.00  0.00     0.049 A 
ATOM     52  C   UNL A   1      41.126  30.092  29.549  1.00  0.00     0.074 A 
ATOM     53  C   UNL A   1      47.391  29.852  29.977  1.00  0.00     0.029 A 
ATOM     54  N   UNL A   1      45.245  29.438  29.582  1.00  0.00    -0.354 N 
ATOM     55  N   UNL A   1      42.431  29.987  29.569  1.00  0.00    -0.248 NA
ATOM     56  C   UNL A   1      40.626  31.393  30.031  1.00  0.00     0.031 C 
ATOM     57  C   UNL A   1      46.644  30.945  30.430  1.00  0.00     0.029 A 
ATOM     58  C   UNL A   1      45.312  30.703  30.145  1.00  0.00     0.049 A 
ATOM     59  H   UNL A   1      44.417  28.989  29.297  1.00  0.00     0.167 HD
ATOM     60  C   UNL A   1      42.901  31.198  30.070  1.00  0.00     0.074 A 
ATOM     61  C   UNL A   1      41.751  32.045  30.283  1.00  0.00     0.031 C 
ATOM     62  C   UNL A   1      44.176  31.559  30.357  1.00  0.00     0.031 A 
BRANCH  49  63
ATOM     63  C   UNL A   1      48.257  27.162  28.952  1.00  0.00    -0.014 A 
ATOM     64  C   UNL A   1      48.787  26.360  29.972  1.00  0.00     0.009 A 
ATOM     65  C   UNL A   1      49.087  27.567  27.894  1.00  0.00     0.009 A 
ATOM     66  C   UNL A   1      50.135  25.998  29.945  1.00  0.00     0.001 A 
ATOM     67  C   UNL A   1      50.424  27.176  27.854  1.00  0.00     0.001 A 
ATOM     68  C   UNL A   1      50.949  26.400  28.884  1.00  0.00     0.000 A 
ENDBRANCH  49  63
BRANCH  50  69
ATOM     69  C   UNL A   1      38.658  29.522  29.030  1.00  0.00    -0.014 A 
ATOM     70  C   UNL A   1      37.830  29.531  30.170  1.00  0.00     0.009 A 
ATOM     71  C   UNL A   1      38.073  29.807  27.788  1.00  0.00     0.009 A 
ATOM     72  C   UNL A   1      36.454  29.760  30.058  1.00  0.00     0.001 A 
ATOM     73  C   UNL A   1      36.707  30.086  27.684  1.00  0.00     0.001 A 
ATOM     74  C   UNL A   1      35.894  30.041  28.815  1.00  0.00     0.000 A 
ENDBRANCH  50  69
BRANCH  62  75
ATOM     75  C   UNL A   1      44.409  32.944  30.904  1.00  0.00    -0.014 A 
ATOM     76  C   UNL A   1      44.364  33.212  32.283  1.00  0.00     0.009 A 
ATOM     77  C   UNL A   1      44.706  33.996  30.024  1.00  0.00     0.009 A 
ATOM     78  C   UNL A   1      44.566  34.509  32.762  1.00  0.00     0.001 A 
ATOM     79  C   UNL A   1      44.940  35.286  30.507  1.00  0.00     0.001 A 
ATOM     80  C   UNL A   1      44.857  35.544  31.874  1.00  0.00     0.000 A 
ENDBRANCH  62  75
ENDBRANCH  36  37
ENDBRANCH  29  31
ENDBRANCH  28  29
ENDBRANCH  27  28
ENDBRANCH   1  27
TORSDOF 15
ENDMDL
MODEL 2
REMARK VINA RESULT:     -10.9      0.903      5.857
REMARK SMILES COc1ccc(/C=N/NC(=O)c2ccc(Cl)cc2Cl)cc1C(=O)OCCOC(=O)c1ccc(-c2c3nc(c(-c4ccccc4)c4ccc([nH]4)c(-c4ccccc4)c4nc(c(-c5ccccc5)c5ccc2[nH]5)C=C4)C=C3)cc1
REMARK SMILES IDX 25 1 24 2 22 3 23 4 21 5 3 6 4 7 5 8 20 9 6 10 2 11 1 12
REMARK SMILES IDX 7 13 8 14 9 15 10 16 11 18 12 19 13 20 18 21 14 22 17 23
REMARK SMILES IDX 19 24 15 25 16 26 26 27 27 28 28 29 29 30 30 31 31 32 77 33
REMARK SMILES IDX 32 34 76 35 33 36 34 37 35 38 70 39 36 40 75 41 69 42 71 43
REMARK SMILES IDX 37 44 74 45 68 46 67 47 38 49 60 50 45 51 59 52 46 53 49 54
REMARK SMILES IDX 58 55 72 56 47 57 48 58 57 60 73 61 50 62 39 63 40 64 44 65
REMARK SMILES IDX 41 66 43 67 42 68 61 69 62 70 66 71 63 72 65 73 64 74 51 75
REMARK SMILES IDX 52 76 56 77 53 78 55 79 54 80
REMARK H PARENT 9 17 71 48 49 59
REMARK Flexibility Score: inf
ROOT
ATOM      1  C   UNL A   1      38.082  21.086  25.335  1.00  0.00     0.275 C 
ENDROOT
BRANCH   1   2
ATOM      2  O   UNL A   1      36.813  20.843  24.683  1.00  0.00    -0.458 OA
BRANCH   2   3
ATOM      3  C   UNL A   1      35.705  21.194  25.378  1.00  0.00     0.342 C 
ATOM      4  O   UNL A   1      35.685  21.582  26.540  1.00  0.00    -0.246 OA
BRANCH   3   5
ATOM      5  C   UNL A   1      34.463  21.122  24.566  1.00  0.00     0.102 A 
ATOM      6  C   UNL A   1      33.592  20.026  24.473  1.00  0.00     0.133 A 
ATOM      7  C   UNL A   1      32.449  20.148  23.655  1.00  0.00     0.048 A 
ATOM      8  C   UNL A   1      32.146  21.326  22.970  1.00  0.00     0.013 A 
ATOM      9  C   UNL A   1      34.136  22.328  23.883  1.00  0.00     0.029 A 
ATOM     10  C   UNL A   1      32.983  22.428  23.091  1.00  0.00    -0.004 A 
BRANCH   6  11
ATOM     11  O   UNL A   1      33.633  18.787  25.041  1.00  0.00    -0.496 OA
ATOM     12  C   UNL A   1      32.568  17.865  24.896  1.00  0.00     0.278 C 
ENDBRANCH   6  11
BRANCH  10  13
ATOM     13  C   UNL A   1      32.616  23.710  22.426  1.00  0.00     0.141 C 
ATOM     14  N   UNL A   1      31.547  24.358  22.762  1.00  0.00    -0.180 NA
BRANCH  14  15
ATOM     15  N   UNL A   1      31.147  25.550  22.210  1.00  0.00    -0.243 N 
ATOM     16  C   UNL A   1      31.181  26.874  22.615  1.00  0.00     0.272 C 
ATOM     17  H   UNL A   1      30.741  25.437  21.320  1.00  0.00     0.194 HD
ATOM     18  O   UNL A   1      30.674  27.768  21.942  1.00  0.00    -0.267 OA
BRANCH  16  19
ATOM     19  C   UNL A   1      31.785  27.236  23.891  1.00  0.00     0.060 A 
ATOM     20  C   UNL A   1      32.997  27.941  23.844  1.00  0.00     0.017 A 
ATOM     21  C   UNL A   1      31.098  27.070  25.086  1.00  0.00     0.055 A 
ATOM     22  C   UNL A   1      33.397  28.684  24.950  1.00  0.00     0.021 A 
ATOM     23  C   UNL A   1      31.523  27.805  26.183  1.00  0.00     0.041 A 
ATOM     24  Cl  UNL A   1      29.681  26.099  25.233  1.00  0.00    -0.083 Cl
ATOM     25  C   UNL A   1      32.597  28.685  26.081  1.00  0.00     0.042 A 
ATOM     26  Cl  UNL A   1      32.837  29.908  27.268  1.00  0.00    -0.084 Cl
ENDBRANCH  16  19
ENDBRANCH  14  15
ENDBRANCH  10  13
ENDBRANCH   3   5
ENDBRANCH   2   3
ENDBRANCH   1   2
BRANCH   1  27
ATOM     27  C   UNL A   1      38.924  19.810  25.391  1.00  0.00     0.275 C 
BRANCH  27  28
ATOM     28  O   UNL A   1      39.789  19.854  26.545  1.00  0.00    -0.458 OA
BRANCH  28  29
ATOM     29  C   UNL A   1      41.109  19.828  26.246  1.00  0.00     0.338 C 
ATOM     30  O   UNL A   1      41.704  18.972  25.615  1.00  0.00    -0.246 OA
BRANCH  29  31
ATOM     31  C   UNL A   1      41.731  21.119  26.598  1.00  0.00     0.060 A 
ATOM     32  C   UNL A   1      41.877  21.367  27.959  1.00  0.00     0.016 A 
ATOM     33  C   UNL A   1      42.055  22.112  25.667  1.00  0.00     0.016 A 
ATOM     34  C   UNL A   1      42.321  22.613  28.388  1.00  0.00     0.010 A 
ATOM     35  C   UNL A   1      42.549  23.360  26.111  1.00  0.00     0.010 A 
ATOM     36  C   UNL A   1      42.698  23.624  27.482  1.00  0.00    -0.014 A 
BRANCH  36  37
ATOM     37  C   UNL A   1      43.080  24.968  28.031  1.00  0.00     0.031 A 
ATOM     38  C   UNL A   1      41.986  25.921  28.417  1.00  0.00     0.074 A 
ATOM     39  C   UNL A   1      44.351  25.311  28.337  1.00  0.00     0.049 A 
ATOM     40  N   UNL A   1      42.075  27.085  29.011  1.00  0.00    -0.248 NA
ATOM     41  C   UNL A   1      40.617  25.519  28.066  1.00  0.00     0.031 C 
ATOM     42  C   UNL A   1      45.531  24.505  28.062  1.00  0.00     0.029 A 
ATOM     43  N   UNL A   1      44.852  26.380  29.060  1.00  0.00    -0.354 N 
ATOM     44  C   UNL A   1      40.784  27.590  29.034  1.00  0.00     0.074 A 
ATOM     45  C   UNL A   1      39.925  26.579  28.452  1.00  0.00     0.031 C 
ATOM     46  C   UNL A   1      46.576  25.004  28.750  1.00  0.00     0.029 A 
ATOM     47  C   UNL A   1      46.176  26.235  29.427  1.00  0.00     0.049 A 
ATOM     48  H   UNL A   1      44.313  27.171  29.291  1.00  0.00     0.167 HD
ATOM     49  C   UNL A   1      40.358  28.809  29.439  1.00  0.00     0.031 A 
ATOM     50  C   UNL A   1      46.970  26.997  30.215  1.00  0.00     0.031 A 
ATOM     51  C   UNL A   1      41.192  29.835  30.005  1.00  0.00     0.049 A 
ATOM     52  C   UNL A   1      46.460  28.340  30.691  1.00  0.00     0.074 A 
ATOM     53  C   UNL A   1      40.836  31.123  30.373  1.00  0.00     0.029 A 
ATOM     54  N   UNL A   1      42.538  29.699  30.294  1.00  0.00    -0.354 N 
ATOM     55  N   UNL A   1      45.252  28.840  30.633  1.00  0.00    -0.248 NA
ATOM     56  C   UNL A   1      47.453  29.252  31.290  1.00  0.00     0.031 C 
ATOM     57  C   UNL A   1      41.979  31.783  30.836  1.00  0.00     0.029 A 
ATOM     58  C   UNL A   1      43.029  30.882  30.824  1.00  0.00     0.049 A 
ATOM     59  H   UNL A   1      43.067  28.882  30.145  1.00  0.00     0.167 HD
ATOM     60  C   UNL A   1      45.343  30.118  31.177  1.00  0.00     0.074 A 
ATOM     61  C   UNL A   1      46.708  30.297  31.616  1.00  0.00     0.031 C 
ATOM     62  C   UNL A   1      44.383  31.070  31.271  1.00  0.00     0.031 A 
BRANCH  49  63
ATOM     63  C   UNL A   1      38.926  29.148  29.151  1.00  0.00    -0.014 A 
ATOM     64  C   UNL A   1      38.499  29.567  27.883  1.00  0.00     0.009 A 
ATOM     65  C   UNL A   1      37.988  29.034  30.190  1.00  0.00     0.009 A 
ATOM     66  C   UNL A   1      37.159  29.895  27.672  1.00  0.00     0.001 A 
ATOM     67  C   UNL A   1      36.645  29.330  29.966  1.00  0.00     0.001 A 
ATOM     68  C   UNL A   1      36.234  29.770  28.710  1.00  0.00     0.000 A 
ENDBRANCH  49  63
BRANCH  50  69
ATOM     69  C   UNL A   1      48.370  26.602  30.577  1.00  0.00    -0.014 A 
ATOM     70  C   UNL A   1      49.442  26.903  29.712  1.00  0.00     0.009 A 
ATOM     71  C   UNL A   1      48.635  25.807  31.702  1.00  0.00     0.009 A 
ATOM     72  C   UNL A   1      50.719  26.377  29.938  1.00  0.00     0.001 A 
ATOM     73  C   UNL A   1      49.923  25.325  31.954  1.00  0.00     0.001 A 
ATOM     74  C   UNL A   1      50.959  25.591  31.061  1.00  0.00     0.000 A 
ENDBRANCH  50  69
BRANCH  62  75
ATOM     75  C   UNL A   1      44.756  32.386  31.904  1.00  0.00    -0.014 A 
ATOM     76  C   UNL A   1      44.638  32.601  33.288  1.00  0.00     0.009 A 
ATOM     77  C   UNL A   1      45.260  33.423  31.103  1.00  0.00     0.009 A 
ATOM     78  C   UNL A   1      44.973  33.837  33.846  1.00  0.00     0.001 A 
ATOM     79  C   UNL A   1      45.626  34.647  31.668  1.00  0.00     0.001 A 
ATOM     80  C   UNL A   1      45.470  34.858  33.037  1.00  0.00     0.000 A 
ENDBRANCH  62  75
ENDBRANCH  36  37
ENDBRANCH  29  31
ENDBRANCH  28  29
ENDBRANCH  27  28
ENDBRANCH   1  27
TORSDOF 15
ENDMDL
MODEL 3
REMARK VINA RESULT:     -10.9      3.726      9.140
REMARK SMILES COc1ccc(/C=N/NC(=O)c2ccc(Cl)cc2Cl)cc1C(=O)OCCOC(=O)c1ccc(-c2c3nc(c(-c4ccccc4)c4ccc([nH]4)c(-c4ccccc4)c4nc(c(-c5ccccc5)c5ccc2[nH]5)C=C4)C=C3)cc1
REMARK SMILES IDX 25 1 24 2 22 3 23 4 21 5 3 6 4 7 5 8 20 9 6 10 2 11 1 12
REMARK SMILES IDX 7 13 8 14 9 15 10 16 11 18 12 19 13 20 18 21 14 22 17 23
REMARK SMILES IDX 19 24 15 25 16 26 26 27 27 28 28 29 29 30 30 31 31 32 77 33
REMARK SMILES IDX 32 34 76 35 33 36 34 37 35 38 70 39 36 40 75 41 69 42 71 43
REMARK SMILES IDX 37 44 74 45 68 46 67 47 38 49 60 50 45 51 59 52 46 53 49 54
REMARK SMILES IDX 58 55 72 56 47 57 48 58 57 60 73 61 50 62 39 63 40 64 44 65
REMARK SMILES IDX 41 66 43 67 42 68 61 69 62 70 66 71 63 72 65 73 64 74 51 75
REMARK SMILES IDX 52 76 56 77 53 78 55 79 54 80
REMARK H PARENT 9 17 71 48 49 59
REMARK Flexibility Score: inf
ROOT
ATOM      1  C   UNL A   1      31.698  31.974  26.620  1.00  0.00     0.275 C 
ENDROOT
BRANCH   1   2
ATOM      2  O   UNL A   1      31.456  30.547  26.624  1.00  0.00    -0.458 OA
BRANCH   2   3
ATOM      3  C   UNL A   1      32.015  29.842  25.613  1.00  0.00     0.342 C 
ATOM      4  O   UNL A   1      33.215  29.731  25.397  1.00  0.00    -0.246 OA
BRANCH   3   5
ATOM      5  C   UNL A   1      31.012  29.132  24.777  1.00  0.00     0.102 A 
ATOM      6  C   UNL A   1      30.088  29.723  23.903  1.00  0.00     0.133 A 
ATOM      7  C   UNL A   1      29.217  28.881  23.180  1.00  0.00     0.048 A 
ATOM      8  C   UNL A   1      29.269  27.490  23.284  1.00  0.00     0.013 A 
ATOM      9  C   UNL A   1      31.075  27.711  24.861  1.00  0.00     0.029 A 
ATOM     10  C   UNL A   1      30.208  26.897  24.118  1.00  0.00    -0.004 A 
BRANCH   6  11
ATOM     11  O   UNL A   1      29.841  31.029  23.596  1.00  0.00    -0.496 OA
ATOM     12  C   UNL A   1      28.528  31.504  23.362  1.00  0.00     0.278 C 
ENDBRANCH   6  11
BRANCH  10  13
ATOM     13  C   UNL A   1      30.319  25.411  24.166  1.00  0.00     0.141 C 
ATOM     14  N   UNL A   1      30.532  24.791  25.281  1.00  0.00    -0.180 NA
BRANCH  14  15
ATOM     15  N   UNL A   1      30.632  23.427  25.414  1.00  0.00    -0.243 N 
ATOM     16  C   UNL A   1      31.670  22.513  25.342  1.00  0.00     0.272 C 
ATOM     17  H   UNL A   1      29.765  23.001  25.603  1.00  0.00     0.194 HD
ATOM     18  O   UNL A   1      31.472  21.304  25.429  1.00  0.00    -0.267 OA
BRANCH  16  19
ATOM     19  C   UNL A   1      33.035  22.969  25.109  1.00  0.00     0.060 A 
ATOM     20  C   UNL A   1      33.799  23.296  26.240  1.00  0.00     0.017 A 
ATOM     21  C   UNL A   1      33.615  22.890  23.850  1.00  0.00     0.055 A 
ATOM     22  C   UNL A   1      35.186  23.308  26.145  1.00  0.00     0.021 A 
ATOM     23  C   UNL A   1      35.000  22.924  23.774  1.00  0.00     0.041 A 
ATOM     24  Cl  UNL A   1      32.707  22.632  22.407  1.00  0.00    -0.083 Cl
ATOM     25  C   UNL A   1      35.777  23.023  24.925  1.00  0.00     0.042 A 
ATOM     26  Cl  UNL A   1      37.447  22.612  24.885  1.00  0.00    -0.084 Cl
ENDBRANCH  16  19
ENDBRANCH  14  15
ENDBRANCH  10  13
ENDBRANCH   3   5
ENDBRANCH   2   3
ENDBRANCH   1   2
BRANCH   1  27
ATOM     27  C   UNL A   1      32.822  32.344  27.589  1.00  0.00     0.275 C 
BRANCH  27  28
ATOM     28  O   UNL A   1      33.012  33.774  27.585  1.00  0.00    -0.458 OA
BRANCH  28  29
ATOM     29  C   UNL A   1      33.267  34.300  28.805  1.00  0.00     0.338 C 
ATOM     30  O   UNL A   1      32.529  35.006  29.471  1.00  0.00    -0.246 OA
BRANCH  29  31
ATOM     31  C   UNL A   1      34.505  33.717  29.357  1.00  0.00     0.060 A 
ATOM     32  C   UNL A   1      35.685  34.110  28.734  1.00  0.00     0.016 A 
ATOM     33  C   UNL A   1      34.533  32.739  30.356  1.00  0.00     0.016 A 
ATOM     34  C   UNL A   1      36.886  33.506  29.091  1.00  0.00     0.010 A 
ATOM     35  C   UNL A   1      35.764  32.163  30.744  1.00  0.00     0.010 A 
ATOM     36  C   UNL A   1      36.962  32.548  30.121  1.00  0.00    -0.014 A 
BRANCH  36  37
ATOM     37  C   UNL A   1      38.283  31.882  30.381  1.00  0.00     0.031 A 
ATOM     38  C   UNL A   1      39.032  32.241  31.632  1.00  0.00     0.074 A 
ATOM     39  C   UNL A   1      38.762  30.866  29.629  1.00  0.00     0.049 A 
ATOM     40  N   UNL A   1      40.129  31.717  32.116  1.00  0.00    -0.248 NA
ATOM     41  C   UNL A   1      38.485  33.352  32.423  1.00  0.00     0.031 C 
ATOM     42  C   UNL A   1      38.157  30.366  28.404  1.00  0.00     0.029 A 
ATOM     43  N   UNL A   1      39.808  29.989  29.853  1.00  0.00    -0.354 N 
ATOM     44  C   UNL A   1      40.448  32.484  33.227  1.00  0.00     0.074 A 
ATOM     45  C   UNL A   1      39.395  33.467  33.377  1.00  0.00     0.031 C 
ATOM     46  C   UNL A   1      38.720  29.185  28.084  1.00  0.00     0.029 A 
ATOM     47  C   UNL A   1      39.809  28.892  29.013  1.00  0.00     0.049 A 
ATOM     48  H   UNL A   1      40.491  30.133  30.549  1.00  0.00     0.167 HD
ATOM     49  C   UNL A   1      41.550  32.422  34.011  1.00  0.00     0.031 A 
ATOM     50  C   UNL A   1      40.586  27.784  28.995  1.00  0.00     0.031 A 
ATOM     51  C   UNL A   1      42.616  31.467  33.874  1.00  0.00     0.049 A 
ATOM     52  C   UNL A   1      41.791  27.717  29.909  1.00  0.00     0.074 A 
ATOM     53  C   UNL A   1      43.798  31.392  34.593  1.00  0.00     0.029 A 
ATOM     54  N   UNL A   1      42.635  30.419  32.971  1.00  0.00    -0.354 N 
ATOM     55  N   UNL A   1      42.125  28.499  30.904  1.00  0.00    -0.248 NA
ATOM     56  C   UNL A   1      42.763  26.640  29.647  1.00  0.00     0.031 C 
ATOM     57  C   UNL A   1      44.556  30.330  34.089  1.00  0.00     0.029 A 
ATOM     58  C   UNL A   1      43.813  29.700  33.107  1.00  0.00     0.049 A 
ATOM     59  H   UNL A   1      41.918  30.215  32.328  1.00  0.00     0.167 HD
ATOM     60  C   UNL A   1      43.340  28.012  31.378  1.00  0.00     0.074 A 
ATOM     61  C   UNL A   1      43.657  26.834  30.604  1.00  0.00     0.031 C 
ATOM     62  C   UNL A   1      44.137  28.522  32.348  1.00  0.00     0.031 A 
BRANCH  49  63
ATOM     63  C   UNL A   1      41.719  33.522  35.017  1.00  0.00    -0.014 A 
ATOM     64  C   UNL A   1      42.325  34.743  34.692  1.00  0.00     0.009 A 
ATOM     65  C   UNL A   1      41.245  33.314  36.323  1.00  0.00     0.009 A 
ATOM     66  C   UNL A   1      42.480  35.726  35.671  1.00  0.00     0.001 A 
ATOM     67  C   UNL A   1      41.372  34.311  37.287  1.00  0.00     0.001 A 
ATOM     68  C   UNL A   1      41.998  35.512  36.963  1.00  0.00     0.000 A 
ENDBRANCH  49  63
BRANCH  50  69
ATOM     69  C   UNL A   1      40.350  26.645  28.049  1.00  0.00    -0.014 A 
ATOM     70  C   UNL A   1      39.591  25.529  28.453  1.00  0.00     0.009 A 
ATOM     71  C   UNL A   1      40.987  26.592  26.801  1.00  0.00     0.009 A 
ATOM     72  C   UNL A   1      39.522  24.379  27.658  1.00  0.00     0.001 A 
ATOM     73  C   UNL A   1      40.875  25.462  25.985  1.00  0.00     0.001 A 
ATOM     74  C   UNL A   1      40.162  24.349  26.422  1.00  0.00     0.000 A 
ENDBRANCH  50  69
BRANCH  62  75
ATOM     75  C   UNL A   1      45.419  27.795  32.661  1.00  0.00    -0.014 A 
ATOM     76  C   UNL A   1      46.630  28.122  32.025  1.00  0.00     0.009 A 
ATOM     77  C   UNL A   1      45.422  26.779  33.629  1.00  0.00     0.009 A 
ATOM     78  C   UNL A   1      47.801  27.419  32.321  1.00  0.00     0.001 A 
ATOM     79  C   UNL A   1      46.601  26.099  33.947  1.00  0.00     0.001 A 
ATOM     80  C   UNL A   1      47.786  26.410  33.283  1.00  0.00     0.000 A 
ENDBRANCH  62  75
ENDBRANCH  36  37
ENDBRANCH  29  31
ENDBRANCH  28  29
ENDBRANCH  27  28
ENDBRANCH   1  27
TORSDOF 15
ENDMDL
