MODEL 1
REMARK VINA RESULT:     -12.6      0.000      0.000
REMARK SMILES Cc1oc2cc3c(cc2c1C)[C@H](C)[C@@H](CC(=O)N[C@H](CC1=c2ccccc2=NC1)C(=O)OCCOC(=O)c1ccc(-c2c4nc(c(-c5ccccc5)c5ccc([nH]5)c(-c5ccccc5)c5nc(c(-c6ccccc6)c6ccc2[nH]6)C=C5)C=C4)cc1)C(=O)O3
REMARK SMILES IDX 33 1 32 2 30 3 31 4 19 5 18 6 16 7 17 8 15 10 14 11 1 12
REMARK SMILES IDX 2 13 3 14 10 15 4 16 9 17 11 18 5 19 8 20 6 21 7 22 88 23
REMARK SMILES IDX 12 24 86 25 13 26 87 27 20 28 21 29 22 30 29 31 23 32 27 33
REMARK SMILES IDX 28 34 24 35 26 36 25 37 34 38 35 39 36 40 37 41 38 42 39 43
REMARK SMILES IDX 85 44 40 45 84 46 41 47 42 48 43 49 78 50 44 51 83 52 77 53
REMARK SMILES IDX 79 54 45 55 82 56 76 57 75 58 46 60 68 61 53 62 67 63 54 64
REMARK SMILES IDX 57 65 66 66 80 67 55 68 56 69 65 71 81 72 58 73 47 74 48 75
REMARK SMILES IDX 52 76 49 77 51 78 50 79 69 80 70 81 74 82 71 83 73 84 72 85
REMARK SMILES IDX 59 86 60 87 64 88 61 89 63 90 62 91
REMARK H PARENT 18 9 79 59 57 70
REMARK Flexibility Score: inf
ROOT
ATOM      1  C   UNL A   1      37.765  22.834  26.132  1.00  0.00     0.274 C 
ENDROOT
BRANCH   1   2
ATOM      2  O   UNL A   1      36.642  22.774  25.231  1.00  0.00    -0.461 OA
BRANCH   2   3
ATOM      3  C   UNL A   1      35.483  22.303  25.750  1.00  0.00     0.329 C 
ATOM      4  O   UNL A   1      35.031  22.647  26.843  1.00  0.00    -0.250 OA
BRANCH   3   5
ATOM      5  C   UNL A   1      34.707  21.372  24.799  1.00  0.00     0.196 C 
BRANCH   5   6
ATOM      6  N   UNL A   1      34.621  22.157  23.522  1.00  0.00    -0.342 N 
ATOM      7  C   UNL A   1      33.993  23.298  23.147  1.00  0.00     0.221 C 
ATOM      8  O   UNL A   1      34.000  23.590  21.947  1.00  0.00    -0.275 OA
ATOM      9  H   UNL A   1      35.139  21.751  22.790  1.00  0.00     0.164 HD
BRANCH   7  10
ATOM     10  C   UNL A   1      33.301  24.216  24.129  1.00  0.00     0.116 C 
BRANCH  10  11
ATOM     11  C   UNL A   1      32.780  25.492  23.463  1.00  0.00     0.116 C 
ATOM     12  C   UNL A   1      28.177  32.627  23.276  1.00  0.00     0.088 C 
ATOM     13  C   UNL A   1      29.059  31.456  23.452  1.00  0.00     0.105 A 
ATOM     14  O   UNL A   1      28.961  30.488  22.499  1.00  0.00    -0.461 OA
ATOM     15  C   UNL A   1      30.001  31.110  24.405  1.00  0.00    -0.002 A 
ATOM     16  C   UNL A   1      29.833  29.504  22.838  1.00  0.00     0.138 A 
ATOM     17  C   UNL A   1      30.496  29.830  24.014  1.00  0.00     0.024 A 
ATOM     18  C   UNL A   1      30.426  31.886  25.594  1.00  0.00     0.049 C 
ATOM     19  C   UNL A   1      30.027  28.329  22.129  1.00  0.00     0.095 A 
ATOM     20  C   UNL A   1      31.432  28.920  24.543  1.00  0.00     0.020 A 
ATOM     21  C   UNL A   1      30.946  27.437  22.687  1.00  0.00     0.138 A 
ATOM     22  C   UNL A   1      31.673  27.713  23.866  1.00  0.00    -0.001 A 
ATOM     23  O   UNL A   1      31.053  26.216  22.017  1.00  0.00    -0.426 OA
ATOM     24  C   UNL A   1      32.623  26.669  24.448  1.00  0.00     0.035 C 
ATOM     25  C   UNL A   1      31.369  25.289  22.972  1.00  0.00     0.315 C 
ATOM     26  C   UNL A   1      33.968  27.278  24.861  1.00  0.00     0.014 C 
ATOM     27  O   UNL A   1      30.550  24.525  23.456  1.00  0.00    -0.251 OA
ENDBRANCH  10  11
ENDBRANCH   7  10
ENDBRANCH   5   6
BRANCH   5  28
ATOM     28  C   UNL A   1      33.317  20.875  25.284  1.00  0.00     0.070 C 
BRANCH  28  29
ATOM     29  C   UNL A   1      32.651  19.568  24.806  1.00  0.00    -0.037 C 
ATOM     30  C   UNL A   1      33.084  18.316  25.002  1.00  0.00     0.001 A 
ATOM     31  C   UNL A   1      32.096  19.614  23.396  1.00  0.00     0.174 C 
ATOM     32  C   UNL A   1      32.597  17.287  25.902  1.00  0.00     0.010 A 
ATOM     33  C   UNL A   1      33.272  17.826  23.613  1.00  0.00     0.065 A 
ATOM     34  N   UNL A   1      32.768  18.529  22.649  1.00  0.00    -0.280 NA
ATOM     35  C   UNL A   1      32.949  16.009  25.652  1.00  0.00     0.001 A 
ATOM     36  C   UNL A   1      33.990  16.537  23.506  1.00  0.00     0.028 A 
ATOM     37  C   UNL A   1      33.829  15.686  24.533  1.00  0.00     0.002 A 
ENDBRANCH  28  29
ENDBRANCH   5  28
ENDBRANCH   3   5
ENDBRANCH   2   3
ENDBRANCH   1   2
BRANCH   1  38
ATOM     38  C   UNL A   1      38.785  21.751  25.775  1.00  0.00     0.275 C 
BRANCH  38  39
ATOM     39  O   UNL A   1      40.142  22.154  26.008  1.00  0.00    -0.458 OA
BRANCH  39  40
ATOM     40  C   UNL A   1      40.610  22.016  27.271  1.00  0.00     0.338 C 
ATOM     41  O   UNL A   1      40.725  21.031  27.945  1.00  0.00    -0.246 OA
BRANCH  40  42
ATOM     42  C   UNL A   1      41.144  23.300  27.679  1.00  0.00     0.060 A 
ATOM     43  C   UNL A   1      40.300  24.224  28.288  1.00  0.00     0.016 A 
ATOM     44  C   UNL A   1      42.462  23.582  27.322  1.00  0.00     0.016 A 
ATOM     45  C   UNL A   1      40.756  25.516  28.438  1.00  0.00     0.010 A 
ATOM     46  C   UNL A   1      42.908  24.880  27.457  1.00  0.00     0.010 A 
ATOM     47  C   UNL A   1      42.035  25.853  27.966  1.00  0.00    -0.014 A 
BRANCH  47  48
ATOM     48  C   UNL A   1      42.358  27.282  27.887  1.00  0.00     0.031 A 
ATOM     49  C   UNL A   1      41.182  28.198  27.839  1.00  0.00     0.074 A 
ATOM     50  C   UNL A   1      43.503  27.672  28.491  1.00  0.00     0.049 A 
ATOM     51  N   UNL A   1      40.480  28.498  28.894  1.00  0.00    -0.248 NA
ATOM     52  C   UNL A   1      40.550  28.585  26.578  1.00  0.00     0.031 C 
ATOM     53  C   UNL A   1      44.078  26.989  29.667  1.00  0.00     0.029 A 
ATOM     54  N   UNL A   1      44.263  28.803  28.358  1.00  0.00    -0.354 N 
ATOM     55  C   UNL A   1      39.303  29.074  28.454  1.00  0.00     0.074 A 
ATOM     56  C   UNL A   1      39.399  29.125  27.011  1.00  0.00     0.031 C 
ATOM     57  C   UNL A   1      44.967  27.809  30.257  1.00  0.00     0.029 A 
ATOM     58  C   UNL A   1      45.119  29.006  29.441  1.00  0.00     0.049 A 
ATOM     59  H   UNL A   1      44.211  29.407  27.583  1.00  0.00     0.167 HD
ATOM     60  C   UNL A   1      38.309  29.467  29.294  1.00  0.00     0.031 A 
ATOM     61  C   UNL A   1      45.440  30.239  29.916  1.00  0.00     0.031 A 
ATOM     62  C   UNL A   1      38.521  29.202  30.686  1.00  0.00     0.049 A 
ATOM     63  C   UNL A   1      44.143  30.599  30.611  1.00  0.00     0.074 A 
ATOM     64  C   UNL A   1      38.134  28.259  31.614  1.00  0.00     0.029 A 
ATOM     65  N   UNL A   1      39.375  30.024  31.381  1.00  0.00    -0.354 N 
ATOM     66  N   UNL A   1      43.725  30.146  31.765  1.00  0.00    -0.248 NA
ATOM     67  C   UNL A   1      43.101  31.224  29.793  1.00  0.00     0.031 C 
ATOM     68  C   UNL A   1      39.132  28.302  32.642  1.00  0.00     0.029 A 
ATOM     69  C   UNL A   1      40.093  29.230  32.242  1.00  0.00     0.049 A 
ATOM     70  H   UNL A   1      39.457  31.000  31.280  1.00  0.00     0.167 HD
ATOM     71  C   UNL A   1      42.328  30.161  31.693  1.00  0.00     0.074 A 
ATOM     72  C   UNL A   1      42.015  30.864  30.464  1.00  0.00     0.031 C 
ATOM     73  C   UNL A   1      41.501  29.448  32.521  1.00  0.00     0.031 A 
BRANCH  60  74
ATOM     74  C   UNL A   1      37.169  30.296  28.854  1.00  0.00    -0.014 A 
ATOM     75  C   UNL A   1      37.205  31.693  28.816  1.00  0.00     0.009 A 
ATOM     76  C   UNL A   1      36.050  29.624  28.336  1.00  0.00     0.009 A 
ATOM     77  C   UNL A   1      36.138  32.400  28.247  1.00  0.00     0.001 A 
ATOM     78  C   UNL A   1      34.994  30.328  27.762  1.00  0.00     0.001 A 
ATOM     79  C   UNL A   1      35.042  31.718  27.713  1.00  0.00     0.000 A 
ENDBRANCH  60  74
BRANCH  61  80
ATOM     80  C   UNL A   1      46.105  31.120  28.900  1.00  0.00    -0.014 A 
ATOM     81  C   UNL A   1      46.727  30.662  27.732  1.00  0.00     0.009 A 
ATOM     82  C   UNL A   1      46.149  32.509  29.152  1.00  0.00     0.009 A 
ATOM     83  C   UNL A   1      47.505  31.522  26.948  1.00  0.00     0.001 A 
ATOM     84  C   UNL A   1      46.903  33.374  28.357  1.00  0.00     0.001 A 
ATOM     85  C   UNL A   1      47.613  32.872  27.274  1.00  0.00     0.000 A 
ENDBRANCH  61  80
BRANCH  73  86
ATOM     86  C   UNL A   1      42.165  28.676  33.624  1.00  0.00    -0.014 A 
ATOM     87  C   UNL A   1      42.284  29.221  34.915  1.00  0.00     0.009 A 
ATOM     88  C   UNL A   1      42.719  27.410  33.387  1.00  0.00     0.009 A 
ATOM     89  C   UNL A   1      42.982  28.548  35.921  1.00  0.00     0.001 A 
ATOM     90  C   UNL A   1      43.390  26.722  34.401  1.00  0.00     0.001 A 
ATOM     91  C   UNL A   1      43.537  27.298  35.662  1.00  0.00     0.000 A 
ENDBRANCH  73  86
ENDBRANCH  47  48
ENDBRANCH  40  42
ENDBRANCH  39  40
ENDBRANCH  38  39
ENDBRANCH   1  38
TORSDOF 16
ENDMDL
MODEL 2
REMARK VINA RESULT:     -12.0      4.178      9.503
REMARK SMILES Cc1oc2cc3c(cc2c1C)[C@H](C)[C@@H](CC(=O)N[C@H](CC1=c2ccccc2=NC1)C(=O)OCCOC(=O)c1ccc(-c2c4nc(c(-c5ccccc5)c5ccc([nH]5)c(-c5ccccc5)c5nc(c(-c6ccccc6)c6ccc2[nH]6)C=C5)C=C4)cc1)C(=O)O3
REMARK SMILES IDX 33 1 32 2 30 3 31 4 19 5 18 6 16 7 17 8 15 10 14 11 1 12
REMARK SMILES IDX 2 13 3 14 10 15 4 16 9 17 11 18 5 19 8 20 6 21 7 22 88 23
REMARK SMILES IDX 12 24 86 25 13 26 87 27 20 28 21 29 22 30 29 31 23 32 27 33
REMARK SMILES IDX 28 34 24 35 26 36 25 37 34 38 35 39 36 40 37 41 38 42 39 43
REMARK SMILES IDX 85 44 40 45 84 46 41 47 42 48 43 49 78 50 44 51 83 52 77 53
REMARK SMILES IDX 79 54 45 55 82 56 76 57 75 58 46 60 68 61 53 62 67 63 54 64
REMARK SMILES IDX 57 65 66 66 80 67 55 68 56 69 65 71 81 72 58 73 47 74 48 75
REMARK SMILES IDX 52 76 49 77 51 78 50 79 69 80 70 81 74 82 71 83 73 84 72 85
REMARK SMILES IDX 59 86 60 87 64 88 61 89 63 90 62 91
REMARK H PARENT 18 9 79 59 57 70
REMARK Flexibility Score: inf
ROOT
ATOM      1  C   UNL A   1      45.871  30.154  26.980  1.00  0.00     0.274 C 
ENDROOT
BRANCH   1   2
ATOM      2  O   UNL A   1      45.217  29.175  26.149  1.00  0.00    -0.461 OA
BRANCH   2   3
ATOM      3  C   UNL A   1      43.885  29.022  26.342  1.00  0.00     0.329 C 
ATOM      4  O   UNL A   1      43.076  29.950  26.312  1.00  0.00    -0.250 OA
BRANCH   3   5
ATOM      5  C   UNL A   1      43.442  27.554  26.492  1.00  0.00     0.196 C 
BRANCH   5   6
ATOM      6  N   UNL A   1      44.382  27.000  27.524  1.00  0.00    -0.342 N 
ATOM      7  C   UNL A   1      44.225  26.316  28.682  1.00  0.00     0.221 C 
ATOM      8  O   UNL A   1      45.223  26.148  29.390  1.00  0.00    -0.275 OA
ATOM      9  H   UNL A   1      45.327  27.174  27.310  1.00  0.00     0.164 HD
BRANCH   7  10
ATOM     10  C   UNL A   1      42.896  25.753  29.132  1.00  0.00     0.116 C 
BRANCH  10  11
ATOM     11  C   UNL A   1      42.201  24.953  28.027  1.00  0.00     0.116 C 
ATOM     12  C   UNL A   1      35.650  20.676  24.721  1.00  0.00     0.088 C 
ATOM     13  C   UNL A   1      36.676  21.559  25.311  1.00  0.00     0.105 A 
ATOM     14  O   UNL A   1      37.931  21.038  25.396  1.00  0.00    -0.461 OA
ATOM     15  C   UNL A   1      36.647  22.847  25.815  1.00  0.00    -0.002 A 
ATOM     16  C   UNL A   1      38.720  21.986  25.966  1.00  0.00     0.138 A 
ATOM     17  C   UNL A   1      37.976  23.122  26.256  1.00  0.00     0.024 A 
ATOM     18  C   UNL A   1      35.491  23.771  25.894  1.00  0.00     0.049 C 
ATOM     19  C   UNL A   1      40.071  21.842  26.242  1.00  0.00     0.095 A 
ATOM     20  C   UNL A   1      38.614  24.214  26.874  1.00  0.00     0.020 A 
ATOM     21  C   UNL A   1      40.673  22.933  26.872  1.00  0.00     0.138 A 
ATOM     22  C   UNL A   1      39.984  24.127  27.175  1.00  0.00    -0.001 A 
ATOM     23  O   UNL A   1      42.007  22.732  27.235  1.00  0.00    -0.426 OA
ATOM     24  C   UNL A   1      40.693  25.261  27.913  1.00  0.00     0.035 C 
ATOM     25  C   UNL A   1      42.207  23.483  28.361  1.00  0.00     0.315 C 
ATOM     26  C   UNL A   1      40.415  26.627  27.277  1.00  0.00     0.014 C 
ATOM     27  O   UNL A   1      42.221  23.008  29.485  1.00  0.00    -0.251 OA
ENDBRANCH  10  11
ENDBRANCH   7  10
ENDBRANCH   5   6
BRANCH   5  28
ATOM     28  C   UNL A   1      43.409  26.696  25.197  1.00  0.00     0.070 C 
BRANCH  28  29
ATOM     29  C   UNL A   1      44.440  25.598  24.861  1.00  0.00    -0.037 C 
ATOM     30  C   UNL A   1      44.359  24.292  25.144  1.00  0.00     0.001 A 
ATOM     31  C   UNL A   1      45.887  25.994  25.078  1.00  0.00     0.174 C 
ATOM     32  C   UNL A   1      44.075  23.162  24.278  1.00  0.00     0.010 A 
ATOM     33  C   UNL A   1      45.554  24.079  25.998  1.00  0.00     0.065 A 
ATOM     34  N   UNL A   1      46.446  25.017  26.037  1.00  0.00    -0.280 NA
ATOM     35  C   UNL A   1      44.415  21.931  24.713  1.00  0.00     0.001 A 
ATOM     36  C   UNL A   1      45.599  22.767  26.679  1.00  0.00     0.028 A 
ATOM     37  C   UNL A   1      45.009  21.746  26.033  1.00  0.00     0.002 A 
ENDBRANCH  28  29
ENDBRANCH   5  28
ENDBRANCH   3   5
ENDBRANCH   2   3
ENDBRANCH   1   2
BRANCH   1  38
ATOM     38  C   UNL A   1      46.104  31.443  26.191  1.00  0.00     0.275 C 
BRANCH  38  39
ATOM     39  O   UNL A   1      45.772  32.626  26.931  1.00  0.00    -0.458 OA
BRANCH  39  40
ATOM     40  C   UNL A   1      44.523  33.121  26.761  1.00  0.00     0.338 C 
ATOM     41  O   UNL A   1      43.888  33.279  25.757  1.00  0.00    -0.246 OA
BRANCH  40  42
ATOM     42  C   UNL A   1      43.946  33.307  28.078  1.00  0.00     0.060 A 
ATOM     43  C   UNL A   1      43.545  32.192  28.807  1.00  0.00     0.016 A 
ATOM     44  C   UNL A   1      43.715  34.619  28.490  1.00  0.00     0.016 A 
ATOM     45  C   UNL A   1      42.778  32.398  29.934  1.00  0.00     0.010 A 
ATOM     46  C   UNL A   1      42.932  34.820  29.608  1.00  0.00     0.010 A 
ATOM     47  C   UNL A   1      42.423  33.708  30.295  1.00  0.00    -0.014 A 
BRANCH  47  48
ATOM     48  C   UNL A   1      41.383  33.855  31.319  1.00  0.00     0.031 A 
ATOM     49  C   UNL A   1      40.002  33.506  30.878  1.00  0.00     0.074 A 
ATOM     50  C   UNL A   1      41.766  33.640  32.597  1.00  0.00     0.049 A 
ATOM     51  N   UNL A   1      39.592  32.276  30.755  1.00  0.00    -0.248 NA
ATOM     52  C   UNL A   1      39.109  34.490  30.268  1.00  0.00     0.031 C 
ATOM     53  C   UNL A   1      42.861  32.725  32.978  1.00  0.00     0.029 A 
ATOM     54  N   UNL A   1      41.191  33.985  33.791  1.00  0.00    -0.354 N 
ATOM     55  C   UNL A   1      38.419  32.304  30.026  1.00  0.00     0.074 A 
ATOM     56  C   UNL A   1      38.147  33.701  29.762  1.00  0.00     0.031 C 
ATOM     57  C   UNL A   1      42.750  32.433  34.287  1.00  0.00     0.029 A 
ATOM     58  C   UNL A   1      41.674  33.229  34.859  1.00  0.00     0.049 A 
ATOM     59  H   UNL A   1      40.510  34.691  33.885  1.00  0.00     0.167 HD
ATOM     60  C   UNL A   1      37.738  31.183  29.668  1.00  0.00     0.031 A 
ATOM     61  C   UNL A   1      40.903  32.855  35.916  1.00  0.00     0.031 A 
ATOM     62  C   UNL A   1      38.338  29.937  30.046  1.00  0.00     0.049 A 
ATOM     63  C   UNL A   1      40.066  31.775  35.262  1.00  0.00     0.074 A 
ATOM     64  C   UNL A   1      39.103  28.954  29.456  1.00  0.00     0.029 A 
ATOM     65  N   UNL A   1      38.229  29.534  31.355  1.00  0.00    -0.354 N 
ATOM     66  N   UNL A   1      40.450  30.558  34.975  1.00  0.00    -0.248 NA
ATOM     67  C   UNL A   1      38.848  32.203  34.570  1.00  0.00     0.031 C 
ATOM     68  C   UNL A   1      39.783  28.299  30.535  1.00  0.00     0.029 A 
ATOM     69  C   UNL A   1      39.428  28.964  31.708  1.00  0.00     0.049 A 
ATOM     70  H   UNL A   1      37.438  29.635  31.933  1.00  0.00     0.167 HD
ATOM     71  C   UNL A   1      39.701  30.179  33.856  1.00  0.00     0.074 A 
ATOM     72  C   UNL A   1      38.716  31.228  33.681  1.00  0.00     0.031 C 
ATOM     73  C   UNL A   1      40.028  29.146  33.018  1.00  0.00     0.031 A 
BRANCH  60  74
ATOM     74  C   UNL A   1      36.373  31.217  29.108  1.00  0.00    -0.014 A 
ATOM     75  C   UNL A   1      35.456  32.236  29.382  1.00  0.00     0.009 A 
ATOM     76  C   UNL A   1      36.045  30.236  28.159  1.00  0.00     0.009 A 
ATOM     77  C   UNL A   1      34.235  32.275  28.696  1.00  0.00     0.001 A 
ATOM     78  C   UNL A   1      34.835  30.282  27.471  1.00  0.00     0.001 A 
ATOM     79  C   UNL A   1      33.932  31.307  27.737  1.00  0.00     0.000 A 
ENDBRANCH  60  74
BRANCH  61  80
ATOM     80  C   UNL A   1      40.316  34.012  36.670  1.00  0.00    -0.014 A 
ATOM     81  C   UNL A   1      40.728  35.343  36.535  1.00  0.00     0.009 A 
ATOM     82  C   UNL A   1      39.303  33.742  37.617  1.00  0.00     0.009 A 
ATOM     83  C   UNL A   1      40.279  36.327  37.425  1.00  0.00     0.001 A 
ATOM     84  C   UNL A   1      38.835  34.727  38.489  1.00  0.00     0.001 A 
ATOM     85  C   UNL A   1      39.352  36.014  38.416  1.00  0.00     0.000 A 
ENDBRANCH  61  80
BRANCH  73  86
ATOM     86  C   UNL A   1      41.229  28.329  33.400  1.00  0.00    -0.014 A 
ATOM     87  C   UNL A   1      41.139  27.339  34.396  1.00  0.00     0.009 A 
ATOM     88  C   UNL A   1      42.477  28.559  32.806  1.00  0.00     0.009 A 
ATOM     89  C   UNL A   1      42.271  26.640  34.822  1.00  0.00     0.001 A 
ATOM     90  C   UNL A   1      43.605  27.839  33.210  1.00  0.00     0.001 A 
ATOM     91  C   UNL A   1      43.505  26.893  34.229  1.00  0.00     0.000 A 
ENDBRANCH  73  86
ENDBRANCH  47  48
ENDBRANCH  40  42
ENDBRANCH  39  40
ENDBRANCH  38  39
ENDBRANCH   1  38
TORSDOF 16
ENDMDL
MODEL 3
REMARK VINA RESULT:     -11.8      4.489     10.026
REMARK SMILES Cc1oc2cc3c(cc2c1C)[C@H](C)[C@@H](CC(=O)N[C@H](CC1=c2ccccc2=NC1)C(=O)OCCOC(=O)c1ccc(-c2c4nc(c(-c5ccccc5)c5ccc([nH]5)c(-c5ccccc5)c5nc(c(-c6ccccc6)c6ccc2[nH]6)C=C5)C=C4)cc1)C(=O)O3
REMARK SMILES IDX 33 1 32 2 30 3 31 4 19 5 18 6 16 7 17 8 15 10 14 11 1 12
REMARK SMILES IDX 2 13 3 14 10 15 4 16 9 17 11 18 5 19 8 20 6 21 7 22 88 23
REMARK SMILES IDX 12 24 86 25 13 26 87 27 20 28 21 29 22 30 29 31 23 32 27 33
REMARK SMILES IDX 28 34 24 35 26 36 25 37 34 38 35 39 36 40 37 41 38 42 39 43
REMARK SMILES IDX 85 44 40 45 84 46 41 47 42 48 43 49 78 50 44 51 83 52 77 53
REMARK SMILES IDX 79 54 45 55 82 56 76 57 75 58 46 60 68 61 53 62 67 63 54 64
REMARK SMILES IDX 57 65 66 66 80 67 55 68 56 69 65 71 81 72 58 73 47 74 48 75
REMARK SMILES IDX 52 76 49 77 51 78 50 79 69 80 70 81 74 82 71 83 73 84 72 85
REMARK SMILES IDX 59 86 60 87 64 88 61 89 63 90 62 91
REMARK H PARENT 18 9 79 59 57 70
REMARK Flexibility Score: inf
ROOT
ATOM      1  C   UNL A   1      41.575  31.488  35.465  1.00  0.00     0.274 C 
ENDROOT
BRANCH   1   2
ATOM      2  O   UNL A   1      41.200  31.030  34.152  1.00  0.00    -0.461 OA
BRANCH   2   3
ATOM      3  C   UNL A   1      40.082  30.268  34.082  1.00  0.00     0.329 C 
ATOM      4  O   UNL A   1      40.023  29.099  34.463  1.00  0.00    -0.250 OA
BRANCH   3   5
ATOM      5  C   UNL A   1      38.839  31.030  33.584  1.00  0.00     0.196 C 
BRANCH   5   6
ATOM      6  N   UNL A   1      39.411  32.237  32.896  1.00  0.00    -0.342 N 
ATOM      7  C   UNL A   1      39.784  32.517  31.624  1.00  0.00     0.221 C 
ATOM      8  O   UNL A   1      40.381  33.579  31.422  1.00  0.00    -0.275 OA
ATOM      9  H   UNL A   1      39.545  32.995  33.508  1.00  0.00     0.164 HD
BRANCH   7  10
ATOM     10  C   UNL A   1      39.496  31.597  30.460  1.00  0.00     0.116 C 
BRANCH  10  11
ATOM     11  C   UNL A   1      37.996  31.456  30.188  1.00  0.00     0.116 C 
ATOM     12  C   UNL A   1      31.303  29.666  25.276  1.00  0.00     0.088 C 
ATOM     13  C   UNL A   1      32.521  29.810  26.098  1.00  0.00     0.105 A 
ATOM     14  O   UNL A   1      32.656  30.991  26.761  1.00  0.00    -0.461 OA
ATOM     15  C   UNL A   1      33.597  28.979  26.357  1.00  0.00    -0.002 A 
ATOM     16  C   UNL A   1      33.829  30.935  27.444  1.00  0.00     0.138 A 
ATOM     17  C   UNL A   1      34.458  29.717  27.223  1.00  0.00     0.024 A 
ATOM     18  C   UNL A   1      33.832  27.605  25.852  1.00  0.00     0.049 C 
ATOM     19  C   UNL A   1      34.342  31.949  28.237  1.00  0.00     0.095 A 
ATOM     20  C   UNL A   1      35.704  29.473  27.831  1.00  0.00     0.020 A 
ATOM     21  C   UNL A   1      35.587  31.689  28.812  1.00  0.00     0.138 A 
ATOM     22  C   UNL A   1      36.272  30.464  28.649  1.00  0.00    -0.001 A 
ATOM     23  O   UNL A   1      36.137  32.759  29.522  1.00  0.00    -0.426 OA
ATOM     24  C   UNL A   1      37.657  30.268  29.264  1.00  0.00     0.035 C 
ATOM     25  C   UNL A   1      37.494  32.637  29.396  1.00  0.00     0.315 C 
ATOM     26  C   UNL A   1      37.787  28.914  29.970  1.00  0.00     0.014 C 
ATOM     27  O   UNL A   1      38.154  33.303  28.615  1.00  0.00    -0.251 OA
ENDBRANCH  10  11
ENDBRANCH   7  10
ENDBRANCH   5   6
BRANCH   5  28
ATOM     28  C   UNL A   1      37.772  31.405  34.650  1.00  0.00     0.070 C 
BRANCH  28  29
ATOM     29  C   UNL A   1      36.995  32.738  34.665  1.00  0.00    -0.037 C 
ATOM     30  C   UNL A   1      36.116  33.177  33.755  1.00  0.00     0.001 A 
ATOM     31  C   UNL A   1      37.808  33.945  35.092  1.00  0.00     0.174 C 
ATOM     32  C   UNL A   1      34.669  33.262  33.818  1.00  0.00     0.010 A 
ATOM     33  C   UNL A   1      36.748  34.435  33.285  1.00  0.00     0.065 A 
ATOM     34  N   UNL A   1      37.736  34.911  33.975  1.00  0.00    -0.280 NA
ATOM     35  C   UNL A   1      34.044  34.074  32.941  1.00  0.00     0.001 A 
ATOM     36  C   UNL A   1      36.123  35.027  32.083  1.00  0.00     0.028 A 
ATOM     37  C   UNL A   1      34.805  34.808  31.935  1.00  0.00     0.002 A 
ENDBRANCH  28  29
ENDBRANCH   5  28
ENDBRANCH   3   5
ENDBRANCH   2   3
ENDBRANCH   1   2
BRANCH   1  38
ATOM     38  C   UNL A   1      42.605  30.539  36.079  1.00  0.00     0.275 C 
BRANCH  38  39
ATOM     39  O   UNL A   1      43.254  29.704  35.110  1.00  0.00    -0.458 OA
BRANCH  39  40
ATOM     40  C   UNL A   1      43.675  28.489  35.536  1.00  0.00     0.338 C 
ATOM     41  O   UNL A   1      43.762  28.053  36.649  1.00  0.00    -0.246 OA
BRANCH  40  42
ATOM     42  C   UNL A   1      43.878  27.664  34.363  1.00  0.00     0.060 A 
ATOM     43  C   UNL A   1      44.904  26.724  34.362  1.00  0.00     0.016 A 
ATOM     44  C   UNL A   1      43.097  27.950  33.243  1.00  0.00     0.016 A 
ATOM     45  C   UNL A   1      45.239  26.133  33.162  1.00  0.00     0.010 A 
ATOM     46  C   UNL A   1      43.447  27.369  32.042  1.00  0.00     0.010 A 
ATOM     47  C   UNL A   1      44.549  26.504  31.996  1.00  0.00    -0.014 A 
BRANCH  47  48
ATOM     48  C   UNL A   1      45.125  26.068  30.720  1.00  0.00     0.031 A 
ATOM     49  C   UNL A   1      44.183  25.363  29.803  1.00  0.00     0.074 A 
ATOM     50  C   UNL A   1      46.119  26.835  30.217  1.00  0.00     0.049 A 
ATOM     51  N   UNL A   1      43.290  25.991  29.093  1.00  0.00    -0.248 NA
ATOM     52  C   UNL A   1      43.984  23.916  29.857  1.00  0.00     0.031 C 
ATOM     53  C   UNL A   1      46.235  28.286  30.467  1.00  0.00     0.029 A 
ATOM     54  N   UNL A   1      47.073  26.583  29.268  1.00  0.00    -0.354 N 
ATOM     55  C   UNL A   1      42.390  25.047  28.635  1.00  0.00     0.074 A 
ATOM     56  C   UNL A   1      42.872  23.770  29.118  1.00  0.00     0.031 C 
ATOM     57  C   UNL A   1      47.065  28.820  29.552  1.00  0.00     0.029 A 
ATOM     58  C   UNL A   1      47.634  27.749  28.747  1.00  0.00     0.049 A 
ATOM     59  H   UNL A   1      47.335  25.677  28.984  1.00  0.00     0.167 HD
ATOM     60  C   UNL A   1      41.294  25.362  27.896  1.00  0.00     0.031 A 
ATOM     61  C   UNL A   1      48.028  27.872  27.451  1.00  0.00     0.031 A 
ATOM     62  C   UNL A   1      41.081  26.758  27.652  1.00  0.00     0.049 A 
ATOM     63  C   UNL A   1      46.677  27.975  26.773  1.00  0.00     0.074 A 
ATOM     64  C   UNL A   1      40.303  27.775  28.165  1.00  0.00     0.029 A 
ATOM     65  N   UNL A   1      41.850  27.376  26.696  1.00  0.00    -0.354 N 
ATOM     66  N   UNL A   1      45.896  29.023  26.747  1.00  0.00    -0.248 NA
ATOM     67  C   UNL A   1      46.013  26.718  26.417  1.00  0.00     0.031 C 
ATOM     68  C   UNL A   1      40.986  28.987  27.822  1.00  0.00     0.029 A 
ATOM     69  C   UNL A   1      42.164  28.625  27.171  1.00  0.00     0.049 A 
ATOM     70  H   UNL A   1      42.125  26.993  25.831  1.00  0.00     0.167 HD
ATOM     71  C   UNL A   1      44.592  28.522  26.661  1.00  0.00     0.074 A 
ATOM     72  C   UNL A   1      44.744  27.099  26.432  1.00  0.00     0.031 C 
ATOM     73  C   UNL A   1      43.465  29.239  26.966  1.00  0.00     0.031 A 
BRANCH  60  74
ATOM     74  C   UNL A   1      40.474  24.347  27.205  1.00  0.00    -0.014 A 
ATOM     75  C   UNL A   1      40.851  23.006  27.087  1.00  0.00     0.009 A 
ATOM     76  C   UNL A   1      39.201  24.743  26.764  1.00  0.00     0.009 A 
ATOM     77  C   UNL A   1      39.951  22.077  26.549  1.00  0.00     0.001 A 
ATOM     78  C   UNL A   1      38.305  23.816  26.238  1.00  0.00     0.001 A 
ATOM     79  C   UNL A   1      38.680  22.481  26.136  1.00  0.00     0.000 A 
ENDBRANCH  60  74
BRANCH  61  80
ATOM     80  C   UNL A   1      49.081  26.882  27.047  1.00  0.00    -0.014 A 
ATOM     81  C   UNL A   1      49.703  25.980  27.918  1.00  0.00     0.009 A 
ATOM     82  C   UNL A   1      49.512  26.883  25.702  1.00  0.00     0.009 A 
ATOM     83  C   UNL A   1      50.821  25.242  27.509  1.00  0.00     0.001 A 
ATOM     84  C   UNL A   1      50.611  26.129  25.285  1.00  0.00     0.001 A 
ATOM     85  C   UNL A   1      51.289  25.335  26.201  1.00  0.00     0.000 A 
ENDBRANCH  61  80
BRANCH  73  86
ATOM     86  C   UNL A   1      43.668  30.682  27.330  1.00  0.00    -0.014 A 
ATOM     87  C   UNL A   1      43.935  31.644  26.340  1.00  0.00     0.009 A 
ATOM     88  C   UNL A   1      43.636  31.099  28.668  1.00  0.00     0.009 A 
ATOM     89  C   UNL A   1      44.216  32.969  26.680  1.00  0.00     0.001 A 
ATOM     90  C   UNL A   1      43.887  32.431  29.007  1.00  0.00     0.001 A 
ATOM     91  C   UNL A   1      44.195  33.362  28.015  1.00  0.00     0.000 A 
ENDBRANCH  73  86
ENDBRANCH  47  48
ENDBRANCH  40  42
ENDBRANCH  39  40
ENDBRANCH  38  39
ENDBRANCH   1  38
TORSDOF 16
ENDMDL
