MODEL 1
REMARK VINA RESULT:     -11.9      0.000      0.000
REMARK SMILES Cc1nc(-c2ccccc2)sc1C(=O)N[C@@H](CC1=c2ccccc2=NC1)C(=O)OCCOC(=O)c1ccc(-c2c3nc(c(-c4ccccc4)c4ccc([nH]4)c(-c4ccccc4)c4nc(c(-c5ccccc5)c5ccc2[nH]5)C=C4)C=C3)cc1
REMARK SMILES IDX 30 1 29 2 27 3 28 4 16 5 15 6 13 7 14 8 12 10 1 11 2 12 3 13
REMARK SMILES IDX 4 14 11 15 5 16 6 17 10 18 7 19 9 20 8 21 17 22 18 23 19 24
REMARK SMILES IDX 26 25 20 26 24 27 25 28 21 29 23 30 22 31 31 32 32 33 33 34
REMARK SMILES IDX 34 35 35 36 36 37 82 38 37 39 81 40 38 41 39 42 40 43 75 44
REMARK SMILES IDX 41 45 80 46 74 47 76 48 42 49 79 50 73 51 72 52 43 54 65 55
REMARK SMILES IDX 50 56 64 57 51 58 54 59 63 60 77 61 52 62 53 63 62 65 78 66
REMARK SMILES IDX 55 67 44 68 45 69 49 70 46 71 48 72 47 73 66 74 67 75 71 76
REMARK SMILES IDX 68 77 70 78 69 79 56 80 57 81 61 82 58 83 60 84 59 85
REMARK H PARENT 15 9 76 53 54 64
REMARK Flexibility Score: inf
ROOT
ATOM      1  C   UNL A   1      36.842  21.107  24.950  1.00  0.00     0.274 C 
ENDROOT
BRANCH   1   2
ATOM      2  O   UNL A   1      36.003  22.250  25.211  1.00  0.00    -0.461 OA
BRANCH   2   3
ATOM      3  C   UNL A   1      34.847  21.996  25.879  1.00  0.00     0.329 C 
ATOM      4  O   UNL A   1      34.644  21.019  26.591  1.00  0.00    -0.250 OA
BRANCH   3   5
ATOM      5  C   UNL A   1      33.759  23.043  25.612  1.00  0.00     0.196 C 
BRANCH   5   6
ATOM      6  N   UNL A   1      32.602  23.008  26.498  1.00  0.00    -0.338 N 
ATOM      7  C   UNL A   1      31.389  23.650  26.496  1.00  0.00     0.264 C 
ATOM      8  O   UNL A   1      30.762  23.519  27.553  1.00  0.00    -0.268 OA
ATOM      9  H   UNL A   1      32.715  22.394  27.258  1.00  0.00     0.164 HD
BRANCH   7  10
ATOM     10  C   UNL A   1      30.837  24.381  25.356  1.00  0.00     0.115 A 
ATOM     11  C   UNL A   1      31.005  23.077  23.069  1.00  0.00     0.068 C 
ATOM     12  C   UNL A   1      30.629  24.178  23.992  1.00  0.00     0.062 A 
ATOM     13  N   UNL A   1      29.980  25.215  23.336  1.00  0.00    -0.241 NA
ATOM     14  C   UNL A   1      29.836  26.260  24.112  1.00  0.00     0.124 A 
ATOM     15  S   UNL A   1      30.325  26.021  25.724  1.00  0.00    -0.108 S 
BRANCH  14  16
ATOM     16  C   UNL A   1      29.269  27.526  23.652  1.00  0.00     0.010 A 
ATOM     17  C   UNL A   1      30.095  28.654  23.577  1.00  0.00     0.011 A 
ATOM     18  C   UNL A   1      27.900  27.671  23.393  1.00  0.00     0.011 A 
ATOM     19  C   UNL A   1      29.576  29.898  23.223  1.00  0.00     0.001 A 
ATOM     20  C   UNL A   1      27.375  28.923  23.058  1.00  0.00     0.001 A 
ATOM     21  C   UNL A   1      28.214  30.033  22.967  1.00  0.00     0.000 A 
ENDBRANCH  14  16
ENDBRANCH   7  10
ENDBRANCH   5   6
BRANCH   5  22
ATOM     22  C   UNL A   1      34.393  24.451  25.599  1.00  0.00     0.070 C 
BRANCH  22  23
ATOM     23  C   UNL A   1      34.090  25.248  24.370  1.00  0.00    -0.037 C 
ATOM     24  C   UNL A   1      33.821  26.547  24.277  1.00  0.00     0.001 A 
ATOM     25  C   UNL A   1      34.077  24.607  23.013  1.00  0.00     0.174 C 
ATOM     26  C   UNL A   1      33.685  27.625  25.202  1.00  0.00     0.010 A 
ATOM     27  C   UNL A   1      33.744  26.757  22.823  1.00  0.00     0.065 A 
ATOM     28  N   UNL A   1      33.871  25.719  22.056  1.00  0.00    -0.280 NA
ATOM     29  C   UNL A   1      33.527  28.869  24.723  1.00  0.00     0.001 A 
ATOM     30  C   UNL A   1      33.569  28.154  22.372  1.00  0.00     0.028 A 
ATOM     31  C   UNL A   1      33.484  29.129  23.294  1.00  0.00     0.002 A 
ENDBRANCH  22  23
ENDBRANCH   5  22
ENDBRANCH   3   5
ENDBRANCH   2   3
ENDBRANCH   1   2
BRANCH   1  32
ATOM     32  C   UNL A   1      38.249  21.335  25.501  1.00  0.00     0.275 C 
BRANCH  32  33
ATOM     33  O   UNL A   1      38.467  22.725  25.813  1.00  0.00    -0.458 OA
BRANCH  33  34
ATOM     34  C   UNL A   1      39.705  23.007  26.276  1.00  0.00     0.338 C 
ATOM     35  O   UNL A   1      40.720  22.336  26.151  1.00  0.00    -0.246 OA
BRANCH  34  36
ATOM     36  C   UNL A   1      39.716  24.330  26.908  1.00  0.00     0.060 A 
ATOM     37  C   UNL A   1      40.399  25.361  26.267  1.00  0.00     0.016 A 
ATOM     38  C   UNL A   1      39.201  24.513  28.190  1.00  0.00     0.016 A 
ATOM     39  C   UNL A   1      40.619  26.567  26.923  1.00  0.00     0.010 A 
ATOM     40  C   UNL A   1      39.380  25.746  28.830  1.00  0.00     0.010 A 
ATOM     41  C   UNL A   1      40.115  26.775  28.214  1.00  0.00    -0.014 A 
BRANCH  41  42
ATOM     42  C   UNL A   1      40.431  28.038  28.933  1.00  0.00     0.031 A 
ATOM     43  C   UNL A   1      41.811  28.265  29.493  1.00  0.00     0.074 A 
ATOM     44  C   UNL A   1      39.522  29.029  29.005  1.00  0.00     0.049 A 
ATOM     45  N   UNL A   1      42.256  29.268  30.210  1.00  0.00    -0.248 NA
ATOM     46  C   UNL A   1      42.828  27.246  29.187  1.00  0.00     0.031 C 
ATOM     47  C   UNL A   1      38.177  28.990  28.430  1.00  0.00     0.029 A 
ATOM     48  N   UNL A   1      39.605  30.278  29.571  1.00  0.00    -0.354 N 
ATOM     49  C   UNL A   1      43.598  28.996  30.447  1.00  0.00     0.074 A 
ATOM     50  C   UNL A   1      43.887  27.720  29.829  1.00  0.00     0.031 C 
ATOM     51  C   UNL A   1      37.575  30.172  28.640  1.00  0.00     0.029 A 
ATOM     52  C   UNL A   1      38.460  31.023  29.429  1.00  0.00     0.049 A 
ATOM     53  H   UNL A   1      40.408  30.607  30.036  1.00  0.00     0.167 HD
ATOM     54  C   UNL A   1      44.517  29.753  31.091  1.00  0.00     0.031 A 
ATOM     55  C   UNL A   1      38.138  32.241  29.907  1.00  0.00     0.031 A 
ATOM     56  C   UNL A   1      44.258  31.040  31.675  1.00  0.00     0.049 A 
ATOM     57  C   UNL A   1      39.127  32.989  30.753  1.00  0.00     0.074 A 
ATOM     58  C   UNL A   1      45.133  31.871  32.356  1.00  0.00     0.029 A 
ATOM     59  N   UNL A   1      43.037  31.693  31.635  1.00  0.00    -0.354 N 
ATOM     60  N   UNL A   1      40.367  32.679  31.044  1.00  0.00    -0.248 NA
ATOM     61  C   UNL A   1      38.661  34.246  31.359  1.00  0.00     0.031 C 
ATOM     62  C   UNL A   1      44.431  33.014  32.756  1.00  0.00     0.029 A 
ATOM     63  C   UNL A   1      43.132  32.911  32.289  1.00  0.00     0.049 A 
ATOM     64  H   UNL A   1      42.223  31.344  31.205  1.00  0.00     0.167 HD
ATOM     65  C   UNL A   1      40.830  33.704  31.858  1.00  0.00     0.074 A 
ATOM     66  C   UNL A   1      39.747  34.654  31.998  1.00  0.00     0.031 C 
ATOM     67  C   UNL A   1      42.045  33.841  32.439  1.00  0.00     0.031 A 
BRANCH  54  68
ATOM     68  C   UNL A   1      45.904  29.193  31.210  1.00  0.00    -0.014 A 
ATOM     69  C   UNL A   1      46.261  28.367  32.287  1.00  0.00     0.009 A 
ATOM     70  C   UNL A   1      46.852  29.464  30.212  1.00  0.00     0.009 A 
ATOM     71  C   UNL A   1      47.553  27.842  32.373  1.00  0.00     0.001 A 
ATOM     72  C   UNL A   1      48.136  28.924  30.291  1.00  0.00     0.001 A 
ATOM     73  C   UNL A   1      48.487  28.119  31.375  1.00  0.00     0.000 A 
ENDBRANCH  54  68
BRANCH  55  74
ATOM     74  C   UNL A   1      36.787  32.804  29.654  1.00  0.00    -0.014 A 
ATOM     75  C   UNL A   1      36.517  33.531  28.485  1.00  0.00     0.009 A 
ATOM     76  C   UNL A   1      35.760  32.627  30.597  1.00  0.00     0.009 A 
ATOM     77  C   UNL A   1      35.251  34.080  28.274  1.00  0.00     0.001 A 
ATOM     78  C   UNL A   1      34.488  33.152  30.368  1.00  0.00     0.001 A 
ATOM     79  C   UNL A   1      34.236  33.885  29.210  1.00  0.00     0.000 A 
ENDBRANCH  55  74
BRANCH  67  80
ATOM     80  C   UNL A   1      42.272  35.069  33.271  1.00  0.00    -0.014 A 
ATOM     81  C   UNL A   1      41.783  35.151  34.583  1.00  0.00     0.009 A 
ATOM     82  C   UNL A   1      43.000  36.148  32.745  1.00  0.00     0.009 A 
ATOM     83  C   UNL A   1      41.997  36.301  35.346  1.00  0.00     0.001 A 
ATOM     84  C   UNL A   1      43.232  37.286  33.517  1.00  0.00     0.001 A 
ATOM     85  C   UNL A   1      42.725  37.366  34.813  1.00  0.00     0.000 A 
ENDBRANCH  67  80
ENDBRANCH  41  42
ENDBRANCH  34  36
ENDBRANCH  33  34
ENDBRANCH  32  33
ENDBRANCH   1  32
TORSDOF 16
ENDMDL
MODEL 2
REMARK VINA RESULT:     -11.8      2.621      3.593
REMARK SMILES Cc1nc(-c2ccccc2)sc1C(=O)N[C@@H](CC1=c2ccccc2=NC1)C(=O)OCCOC(=O)c1ccc(-c2c3nc(c(-c4ccccc4)c4ccc([nH]4)c(-c4ccccc4)c4nc(c(-c5ccccc5)c5ccc2[nH]5)C=C4)C=C3)cc1
REMARK SMILES IDX 30 1 29 2 27 3 28 4 16 5 15 6 13 7 14 8 12 10 1 11 2 12 3 13
REMARK SMILES IDX 4 14 11 15 5 16 6 17 10 18 7 19 9 20 8 21 17 22 18 23 19 24
REMARK SMILES IDX 26 25 20 26 24 27 25 28 21 29 23 30 22 31 31 32 32 33 33 34
REMARK SMILES IDX 34 35 35 36 36 37 82 38 37 39 81 40 38 41 39 42 40 43 75 44
REMARK SMILES IDX 41 45 80 46 74 47 76 48 42 49 79 50 73 51 72 52 43 54 65 55
REMARK SMILES IDX 50 56 64 57 51 58 54 59 63 60 77 61 52 62 53 63 62 65 78 66
REMARK SMILES IDX 55 67 44 68 45 69 49 70 46 71 48 72 47 73 66 74 67 75 71 76
REMARK SMILES IDX 68 77 70 78 69 79 56 80 57 81 61 82 58 83 60 84 59 85
REMARK H PARENT 15 9 76 53 54 64
REMARK Flexibility Score: inf
ROOT
ATOM      1  C   UNL A   1      36.855  21.899  24.412  1.00  0.00     0.274 C 
ENDROOT
BRANCH   1   2
ATOM      2  O   UNL A   1      35.463  21.542  24.533  1.00  0.00    -0.461 OA
BRANCH   2   3
ATOM      3  C   UNL A   1      34.853  21.920  25.686  1.00  0.00     0.329 C 
ATOM      4  O   UNL A   1      35.064  21.430  26.791  1.00  0.00    -0.250 OA
BRANCH   3   5
ATOM      5  C   UNL A   1      33.798  23.013  25.475  1.00  0.00     0.196 C 
BRANCH   5   6
ATOM      6  N   UNL A   1      32.681  23.019  26.411  1.00  0.00    -0.338 N 
ATOM      7  C   UNL A   1      31.463  23.652  26.428  1.00  0.00     0.264 C 
ATOM      8  O   UNL A   1      30.884  23.573  27.516  1.00  0.00    -0.268 OA
ATOM      9  H   UNL A   1      32.832  22.448  27.198  1.00  0.00     0.164 HD
BRANCH   7  10
ATOM     10  C   UNL A   1      30.856  24.315  25.275  1.00  0.00     0.115 A 
ATOM     11  C   UNL A   1      31.087  22.964  23.021  1.00  0.00     0.068 C 
ATOM     12  C   UNL A   1      30.649  24.063  23.919  1.00  0.00     0.062 A 
ATOM     13  N   UNL A   1      29.929  25.039  23.243  1.00  0.00    -0.241 NA
ATOM     14  C   UNL A   1      29.725  26.092  23.993  1.00  0.00     0.124 A 
ATOM     15  S   UNL A   1      30.242  25.928  25.605  1.00  0.00    -0.108 S 
BRANCH  14  16
ATOM     16  C   UNL A   1      29.074  27.307  23.507  1.00  0.00     0.010 A 
ATOM     17  C   UNL A   1      29.866  28.355  23.021  1.00  0.00     0.011 A 
ATOM     18  C   UNL A   1      27.691  27.498  23.617  1.00  0.00     0.011 A 
ATOM     19  C   UNL A   1      29.290  29.561  22.624  1.00  0.00     0.001 A 
ATOM     20  C   UNL A   1      27.115  28.716  23.240  1.00  0.00     0.001 A 
ATOM     21  C   UNL A   1      27.914  29.743  22.738  1.00  0.00     0.000 A 
ENDBRANCH  14  16
ENDBRANCH   7  10
ENDBRANCH   5   6
BRANCH   5  22
ATOM     22  C   UNL A   1      34.488  24.394  25.443  1.00  0.00     0.070 C 
BRANCH  22  23
ATOM     23  C   UNL A   1      34.134  25.228  24.252  1.00  0.00    -0.037 C 
ATOM     24  C   UNL A   1      33.811  26.517  24.218  1.00  0.00     0.001 A 
ATOM     25  C   UNL A   1      34.126  24.644  22.870  1.00  0.00     0.174 C 
ATOM     26  C   UNL A   1      33.647  27.550  25.189  1.00  0.00     0.010 A 
ATOM     27  C   UNL A   1      33.703  26.785  22.775  1.00  0.00     0.065 A 
ATOM     28  N   UNL A   1      33.861  25.785  21.963  1.00  0.00    -0.280 NA
ATOM     29  C   UNL A   1      33.431  28.805  24.764  1.00  0.00     0.001 A 
ATOM     30  C   UNL A   1      33.465  28.191  22.385  1.00  0.00     0.028 A 
ATOM     31  C   UNL A   1      33.355  29.122  23.348  1.00  0.00     0.002 A 
ENDBRANCH  22  23
ENDBRANCH   5  22
ENDBRANCH   3   5
ENDBRANCH   2   3
ENDBRANCH   1   2
BRANCH   1  32
ATOM     32  C   UNL A   1      37.746  20.770  24.928  1.00  0.00     0.275 C 
BRANCH  32  33
ATOM     33  O   UNL A   1      38.198  21.035  26.270  1.00  0.00    -0.458 OA
BRANCH  33  34
ATOM     34  C   UNL A   1      39.542  21.040  26.417  1.00  0.00     0.338 C 
ATOM     35  O   UNL A   1      40.331  20.158  26.106  1.00  0.00    -0.246 OA
BRANCH  34  36
ATOM     36  C   UNL A   1      39.986  22.337  26.939  1.00  0.00     0.060 A 
ATOM     37  C   UNL A   1      39.392  23.490  26.433  1.00  0.00     0.016 A 
ATOM     38  C   UNL A   1      41.083  22.424  27.795  1.00  0.00     0.016 A 
ATOM     39  C   UNL A   1      39.922  24.740  26.735  1.00  0.00     0.010 A 
ATOM     40  C   UNL A   1      41.584  23.685  28.140  1.00  0.00     0.010 A 
ATOM     41  C   UNL A   1      41.027  24.853  27.590  1.00  0.00    -0.014 A 
BRANCH  41  42
ATOM     42  C   UNL A   1      41.633  26.190  27.836  1.00  0.00     0.031 A 
ATOM     43  C   UNL A   1      42.949  26.552  27.199  1.00  0.00     0.074 A 
ATOM     44  C   UNL A   1      40.967  27.121  28.546  1.00  0.00     0.049 A 
ATOM     45  N   UNL A   1      43.667  27.638  27.351  1.00  0.00    -0.248 NA
ATOM     46  C   UNL A   1      43.518  25.581  26.251  1.00  0.00     0.031 C 
ATOM     47  C   UNL A   1      39.644  26.946  29.145  1.00  0.00     0.029 A 
ATOM     48  N   UNL A   1      41.306  28.415  28.860  1.00  0.00    -0.354 N 
ATOM     49  C   UNL A   1      44.774  27.476  26.527  1.00  0.00     0.074 A 
ATOM     50  C   UNL A   1      44.652  26.175  25.904  1.00  0.00     0.031 C 
ATOM     51  C   UNL A   1      39.267  28.098  29.722  1.00  0.00     0.029 A 
ATOM     52  C   UNL A   1      40.351  29.069  29.599  1.00  0.00     0.049 A 
ATOM     53  H   UNL A   1      42.153  28.834  28.582  1.00  0.00     0.167 HD
ATOM     54  C   UNL A   1      45.786  28.342  26.282  1.00  0.00     0.031 A 
ATOM     55  C   UNL A   1      40.355  30.298  30.151  1.00  0.00     0.031 A 
ATOM     56  C   UNL A   1      45.901  29.653  26.859  1.00  0.00     0.049 A 
ATOM     57  C   UNL A   1      41.562  31.176  29.993  1.00  0.00     0.074 A 
ATOM     58  C   UNL A   1      46.902  30.593  26.671  1.00  0.00     0.029 A 
ATOM     59  N   UNL A   1      44.980  30.219  27.724  1.00  0.00    -0.354 N 
ATOM     60  N   UNL A   1      42.643  30.974  29.280  1.00  0.00    -0.248 NA
ATOM     61  C   UNL A   1      41.557  32.445  30.737  1.00  0.00     0.031 C 
ATOM     62  C   UNL A   1      46.601  31.716  27.450  1.00  0.00     0.029 A 
ATOM     63  C   UNL A   1      45.394  31.490  28.089  1.00  0.00     0.049 A 
ATOM     64  H   UNL A   1      44.154  29.782  28.034  1.00  0.00     0.167 HD
ATOM     65  C   UNL A   1      43.442  32.091  29.484  1.00  0.00     0.074 A 
ATOM     66  C   UNL A   1      42.714  32.976  30.369  1.00  0.00     0.031 C 
ATOM     67  C   UNL A   1      44.672  32.355  28.984  1.00  0.00     0.031 A 
BRANCH  54  68
ATOM     68  C   UNL A   1      46.867  27.887  25.347  1.00  0.00    -0.014 A 
ATOM     69  C   UNL A   1      46.776  28.121  23.966  1.00  0.00     0.009 A 
ATOM     70  C   UNL A   1      48.007  27.250  25.859  1.00  0.00     0.009 A 
ATOM     71  C   UNL A   1      47.799  27.702  23.113  1.00  0.00     0.001 A 
ATOM     72  C   UNL A   1      49.036  26.849  25.006  1.00  0.00     0.001 A 
ATOM     73  C   UNL A   1      48.928  27.071  23.633  1.00  0.00     0.000 A 
ENDBRANCH  54  68
BRANCH  55  74
ATOM     74  C   UNL A   1      39.199  30.747  30.970  1.00  0.00    -0.014 A 
ATOM     75  C   UNL A   1      38.156  31.488  30.396  1.00  0.00     0.009 A 
ATOM     76  C   UNL A   1      39.145  30.447  32.341  1.00  0.00     0.009 A 
ATOM     77  C   UNL A   1      37.090  31.931  31.182  1.00  0.00     0.001 A 
ATOM     78  C   UNL A   1      38.064  30.865  33.117  1.00  0.00     0.001 A 
ATOM     79  C   UNL A   1      37.041  31.614  32.539  1.00  0.00     0.000 A 
ENDBRANCH  55  74
BRANCH  67  80
ATOM     80  C   UNL A   1      45.303  33.660  29.372  1.00  0.00    -0.014 A 
ATOM     81  C   UNL A   1      45.044  34.831  28.644  1.00  0.00     0.009 A 
ATOM     82  C   UNL A   1      46.148  33.724  30.492  1.00  0.00     0.009 A 
ATOM     83  C   UNL A   1      45.640  36.038  29.014  1.00  0.00     0.001 A 
ATOM     84  C   UNL A   1      46.724  34.937  30.872  1.00  0.00     0.001 A 
ATOM     85  C   UNL A   1      46.477  36.091  30.130  1.00  0.00     0.000 A 
ENDBRANCH  67  80
ENDBRANCH  41  42
ENDBRANCH  34  36
ENDBRANCH  33  34
ENDBRANCH  32  33
ENDBRANCH   1  32
TORSDOF 16
ENDMDL
MODEL 3
REMARK VINA RESULT:     -11.7      2.076      4.159
REMARK SMILES Cc1nc(-c2ccccc2)sc1C(=O)N[C@@H](CC1=c2ccccc2=NC1)C(=O)OCCOC(=O)c1ccc(-c2c3nc(c(-c4ccccc4)c4ccc([nH]4)c(-c4ccccc4)c4nc(c(-c5ccccc5)c5ccc2[nH]5)C=C4)C=C3)cc1
REMARK SMILES IDX 30 1 29 2 27 3 28 4 16 5 15 6 13 7 14 8 12 10 1 11 2 12 3 13
REMARK SMILES IDX 4 14 11 15 5 16 6 17 10 18 7 19 9 20 8 21 17 22 18 23 19 24
REMARK SMILES IDX 26 25 20 26 24 27 25 28 21 29 23 30 22 31 31 32 32 33 33 34
REMARK SMILES IDX 34 35 35 36 36 37 82 38 37 39 81 40 38 41 39 42 40 43 75 44
REMARK SMILES IDX 41 45 80 46 74 47 76 48 42 49 79 50 73 51 72 52 43 54 65 55
REMARK SMILES IDX 50 56 64 57 51 58 54 59 63 60 77 61 52 62 53 63 62 65 78 66
REMARK SMILES IDX 55 67 44 68 45 69 49 70 46 71 48 72 47 73 66 74 67 75 71 76
REMARK SMILES IDX 68 77 70 78 69 79 56 80 57 81 61 82 58 83 60 84 59 85
REMARK H PARENT 15 9 76 53 54 64
REMARK Flexibility Score: inf
ROOT
ATOM      1  C   UNL A   1      36.227  22.845  23.667  1.00  0.00     0.274 C 
ENDROOT
BRANCH   1   2
ATOM      2  O   UNL A   1      35.620  24.088  24.073  1.00  0.00    -0.461 OA
BRANCH   2   3
ATOM      3  C   UNL A   1      34.445  24.399  23.467  1.00  0.00     0.329 C 
ATOM      4  O   UNL A   1      34.130  24.073  22.327  1.00  0.00    -0.250 OA
BRANCH   3   5
ATOM      5  C   UNL A   1      33.533  25.272  24.339  1.00  0.00     0.196 C 
BRANCH   5   6
ATOM      6  N   UNL A   1      33.238  24.762  25.672  1.00  0.00    -0.338 N 
ATOM      7  C   UNL A   1      32.703  23.587  26.138  1.00  0.00     0.264 C 
ATOM      8  O   UNL A   1      32.403  23.626  27.336  1.00  0.00    -0.268 OA
ATOM      9  H   UNL A   1      33.471  25.394  26.389  1.00  0.00     0.164 HD
BRANCH   7  10
ATOM     10  C   UNL A   1      32.539  22.373  25.339  1.00  0.00     0.115 A 
ATOM     11  C   UNL A   1      31.053  22.706  23.186  1.00  0.00     0.068 C 
ATOM     12  C   UNL A   1      31.929  21.988  24.145  1.00  0.00     0.062 A 
ATOM     13  N   UNL A   1      32.133  20.664  23.783  1.00  0.00    -0.241 NA
ATOM     14  C   UNL A   1      32.733  19.992  24.733  1.00  0.00     0.124 A 
ATOM     15  S   UNL A   1      33.235  20.931  26.060  1.00  0.00    -0.108 S 
BRANCH  14  16
ATOM     16  C   UNL A   1      32.989  18.555  24.657  1.00  0.00     0.010 A 
ATOM     17  C   UNL A   1      32.618  17.740  25.734  1.00  0.00     0.011 A 
ATOM     18  C   UNL A   1      33.696  17.986  23.590  1.00  0.00     0.011 A 
ATOM     19  C   UNL A   1      32.919  16.378  25.737  1.00  0.00     0.001 A 
ATOM     20  C   UNL A   1      34.016  16.625  23.602  1.00  0.00     0.001 A 
ATOM     21  C   UNL A   1      33.622  15.822  24.672  1.00  0.00     0.000 A 
ENDBRANCH  14  16
ENDBRANCH   7  10
ENDBRANCH   5   6
BRANCH   5  22
ATOM     22  C   UNL A   1      34.114  26.700  24.418  1.00  0.00     0.070 C 
BRANCH  22  23
ATOM     23  C   UNL A   1      33.132  27.736  24.866  1.00  0.00    -0.037 C 
ATOM     24  C   UNL A   1      33.292  28.675  25.794  1.00  0.00     0.001 A 
ATOM     25  C   UNL A   1      31.767  27.831  24.249  1.00  0.00     0.174 C 
ATOM     26  C   UNL A   1      34.338  29.049  26.691  1.00  0.00     0.010 A 
ATOM     27  C   UNL A   1      32.047  29.451  25.687  1.00  0.00     0.065 A 
ATOM     28  N   UNL A   1      31.148  29.034  24.850  1.00  0.00    -0.280 NA
ATOM     29  C   UNL A   1      34.190  30.165  27.422  1.00  0.00     0.001 A 
ATOM     30  C   UNL A   1      31.959  30.667  26.523  1.00  0.00     0.028 A 
ATOM     31  C   UNL A   1      32.994  30.983  27.321  1.00  0.00     0.002 A 
ENDBRANCH  22  23
ENDBRANCH   5  22
ENDBRANCH   3   5
ENDBRANCH   2   3
ENDBRANCH   1   2
BRANCH   1  32
ATOM     32  C   UNL A   1      37.104  22.283  24.785  1.00  0.00     0.275 C 
BRANCH  32  33
ATOM     33  O   UNL A   1      37.736  23.340  25.532  1.00  0.00    -0.458 OA
BRANCH  33  34
ATOM     34  C   UNL A   1      38.823  22.954  26.237  1.00  0.00     0.338 C 
ATOM     35  O   UNL A   1      39.298  21.831  26.321  1.00  0.00    -0.246 OA
BRANCH  34  36
ATOM     36  C   UNL A   1      39.462  24.121  26.854  1.00  0.00     0.060 A 
ATOM     37  C   UNL A   1      39.246  24.351  28.210  1.00  0.00     0.016 A 
ATOM     38  C   UNL A   1      40.130  25.064  26.074  1.00  0.00     0.016 A 
ATOM     39  C   UNL A   1      39.649  25.550  28.789  1.00  0.00     0.010 A 
ATOM     40  C   UNL A   1      40.581  26.249  26.669  1.00  0.00     0.010 A 
ATOM     41  C   UNL A   1      40.319  26.516  28.025  1.00  0.00    -0.014 A 
BRANCH  41  42
ATOM     42  C   UNL A   1      40.668  27.826  28.638  1.00  0.00     0.031 A 
ATOM     43  C   UNL A   1      42.093  28.123  29.026  1.00  0.00     0.074 A 
ATOM     44  C   UNL A   1      39.738  28.792  28.762  1.00  0.00     0.049 A 
ATOM     45  N   UNL A   1      42.579  29.176  29.636  1.00  0.00    -0.248 NA
ATOM     46  C   UNL A   1      43.105  27.119  28.659  1.00  0.00     0.031 C 
ATOM     47  C   UNL A   1      38.339  28.682  28.346  1.00  0.00     0.029 A 
ATOM     48  N   UNL A   1      39.839  30.072  29.251  1.00  0.00    -0.354 N 
ATOM     49  C   UNL A   1      43.948  28.958  29.733  1.00  0.00     0.074 A 
ATOM     50  C   UNL A   1      44.211  27.658  29.152  1.00  0.00     0.031 C 
ATOM     51  C   UNL A   1      37.724  29.855  28.562  1.00  0.00     0.029 A 
ATOM     52  C   UNL A   1      38.660  30.774  29.201  1.00  0.00     0.049 A 
ATOM     53  H   UNL A   1      40.677  30.449  29.605  1.00  0.00     0.167 HD
ATOM     54  C   UNL A   1      44.907  29.775  30.230  1.00  0.00     0.031 A 
ATOM     55  C   UNL A   1      38.351  32.006  29.650  1.00  0.00     0.031 A 
ATOM     56  C   UNL A   1      44.668  31.084  30.773  1.00  0.00     0.049 A 
ATOM     57  C   UNL A   1      39.401  32.827  30.340  1.00  0.00     0.074 A 
ATOM     58  C   UNL A   1      45.584  31.976  31.308  1.00  0.00     0.029 A 
ATOM     59  N   UNL A   1      43.429  31.697  30.838  1.00  0.00    -0.354 N 
ATOM     60  N   UNL A   1      40.676  32.570  30.504  1.00  0.00    -0.248 NA
ATOM     61  C   UNL A   1      38.961  34.102  30.930  1.00  0.00     0.031 C 
ATOM     62  C   UNL A   1      44.891  33.118  31.726  1.00  0.00     0.029 A 
ATOM     63  C   UNL A   1      43.553  32.951  31.414  1.00  0.00     0.049 A 
ATOM     64  H   UNL A   1      42.585  31.301  30.522  1.00  0.00     0.167 HD
ATOM     65  C   UNL A   1      41.190  33.651  31.207  1.00  0.00     0.074 A 
ATOM     66  C   UNL A   1      40.097  34.576  31.421  1.00  0.00     0.031 C 
ATOM     67  C   UNL A   1      42.457  33.856  31.639  1.00  0.00     0.031 A 
BRANCH  54  68
ATOM     68  C   UNL A   1      46.317  29.263  30.219  1.00  0.00    -0.014 A 
ATOM     69  C   UNL A   1      47.186  29.560  29.159  1.00  0.00     0.009 A 
ATOM     70  C   UNL A   1      46.791  28.506  31.302  1.00  0.00     0.009 A 
ATOM     71  C   UNL A   1      48.500  29.087  29.173  1.00  0.00     0.001 A 
ATOM     72  C   UNL A   1      48.109  28.051  31.322  1.00  0.00     0.001 A 
ATOM     73  C   UNL A   1      48.961  28.336  30.255  1.00  0.00     0.000 A 
ENDBRANCH  54  68
BRANCH  55  74
ATOM     74  C   UNL A   1      36.961  32.514  29.524  1.00  0.00    -0.014 A 
ATOM     75  C   UNL A   1      36.003  32.242  30.511  1.00  0.00     0.009 A 
ATOM     76  C   UNL A   1      36.582  33.265  28.398  1.00  0.00     0.009 A 
ATOM     77  C   UNL A   1      34.691  32.699  30.366  1.00  0.00     0.001 A 
ATOM     78  C   UNL A   1      35.279  33.745  28.271  1.00  0.00     0.001 A 
ATOM     79  C   UNL A   1      34.332  33.456  29.251  1.00  0.00     0.000 A 
ENDBRANCH  55  74
BRANCH  67  80
ATOM     80  C   UNL A   1      42.731  35.134  32.376  1.00  0.00    -0.014 A 
ATOM     81  C   UNL A   1      42.320  35.300  33.707  1.00  0.00     0.009 A 
ATOM     82  C   UNL A   1      43.428  36.174  31.741  1.00  0.00     0.009 A 
ATOM     83  C   UNL A   1      42.578  36.496  34.381  1.00  0.00     0.001 A 
ATOM     84  C   UNL A   1      43.704  37.359  32.425  1.00  0.00     0.001 A 
ATOM     85  C   UNL A   1      43.273  37.522  33.740  1.00  0.00     0.000 A 
ENDBRANCH  67  80
ENDBRANCH  41  42
ENDBRANCH  34  36
ENDBRANCH  33  34
ENDBRANCH  32  33
ENDBRANCH   1  32
TORSDOF 16
ENDMDL
