MODEL 1
REMARK VINA RESULT:     -10.0      0.000      0.000
REMARK SMILES O=C(CCSC1=NC=NC2=[NH+]C=N[C@@H]12)OCCOC(=O)c1ccc(-c2c3nc(c(-c4ccccc4)c4ccc([nH]4)c(-c4ccccc4)c4nc(c(-c5ccccc5)c5ccc2[nH]5)C=C4)C=C3)cc1
REMARK SMILES IDX 16 1 15 2 2 3 1 4 3 5 4 6 5 7 6 8 7 9 14 10 8 11 10 12 13 13
REMARK SMILES IDX 9 14 11 15 12 16 17 18 18 19 19 20 20 21 21 22 22 23 68 24
REMARK SMILES IDX 23 25 67 26 24 27 25 28 26 29 61 30 27 31 66 32 60 33 62 34
REMARK SMILES IDX 28 35 65 36 59 37 58 38 29 40 51 41 36 42 50 43 37 44 40 45
REMARK SMILES IDX 49 46 63 47 38 48 39 49 48 51 64 52 41 53 30 54 31 55 35 56
REMARK SMILES IDX 32 57 34 58 33 59 52 60 53 61 57 62 54 63 56 64 55 65 42 66
REMARK SMILES IDX 43 67 47 68 44 69 46 70 45 71
REMARK H PARENT 11 17 62 39 40 50
REMARK Flexibility Score: inf
ROOT
ATOM      1  C   UNL A   1      40.611  21.118  27.112  1.00  0.00     0.274 C 
ENDROOT
BRANCH   1   2
ATOM      2  O   UNL A   1      39.768  22.011  26.327  1.00  0.00    -0.462 OA
BRANCH   2   3
ATOM      3  C   UNL A   1      38.549  21.831  25.799  1.00  0.00     0.306 C 
ATOM      4  O   UNL A   1      38.198  20.727  25.393  1.00  0.00    -0.252 OA
BRANCH   3   5
ATOM      5  C   UNL A   1      37.611  22.986  25.804  1.00  0.00     0.134 C 
BRANCH   5   6
ATOM      6  C   UNL A   1      36.261  22.579  25.232  1.00  0.00     0.088 C 
BRANCH   6   7
ATOM      7  S   UNL A   1      35.245  23.979  24.627  1.00  0.00    -0.106 SA
BRANCH   7   8
ATOM      8  C   UNL A   1      33.832  23.851  25.670  1.00  0.00     0.128 C 
ATOM      9  N   UNL A   1      33.913  23.040  26.679  1.00  0.00    -0.214 NA
ATOM     10  C   UNL A   1      32.524  24.497  25.285  1.00  0.00     0.340 C 
ATOM     11  C   UNL A   1      32.773  22.803  27.410  1.00  0.00     0.320 C 
ATOM     12  C   UNL A   1      31.770  24.584  26.556  1.00  0.00     0.285 C 
ATOM     13  N   UNL A   1      32.538  25.918  24.890  1.00  0.00    -0.130 NA
ATOM     14  N   UNL A   1      31.692  23.514  27.378  1.00  0.00    -0.092 NA
ATOM     15  N   UNL A   1      31.324  25.756  26.826  1.00  0.00    -0.248 N 
ATOM     16  C   UNL A   1      31.841  26.523  25.813  1.00  0.00     0.362 C 
ATOM     17  H   UNL A   1      30.751  26.037  27.575  1.00  0.00     0.266 HD
ENDBRANCH   7   8
ENDBRANCH   6   7
ENDBRANCH   5   6
ENDBRANCH   3   5
ENDBRANCH   2   3
ENDBRANCH   1   2
BRANCH   1  18
ATOM     18  C   UNL A   1      41.481  20.336  26.122  1.00  0.00     0.275 C 
BRANCH  18  19
ATOM     19  O   UNL A   1      42.686  21.062  25.882  1.00  0.00    -0.458 OA
BRANCH  19  20
ATOM     20  C   UNL A   1      43.584  20.411  25.072  1.00  0.00     0.338 C 
ATOM     21  O   UNL A   1      43.603  19.239  24.820  1.00  0.00    -0.246 OA
BRANCH  20  22
ATOM     22  C   UNL A   1      44.587  21.445  24.665  1.00  0.00     0.060 A 
ATOM     23  C   UNL A   1      45.593  21.587  25.610  1.00  0.00     0.016 A 
ATOM     24  C   UNL A   1      44.073  22.553  23.972  1.00  0.00     0.016 A 
ATOM     25  C   UNL A   1      45.676  22.812  26.226  1.00  0.00     0.010 A 
ATOM     26  C   UNL A   1      44.072  23.747  24.636  1.00  0.00     0.010 A 
ATOM     27  C   UNL A   1      44.787  23.815  25.823  1.00  0.00    -0.014 A 
BRANCH  27  28
ATOM     28  C   UNL A   1      44.573  24.934  26.702  1.00  0.00     0.031 A 
ATOM     29  C   UNL A   1      45.635  25.945  26.638  1.00  0.00     0.074 A 
ATOM     30  C   UNL A   1      43.439  25.098  27.403  1.00  0.00     0.049 A 
ATOM     31  N   UNL A   1      46.534  26.194  27.526  1.00  0.00    -0.248 NA
ATOM     32  C   UNL A   1      45.807  26.653  25.362  1.00  0.00     0.031 C 
ATOM     33  C   UNL A   1      42.168  24.379  27.277  1.00  0.00     0.029 A 
ATOM     34  N   UNL A   1      43.167  26.059  28.322  1.00  0.00    -0.354 N 
ATOM     35  C   UNL A   1      47.295  27.218  26.984  1.00  0.00     0.074 A 
ATOM     36  C   UNL A   1      46.943  27.306  25.590  1.00  0.00     0.031 C 
ATOM     37  C   UNL A   1      41.206  25.076  27.929  1.00  0.00     0.029 A 
ATOM     38  C   UNL A   1      41.822  26.205  28.609  1.00  0.00     0.049 A 
ATOM     39  H   UNL A   1      43.867  26.606  28.746  1.00  0.00     0.167 HD
ATOM     40  C   UNL A   1      47.955  28.110  27.764  1.00  0.00     0.031 A 
ATOM     41  C   UNL A   1      41.269  27.246  29.276  1.00  0.00     0.031 A 
ATOM     42  C   UNL A   1      48.070  27.670  29.128  1.00  0.00     0.049 A 
ATOM     43  C   UNL A   1      42.355  27.947  30.007  1.00  0.00     0.074 A 
ATOM     44  C   UNL A   1      48.642  26.579  29.752  1.00  0.00     0.029 A 
ATOM     45  N   UNL A   1      47.198  28.214  30.041  1.00  0.00    -0.354 N 
ATOM     46  N   UNL A   1      43.001  27.430  31.013  1.00  0.00    -0.248 NA
ATOM     47  C   UNL A   1      43.026  29.060  29.350  1.00  0.00     0.031 C 
ATOM     48  C   UNL A   1      47.760  26.260  30.826  1.00  0.00     0.029 A 
ATOM     49  C   UNL A   1      46.715  27.186  30.811  1.00  0.00     0.049 A 
ATOM     50  H   UNL A   1      46.962  29.166  30.125  1.00  0.00     0.167 HD
ATOM     51  C   UNL A   1      44.313  27.860  30.861  1.00  0.00     0.074 A 
ATOM     52  C   UNL A   1      44.244  28.948  29.891  1.00  0.00     0.031 C 
ATOM     53  C   UNL A   1      45.360  27.109  31.316  1.00  0.00     0.031 A 
BRANCH  40  54
ATOM     54  C   UNL A   1      48.134  29.542  27.352  1.00  0.00    -0.014 A 
ATOM     55  C   UNL A   1      49.420  30.096  27.352  1.00  0.00     0.009 A 
ATOM     56  C   UNL A   1      47.052  30.435  27.197  1.00  0.00     0.009 A 
ATOM     57  C   UNL A   1      49.609  31.476  27.227  1.00  0.00     0.001 A 
ATOM     58  C   UNL A   1      47.239  31.805  27.020  1.00  0.00     0.001 A 
ATOM     59  C   UNL A   1      48.520  32.329  27.058  1.00  0.00     0.000 A 
ENDBRANCH  40  54
BRANCH  41  60
ATOM     60  C   UNL A   1      39.939  27.849  29.047  1.00  0.00    -0.014 A 
ATOM     61  C   UNL A   1      38.981  27.900  30.069  1.00  0.00     0.009 A 
ATOM     62  C   UNL A   1      39.694  28.602  27.883  1.00  0.00     0.009 A 
ATOM     63  C   UNL A   1      37.834  28.696  29.939  1.00  0.00     0.001 A 
ATOM     64  C   UNL A   1      38.548  29.391  27.749  1.00  0.00     0.001 A 
ATOM     65  C   UNL A   1      37.624  29.448  28.785  1.00  0.00     0.000 A 
ENDBRANCH  41  60
BRANCH  53  66
ATOM     66  C   UNL A   1      45.036  25.913  32.181  1.00  0.00    -0.014 A 
ATOM     67  C   UNL A   1      44.920  26.007  33.580  1.00  0.00     0.009 A 
ATOM     68  C   UNL A   1      44.683  24.705  31.565  1.00  0.00     0.009 A 
ATOM     69  C   UNL A   1      44.494  24.914  34.341  1.00  0.00     0.001 A 
ATOM     70  C   UNL A   1      44.238  23.619  32.323  1.00  0.00     0.001 A 
ATOM     71  C   UNL A   1      44.148  23.721  33.711  1.00  0.00     0.000 A 
ENDBRANCH  53  66
ENDBRANCH  27  28
ENDBRANCH  20  22
ENDBRANCH  19  20
ENDBRANCH  18  19
ENDBRANCH   1  18
TORSDOF 14
ENDMDL
MODEL 2
REMARK VINA RESULT:      -9.9      5.927     10.564
REMARK SMILES O=C(CCSC1=NC=NC2=[NH+]C=N[C@@H]12)OCCOC(=O)c1ccc(-c2c3nc(c(-c4ccccc4)c4ccc([nH]4)c(-c4ccccc4)c4nc(c(-c5ccccc5)c5ccc2[nH]5)C=C4)C=C3)cc1
REMARK SMILES IDX 16 1 15 2 2 3 1 4 3 5 4 6 5 7 6 8 7 9 14 10 8 11 10 12 13 13
REMARK SMILES IDX 9 14 11 15 12 16 17 18 18 19 19 20 20 21 21 22 22 23 68 24
REMARK SMILES IDX 23 25 67 26 24 27 25 28 26 29 61 30 27 31 66 32 60 33 62 34
REMARK SMILES IDX 28 35 65 36 59 37 58 38 29 40 51 41 36 42 50 43 37 44 40 45
REMARK SMILES IDX 49 46 63 47 38 48 39 49 48 51 64 52 41 53 30 54 31 55 35 56
REMARK SMILES IDX 32 57 34 58 33 59 52 60 53 61 57 62 54 63 56 64 55 65 42 66
REMARK SMILES IDX 43 67 47 68 44 69 46 70 45 71
REMARK H PARENT 11 17 62 39 40 50
REMARK Flexibility Score: inf
ROOT
ATOM      1  C   UNL A   1      33.636  33.403  28.120  1.00  0.00     0.274 C 
ENDROOT
BRANCH   1   2
ATOM      2  O   UNL A   1      34.096  32.041  28.351  1.00  0.00    -0.462 OA
BRANCH   2   3
ATOM      3  C   UNL A   1      33.963  30.931  27.611  1.00  0.00     0.306 C 
ATOM      4  O   UNL A   1      34.796  30.032  27.671  1.00  0.00    -0.252 OA
BRANCH   3   5
ATOM      5  C   UNL A   1      32.730  30.786  26.790  1.00  0.00     0.134 C 
BRANCH   5   6
ATOM      6  C   UNL A   1      32.241  29.346  26.811  1.00  0.00     0.088 C 
BRANCH   6   7
ATOM      7  S   UNL A   1      33.145  28.226  25.677  1.00  0.00    -0.106 SA
BRANCH   7   8
ATOM      8  C   UNL A   1      31.994  28.080  24.351  1.00  0.00     0.128 C 
ATOM      9  N   UNL A   1      31.226  29.098  24.121  1.00  0.00    -0.214 NA
ATOM     10  C   UNL A   1      31.777  26.759  23.657  1.00  0.00     0.340 C 
ATOM     11  C   UNL A   1      30.214  28.949  23.201  1.00  0.00     0.320 C 
ATOM     12  C   UNL A   1      31.148  27.121  22.367  1.00  0.00     0.285 C 
ATOM     13  N   UNL A   1      32.960  26.021  23.174  1.00  0.00    -0.130 NA
ATOM     14  N   UNL A   1      30.118  27.995  22.332  1.00  0.00    -0.092 NA
ATOM     15  N   UNL A   1      31.735  26.630  21.337  1.00  0.00    -0.248 N 
ATOM     16  C   UNL A   1      32.832  26.009  21.875  1.00  0.00     0.362 C 
ATOM     17  H   UNL A   1      31.464  26.685  20.392  1.00  0.00     0.266 HD
ENDBRANCH   7   8
ENDBRANCH   6   7
ENDBRANCH   5   6
ENDBRANCH   3   5
ENDBRANCH   2   3
ENDBRANCH   1   2
BRANCH   1  18
ATOM     18  C   UNL A   1      34.292  34.288  29.186  1.00  0.00     0.275 C 
BRANCH  18  19
ATOM     19  O   UNL A   1      33.760  33.951  30.466  1.00  0.00    -0.458 OA
BRANCH  19  20
ATOM     20  C   UNL A   1      33.593  35.024  31.307  1.00  0.00     0.338 C 
ATOM     21  O   UNL A   1      33.139  36.095  31.020  1.00  0.00    -0.246 OA
BRANCH  20  22
ATOM     22  C   UNL A   1      34.194  34.611  32.615  1.00  0.00     0.060 A 
ATOM     23  C   UNL A   1      35.270  35.414  32.963  1.00  0.00     0.016 A 
ATOM     24  C   UNL A   1      34.197  33.231  32.877  1.00  0.00     0.016 A 
ATOM     25  C   UNL A   1      36.491  34.788  33.046  1.00  0.00     0.010 A 
ATOM     26  C   UNL A   1      35.410  32.604  32.859  1.00  0.00     0.010 A 
ATOM     27  C   UNL A   1      36.540  33.408  32.825  1.00  0.00    -0.014 A 
BRANCH  27  28
ATOM     28  C   UNL A   1      37.809  32.811  32.502  1.00  0.00     0.031 A 
ATOM     29  C   UNL A   1      38.729  32.728  33.642  1.00  0.00     0.074 A 
ATOM     30  C   UNL A   1      38.065  32.258  31.305  1.00  0.00     0.049 A 
ATOM     31  N   UNL A   1      39.792  33.427  33.844  1.00  0.00    -0.248 NA
ATOM     32  C   UNL A   1      38.325  31.871  34.765  1.00  0.00     0.031 C 
ATOM     33  C   UNL A   1      37.132  31.939  30.221  1.00  0.00     0.029 A 
ATOM     34  N   UNL A   1      39.244  31.751  30.864  1.00  0.00    -0.354 N 
ATOM     35  C   UNL A   1      40.289  32.976  35.057  1.00  0.00     0.074 A 
ATOM     36  C   UNL A   1      39.247  32.191  35.668  1.00  0.00     0.031 C 
ATOM     37  C   UNL A   1      37.744  31.099  29.351  1.00  0.00     0.029 A 
ATOM     38  C   UNL A   1      39.131  30.931  29.756  1.00  0.00     0.049 A 
ATOM     39  H   UNL A   1      40.106  31.950  31.296  1.00  0.00     0.167 HD
ATOM     40  C   UNL A   1      41.610  33.038  35.358  1.00  0.00     0.031 A 
ATOM     41  C   UNL A   1      40.096  30.103  29.288  1.00  0.00     0.031 A 
ATOM     42  C   UNL A   1      42.335  33.914  34.478  1.00  0.00     0.049 A 
ATOM     43  C   UNL A   1      41.391  30.543  29.867  1.00  0.00     0.074 A 
ATOM     44  C   UNL A   1      42.261  35.257  34.166  1.00  0.00     0.029 A 
ATOM     45  N   UNL A   1      43.062  33.331  33.467  1.00  0.00    -0.354 N 
ATOM     46  N   UNL A   1      41.975  31.667  29.565  1.00  0.00    -0.248 NA
ATOM     47  C   UNL A   1      41.836  29.933  31.112  1.00  0.00     0.031 C 
ATOM     48  C   UNL A   1      42.552  35.333  32.772  1.00  0.00     0.029 A 
ATOM     49  C   UNL A   1      42.810  34.038  32.318  1.00  0.00     0.049 A 
ATOM     50  H   UNL A   1      43.654  32.549  33.552  1.00  0.00     0.167 HD
ATOM     51  C   UNL A   1      42.540  32.113  30.753  1.00  0.00     0.074 A 
ATOM     52  C   UNL A   1      42.520  30.953  31.639  1.00  0.00     0.031 C 
ATOM     53  C   UNL A   1      42.706  33.447  31.001  1.00  0.00     0.031 A 
BRANCH  40  54
ATOM     54  C   UNL A   1      42.281  31.992  36.199  1.00  0.00    -0.014 A 
ATOM     55  C   UNL A   1      42.878  32.369  37.408  1.00  0.00     0.009 A 
ATOM     56  C   UNL A   1      42.556  30.690  35.728  1.00  0.00     0.009 A 
ATOM     57  C   UNL A   1      43.726  31.496  38.095  1.00  0.00     0.001 A 
ATOM     58  C   UNL A   1      43.359  29.798  36.437  1.00  0.00     0.001 A 
ATOM     59  C   UNL A   1      43.964  30.210  37.612  1.00  0.00     0.000 A 
ENDBRANCH  40  54
BRANCH  41  60
ATOM     60  C   UNL A   1      39.911  28.783  28.651  1.00  0.00    -0.014 A 
ATOM     61  C   UNL A   1      40.461  28.503  27.392  1.00  0.00     0.009 A 
ATOM     62  C   UNL A   1      39.393  27.705  29.393  1.00  0.00     0.009 A 
ATOM     63  C   UNL A   1      40.514  27.187  26.909  1.00  0.00     0.001 A 
ATOM     64  C   UNL A   1      39.439  26.394  28.910  1.00  0.00     0.001 A 
ATOM     65  C   UNL A   1      40.012  26.135  27.672  1.00  0.00     0.000 A 
ENDBRANCH  41  60
BRANCH  53  66
ATOM     66  C   UNL A   1      42.463  34.402  29.856  1.00  0.00    -0.014 A 
ATOM     67  C   UNL A   1      43.492  34.813  28.987  1.00  0.00     0.009 A 
ATOM     68  C   UNL A   1      41.147  34.773  29.547  1.00  0.00     0.009 A 
ATOM     69  C   UNL A   1      43.214  35.596  27.863  1.00  0.00     0.001 A 
ATOM     70  C   UNL A   1      40.866  35.537  28.412  1.00  0.00     0.001 A 
ATOM     71  C   UNL A   1      41.899  35.953  27.573  1.00  0.00     0.000 A 
ENDBRANCH  53  66
ENDBRANCH  27  28
ENDBRANCH  20  22
ENDBRANCH  19  20
ENDBRANCH  18  19
ENDBRANCH   1  18
TORSDOF 14
ENDMDL
MODEL 3
REMARK VINA RESULT:      -9.8      4.911      9.292
REMARK SMILES O=C(CCSC1=NC=NC2=[NH+]C=N[C@@H]12)OCCOC(=O)c1ccc(-c2c3nc(c(-c4ccccc4)c4ccc([nH]4)c(-c4ccccc4)c4nc(c(-c5ccccc5)c5ccc2[nH]5)C=C4)C=C3)cc1
REMARK SMILES IDX 16 1 15 2 2 3 1 4 3 5 4 6 5 7 6 8 7 9 14 10 8 11 10 12 13 13
REMARK SMILES IDX 9 14 11 15 12 16 17 18 18 19 19 20 20 21 21 22 22 23 68 24
REMARK SMILES IDX 23 25 67 26 24 27 25 28 26 29 61 30 27 31 66 32 60 33 62 34
REMARK SMILES IDX 28 35 65 36 59 37 58 38 29 40 51 41 36 42 50 43 37 44 40 45
REMARK SMILES IDX 49 46 63 47 38 48 39 49 48 51 64 52 41 53 30 54 31 55 35 56
REMARK SMILES IDX 32 57 34 58 33 59 52 60 53 61 57 62 54 63 56 64 55 65 42 66
REMARK SMILES IDX 43 67 47 68 44 69 46 70 45 71
REMARK H PARENT 11 17 62 39 40 50
REMARK Flexibility Score: inf
ROOT
ATOM      1  C   UNL A   1      33.421  29.963  26.629  1.00  0.00     0.274 C 
ENDROOT
BRANCH   1   2
ATOM      2  O   UNL A   1      33.068  28.603  27.015  1.00  0.00    -0.462 OA
BRANCH   2   3
ATOM      3  C   UNL A   1      31.883  27.977  27.039  1.00  0.00     0.306 C 
ATOM      4  O   UNL A   1      31.140  28.076  28.011  1.00  0.00    -0.252 OA
BRANCH   3   5
ATOM      5  C   UNL A   1      31.462  27.236  25.819  1.00  0.00     0.134 C 
BRANCH   5   6
ATOM      6  C   UNL A   1      31.767  25.753  25.964  1.00  0.00     0.088 C 
BRANCH   6   7
ATOM      7  S   UNL A   1      33.345  25.228  25.193  1.00  0.00    -0.106 SA
BRANCH   7   8
ATOM      8  C   UNL A   1      33.703  23.766  26.108  1.00  0.00     0.128 C 
ATOM      9  N   UNL A   1      32.801  23.358  26.946  1.00  0.00    -0.214 NA
ATOM     10  C   UNL A   1      35.075  23.142  26.064  1.00  0.00     0.340 C 
ATOM     11  C   UNL A   1      33.124  22.317  27.784  1.00  0.00     0.320 C 
ATOM     12  C   UNL A   1      34.862  21.754  26.531  1.00  0.00     0.285 C 
ATOM     13  N   UNL A   1      35.684  22.886  24.745  1.00  0.00    -0.130 NA
ATOM     14  N   UNL A   1      34.127  21.511  27.638  1.00  0.00    -0.092 NA
ATOM     15  N   UNL A   1      35.329  20.855  25.744  1.00  0.00    -0.248 N 
ATOM     16  C   UNL A   1      35.780  21.586  24.675  1.00  0.00     0.362 C 
ATOM     17  H   UNL A   1      35.358  19.879  25.874  1.00  0.00     0.266 HD
ENDBRANCH   7   8
ENDBRANCH   6   7
ENDBRANCH   5   6
ENDBRANCH   3   5
ENDBRANCH   2   3
ENDBRANCH   1   2
BRANCH   1  18
ATOM     18  C   UNL A   1      34.064  30.626  27.852  1.00  0.00     0.275 C 
BRANCH  18  19
ATOM     19  O   UNL A   1      34.381  31.981  27.538  1.00  0.00    -0.458 OA
BRANCH  19  20
ATOM     20  C   UNL A   1      33.509  32.901  28.068  1.00  0.00     0.338 C 
ATOM     21  O   UNL A   1      32.400  33.142  27.681  1.00  0.00    -0.246 OA
BRANCH  20  22
ATOM     22  C   UNL A   1      34.269  33.605  29.149  1.00  0.00     0.060 A 
ATOM     23  C   UNL A   1      35.239  34.449  28.629  1.00  0.00     0.016 A 
ATOM     24  C   UNL A   1      34.497  32.861  30.318  1.00  0.00     0.016 A 
ATOM     25  C   UNL A   1      36.542  34.135  28.935  1.00  0.00     0.010 A 
ATOM     26  C   UNL A   1      35.784  32.472  30.558  1.00  0.00     0.010 A 
ATOM     27  C   UNL A   1      36.777  33.039  29.771  1.00  0.00    -0.014 A 
BRANCH  27  28
ATOM     28  C   UNL A   1      38.089  32.449  29.775  1.00  0.00     0.031 A 
ATOM     29  C   UNL A   1      38.105  31.042  29.358  1.00  0.00     0.074 A 
ATOM     30  C   UNL A   1      39.204  33.164  30.002  1.00  0.00     0.049 A 
ATOM     31  N   UNL A   1      38.298  30.007  30.099  1.00  0.00    -0.248 NA
ATOM     32  C   UNL A   1      37.699  30.751  27.975  1.00  0.00     0.031 C 
ATOM     33  C   UNL A   1      39.367  34.619  30.057  1.00  0.00     0.029 A 
ATOM     34  N   UNL A   1      40.474  32.699  30.117  1.00  0.00    -0.354 N 
ATOM     35  C   UNL A   1      38.201  28.928  29.235  1.00  0.00     0.074 A 
ATOM     36  C   UNL A   1      37.626  29.423  28.011  1.00  0.00     0.031 C 
ATOM     37  C   UNL A   1      40.688  34.913  29.974  1.00  0.00     0.029 A 
ATOM     38  C   UNL A   1      41.447  33.673  29.984  1.00  0.00     0.049 A 
ATOM     39  H   UNL A   1      40.684  31.751  30.279  1.00  0.00     0.167 HD
ATOM     40  C   UNL A   1      38.851  27.760  29.471  1.00  0.00     0.031 A 
ATOM     41  C   UNL A   1      42.769  33.442  29.796  1.00  0.00     0.031 A 
ATOM     42  C   UNL A   1      39.319  27.654  30.826  1.00  0.00     0.049 A 
ATOM     43  C   UNL A   1      43.047  32.038  30.191  1.00  0.00     0.074 A 
ATOM     44  C   UNL A   1      38.713  27.660  32.067  1.00  0.00     0.029 A 
ATOM     45  N   UNL A   1      40.650  27.910  31.055  1.00  0.00    -0.354 N 
ATOM     46  N   UNL A   1      42.976  31.603  31.417  1.00  0.00    -0.248 NA
ATOM     47  C   UNL A   1      42.986  31.005  29.166  1.00  0.00     0.031 C 
ATOM     48  C   UNL A   1      39.616  28.361  32.920  1.00  0.00     0.029 A 
ATOM     49  C   UNL A   1      40.730  28.721  32.159  1.00  0.00     0.049 A 
ATOM     50  H   UNL A   1      41.408  27.574  30.523  1.00  0.00     0.167 HD
ATOM     51  C   UNL A   1      42.451  30.321  31.317  1.00  0.00     0.074 A 
ATOM     52  C   UNL A   1      42.585  29.967  29.907  1.00  0.00     0.031 C 
ATOM     53  C   UNL A   1      41.699  29.784  32.324  1.00  0.00     0.031 A 
BRANCH  40  54
ATOM     54  C   UNL A   1      39.390  26.914  28.355  1.00  0.00    -0.014 A 
ATOM     55  C   UNL A   1      39.211  25.527  28.403  1.00  0.00     0.009 A 
ATOM     56  C   UNL A   1      40.280  27.412  27.378  1.00  0.00     0.009 A 
ATOM     57  C   UNL A   1      39.906  24.680  27.533  1.00  0.00     0.001 A 
ATOM     58  C   UNL A   1      40.935  26.575  26.475  1.00  0.00     0.001 A 
ATOM     59  C   UNL A   1      40.764  25.205  26.569  1.00  0.00     0.000 A 
ENDBRANCH  40  54
BRANCH  41  60
ATOM     60  C   UNL A   1      43.712  34.250  28.995  1.00  0.00    -0.014 A 
ATOM     61  C   UNL A   1      45.056  34.382  29.373  1.00  0.00     0.009 A 
ATOM     62  C   UNL A   1      43.347  34.698  27.710  1.00  0.00     0.009 A 
ATOM     63  C   UNL A   1      46.001  34.919  28.488  1.00  0.00     0.001 A 
ATOM     64  C   UNL A   1      44.288  35.239  26.829  1.00  0.00     0.001 A 
ATOM     65  C   UNL A   1      45.618  35.337  27.215  1.00  0.00     0.000 A 
ENDBRANCH  41  60
BRANCH  53  66
ATOM     66  C   UNL A   1      41.648  30.538  33.632  1.00  0.00    -0.014 A 
ATOM     67  C   UNL A   1      40.753  31.603  33.852  1.00  0.00     0.009 A 
ATOM     68  C   UNL A   1      42.400  30.069  34.718  1.00  0.00     0.009 A 
ATOM     69  C   UNL A   1      40.640  32.198  35.112  1.00  0.00     0.001 A 
ATOM     70  C   UNL A   1      42.271  30.650  35.982  1.00  0.00     0.001 A 
ATOM     71  C   UNL A   1      41.395  31.717  36.178  1.00  0.00     0.000 A 
ENDBRANCH  53  66
ENDBRANCH  27  28
ENDBRANCH  20  22
ENDBRANCH  19  20
ENDBRANCH  18  19
ENDBRANCH   1  18
TORSDOF 14
ENDMDL
