MODEL 1
REMARK VINA RESULT:     -10.9      0.000      0.000
REMARK SMILES C[C@H]([C@@H]1CCCO1)n1c(SCC(=O)OCCOC(=O)c2ccc(-c3c4nc(c(-c5ccccc5)c5ccc([nH]5)c(-c5ccccc5)c5nc(c(-c6ccccc6)c6ccc3[nH]6)C=C5)C=C4)cc2)nc2cnccc21
REMARK SMILES IDX 15 1 14 2 12 3 13 4 11 5 10 6 9 7 8 8 74 9 68 10 69 11 73 12
REMARK SMILES IDX 70 13 72 14 71 15 2 16 1 17 3 18 4 19 7 20 5 21 6 22 16 23
REMARK SMILES IDX 17 24 18 25 19 26 20 27 21 28 67 29 22 30 66 31 23 32 24 33
REMARK SMILES IDX 25 34 60 35 26 36 65 37 59 38 61 39 27 40 64 41 58 42 57 43
REMARK SMILES IDX 28 45 50 46 35 47 49 48 36 49 39 50 48 51 62 52 37 53 38 54
REMARK SMILES IDX 47 56 63 57 40 58 29 59 30 60 34 61 31 62 33 63 32 64 51 65
REMARK SMILES IDX 52 66 56 67 53 68 55 69 54 70 41 71 42 72 46 73 43 74 45 75
REMARK SMILES IDX 44 76
REMARK H PARENT 61 44 39 55
REMARK Flexibility Score: inf
ROOT
ATOM      1  C   UNL A   1      40.352  22.510  26.974  1.00  0.00     0.274 C 
ENDROOT
BRANCH   1   2
ATOM      2  O   UNL A   1      39.075  23.074  26.574  1.00  0.00    -0.461 OA
BRANCH   2   3
ATOM      3  C   UNL A   1      38.310  22.376  25.689  1.00  0.00     0.316 C 
ATOM      4  O   UNL A   1      38.426  21.170  25.491  1.00  0.00    -0.251 OA
BRANCH   3   5
ATOM      5  C   UNL A   1      37.160  23.165  25.076  1.00  0.00     0.200 C 
BRANCH   5   6
ATOM      6  S   UNL A   1      35.528  22.532  25.367  1.00  0.00    -0.076 SA
BRANCH   6   7
ATOM      7  C   UNL A   1      34.499  22.645  23.954  1.00  0.00     0.170 A 
ATOM      8  N   UNL A   1      33.164  22.315  23.785  1.00  0.00    -0.313 N 
ATOM      9  C   UNL A   1      32.576  23.491  23.289  1.00  0.00     0.072 A 
ATOM     10  N   UNL A   1      34.820  23.606  23.100  1.00  0.00    -0.221 NA
ATOM     11  C   UNL A   1      33.639  24.242  22.816  1.00  0.00     0.108 A 
ATOM     12  C   UNL A   1      31.261  23.975  23.273  1.00  0.00     0.049 A 
ATOM     13  C   UNL A   1      33.378  25.493  22.247  1.00  0.00     0.141 A 
ATOM     14  C   UNL A   1      31.107  25.243  22.739  1.00  0.00     0.113 A 
ATOM     15  N   UNL A   1      32.108  25.988  22.222  1.00  0.00    -0.262 NA
BRANCH   8  16
ATOM     16  C   UNL A   1      32.298  21.284  24.328  1.00  0.00     0.116 C 
ATOM     17  C   UNL A   1      31.997  21.586  25.774  1.00  0.00     0.034 C 
BRANCH  16  18
ATOM     18  C   UNL A   1      32.401  19.768  24.018  1.00  0.00     0.141 C 
ATOM     19  C   UNL A   1      33.619  18.911  24.292  1.00  0.00     0.036 C 
ATOM     20  O   UNL A   1      32.098  19.496  22.630  1.00  0.00    -0.376 OA
ATOM     21  C   UNL A   1      33.213  17.632  23.584  1.00  0.00     0.031 C 
ATOM     22  C   UNL A   1      32.500  18.143  22.350  1.00  0.00     0.160 C 
ENDBRANCH  16  18
ENDBRANCH   8  16
ENDBRANCH   6   7
ENDBRANCH   5   6
ENDBRANCH   3   5
ENDBRANCH   2   3
ENDBRANCH   1   2
BRANCH   1  23
ATOM     23  C   UNL A   1      41.252  23.581  27.632  1.00  0.00     0.275 C 
BRANCH  23  24
ATOM     24  O   UNL A   1      40.412  24.708  27.967  1.00  0.00    -0.458 OA
BRANCH  24  25
ATOM     25  C   UNL A   1      40.868  25.947  27.698  1.00  0.00     0.338 C 
ATOM     26  O   UNL A   1      41.196  26.397  26.597  1.00  0.00    -0.246 OA
BRANCH  25  27
ATOM     27  C   UNL A   1      40.615  26.786  28.891  1.00  0.00     0.060 A 
ATOM     28  C   UNL A   1      41.377  27.902  29.220  1.00  0.00     0.016 A 
ATOM     29  C   UNL A   1      39.388  26.593  29.527  1.00  0.00     0.016 A 
ATOM     30  C   UNL A   1      40.877  28.812  30.167  1.00  0.00     0.010 A 
ATOM     31  C   UNL A   1      38.841  27.572  30.333  1.00  0.00     0.010 A 
ATOM     32  C   UNL A   1      39.570  28.686  30.701  1.00  0.00    -0.014 A 
BRANCH  32  33
ATOM     33  C   UNL A   1      38.989  29.710  31.595  1.00  0.00     0.031 A 
ATOM     34  C   UNL A   1      37.880  30.520  31.022  1.00  0.00     0.074 A 
ATOM     35  C   UNL A   1      39.307  30.025  32.879  1.00  0.00     0.049 A 
ATOM     36  N   UNL A   1      38.006  31.701  30.521  1.00  0.00    -0.248 NA
ATOM     37  C   UNL A   1      36.525  29.965  30.921  1.00  0.00     0.031 C 
ATOM     38  C   UNL A   1      40.155  29.350  33.871  1.00  0.00     0.029 A 
ATOM     39  N   UNL A   1      38.872  31.125  33.580  1.00  0.00    -0.354 N 
ATOM     40  C   UNL A   1      36.737  32.117  30.151  1.00  0.00     0.074 A 
ATOM     41  C   UNL A   1      35.866  30.984  30.358  1.00  0.00     0.031 C 
ATOM     42  C   UNL A   1      40.024  29.938  35.083  1.00  0.00     0.029 A 
ATOM     43  C   UNL A   1      39.274  31.163  34.904  1.00  0.00     0.049 A 
ATOM     44  H   UNL A   1      38.317  31.829  33.172  1.00  0.00     0.167 HD
ATOM     45  C   UNL A   1      36.492  33.413  29.826  1.00  0.00     0.031 A 
ATOM     46  C   UNL A   1      39.162  32.190  35.773  1.00  0.00     0.031 A 
ATOM     47  C   UNL A   1      37.712  34.159  29.645  1.00  0.00     0.049 A 
ATOM     48  C   UNL A   1      39.171  33.435  34.987  1.00  0.00     0.074 A 
ATOM     49  C   UNL A   1      38.749  34.122  28.738  1.00  0.00     0.029 A 
ATOM     50  N   UNL A   1      38.177  34.830  30.749  1.00  0.00    -0.354 N 
ATOM     51  N   UNL A   1      40.211  33.859  34.329  1.00  0.00    -0.248 NA
ATOM     52  C   UNL A   1      37.935  34.156  34.737  1.00  0.00     0.031 C 
ATOM     53  C   UNL A   1      39.923  34.435  29.488  1.00  0.00     0.029 A 
ATOM     54  C   UNL A   1      39.546  34.697  30.807  1.00  0.00     0.049 A 
ATOM     55  H   UNL A   1      37.623  35.324  31.396  1.00  0.00     0.167 HD
ATOM     56  C   UNL A   1      39.682  34.582  33.279  1.00  0.00     0.074 A 
ATOM     57  C   UNL A   1      38.324  34.900  33.699  1.00  0.00     0.031 C 
ATOM     58  C   UNL A   1      40.285  34.591  32.056  1.00  0.00     0.031 A 
BRANCH  45  59
ATOM     59  C   UNL A   1      35.160  34.091  29.968  1.00  0.00    -0.014 A 
ATOM     60  C   UNL A   1      34.553  34.308  31.218  1.00  0.00     0.009 A 
ATOM     61  C   UNL A   1      34.602  34.755  28.861  1.00  0.00     0.009 A 
ATOM     62  C   UNL A   1      33.433  35.134  31.358  1.00  0.00     0.001 A 
ATOM     63  C   UNL A   1      33.499  35.607  29.003  1.00  0.00     0.001 A 
ATOM     64  C   UNL A   1      32.916  35.796  30.253  1.00  0.00     0.000 A 
ENDBRANCH  45  59
BRANCH  46  65
ATOM     65  C   UNL A   1      39.019  32.219  37.237  1.00  0.00    -0.014 A 
ATOM     66  C   UNL A   1      37.762  31.972  37.811  1.00  0.00     0.009 A 
ATOM     67  C   UNL A   1      40.006  32.826  38.031  1.00  0.00     0.009 A 
ATOM     68  C   UNL A   1      37.472  32.406  39.109  1.00  0.00     0.001 A 
ATOM     69  C   UNL A   1      39.714  33.262  39.327  1.00  0.00     0.001 A 
ATOM     70  C   UNL A   1      38.440  33.076  39.855  1.00  0.00     0.000 A 
ENDBRANCH  46  65
BRANCH  58  71
ATOM     71  C   UNL A   1      41.754  34.215  31.981  1.00  0.00    -0.014 A 
ATOM     72  C   UNL A   1      42.709  35.219  32.210  1.00  0.00     0.009 A 
ATOM     73  C   UNL A   1      42.224  32.939  31.622  1.00  0.00     0.009 A 
ATOM     74  C   UNL A   1      44.078  34.962  32.089  1.00  0.00     0.001 A 
ATOM     75  C   UNL A   1      43.595  32.670  31.536  1.00  0.00     0.001 A 
ATOM     76  C   UNL A   1      44.522  33.684  31.762  1.00  0.00     0.000 A 
ENDBRANCH  58  71
ENDBRANCH  32  33
ENDBRANCH  25  27
ENDBRANCH  24  25
ENDBRANCH  23  24
ENDBRANCH   1  23
TORSDOF 15
ENDMDL
MODEL 2
REMARK VINA RESULT:     -10.8      4.998      9.065
REMARK SMILES C[C@H]([C@@H]1CCCO1)n1c(SCC(=O)OCCOC(=O)c2ccc(-c3c4nc(c(-c5ccccc5)c5ccc([nH]5)c(-c5ccccc5)c5nc(c(-c6ccccc6)c6ccc3[nH]6)C=C5)C=C4)cc2)nc2cnccc21
REMARK SMILES IDX 15 1 14 2 12 3 13 4 11 5 10 6 9 7 8 8 74 9 68 10 69 11 73 12
REMARK SMILES IDX 70 13 72 14 71 15 2 16 1 17 3 18 4 19 7 20 5 21 6 22 16 23
REMARK SMILES IDX 17 24 18 25 19 26 20 27 21 28 67 29 22 30 66 31 23 32 24 33
REMARK SMILES IDX 25 34 60 35 26 36 65 37 59 38 61 39 27 40 64 41 58 42 57 43
REMARK SMILES IDX 28 45 50 46 35 47 49 48 36 49 39 50 48 51 62 52 37 53 38 54
REMARK SMILES IDX 47 56 63 57 40 58 29 59 30 60 34 61 31 62 33 63 32 64 51 65
REMARK SMILES IDX 52 66 56 67 53 68 55 69 54 70 41 71 42 72 46 73 43 74 45 75
REMARK SMILES IDX 44 76
REMARK H PARENT 61 44 39 55
REMARK Flexibility Score: inf
ROOT
ATOM      1  C   UNL A   1      42.135  19.790  26.266  1.00  0.00     0.274 C 
ENDROOT
BRANCH   1   2
ATOM      2  O   UNL A   1      40.801  19.268  26.025  1.00  0.00    -0.461 OA
BRANCH   2   3
ATOM      3  C   UNL A   1      39.804  20.152  25.741  1.00  0.00     0.316 C 
ATOM      4  O   UNL A   1      39.925  21.370  25.839  1.00  0.00    -0.251 OA
BRANCH   3   5
ATOM      5  C   UNL A   1      38.562  19.534  25.113  1.00  0.00     0.200 C 
BRANCH   5   6
ATOM      6  S   UNL A   1      37.183  20.623  24.860  1.00  0.00    -0.076 SA
BRANCH   6   7
ATOM      7  C   UNL A   1      35.645  19.853  25.195  1.00  0.00     0.170 A 
ATOM      8  N   UNL A   1      34.359  20.366  25.168  1.00  0.00    -0.313 N 
ATOM      9  C   UNL A   1      33.662  19.511  24.297  1.00  0.00     0.072 A 
ATOM     10  N   UNL A   1      35.600  18.554  24.940  1.00  0.00    -0.221 NA
ATOM     11  C   UNL A   1      34.442  18.368  24.231  1.00  0.00     0.108 A 
ATOM     12  C   UNL A   1      32.494  19.657  23.538  1.00  0.00     0.049 A 
ATOM     13  C   UNL A   1      34.009  17.305  23.431  1.00  0.00     0.141 A 
ATOM     14  C   UNL A   1      32.174  18.575  22.736  1.00  0.00     0.113 A 
ATOM     15  N   UNL A   1      32.878  17.423  22.679  1.00  0.00    -0.262 NA
BRANCH   8  16
ATOM     16  C   UNL A   1      33.776  21.658  25.482  1.00  0.00     0.116 C 
ATOM     17  C   UNL A   1      32.590  21.471  26.394  1.00  0.00     0.034 C 
BRANCH  16  18
ATOM     18  C   UNL A   1      33.614  22.837  24.487  1.00  0.00     0.141 C 
ATOM     19  C   UNL A   1      34.362  22.970  23.177  1.00  0.00     0.036 C 
ATOM     20  O   UNL A   1      33.842  24.107  25.139  1.00  0.00    -0.376 OA
ATOM     21  C   UNL A   1      33.974  24.384  22.786  1.00  0.00     0.031 C 
ATOM     22  C   UNL A   1      33.973  25.110  24.115  1.00  0.00     0.160 C 
ENDBRANCH  16  18
ENDBRANCH   8  16
ENDBRANCH   6   7
ENDBRANCH   5   6
ENDBRANCH   3   5
ENDBRANCH   2   3
ENDBRANCH   1   2
BRANCH   1  23
ATOM     23  C   UNL A   1      43.215  18.850  25.682  1.00  0.00     0.275 C 
BRANCH  23  24
ATOM     24  O   UNL A   1      43.775  19.502  24.520  1.00  0.00    -0.458 OA
BRANCH  24  25
ATOM     25  C   UNL A   1      45.055  19.919  24.577  1.00  0.00     0.338 C 
ATOM     26  O   UNL A   1      46.060  19.284  24.246  1.00  0.00    -0.246 OA
BRANCH  25  27
ATOM     27  C   UNL A   1      45.039  21.381  24.806  1.00  0.00     0.060 A 
ATOM     28  C   UNL A   1      44.283  22.269  24.047  1.00  0.00     0.016 A 
ATOM     29  C   UNL A   1      45.587  21.819  26.012  1.00  0.00     0.016 A 
ATOM     30  C   UNL A   1      44.077  23.572  24.529  1.00  0.00     0.010 A 
ATOM     31  C   UNL A   1      45.246  23.046  26.546  1.00  0.00     0.010 A 
ATOM     32  C   UNL A   1      44.514  23.965  25.819  1.00  0.00    -0.014 A 
BRANCH  32  33
ATOM     33  C   UNL A   1      44.185  25.290  26.386  1.00  0.00     0.031 A 
ATOM     34  C   UNL A   1      45.230  26.339  26.232  1.00  0.00     0.074 A 
ATOM     35  C   UNL A   1      43.061  25.709  27.024  1.00  0.00     0.049 A 
ATOM     36  N   UNL A   1      46.078  26.680  27.141  1.00  0.00    -0.248 NA
ATOM     37  C   UNL A   1      45.413  27.030  24.950  1.00  0.00     0.031 C 
ATOM     38  C   UNL A   1      41.738  25.090  27.184  1.00  0.00     0.029 A 
ATOM     39  N   UNL A   1      42.904  26.891  27.709  1.00  0.00    -0.354 N 
ATOM     40  C   UNL A   1      46.831  27.719  26.617  1.00  0.00     0.074 A 
ATOM     41  C   UNL A   1      46.426  27.854  25.238  1.00  0.00     0.031 C 
ATOM     42  C   UNL A   1      40.871  25.965  27.743  1.00  0.00     0.029 A 
ATOM     43  C   UNL A   1      41.626  27.114  28.193  1.00  0.00     0.049 A 
ATOM     44  H   UNL A   1      43.643  27.528  27.844  1.00  0.00     0.167 HD
ATOM     45  C   UNL A   1      47.639  28.469  27.412  1.00  0.00     0.031 A 
ATOM     46  C   UNL A   1      41.223  28.077  29.048  1.00  0.00     0.031 A 
ATOM     47  C   UNL A   1      47.809  27.874  28.714  1.00  0.00     0.049 A 
ATOM     48  C   UNL A   1      42.378  28.431  29.890  1.00  0.00     0.074 A 
ATOM     49  C   UNL A   1      48.402  26.723  29.188  1.00  0.00     0.029 A 
ATOM     50  N   UNL A   1      46.943  28.301  29.690  1.00  0.00    -0.354 N 
ATOM     51  N   UNL A   1      42.908  27.619  30.758  1.00  0.00    -0.248 NA
ATOM     52  C   UNL A   1      43.124  29.653  29.640  1.00  0.00     0.031 C 
ATOM     53  C   UNL A   1      47.581  26.290  30.272  1.00  0.00     0.029 A 
ATOM     54  C   UNL A   1      46.553  27.218  30.445  1.00  0.00     0.049 A 
ATOM     55  H   UNL A   1      46.647  29.231  29.827  1.00  0.00     0.167 HD
ATOM     56  C   UNL A   1      44.232  28.001  30.824  1.00  0.00     0.074 A 
ATOM     57  C   UNL A   1      44.251  29.357  30.292  1.00  0.00     0.031 C 
ATOM     58  C   UNL A   1      45.221  27.082  31.015  1.00  0.00     0.031 A 
BRANCH  45  59
ATOM     59  C   UNL A   1      48.033  29.889  27.131  1.00  0.00    -0.014 A 
ATOM     60  C   UNL A   1      47.094  30.934  27.068  1.00  0.00     0.009 A 
ATOM     61  C   UNL A   1      49.391  30.250  27.172  1.00  0.00     0.009 A 
ATOM     62  C   UNL A   1      47.488  32.276  27.033  1.00  0.00     0.001 A 
ATOM     63  C   UNL A   1      49.787  31.594  27.166  1.00  0.00     0.001 A 
ATOM     64  C   UNL A   1      48.834  32.606  27.098  1.00  0.00     0.000 A 
ENDBRANCH  45  59
BRANCH  46  65
ATOM     65  C   UNL A   1      39.930  28.761  29.209  1.00  0.00    -0.014 A 
ATOM     66  C   UNL A   1      39.167  28.529  30.364  1.00  0.00     0.009 A 
ATOM     67  C   UNL A   1      39.297  29.343  28.098  1.00  0.00     0.009 A 
ATOM     68  C   UNL A   1      37.792  28.784  30.375  1.00  0.00     0.001 A 
ATOM     69  C   UNL A   1      37.922  29.595  28.109  1.00  0.00     0.001 A 
ATOM     70  C   UNL A   1      37.166  29.291  29.238  1.00  0.00     0.000 A 
ENDBRANCH  46  65
BRANCH  58  71
ATOM     71  C   UNL A   1      44.844  25.744  31.624  1.00  0.00    -0.014 A 
ATOM     72  C   UNL A   1      44.502  24.693  30.758  1.00  0.00     0.009 A 
ATOM     73  C   UNL A   1      44.742  25.507  33.007  1.00  0.00     0.009 A 
ATOM     74  C   UNL A   1      44.077  23.455  31.249  1.00  0.00     0.001 A 
ATOM     75  C   UNL A   1      44.352  24.257  33.502  1.00  0.00     0.001 A 
ATOM     76  C   UNL A   1      44.012  23.232  32.622  1.00  0.00     0.000 A 
ENDBRANCH  58  71
ENDBRANCH  32  33
ENDBRANCH  25  27
ENDBRANCH  24  25
ENDBRANCH  23  24
ENDBRANCH   1  23
TORSDOF 15
ENDMDL
MODEL 3
REMARK VINA RESULT:     -10.8      4.397      9.097
REMARK SMILES C[C@H]([C@@H]1CCCO1)n1c(SCC(=O)OCCOC(=O)c2ccc(-c3c4nc(c(-c5ccccc5)c5ccc([nH]5)c(-c5ccccc5)c5nc(c(-c6ccccc6)c6ccc3[nH]6)C=C5)C=C4)cc2)nc2cnccc21
REMARK SMILES IDX 15 1 14 2 12 3 13 4 11 5 10 6 9 7 8 8 74 9 68 10 69 11 73 12
REMARK SMILES IDX 70 13 72 14 71 15 2 16 1 17 3 18 4 19 7 20 5 21 6 22 16 23
REMARK SMILES IDX 17 24 18 25 19 26 20 27 21 28 67 29 22 30 66 31 23 32 24 33
REMARK SMILES IDX 25 34 60 35 26 36 65 37 59 38 61 39 27 40 64 41 58 42 57 43
REMARK SMILES IDX 28 45 50 46 35 47 49 48 36 49 39 50 48 51 62 52 37 53 38 54
REMARK SMILES IDX 47 56 63 57 40 58 29 59 30 60 34 61 31 62 33 63 32 64 51 65
REMARK SMILES IDX 52 66 56 67 53 68 55 69 54 70 41 71 42 72 46 73 43 74 45 75
REMARK SMILES IDX 44 76
REMARK H PARENT 61 44 39 55
REMARK Flexibility Score: inf
ROOT
ATOM      1  C   UNL A   1      32.963  30.321  26.659  1.00  0.00     0.274 C 
ENDROOT
BRANCH   1   2
ATOM      2  O   UNL A   1      33.149  29.097  27.421  1.00  0.00    -0.461 OA
BRANCH   2   3
ATOM      3  C   UNL A   1      32.144  28.178  27.419  1.00  0.00     0.316 C 
ATOM      4  O   UNL A   1      31.240  28.154  28.251  1.00  0.00    -0.251 OA
BRANCH   3   5
ATOM      5  C   UNL A   1      32.108  27.273  26.195  1.00  0.00     0.200 C 
BRANCH   5   6
ATOM      6  S   UNL A   1      30.644  26.291  25.985  1.00  0.00    -0.076 SA
BRANCH   6   7
ATOM      7  C   UNL A   1      30.488  25.653  24.360  1.00  0.00     0.170 A 
ATOM      8  N   UNL A   1      30.819  26.215  23.138  1.00  0.00    -0.313 N 
ATOM      9  C   UNL A   1      31.673  25.271  22.542  1.00  0.00     0.072 A 
ATOM     10  N   UNL A   1      30.562  24.334  24.266  1.00  0.00    -0.221 NA
ATOM     11  C   UNL A   1      31.435  24.096  23.236  1.00  0.00     0.108 A 
ATOM     12  C   UNL A   1      32.644  25.355  21.535  1.00  0.00     0.049 A 
ATOM     13  C   UNL A   1      32.144  22.946  22.872  1.00  0.00     0.141 A 
ATOM     14  C   UNL A   1      33.331  24.180  21.281  1.00  0.00     0.113 A 
ATOM     15  N   UNL A   1      33.097  23.002  21.898  1.00  0.00    -0.262 NA
BRANCH   8  16
ATOM     16  C   UNL A   1      30.800  27.565  22.605  1.00  0.00     0.116 C 
ATOM     17  C   UNL A   1      32.165  28.188  22.755  1.00  0.00     0.034 C 
BRANCH  16  18
ATOM     18  C   UNL A   1      29.635  28.577  22.760  1.00  0.00     0.141 C 
ATOM     19  C   UNL A   1      28.209  28.205  23.109  1.00  0.00     0.036 C 
ATOM     20  O   UNL A   1      29.493  29.397  21.578  1.00  0.00    -0.376 OA
ATOM     21  C   UNL A   1      27.521  29.539  22.888  1.00  0.00     0.031 C 
ATOM     22  C   UNL A   1      28.234  30.086  21.670  1.00  0.00     0.160 C 
ENDBRANCH  16  18
ENDBRANCH   8  16
ENDBRANCH   6   7
ENDBRANCH   5   6
ENDBRANCH   3   5
ENDBRANCH   2   3
ENDBRANCH   1   2
BRANCH   1  23
ATOM     23  C   UNL A   1      33.340  31.562  27.500  1.00  0.00     0.275 C 
BRANCH  23  24
ATOM     24  O   UNL A   1      34.731  31.855  27.244  1.00  0.00    -0.458 OA
BRANCH  24  25
ATOM     25  C   UNL A   1      35.479  32.338  28.254  1.00  0.00     0.338 C 
ATOM     26  O   UNL A   1      35.130  33.148  29.118  1.00  0.00    -0.246 OA
BRANCH  25  27
ATOM     27  C   UNL A   1      36.697  31.501  28.350  1.00  0.00     0.060 A 
ATOM     28  C   UNL A   1      37.773  31.804  29.179  1.00  0.00     0.016 A 
ATOM     29  C   UNL A   1      36.608  30.224  27.797  1.00  0.00     0.016 A 
ATOM     30  C   UNL A   1      38.724  30.807  29.449  1.00  0.00     0.010 A 
ATOM     31  C   UNL A   1      37.460  29.213  28.196  1.00  0.00     0.010 A 
ATOM     32  C   UNL A   1      38.552  29.473  29.001  1.00  0.00    -0.014 A 
BRANCH  32  33
ATOM     33  C   UNL A   1      39.480  28.391  29.392  1.00  0.00     0.031 A 
ATOM     34  C   UNL A   1      39.732  28.247  30.851  1.00  0.00     0.074 A 
ATOM     35  C   UNL A   1      40.140  27.489  28.618  1.00  0.00     0.049 A 
ATOM     36  N   UNL A   1      40.757  28.716  31.477  1.00  0.00    -0.248 NA
ATOM     37  C   UNL A   1      38.745  27.594  31.720  1.00  0.00     0.031 C 
ATOM     38  C   UNL A   1      40.009  27.138  27.197  1.00  0.00     0.029 A 
ATOM     39  N   UNL A   1      41.147  26.647  29.026  1.00  0.00    -0.354 N 
ATOM     40  C   UNL A   1      40.635  28.320  32.800  1.00  0.00     0.074 A 
ATOM     41  C   UNL A   1      39.343  27.685  32.913  1.00  0.00     0.031 C 
ATOM     42  C   UNL A   1      40.754  26.045  26.910  1.00  0.00     0.029 A 
ATOM     43  C   UNL A   1      41.589  25.762  28.057  1.00  0.00     0.049 A 
ATOM     44  H   UNL A   1      41.523  26.671  29.936  1.00  0.00     0.167 HD
ATOM     45  C   UNL A   1      41.677  28.435  33.664  1.00  0.00     0.031 A 
ATOM     46  C   UNL A   1      42.673  24.959  28.104  1.00  0.00     0.031 A 
ATOM     47  C   UNL A   1      42.736  29.246  33.119  1.00  0.00     0.049 A 
ATOM     48  C   UNL A   1      43.659  25.601  28.990  1.00  0.00     0.074 A 
ATOM     49  C   UNL A   1      42.867  30.575  32.775  1.00  0.00     0.029 A 
ATOM     50  N   UNL A   1      43.736  28.570  32.464  1.00  0.00    -0.354 N 
ATOM     51  N   UNL A   1      44.264  26.716  28.699  1.00  0.00    -0.248 NA
ATOM     52  C   UNL A   1      43.853  25.118  30.346  1.00  0.00     0.031 C 
ATOM     53  C   UNL A   1      43.704  30.589  31.619  1.00  0.00     0.029 A 
ATOM     54  C   UNL A   1      44.088  29.277  31.337  1.00  0.00     0.049 A 
ATOM     55  H   UNL A   1      44.136  27.717  32.753  1.00  0.00     0.167 HD
ATOM     56  C   UNL A   1      44.535  27.289  29.925  1.00  0.00     0.074 A 
ATOM     57  C   UNL A   1      44.455  26.187  30.873  1.00  0.00     0.031 C 
ATOM     58  C   UNL A   1      44.496  28.642  30.092  1.00  0.00     0.031 A 
BRANCH  45  59
ATOM     59  C   UNL A   1      41.879  27.574  34.876  1.00  0.00    -0.014 A 
ATOM     60  C   UNL A   1      41.724  26.176  34.843  1.00  0.00     0.009 A 
ATOM     61  C   UNL A   1      42.479  28.125  36.023  1.00  0.00     0.009 A 
ATOM     62  C   UNL A   1      42.133  25.366  35.908  1.00  0.00     0.001 A 
ATOM     63  C   UNL A   1      42.916  27.313  37.077  1.00  0.00     0.001 A 
ATOM     64  C   UNL A   1      42.743  25.933  37.018  1.00  0.00     0.000 A 
ENDBRANCH  45  59
BRANCH  46  65
ATOM     65  C   UNL A   1      42.951  23.657  27.477  1.00  0.00    -0.014 A 
ATOM     66  C   UNL A   1      43.440  23.617  26.162  1.00  0.00     0.009 A 
ATOM     67  C   UNL A   1      42.411  22.481  28.023  1.00  0.00     0.009 A 
ATOM     68  C   UNL A   1      43.306  22.462  25.385  1.00  0.00     0.001 A 
ATOM     69  C   UNL A   1      42.276  21.327  27.245  1.00  0.00     0.001 A 
ATOM     70  C   UNL A   1      42.699  21.327  25.919  1.00  0.00     0.000 A 
ENDBRANCH  46  65
BRANCH  58  71
ATOM     71  C   UNL A   1      44.631  29.519  28.861  1.00  0.00    -0.014 A 
ATOM     72  C   UNL A   1      45.915  29.950  28.491  1.00  0.00     0.009 A 
ATOM     73  C   UNL A   1      43.542  29.991  28.105  1.00  0.00     0.009 A 
ATOM     74  C   UNL A   1      46.108  30.816  27.410  1.00  0.00     0.001 A 
ATOM     75  C   UNL A   1      43.735  30.828  27.000  1.00  0.00     0.001 A 
ATOM     76  C   UNL A   1      45.018  31.247  26.657  1.00  0.00     0.000 A 
ENDBRANCH  58  71
ENDBRANCH  32  33
ENDBRANCH  25  27
ENDBRANCH  24  25
ENDBRANCH  23  24
ENDBRANCH   1  23
TORSDOF 15
ENDMDL
