MODEL 1
REMARK VINA RESULT:     -11.0      0.000      0.000
REMARK SMILES Cc1ccc2c(c1)=C1S[C@H](C(=O)OCCOC(=O)c3ccc(-c4c5nc(c(-c6ccccc6)c6ccc([nH]6)c(-c6ccccc6)c6nc(c(-c7ccccc7)c7ccc4[nH]7)C=C6)C=C5)cc3)C=C1C(=O)N=2
REMARK SMILES IDX 15 1 14 2 13 3 11 4 12 5 10 6 1 7 2 8 3 9 7 10 4 11 6 12
REMARK SMILES IDX 5 13 8 14 71 15 9 16 68 17 69 18 67 19 70 20 16 21 17 22
REMARK SMILES IDX 18 23 19 24 20 25 66 26 21 27 65 28 22 29 23 30 24 31 59 32
REMARK SMILES IDX 25 33 64 34 58 35 60 36 26 37 63 38 57 39 56 40 27 42 49 43
REMARK SMILES IDX 34 44 48 45 35 46 38 47 47 48 61 49 36 50 37 51 46 53 62 54
REMARK SMILES IDX 39 55 28 56 29 57 33 58 30 59 32 60 31 61 50 62 51 63 55 64
REMARK SMILES IDX 52 65 54 66 53 67 40 68 41 69 45 70 42 71 44 72 43 73
REMARK H PARENT 60 41 38 52
REMARK Flexibility Score: inf
ROOT
ATOM      1  C   UNL A   1      38.679  19.583  24.976  1.00  0.00     0.275 C 
ENDROOT
BRANCH   1   2
ATOM      2  C   UNL A   1      37.588  20.662  24.981  1.00  0.00     0.274 C 
BRANCH   2   3
ATOM      3  O   UNL A   1      38.030  21.796  25.751  1.00  0.00    -0.461 OA
BRANCH   3   4
ATOM      4  C   UNL A   1      37.348  22.967  25.578  1.00  0.00     0.323 C 
ATOM      5  O   UNL A   1      37.813  24.078  25.804  1.00  0.00    -0.251 OA
BRANCH   4   6
ATOM      6  C   UNL A   1      35.954  22.741  24.967  1.00  0.00     0.185 C 
ATOM      7  C   UNL A   1      33.174  29.384  25.899  1.00  0.00     0.044 C 
ATOM      8  C   UNL A   1      32.969  27.923  26.157  1.00  0.00    -0.050 A 
ATOM      9  C   UNL A   1      31.591  27.444  26.310  1.00  0.00     0.005 A 
ATOM     10  C   UNL A   1      33.961  27.009  26.063  1.00  0.00     0.015 A 
ATOM     11  C   UNL A   1      31.219  26.265  25.769  1.00  0.00     0.029 A 
ATOM     12  C   UNL A   1      33.555  25.599  25.940  1.00  0.00     0.015 A 
ATOM     13  C   UNL A   1      32.331  25.591  25.053  1.00  0.00     0.076 A 
ATOM     14  C   UNL A   1      34.393  24.664  25.491  1.00  0.00     0.030 C 
ATOM     15  N   UNL A   1      32.290  25.285  23.796  1.00  0.00    -0.209 NA
ATOM     16  S   UNL A   1      34.650  23.132  26.274  1.00  0.00    -0.105 SA
ATOM     17  C   UNL A   1      34.537  24.431  24.081  1.00  0.00     0.054 C 
ATOM     18  C   UNL A   1      33.483  24.953  23.169  1.00  0.00     0.278 C 
ATOM     19  C   UNL A   1      35.498  23.544  23.776  1.00  0.00     0.014 C 
ATOM     20  O   UNL A   1      33.663  25.002  21.959  1.00  0.00    -0.267 OA
ENDBRANCH   4   6
ENDBRANCH   3   4
ENDBRANCH   2   3
ENDBRANCH   1   2
BRANCH   1  21
ATOM     21  O   UNL A   1      39.453  19.708  26.183  1.00  0.00    -0.458 OA
BRANCH  21  22
ATOM     22  C   UNL A   1      40.799  19.751  26.040  1.00  0.00     0.338 C 
ATOM     23  O   UNL A   1      41.537  18.899  25.590  1.00  0.00    -0.246 OA
BRANCH  22  24
ATOM     24  C   UNL A   1      41.247  21.032  26.609  1.00  0.00     0.060 A 
ATOM     25  C   UNL A   1      41.209  21.210  27.989  1.00  0.00     0.016 A 
ATOM     26  C   UNL A   1      41.681  22.061  25.773  1.00  0.00     0.016 A 
ATOM     27  C   UNL A   1      41.548  22.453  28.522  1.00  0.00     0.010 A 
ATOM     28  C   UNL A   1      42.063  23.289  26.307  1.00  0.00     0.010 A 
ATOM     29  C   UNL A   1      41.971  23.503  27.685  1.00  0.00    -0.014 A 
BRANCH  29  30
ATOM     30  C   UNL A   1      42.335  24.818  28.261  1.00  0.00     0.031 A 
ATOM     31  C   UNL A   1      43.751  25.112  28.665  1.00  0.00     0.074 A 
ATOM     32  C   UNL A   1      41.375  25.750  28.410  1.00  0.00     0.049 A 
ATOM     33  N   UNL A   1      44.259  26.234  29.112  1.00  0.00    -0.248 NA
ATOM     34  C   UNL A   1      44.724  24.011  28.567  1.00  0.00     0.031 C 
ATOM     35  C   UNL A   1      39.961  25.553  28.087  1.00  0.00     0.029 A 
ATOM     36  N   UNL A   1      41.441  27.046  28.855  1.00  0.00    -0.354 N 
ATOM     37  C   UNL A   1      45.607  25.979  29.326  1.00  0.00     0.074 A 
ATOM     38  C   UNL A   1      45.830  24.583  29.023  1.00  0.00     0.031 C 
ATOM     39  C   UNL A   1      39.300  26.700  28.304  1.00  0.00     0.029 A 
ATOM     40  C   UNL A   1      40.234  27.700  28.817  1.00  0.00     0.049 A 
ATOM     41  H   UNL A   1      42.274  27.466  29.170  1.00  0.00     0.167 HD
ATOM     42  C   UNL A   1      46.574  26.843  29.714  1.00  0.00     0.031 A 
ATOM     43  C   UNL A   1      39.913  28.965  29.150  1.00  0.00     0.031 A 
ATOM     44  C   UNL A   1      46.337  28.229  30.022  1.00  0.00     0.049 A 
ATOM     45  C   UNL A   1      40.999  29.898  29.606  1.00  0.00     0.074 A 
ATOM     46  C   UNL A   1      47.258  29.192  30.395  1.00  0.00     0.029 A 
ATOM     47  N   UNL A   1      45.097  28.846  29.992  1.00  0.00    -0.354 N 
ATOM     48  N   UNL A   1      42.283  29.661  29.736  1.00  0.00    -0.248 NA
ATOM     49  C   UNL A   1      40.604  31.272  29.943  1.00  0.00     0.031 C 
ATOM     50  C   UNL A   1      46.566  30.376  30.656  1.00  0.00     0.029 A 
ATOM     51  C   UNL A   1      45.225  30.173  30.367  1.00  0.00     0.049 A 
ATOM     52  H   UNL A   1      44.251  28.408  29.743  1.00  0.00     0.167 HD
ATOM     53  C   UNL A   1      42.851  30.858  30.150  1.00  0.00     0.074 A 
ATOM     54  C   UNL A   1      41.776  31.826  30.232  1.00  0.00     0.031 C 
ATOM     55  C   UNL A   1      44.147  31.127  30.438  1.00  0.00     0.031 A 
BRANCH  42  56
ATOM     56  C   UNL A   1      47.988  26.339  29.808  1.00  0.00    -0.014 A 
ATOM     57  C   UNL A   1      48.777  26.230  28.651  1.00  0.00     0.009 A 
ATOM     58  C   UNL A   1      48.496  25.850  31.022  1.00  0.00     0.009 A 
ATOM     59  C   UNL A   1      50.033  25.624  28.704  1.00  0.00     0.001 A 
ATOM     60  C   UNL A   1      49.766  25.270  31.077  1.00  0.00     0.001 A 
ATOM     61  C   UNL A   1      50.528  25.146  29.917  1.00  0.00     0.000 A 
ENDBRANCH  42  56
BRANCH  43  62
ATOM     62  C   UNL A   1      38.500  29.410  29.024  1.00  0.00    -0.014 A 
ATOM     63  C   UNL A   1      37.640  29.374  30.136  1.00  0.00     0.009 A 
ATOM     64  C   UNL A   1      37.978  29.803  27.782  1.00  0.00     0.009 A 
ATOM     65  C   UNL A   1      36.288  29.692  30.002  1.00  0.00     0.001 A 
ATOM     66  C   UNL A   1      36.631  30.154  27.658  1.00  0.00     0.001 A 
ATOM     67  C   UNL A   1      35.784  30.086  28.765  1.00  0.00     0.000 A 
ENDBRANCH  43  62
BRANCH  55  68
ATOM     68  C   UNL A   1      44.508  32.523  30.863  1.00  0.00    -0.014 A 
ATOM     69  C   UNL A   1      44.900  33.464  29.895  1.00  0.00     0.009 A 
ATOM     70  C   UNL A   1      44.605  32.863  32.221  1.00  0.00     0.009 A 
ATOM     71  C   UNL A   1      45.411  34.704  30.280  1.00  0.00     0.001 A 
ATOM     72  C   UNL A   1      45.088  34.117  32.601  1.00  0.00     0.001 A 
ATOM     73  C   UNL A   1      45.504  35.030  31.631  1.00  0.00     0.000 A 
ENDBRANCH  55  68
ENDBRANCH  29  30
ENDBRANCH  22  24
ENDBRANCH  21  22
ENDBRANCH   1  21
TORSDOF 11
ENDMDL
MODEL 2
REMARK VINA RESULT:     -10.9      0.364      6.135
REMARK SMILES Cc1ccc2c(c1)=C1S[C@H](C(=O)OCCOC(=O)c3ccc(-c4c5nc(c(-c6ccccc6)c6ccc([nH]6)c(-c6ccccc6)c6nc(c(-c7ccccc7)c7ccc4[nH]7)C=C6)C=C5)cc3)C=C1C(=O)N=2
REMARK SMILES IDX 15 1 14 2 13 3 11 4 12 5 10 6 1 7 2 8 3 9 7 10 4 11 6 12
REMARK SMILES IDX 5 13 8 14 71 15 9 16 68 17 69 18 67 19 70 20 16 21 17 22
REMARK SMILES IDX 18 23 19 24 20 25 66 26 21 27 65 28 22 29 23 30 24 31 59 32
REMARK SMILES IDX 25 33 64 34 58 35 60 36 26 37 63 38 57 39 56 40 27 42 49 43
REMARK SMILES IDX 34 44 48 45 35 46 38 47 47 48 61 49 36 50 37 51 46 53 62 54
REMARK SMILES IDX 39 55 28 56 29 57 33 58 30 59 32 60 31 61 50 62 51 63 55 64
REMARK SMILES IDX 52 65 54 66 53 67 40 68 41 69 45 70 42 71 44 72 43 73
REMARK H PARENT 60 41 38 52
REMARK Flexibility Score: inf
ROOT
ATOM      1  C   UNL A   1      38.887  19.726  25.003  1.00  0.00     0.275 C 
ENDROOT
BRANCH   1   2
ATOM      2  C   UNL A   1      37.683  20.658  25.187  1.00  0.00     0.274 C 
BRANCH   2   3
ATOM      3  O   UNL A   1      38.116  22.030  25.125  1.00  0.00    -0.461 OA
BRANCH   3   4
ATOM      4  C   UNL A   1      37.232  22.980  25.550  1.00  0.00     0.323 C 
ATOM      5  O   UNL A   1      37.521  23.912  26.292  1.00  0.00    -0.251 OA
BRANCH   4   6
ATOM      6  C   UNL A   1      35.843  22.807  24.910  1.00  0.00     0.185 C 
ATOM      7  C   UNL A   1      33.219  29.492  25.980  1.00  0.00     0.044 C 
ATOM      8  C   UNL A   1      32.972  28.031  26.194  1.00  0.00    -0.050 A 
ATOM      9  C   UNL A   1      31.579  27.584  26.311  1.00  0.00     0.005 A 
ATOM     10  C   UNL A   1      33.942  27.095  26.091  1.00  0.00     0.015 A 
ATOM     11  C   UNL A   1      31.187  26.431  25.731  1.00  0.00     0.029 A 
ATOM     12  C   UNL A   1      33.502  25.699  25.922  1.00  0.00     0.015 A 
ATOM     13  C   UNL A   1      32.293  25.748  25.016  1.00  0.00     0.076 A 
ATOM     14  C   UNL A   1      34.323  24.755  25.462  1.00  0.00     0.030 C 
ATOM     15  N   UNL A   1      32.267  25.477  23.750  1.00  0.00    -0.209 NA
ATOM     16  S   UNL A   1      34.527  23.196  26.206  1.00  0.00    -0.105 SA
ATOM     17  C   UNL A   1      34.485  24.557  24.048  1.00  0.00     0.054 C 
ATOM     18  C   UNL A   1      33.461  25.132  23.133  1.00  0.00     0.278 C 
ATOM     19  C   UNL A   1      35.428  23.654  23.735  1.00  0.00     0.014 C 
ATOM     20  O   UNL A   1      33.663  25.208  21.929  1.00  0.00    -0.267 OA
ENDBRANCH   4   6
ENDBRANCH   3   4
ENDBRANCH   2   3
ENDBRANCH   1   2
BRANCH   1  21
ATOM     21  O   UNL A   1      39.626  19.680  26.238  1.00  0.00    -0.458 OA
BRANCH  21  22
ATOM     22  C   UNL A   1      40.976  19.673  26.139  1.00  0.00     0.338 C 
ATOM     23  O   UNL A   1      41.701  18.765  25.787  1.00  0.00    -0.246 OA
BRANCH  22  24
ATOM     24  C   UNL A   1      41.446  20.983  26.616  1.00  0.00     0.060 A 
ATOM     25  C   UNL A   1      41.356  21.282  27.972  1.00  0.00     0.016 A 
ATOM     26  C   UNL A   1      41.951  21.922  25.715  1.00  0.00     0.016 A 
ATOM     27  C   UNL A   1      41.717  22.555  28.412  1.00  0.00     0.010 A 
ATOM     28  C   UNL A   1      42.354  23.179  26.158  1.00  0.00     0.010 A 
ATOM     29  C   UNL A   1      42.212  23.514  27.508  1.00  0.00    -0.014 A 
BRANCH  29  30
ATOM     30  C   UNL A   1      42.599  24.862  27.984  1.00  0.00     0.031 A 
ATOM     31  C   UNL A   1      41.567  25.942  28.151  1.00  0.00     0.074 A 
ATOM     32  C   UNL A   1      43.891  25.105  28.271  1.00  0.00     0.049 A 
ATOM     33  N   UNL A   1      41.718  27.151  28.629  1.00  0.00    -0.248 NA
ATOM     34  C   UNL A   1      40.192  25.634  27.722  1.00  0.00     0.031 C 
ATOM     35  C   UNL A   1      44.979  24.139  28.105  1.00  0.00     0.029 A 
ATOM     36  N   UNL A   1      44.507  26.222  28.772  1.00  0.00    -0.354 N 
ATOM     37  C   UNL A   1      40.460  27.738  28.577  1.00  0.00     0.074 A 
ATOM     38  C   UNL A   1      39.568  26.778  27.964  1.00  0.00     0.031 C 
ATOM     39  C   UNL A   1      46.123  24.692  28.536  1.00  0.00     0.029 A 
ATOM     40  C   UNL A   1      45.856  26.061  28.974  1.00  0.00     0.049 A 
ATOM     41  H   UNL A   1      44.028  27.059  28.970  1.00  0.00     0.167 HD
ATOM     42  C   UNL A   1      40.082  28.956  29.028  1.00  0.00     0.031 A 
ATOM     43  C   UNL A   1      46.778  26.914  29.461  1.00  0.00     0.031 A 
ATOM     44  C   UNL A   1      40.981  29.906  29.628  1.00  0.00     0.049 A 
ATOM     45  C   UNL A   1      46.338  28.272  29.928  1.00  0.00     0.074 A 
ATOM     46  C   UNL A   1      40.688  31.156  30.143  1.00  0.00     0.029 A 
ATOM     47  N   UNL A   1      42.344  29.711  29.793  1.00  0.00    -0.354 N 
ATOM     48  N   UNL A   1      45.131  28.786  29.938  1.00  0.00    -0.248 NA
ATOM     49  C   UNL A   1      47.375  29.163  30.468  1.00  0.00     0.031 C 
ATOM     50  C   UNL A   1      41.882  31.746  30.560  1.00  0.00     0.029 A 
ATOM     51  C   UNL A   1      42.909  30.831  30.379  1.00  0.00     0.049 A 
ATOM     52  H   UNL A   1      42.836  28.900  29.533  1.00  0.00     0.167 HD
ATOM     53  C   UNL A   1      45.259  30.049  30.501  1.00  0.00     0.074 A 
ATOM     54  C   UNL A   1      46.658  30.218  30.837  1.00  0.00     0.031 C 
ATOM     55  C   UNL A   1      44.301  30.983  30.715  1.00  0.00     0.031 A 
BRANCH  42  56
ATOM     56  C   UNL A   1      38.631  29.340  28.921  1.00  0.00    -0.014 A 
ATOM     57  C   UNL A   1      37.774  29.175  30.021  1.00  0.00     0.009 A 
ATOM     58  C   UNL A   1      38.085  29.744  27.692  1.00  0.00     0.009 A 
ATOM     59  C   UNL A   1      36.400  29.384  29.889  1.00  0.00     0.001 A 
ATOM     60  C   UNL A   1      36.714  29.981  27.570  1.00  0.00     0.001 A 
ATOM     61  C   UNL A   1      35.871  29.788  28.664  1.00  0.00     0.000 A 
ENDBRANCH  42  56
BRANCH  43  62
ATOM     62  C   UNL A   1      48.194  26.473  29.555  1.00  0.00    -0.014 A 
ATOM     63  C   UNL A   1      49.065  26.639  28.463  1.00  0.00     0.009 A 
ATOM     64  C   UNL A   1      48.670  25.819  30.702  1.00  0.00     0.009 A 
ATOM     65  C   UNL A   1      50.366  26.135  28.506  1.00  0.00     0.001 A 
ATOM     66  C   UNL A   1      49.984  25.346  30.755  1.00  0.00     0.001 A 
ATOM     67  C   UNL A   1      50.826  25.493  29.653  1.00  0.00     0.000 A 
ENDBRANCH  43  62
BRANCH  55  68
ATOM     68  C   UNL A   1      44.705  32.284  31.354  1.00  0.00    -0.014 A 
ATOM     69  C   UNL A   1      44.569  32.446  32.743  1.00  0.00     0.009 A 
ATOM     70  C   UNL A   1      45.072  33.389  30.572  1.00  0.00     0.009 A 
ATOM     71  C   UNL A   1      44.763  33.695  33.333  1.00  0.00     0.001 A 
ATOM     72  C   UNL A   1      45.296  34.631  31.170  1.00  0.00     0.001 A 
ATOM     73  C   UNL A   1      45.127  34.786  32.546  1.00  0.00     0.000 A 
ENDBRANCH  55  68
ENDBRANCH  29  30
ENDBRANCH  22  24
ENDBRANCH  21  22
ENDBRANCH   1  21
TORSDOF 11
ENDMDL
MODEL 3
REMARK VINA RESULT:     -10.9      3.674      8.691
REMARK SMILES Cc1ccc2c(c1)=C1S[C@H](C(=O)OCCOC(=O)c3ccc(-c4c5nc(c(-c6ccccc6)c6ccc([nH]6)c(-c6ccccc6)c6nc(c(-c7ccccc7)c7ccc4[nH]7)C=C6)C=C5)cc3)C=C1C(=O)N=2
REMARK SMILES IDX 15 1 14 2 13 3 11 4 12 5 10 6 1 7 2 8 3 9 7 10 4 11 6 12
REMARK SMILES IDX 5 13 8 14 71 15 9 16 68 17 69 18 67 19 70 20 16 21 17 22
REMARK SMILES IDX 18 23 19 24 20 25 66 26 21 27 65 28 22 29 23 30 24 31 59 32
REMARK SMILES IDX 25 33 64 34 58 35 60 36 26 37 63 38 57 39 56 40 27 42 49 43
REMARK SMILES IDX 34 44 48 45 35 46 38 47 47 48 61 49 36 50 37 51 46 53 62 54
REMARK SMILES IDX 39 55 28 56 29 57 33 58 30 59 32 60 31 61 50 62 51 63 55 64
REMARK SMILES IDX 52 65 54 66 53 67 40 68 41 69 45 70 42 71 44 72 43 73
REMARK H PARENT 60 41 38 52
REMARK Flexibility Score: inf
ROOT
ATOM      1  C   UNL A   1      31.624  32.455  27.269  1.00  0.00     0.275 C 
ENDROOT
BRANCH   1   2
ATOM      2  C   UNL A   1      32.047  31.174  26.538  1.00  0.00     0.274 C 
BRANCH   2   3
ATOM      3  O   UNL A   1      32.989  30.442  27.345  1.00  0.00    -0.461 OA
BRANCH   3   4
ATOM      4  C   UNL A   1      33.591  29.361  26.768  1.00  0.00     0.323 C 
ATOM      5  O   UNL A   1      34.794  29.129  26.821  1.00  0.00    -0.251 OA
BRANCH   4   6
ATOM      6  C   UNL A   1      32.573  28.405  26.122  1.00  0.00     0.185 C 
ATOM      7  C   UNL A   1      36.716  22.467  25.579  1.00  0.00     0.044 C 
ATOM      8  C   UNL A   1      35.844  23.425  24.828  1.00  0.00    -0.050 A 
ATOM      9  C   UNL A   1      35.170  22.932  23.621  1.00  0.00     0.005 A 
ATOM     10  C   UNL A   1      35.498  24.641  25.306  1.00  0.00     0.015 A 
ATOM     11  C   UNL A   1      33.899  23.298  23.357  1.00  0.00     0.029 A 
ATOM     12  C   UNL A   1      34.339  25.297  24.677  1.00  0.00     0.015 A 
ATOM     13  C   UNL A   1      33.339  24.199  24.395  1.00  0.00     0.076 A 
ATOM     14  C   UNL A   1      33.692  26.299  25.272  1.00  0.00     0.030 C 
ATOM     15  N   UNL A   1      32.283  23.920  25.091  1.00  0.00    -0.209 NA
ATOM     16  S   UNL A   1      33.274  27.792  24.481  1.00  0.00    -0.105 SA
ATOM     17  C   UNL A   1      32.644  26.031  26.217  1.00  0.00     0.054 C 
ATOM     18  C   UNL A   1      32.037  24.672  26.230  1.00  0.00     0.278 C 
ATOM     19  C   UNL A   1      32.165  27.132  26.819  1.00  0.00     0.014 C 
ATOM     20  O   UNL A   1      31.324  24.309  27.156  1.00  0.00    -0.267 OA
ENDBRANCH   4   6
ENDBRANCH   3   4
ENDBRANCH   2   3
ENDBRANCH   1   2
BRANCH   1  21
ATOM     21  O   UNL A   1      32.653  33.445  27.091  1.00  0.00    -0.458 OA
BRANCH  21  22
ATOM     22  C   UNL A   1      33.055  34.111  28.200  1.00  0.00     0.338 C 
ATOM     23  O   UNL A   1      32.535  35.070  28.734  1.00  0.00    -0.246 OA
BRANCH  22  24
ATOM     24  C   UNL A   1      34.320  33.496  28.632  1.00  0.00     0.060 A 
ATOM     25  C   UNL A   1      34.333  32.709  29.780  1.00  0.00     0.016 A 
ATOM     26  C   UNL A   1      35.494  33.720  27.913  1.00  0.00     0.016 A 
ATOM     27  C   UNL A   1      35.547  32.200  30.240  1.00  0.00     0.010 A 
ATOM     28  C   UNL A   1      36.701  33.174  28.345  1.00  0.00     0.010 A 
ATOM     29  C   UNL A   1      36.739  32.434  29.530  1.00  0.00    -0.014 A 
BRANCH  29  30
ATOM     30  C   UNL A   1      38.024  31.884  30.022  1.00  0.00     0.031 A 
ATOM     31  C   UNL A   1      38.800  32.593  31.096  1.00  0.00     0.074 A 
ATOM     32  C   UNL A   1      38.483  30.734  29.495  1.00  0.00     0.049 A 
ATOM     33  N   UNL A   1      39.899  32.213  31.696  1.00  0.00    -0.248 NA
ATOM     34  C   UNL A   1      38.287  33.896  31.551  1.00  0.00     0.031 C 
ATOM     35  C   UNL A   1      37.828  29.987  28.420  1.00  0.00     0.029 A 
ATOM     36  N   UNL A   1      39.592  29.986  29.797  1.00  0.00    -0.354 N 
ATOM     37  C   UNL A   1      40.197  33.216  32.610  1.00  0.00     0.074 A 
ATOM     38  C   UNL A   1      39.201  34.252  32.444  1.00  0.00     0.031 C 
ATOM     39  C   UNL A   1      38.524  28.866  28.181  1.00  0.00     0.029 A 
ATOM     40  C   UNL A   1      39.693  28.833  29.057  1.00  0.00     0.049 A 
ATOM     41  H   UNL A   1      40.251  30.250  30.479  1.00  0.00     0.167 HD
ATOM     42  C   UNL A   1      41.195  33.253  33.523  1.00  0.00     0.031 A 
ATOM     43  C   UNL A   1      40.618  27.854  29.083  1.00  0.00     0.031 A 
ATOM     44  C   UNL A   1      42.186  32.220  33.671  1.00  0.00     0.049 A 
ATOM     45  C   UNL A   1      41.734  27.932  30.086  1.00  0.00     0.074 A 
ATOM     46  C   UNL A   1      43.221  32.152  34.588  1.00  0.00     0.029 A 
ATOM     47  N   UNL A   1      42.266  31.080  32.887  1.00  0.00    -0.354 N 
ATOM     48  N   UNL A   1      41.960  28.853  30.992  1.00  0.00    -0.248 NA
ATOM     49  C   UNL A   1      42.710  26.833  30.088  1.00  0.00     0.031 C 
ATOM     50  C   UNL A   1      43.966  31.004  34.316  1.00  0.00     0.029 A 
ATOM     51  C   UNL A   1      43.350  30.315  33.283  1.00  0.00     0.049 A 
ATOM     52  H   UNL A   1      41.646  30.848  32.159  1.00  0.00     0.167 HD
ATOM     53  C   UNL A   1      43.090  28.437  31.683  1.00  0.00     0.074 A 
ATOM     54  C   UNL A   1      43.493  27.171  31.106  1.00  0.00     0.031 C 
ATOM     55  C   UNL A   1      43.735  29.053  32.703  1.00  0.00     0.031 A 
BRANCH  42  56
ATOM     56  C   UNL A   1      41.266  34.428  34.458  1.00  0.00    -0.014 A 
ATOM     57  C   UNL A   1      40.512  34.434  35.643  1.00  0.00     0.009 A 
ATOM     58  C   UNL A   1      41.979  35.585  34.104  1.00  0.00     0.009 A 
ATOM     59  C   UNL A   1      40.453  35.579  36.441  1.00  0.00     0.001 A 
ATOM     60  C   UNL A   1      41.942  36.718  34.920  1.00  0.00     0.001 A 
ATOM     61  C   UNL A   1      41.169  36.719  36.080  1.00  0.00     0.000 A 
ENDBRANCH  42  56
BRANCH  43  62
ATOM     62  C   UNL A   1      40.487  26.710  28.142  1.00  0.00    -0.014 A 
ATOM     63  C   UNL A   1      41.075  26.768  26.866  1.00  0.00     0.009 A 
ATOM     64  C   UNL A   1      39.717  25.587  28.479  1.00  0.00     0.009 A 
ATOM     65  C   UNL A   1      40.870  25.743  25.940  1.00  0.00     0.001 A 
ATOM     66  C   UNL A   1      39.543  24.546  27.562  1.00  0.00     0.001 A 
ATOM     67  C   UNL A   1      40.108  24.631  26.290  1.00  0.00     0.000 A 
ENDBRANCH  43  62
BRANCH  55  68
ATOM     68  C   UNL A   1      44.946  28.382  33.290  1.00  0.00    -0.014 A 
ATOM     69  C   UNL A   1      46.208  28.597  32.711  1.00  0.00     0.009 A 
ATOM     70  C   UNL A   1      44.820  27.428  34.311  1.00  0.00     0.009 A 
ATOM     71  C   UNL A   1      47.313  27.849  33.120  1.00  0.00     0.001 A 
ATOM     72  C   UNL A   1      45.934  26.704  34.740  1.00  0.00     0.001 A 
ATOM     73  C   UNL A   1      47.175  26.904  34.134  1.00  0.00     0.000 A 
ENDBRANCH  55  68
ENDBRANCH  29  30
ENDBRANCH  22  24
ENDBRANCH  21  22
ENDBRANCH   1  21
TORSDOF 11
ENDMDL
