MODEL 1
REMARK VINA RESULT:     -10.3      0.000      0.000
REMARK SMILES COc1ccc(NC(C)(C)C2=N[C@@H](C(=O)OCCOC(=O)c3ccc(-c4c5nc(c(-c6ccccc6)c6ccc([nH]6)c(-c6ccccc6)c6nc(c(-c7ccccc7)c7ccc4[nH]7)C=C6)C=C5)cc3)CS2)cc1
REMARK SMILES IDX 17 1 16 2 14 3 15 4 13 5 11 6 12 7 71 8 70 9 8 10 9 11 10 12
REMARK SMILES IDX 7 13 6 15 3 16 4 17 73 18 5 19 72 20 2 21 1 22 18 23 19 24
REMARK SMILES IDX 20 25 21 26 22 27 23 28 69 29 24 30 68 31 25 32 26 33 27 34
REMARK SMILES IDX 62 35 28 36 67 37 61 38 63 39 29 40 66 41 60 42 59 43 30 45
REMARK SMILES IDX 52 46 37 47 51 48 38 49 41 50 50 51 64 52 39 53 40 54 49 56
REMARK SMILES IDX 65 57 42 58 31 59 32 60 36 61 33 62 35 63 34 64 53 65 54 66
REMARK SMILES IDX 58 67 55 68 57 69 56 70 43 71 44 72 48 73 45 74 47 75 46 76
REMARK H PARENT 7 14 63 44 41 55
REMARK Flexibility Score: inf
ROOT
ATOM      1  C   UNL A   1      42.536  18.941  26.808  1.00  0.00     0.274 C 
ENDROOT
BRANCH   1   2
ATOM      2  O   UNL A   1      41.879  20.145  26.370  1.00  0.00    -0.460 OA
BRANCH   2   3
ATOM      3  C   UNL A   1      40.550  19.996  26.138  1.00  0.00     0.331 C 
ATOM      4  O   UNL A   1      40.032  18.949  25.756  1.00  0.00    -0.250 OA
BRANCH   3   5
ATOM      5  C   UNL A   1      39.734  21.237  26.422  1.00  0.00     0.226 C 
ATOM      6  C   UNL A   1      38.022  22.460  25.687  1.00  0.00     0.094 C 
ATOM      7  N   UNL A   1      38.654  21.357  25.418  1.00  0.00    -0.264 NA
ATOM      8  S   UNL A   1      38.959  23.662  26.586  1.00  0.00    -0.106 SA
ATOM      9  C   UNL A   1      40.423  22.573  26.549  1.00  0.00     0.115 C 
BRANCH   6  10
ATOM     10  C   UNL A   1      36.595  22.772  25.186  1.00  0.00     0.080 C 
ATOM     11  C   UNL A   1      36.632  22.624  23.655  1.00  0.00     0.042 C 
ATOM     12  C   UNL A   1      36.110  24.182  25.551  1.00  0.00     0.042 C 
BRANCH  10  13
ATOM     13  N   UNL A   1      35.569  21.818  25.694  1.00  0.00    -0.374 N 
ATOM     14  H   UNL A   1      35.891  20.916  25.919  1.00  0.00     0.161 HD
BRANCH  13  15
ATOM     15  C   UNL A   1      34.217  22.048  25.885  1.00  0.00     0.035 A 
ATOM     16  C   UNL A   1      31.585  22.952  26.425  1.00  0.00     0.119 A 
ATOM     17  C   UNL A   1      31.998  22.707  25.117  1.00  0.00     0.048 A 
ATOM     18  C   UNL A   1      32.455  22.665  27.471  1.00  0.00     0.048 A 
ATOM     19  C   UNL A   1      33.298  22.251  24.853  1.00  0.00     0.029 A 
ATOM     20  C   UNL A   1      33.756  22.221  27.198  1.00  0.00     0.029 A 
BRANCH  16  21
ATOM     21  O   UNL A   1      30.319  23.453  26.567  1.00  0.00    -0.497 OA
ATOM     22  C   UNL A   1      29.424  22.637  27.320  1.00  0.00     0.278 C 
ENDBRANCH  16  21
ENDBRANCH  13  15
ENDBRANCH  10  13
ENDBRANCH   6  10
ENDBRANCH   3   5
ENDBRANCH   2   3
ENDBRANCH   1   2
BRANCH   1  23
ATOM     23  C   UNL A   1      43.498  18.390  25.745  1.00  0.00     0.275 C 
BRANCH  23  24
ATOM     24  O   UNL A   1      43.574  19.205  24.557  1.00  0.00    -0.458 OA
BRANCH  24  25
ATOM     25  C   UNL A   1      44.820  19.571  24.177  1.00  0.00     0.338 C 
ATOM     26  O   UNL A   1      45.623  18.894  23.545  1.00  0.00    -0.246 OA
BRANCH  25  27
ATOM     27  C   UNL A   1      45.085  20.978  24.522  1.00  0.00     0.060 A 
ATOM     28  C   UNL A   1      45.549  21.270  25.809  1.00  0.00     0.016 A 
ATOM     29  C   UNL A   1      44.788  22.010  23.632  1.00  0.00     0.016 A 
ATOM     30  C   UNL A   1      45.716  22.592  26.217  1.00  0.00     0.010 A 
ATOM     31  C   UNL A   1      44.946  23.338  24.043  1.00  0.00     0.010 A 
ATOM     32  C   UNL A   1      45.399  23.635  25.342  1.00  0.00    -0.014 A 
BRANCH  32  33
ATOM     33  C   UNL A   1      45.485  25.043  25.796  1.00  0.00     0.031 A 
ATOM     34  C   UNL A   1      46.810  25.748  25.788  1.00  0.00     0.074 A 
ATOM     35  C   UNL A   1      44.381  25.687  26.216  1.00  0.00     0.049 A 
ATOM     36  N   UNL A   1      47.122  26.928  26.259  1.00  0.00    -0.248 NA
ATOM     37  C   UNL A   1      47.932  25.029  25.164  1.00  0.00     0.031 C 
ATOM     38  C   UNL A   1      43.025  25.139  26.207  1.00  0.00     0.029 A 
ATOM     39  N   UNL A   1      44.234  26.945  26.744  1.00  0.00    -0.354 N 
ATOM     40  C   UNL A   1      48.478  27.088  26.006  1.00  0.00     0.074 A 
ATOM     41  C   UNL A   1      48.933  25.879  25.350  1.00  0.00     0.031 C 
ATOM     42  C   UNL A   1      42.184  26.052  26.722  1.00  0.00     0.029 A 
ATOM     43  C   UNL A   1      42.950  27.224  27.140  1.00  0.00     0.049 A 
ATOM     44  H   UNL A   1      44.978  27.583  26.833  1.00  0.00     0.167 HD
ATOM     45  C   UNL A   1      49.272  28.145  26.296  1.00  0.00     0.031 A 
ATOM     46  C   UNL A   1      42.454  28.288  27.799  1.00  0.00     0.031 A 
ATOM     47  C   UNL A   1      48.824  29.341  26.957  1.00  0.00     0.049 A 
ATOM     48  C   UNL A   1      43.379  29.402  28.207  1.00  0.00     0.074 A 
ATOM     49  C   UNL A   1      49.555  30.468  27.292  1.00  0.00     0.029 A 
ATOM     50  N   UNL A   1      47.526  29.563  27.389  1.00  0.00    -0.354 N 
ATOM     51  N   UNL A   1      44.661  29.539  27.974  1.00  0.00    -0.248 NA
ATOM     52  C   UNL A   1      42.786  30.503  28.980  1.00  0.00     0.031 C 
ATOM     53  C   UNL A   1      48.709  31.352  27.971  1.00  0.00     0.029 A 
ATOM     54  C   UNL A   1      47.442  30.796  28.014  1.00  0.00     0.049 A 
ATOM     55  H   UNL A   1      46.776  28.937  27.269  1.00  0.00     0.167 HD
ATOM     56  C   UNL A   1      45.024  30.750  28.550  1.00  0.00     0.074 A 
ATOM     57  C   UNL A   1      43.824  31.314  29.133  1.00  0.00     0.031 C 
ATOM     58  C   UNL A   1      46.242  31.342  28.592  1.00  0.00     0.031 A 
BRANCH  45  59
ATOM     59  C   UNL A   1      50.726  28.034  25.936  1.00  0.00    -0.014 A 
ATOM     60  C   UNL A   1      51.631  27.344  26.757  1.00  0.00     0.009 A 
ATOM     61  C   UNL A   1      51.190  28.601  24.738  1.00  0.00     0.009 A 
ATOM     62  C   UNL A   1      52.977  27.248  26.399  1.00  0.00     0.001 A 
ATOM     63  C   UNL A   1      52.532  28.485  24.372  1.00  0.00     0.001 A 
ATOM     64  C   UNL A   1      53.425  27.815  25.207  1.00  0.00     0.000 A 
ENDBRANCH  45  59
BRANCH  46  65
ATOM     65  C   UNL A   1      41.015  28.332  28.163  1.00  0.00    -0.014 A 
ATOM     66  C   UNL A   1      40.090  28.990  27.339  1.00  0.00     0.009 A 
ATOM     67  C   UNL A   1      40.562  27.731  29.348  1.00  0.00     0.009 A 
ATOM     68  C   UNL A   1      38.745  29.062  27.706  1.00  0.00     0.001 A 
ATOM     69  C   UNL A   1      39.212  27.782  29.699  1.00  0.00     0.001 A 
ATOM     70  C   UNL A   1      38.307  28.456  28.882  1.00  0.00     0.000 A 
ENDBRANCH  46  65
BRANCH  58  71
ATOM     71  C   UNL A   1      46.332  32.681  29.266  1.00  0.00    -0.014 A 
ATOM     72  C   UNL A   1      46.099  33.869  28.556  1.00  0.00     0.009 A 
ATOM     73  C   UNL A   1      46.613  32.751  30.640  1.00  0.00     0.009 A 
ATOM     74  C   UNL A   1      46.170  35.103  29.205  1.00  0.00     0.001 A 
ATOM     75  C   UNL A   1      46.658  33.985  31.290  1.00  0.00     0.001 A 
ATOM     76  C   UNL A   1      46.444  35.160  30.571  1.00  0.00     0.000 A 
ENDBRANCH  58  71
ENDBRANCH  32  33
ENDBRANCH  25  27
ENDBRANCH  24  25
ENDBRANCH  23  24
ENDBRANCH   1  23
TORSDOF 15
ENDMDL
MODEL 2
REMARK VINA RESULT:     -10.1      3.417      7.845
REMARK SMILES COc1ccc(NC(C)(C)C2=N[C@@H](C(=O)OCCOC(=O)c3ccc(-c4c5nc(c(-c6ccccc6)c6ccc([nH]6)c(-c6ccccc6)c6nc(c(-c7ccccc7)c7ccc4[nH]7)C=C6)C=C5)cc3)CS2)cc1
REMARK SMILES IDX 17 1 16 2 14 3 15 4 13 5 11 6 12 7 71 8 70 9 8 10 9 11 10 12
REMARK SMILES IDX 7 13 6 15 3 16 4 17 73 18 5 19 72 20 2 21 1 22 18 23 19 24
REMARK SMILES IDX 20 25 21 26 22 27 23 28 69 29 24 30 68 31 25 32 26 33 27 34
REMARK SMILES IDX 62 35 28 36 67 37 61 38 63 39 29 40 66 41 60 42 59 43 30 45
REMARK SMILES IDX 52 46 37 47 51 48 38 49 41 50 50 51 64 52 39 53 40 54 49 56
REMARK SMILES IDX 65 57 42 58 31 59 32 60 36 61 33 62 35 63 34 64 53 65 54 66
REMARK SMILES IDX 58 67 55 68 57 69 56 70 43 71 44 72 48 73 45 74 47 75 46 76
REMARK H PARENT 7 14 63 44 41 55
REMARK Flexibility Score: inf
ROOT
ATOM      1  C   UNL A   1      34.989  20.214  25.000  1.00  0.00     0.274 C 
ENDROOT
BRANCH   1   2
ATOM      2  O   UNL A   1      33.908  20.835  24.282  1.00  0.00    -0.460 OA
BRANCH   2   3
ATOM      3  C   UNL A   1      32.710  20.764  24.916  1.00  0.00     0.331 C 
ATOM      4  O   UNL A   1      32.149  19.710  25.209  1.00  0.00    -0.250 OA
BRANCH   3   5
ATOM      5  C   UNL A   1      32.121  22.111  25.269  1.00  0.00     0.226 C 
ATOM      6  C   UNL A   1      32.246  24.291  24.825  1.00  0.00     0.094 C 
ATOM      7  N   UNL A   1      32.759  23.160  24.444  1.00  0.00    -0.264 NA
ATOM      8  S   UNL A   1      31.579  24.299  26.464  1.00  0.00    -0.106 SA
ATOM      9  C   UNL A   1      32.111  22.570  26.706  1.00  0.00     0.115 C 
BRANCH   6  10
ATOM     10  C   UNL A   1      32.290  25.580  23.975  1.00  0.00     0.080 C 
ATOM     11  C   UNL A   1      31.759  25.197  22.582  1.00  0.00     0.042 C 
ATOM     12  C   UNL A   1      33.697  26.178  23.838  1.00  0.00     0.042 C 
BRANCH  10  13
ATOM     13  N   UNL A   1      31.410  26.662  24.497  1.00  0.00    -0.374 N 
ATOM     14  H   UNL A   1      31.446  26.819  25.468  1.00  0.00     0.161 HD
BRANCH  13  15
ATOM     15  C   UNL A   1      30.547  27.474  23.781  1.00  0.00     0.035 A 
ATOM     16  C   UNL A   1      28.588  29.240  22.739  1.00  0.00     0.119 A 
ATOM     17  C   UNL A   1      29.941  29.573  22.695  1.00  0.00     0.048 A 
ATOM     18  C   UNL A   1      28.218  27.990  23.224  1.00  0.00     0.048 A 
ATOM     19  C   UNL A   1      30.909  28.694  23.203  1.00  0.00     0.029 A 
ATOM     20  C   UNL A   1      29.190  27.123  23.740  1.00  0.00     0.029 A 
BRANCH  16  21
ATOM     21  O   UNL A   1      27.724  30.193  22.274  1.00  0.00    -0.497 OA
ATOM     22  C   UNL A   1      27.652  31.383  23.057  1.00  0.00     0.278 C 
ENDBRANCH  16  21
ENDBRANCH  13  15
ENDBRANCH  10  13
ENDBRANCH   6  10
ENDBRANCH   3   5
ENDBRANCH   2   3
ENDBRANCH   1   2
BRANCH   1  23
ATOM     23  C   UNL A   1      35.862  21.243  25.734  1.00  0.00     0.275 C 
BRANCH  23  24
ATOM     24  O   UNL A   1      37.043  21.626  24.999  1.00  0.00    -0.458 OA
BRANCH  24  25
ATOM     25  C   UNL A   1      38.221  21.257  25.553  1.00  0.00     0.338 C 
ATOM     26  O   UNL A   1      38.728  20.141  25.527  1.00  0.00    -0.246 OA
BRANCH  25  27
ATOM     27  C   UNL A   1      38.923  22.420  26.124  1.00  0.00     0.060 A 
ATOM     28  C   UNL A   1      38.488  23.700  25.763  1.00  0.00     0.016 A 
ATOM     29  C   UNL A   1      40.055  22.262  26.923  1.00  0.00     0.016 A 
ATOM     30  C   UNL A   1      39.182  24.829  26.193  1.00  0.00     0.010 A 
ATOM     31  C   UNL A   1      40.758  23.395  27.349  1.00  0.00     0.010 A 
ATOM     32  C   UNL A   1      40.333  24.683  26.975  1.00  0.00    -0.014 A 
BRANCH  32  33
ATOM     33  C   UNL A   1      41.130  25.870  27.361  1.00  0.00     0.031 A 
ATOM     34  C   UNL A   1      40.532  26.904  28.271  1.00  0.00     0.074 A 
ATOM     35  C   UNL A   1      42.382  26.024  26.896  1.00  0.00     0.049 A 
ATOM     36  N   UNL A   1      41.010  28.069  28.626  1.00  0.00    -0.248 NA
ATOM     37  C   UNL A   1      39.224  26.581  28.862  1.00  0.00     0.031 C 
ATOM     38  C   UNL A   1      43.102  25.062  26.064  1.00  0.00     0.029 A 
ATOM     39  N   UNL A   1      43.266  27.062  27.054  1.00  0.00    -0.354 N 
ATOM     40  C   UNL A   1      40.057  28.627  29.467  1.00  0.00     0.074 A 
ATOM     41  C   UNL A   1      38.966  27.679  29.560  1.00  0.00     0.031 C 
ATOM     42  C   UNL A   1      44.315  25.561  25.770  1.00  0.00     0.029 A 
ATOM     43  C   UNL A   1      44.434  26.895  26.352  1.00  0.00     0.049 A 
ATOM     44  H   UNL A   1      43.080  27.850  27.614  1.00  0.00     0.167 HD
ATOM     45  C   UNL A   1      40.086  29.822  30.102  1.00  0.00     0.031 A 
ATOM     46  C   UNL A   1      45.466  27.740  26.167  1.00  0.00     0.031 A 
ATOM     47  C   UNL A   1      41.163  30.770  30.001  1.00  0.00     0.049 A 
ATOM     48  C   UNL A   1      45.426  29.106  26.795  1.00  0.00     0.074 A 
ATOM     49  C   UNL A   1      41.285  32.007  30.610  1.00  0.00     0.029 A 
ATOM     50  N   UNL A   1      42.305  30.586  29.238  1.00  0.00    -0.354 N 
ATOM     51  N   UNL A   1      44.515  29.630  27.578  1.00  0.00    -0.248 NA
ATOM     52  C   UNL A   1      46.555  30.002  26.502  1.00  0.00     0.031 C 
ATOM     53  C   UNL A   1      42.478  32.594  30.174  1.00  0.00     0.029 A 
ATOM     54  C   UNL A   1      43.122  31.700  29.335  1.00  0.00     0.049 A 
ATOM     55  H   UNL A   1      42.505  29.783  28.705  1.00  0.00     0.167 HD
ATOM     56  C   UNL A   1      44.970  30.905  27.889  1.00  0.00     0.074 A 
ATOM     57  C   UNL A   1      46.244  31.072  27.221  1.00  0.00     0.031 C 
ATOM     58  C   UNL A   1      44.385  31.852  28.661  1.00  0.00     0.031 A 
BRANCH  45  59
ATOM     59  C   UNL A   1      38.889  30.192  30.931  1.00  0.00    -0.014 A 
ATOM     60  C   UNL A   1      37.792  30.863  30.370  1.00  0.00     0.009 A 
ATOM     61  C   UNL A   1      38.847  29.832  32.287  1.00  0.00     0.009 A 
ATOM     62  C   UNL A   1      36.688  31.191  31.160  1.00  0.00     0.001 A 
ATOM     63  C   UNL A   1      37.732  30.142  33.068  1.00  0.00     0.001 A 
ATOM     64  C   UNL A   1      36.657  30.828  32.505  1.00  0.00     0.000 A 
ENDBRANCH  45  59
BRANCH  46  65
ATOM     65  C   UNL A   1      46.609  27.339  25.308  1.00  0.00    -0.014 A 
ATOM     66  C   UNL A   1      46.726  27.831  24.000  1.00  0.00     0.009 A 
ATOM     67  C   UNL A   1      47.579  26.444  25.787  1.00  0.00     0.009 A 
ATOM     68  C   UNL A   1      47.782  27.420  23.183  1.00  0.00     0.001 A 
ATOM     69  C   UNL A   1      48.647  26.056  24.977  1.00  0.00     0.001 A 
ATOM     70  C   UNL A   1      48.742  26.536  23.673  1.00  0.00     0.000 A 
ENDBRANCH  46  65
BRANCH  58  71
ATOM     71  C   UNL A   1      45.130  33.143  28.847  1.00  0.00    -0.014 A 
ATOM     72  C   UNL A   1      44.908  34.239  27.999  1.00  0.00     0.009 A 
ATOM     73  C   UNL A   1      46.034  33.277  29.913  1.00  0.00     0.009 A 
ATOM     74  C   UNL A   1      45.597  35.436  28.201  1.00  0.00     0.001 A 
ATOM     75  C   UNL A   1      46.703  34.483  30.127  1.00  0.00     0.001 A 
ATOM     76  C   UNL A   1      46.489  35.559  29.266  1.00  0.00     0.000 A 
ENDBRANCH  58  71
ENDBRANCH  32  33
ENDBRANCH  25  27
ENDBRANCH  24  25
ENDBRANCH  23  24
ENDBRANCH   1  23
TORSDOF 15
ENDMDL
MODEL 3
REMARK VINA RESULT:     -10.0      3.689      8.965
REMARK SMILES COc1ccc(NC(C)(C)C2=N[C@@H](C(=O)OCCOC(=O)c3ccc(-c4c5nc(c(-c6ccccc6)c6ccc([nH]6)c(-c6ccccc6)c6nc(c(-c7ccccc7)c7ccc4[nH]7)C=C6)C=C5)cc3)CS2)cc1
REMARK SMILES IDX 17 1 16 2 14 3 15 4 13 5 11 6 12 7 71 8 70 9 8 10 9 11 10 12
REMARK SMILES IDX 7 13 6 15 3 16 4 17 73 18 5 19 72 20 2 21 1 22 18 23 19 24
REMARK SMILES IDX 20 25 21 26 22 27 23 28 69 29 24 30 68 31 25 32 26 33 27 34
REMARK SMILES IDX 62 35 28 36 67 37 61 38 63 39 29 40 66 41 60 42 59 43 30 45
REMARK SMILES IDX 52 46 37 47 51 48 38 49 41 50 50 51 64 52 39 53 40 54 49 56
REMARK SMILES IDX 65 57 42 58 31 59 32 60 36 61 33 62 35 63 34 64 53 65 54 66
REMARK SMILES IDX 58 67 55 68 57 69 56 70 43 71 44 72 48 73 45 74 47 75 46 76
REMARK H PARENT 7 14 63 44 41 55
REMARK Flexibility Score: inf
ROOT
ATOM      1  C   UNL A   1      32.178  30.260  25.798  1.00  0.00     0.274 C 
ENDROOT
BRANCH   1   2
ATOM      2  O   UNL A   1      31.518  29.012  25.514  1.00  0.00    -0.460 OA
BRANCH   2   3
ATOM      3  C   UNL A   1      31.040  28.916  24.248  1.00  0.00     0.331 C 
ATOM      4  O   UNL A   1      30.133  29.614  23.800  1.00  0.00    -0.250 OA
BRANCH   3   5
ATOM      5  C   UNL A   1      31.746  27.880  23.402  1.00  0.00     0.226 C 
ATOM      6  C   UNL A   1      32.331  25.731  23.322  1.00  0.00     0.094 C 
ATOM      7  N   UNL A   1      31.671  26.562  24.070  1.00  0.00    -0.264 NA
ATOM      8  S   UNL A   1      33.545  26.471  22.268  1.00  0.00    -0.106 SA
ATOM      9  C   UNL A   1      33.170  28.116  22.963  1.00  0.00     0.115 C 
BRANCH   6  10
ATOM     10  C   UNL A   1      32.164  24.197  23.394  1.00  0.00     0.080 C 
ATOM     11  C   UNL A   1      32.870  23.627  22.151  1.00  0.00     0.042 C 
ATOM     12  C   UNL A   1      30.699  23.738  23.404  1.00  0.00     0.042 C 
BRANCH  10  13
ATOM     13  N   UNL A   1      32.816  23.587  24.586  1.00  0.00    -0.374 N 
ATOM     14  H   UNL A   1      32.260  23.519  25.396  1.00  0.00     0.161 HD
BRANCH  13  15
ATOM     15  C   UNL A   1      34.110  23.106  24.693  1.00  0.00     0.035 A 
ATOM     16  C   UNL A   1      36.712  22.211  25.378  1.00  0.00     0.119 A 
ATOM     17  C   UNL A   1      35.744  21.311  24.934  1.00  0.00     0.048 A 
ATOM     18  C   UNL A   1      36.409  23.568  25.400  1.00  0.00     0.048 A 
ATOM     19  C   UNL A   1      34.460  21.758  24.587  1.00  0.00     0.029 A 
ATOM     20  C   UNL A   1      35.121  24.005  25.063  1.00  0.00     0.029 A 
BRANCH  16  21
ATOM     21  O   UNL A   1      37.910  21.664  25.749  1.00  0.00    -0.497 OA
ATOM     22  C   UNL A   1      38.896  22.598  26.182  1.00  0.00     0.278 C 
ENDBRANCH  16  21
ENDBRANCH  13  15
ENDBRANCH  10  13
ENDBRANCH   6  10
ENDBRANCH   3   5
ENDBRANCH   2   3
ENDBRANCH   1   2
BRANCH   1  23
ATOM     23  C   UNL A   1      32.661  30.339  27.253  1.00  0.00     0.275 C 
BRANCH  23  24
ATOM     24  O   UNL A   1      34.010  29.865  27.441  1.00  0.00    -0.458 OA
BRANCH  24  25
ATOM     25  C   UNL A   1      34.821  30.676  28.160  1.00  0.00     0.338 C 
ATOM     26  O   UNL A   1      34.519  31.746  28.676  1.00  0.00    -0.246 OA
BRANCH  25  27
ATOM     27  C   UNL A   1      36.141  30.055  28.364  1.00  0.00     0.060 A 
ATOM     28  C   UNL A   1      36.424  29.493  29.614  1.00  0.00     0.016 A 
ATOM     29  C   UNL A   1      37.128  30.110  27.380  1.00  0.00     0.016 A 
ATOM     30  C   UNL A   1      37.692  28.987  29.891  1.00  0.00     0.010 A 
ATOM     31  C   UNL A   1      38.404  29.610  27.659  1.00  0.00     0.010 A 
ATOM     32  C   UNL A   1      38.697  29.059  28.920  1.00  0.00    -0.014 A 
BRANCH  32  33
ATOM     33  C   UNL A   1      40.072  28.608  29.233  1.00  0.00     0.031 A 
ATOM     34  C   UNL A   1      41.011  29.530  29.956  1.00  0.00     0.074 A 
ATOM     35  C   UNL A   1      40.482  27.380  28.870  1.00  0.00     0.049 A 
ATOM     36  N   UNL A   1      42.285  29.379  30.213  1.00  0.00    -0.248 NA
ATOM     37  C   UNL A   1      40.437  30.789  30.459  1.00  0.00     0.031 C 
ATOM     38  C   UNL A   1      39.649  26.365  28.226  1.00  0.00     0.029 A 
ATOM     39  N   UNL A   1      41.713  26.784  28.983  1.00  0.00    -0.354 N 
ATOM     40  C   UNL A   1      42.671  30.528  30.891  1.00  0.00     0.074 A 
ATOM     41  C   UNL A   1      41.500  31.373  30.996  1.00  0.00     0.031 C 
ATOM     42  C   UNL A   1      40.398  25.275  27.987  1.00  0.00     0.029 A 
ATOM     43  C   UNL A   1      41.769  25.536  28.415  1.00  0.00     0.049 A 
ATOM     44  H   UNL A   1      42.480  27.211  29.426  1.00  0.00     0.167 HD
ATOM     45  C   UNL A   1      43.892  30.850  31.380  1.00  0.00     0.031 A 
ATOM     46  C   UNL A   1      42.818  24.712  28.227  1.00  0.00     0.031 A 
ATOM     47  C   UNL A   1      45.059  30.017  31.266  1.00  0.00     0.049 A 
ATOM     48  C   UNL A   1      44.186  25.140  28.682  1.00  0.00     0.074 A 
ATOM     49  C   UNL A   1      46.340  30.256  31.733  1.00  0.00     0.029 A 
ATOM     50  N   UNL A   1      45.087  28.782  30.637  1.00  0.00    -0.354 N 
ATOM     51  N   UNL A   1      44.544  26.233  29.311  1.00  0.00    -0.248 NA
ATOM     52  C   UNL A   1      45.297  24.223  28.389  1.00  0.00     0.031 C 
ATOM     53  C   UNL A   1      47.155  29.188  31.341  1.00  0.00     0.029 A 
ATOM     54  C   UNL A   1      46.369  28.262  30.676  1.00  0.00     0.049 A 
ATOM     55  H   UNL A   1      44.309  28.341  30.224  1.00  0.00     0.167 HD
ATOM     56  C   UNL A   1      45.914  26.124  29.510  1.00  0.00     0.074 A 
ATOM     57  C   UNL A   1      46.322  24.854  28.945  1.00  0.00     0.031 C 
ATOM     58  C   UNL A   1      46.760  26.999  30.107  1.00  0.00     0.031 A 
BRANCH  45  59
ATOM     59  C   UNL A   1      44.037  32.188  32.047  1.00  0.00    -0.014 A 
ATOM     60  C   UNL A   1      44.361  33.338  31.312  1.00  0.00     0.009 A 
ATOM     61  C   UNL A   1      43.810  32.303  33.427  1.00  0.00     0.009 A 
ATOM     62  C   UNL A   1      44.484  34.573  31.953  1.00  0.00     0.001 A 
ATOM     63  C   UNL A   1      43.912  33.542  34.061  1.00  0.00     0.001 A 
ATOM     64  C   UNL A   1      44.256  34.675  33.324  1.00  0.00     0.000 A 
ENDBRANCH  45  59
BRANCH  46  65
ATOM     65  C   UNL A   1      42.627  23.415  27.529  1.00  0.00    -0.014 A 
ATOM     66  C   UNL A   1      42.808  23.317  26.141  1.00  0.00     0.009 A 
ATOM     67  C   UNL A   1      42.243  22.271  28.247  1.00  0.00     0.009 A 
ATOM     68  C   UNL A   1      42.589  22.104  25.485  1.00  0.00     0.001 A 
ATOM     69  C   UNL A   1      42.051  21.054  27.592  1.00  0.00     0.001 A 
ATOM     70  C   UNL A   1      42.215  20.974  26.210  1.00  0.00     0.000 A 
ENDBRANCH  46  65
BRANCH  58  71
ATOM     71  C   UNL A   1      48.204  26.599  30.206  1.00  0.00    -0.014 A 
ATOM     72  C   UNL A   1      49.130  26.972  29.221  1.00  0.00     0.009 A 
ATOM     73  C   UNL A   1      48.650  25.876  31.324  1.00  0.00     0.009 A 
ATOM     74  C   UNL A   1      50.472  26.607  29.341  1.00  0.00     0.001 A 
ATOM     75  C   UNL A   1      49.997  25.533  31.453  1.00  0.00     0.001 A 
ATOM     76  C   UNL A   1      50.905  25.893  30.458  1.00  0.00     0.000 A 
ENDBRANCH  58  71
ENDBRANCH  32  33
ENDBRANCH  25  27
ENDBRANCH  24  25
ENDBRANCH  23  24
ENDBRANCH   1  23
TORSDOF 15
ENDMDL
