MODEL 1
REMARK VINA RESULT:     -11.5      0.000      0.000
REMARK SMILES Cc1cc(=O)oc2cc(NC(=O)CC3(CC(=O)OCCOC(=O)c4ccc(-c5c6nc(c(-c7ccccc7)c7ccc([nH]7)c(-c7ccccc7)c7nc(c(-c8ccccc8)c8ccc5[nH]8)C=C7)C=C6)cc4)CCCC3)ccc12
REMARK SMILES IDX 19 1 18 2 16 3 17 4 15 5 14 6 72 7 75 8 73 9 74 10 13 11
REMARK SMILES IDX 11 12 10 13 12 15 9 16 1 17 2 18 3 19 78 20 4 21 7 22 77 23
REMARK SMILES IDX 5 24 6 25 8 26 76 27 20 28 21 29 22 30 23 31 24 32 25 33
REMARK SMILES IDX 71 34 26 35 70 36 27 37 28 38 29 39 64 40 30 41 69 42 63 43
REMARK SMILES IDX 65 44 31 45 68 46 62 47 61 48 32 50 54 51 39 52 53 53 40 54
REMARK SMILES IDX 43 55 52 56 66 57 41 58 42 59 51 61 67 62 44 63 33 64 34 65
REMARK SMILES IDX 38 66 35 67 37 68 36 69 55 70 56 71 60 72 57 73 59 74 58 75
REMARK SMILES IDX 45 76 46 77 50 78 47 79 49 80 48 81
REMARK H PARENT 10 14 65 49 43 60
REMARK Flexibility Score: inf
ROOT
ATOM      1  C   UNL A   1      31.829  29.859  26.510  1.00  0.00     0.274 C 
ENDROOT
BRANCH   1   2
ATOM      2  O   UNL A   1      31.266  30.306  25.258  1.00  0.00    -0.462 OA
BRANCH   2   3
ATOM      3  C   UNL A   1      30.942  29.320  24.391  1.00  0.00     0.306 C 
ATOM      4  O   UNL A   1      30.569  29.508  23.235  1.00  0.00    -0.252 OA
BRANCH   3   5
ATOM      5  C   UNL A   1      30.995  27.922  24.966  1.00  0.00     0.130 C 
BRANCH   5   6
ATOM      6  C   UNL A   1      31.797  26.762  24.309  1.00  0.00    -0.011 C 
ATOM      7  C   UNL A   1      32.207  25.818  25.467  1.00  0.00     0.008 C 
ATOM      8  C   UNL A   1      33.203  27.161  23.809  1.00  0.00     0.008 C 
ATOM      9  C   UNL A   1      33.426  26.466  26.126  1.00  0.00     0.001 C 
ATOM     10  C   UNL A   1      34.049  27.361  25.059  1.00  0.00     0.001 C 
BRANCH   6  11
ATOM     11  C   UNL A   1      30.997  26.085  23.161  1.00  0.00     0.108 C 
BRANCH  11  12
ATOM     12  C   UNL A   1      31.766  25.619  21.931  1.00  0.00     0.224 C 
ATOM     13  N   UNL A   1      32.591  24.534  21.893  1.00  0.00    -0.326 N 
ATOM     14  H   UNL A   1      33.063  24.425  21.035  1.00  0.00     0.169 HD
ATOM     15  O   UNL A   1      31.604  26.208  20.857  1.00  0.00    -0.275 OA
BRANCH  13  16
ATOM     16  C   UNL A   1      32.899  23.544  22.834  1.00  0.00     0.044 A 
ATOM     17  C   UNL A   1      33.768  18.754  24.617  1.00  0.00     0.045 C 
ATOM     18  C   UNL A   1      34.532  20.043  24.643  1.00  0.00    -0.033 A 
ATOM     19  C   UNL A   1      35.824  20.092  25.001  1.00  0.00     0.098 A 
ATOM     20  C   UNL A   1      33.895  21.279  24.176  1.00  0.00     0.021 A 
ATOM     21  C   UNL A   1      36.635  21.318  24.937  1.00  0.00     0.336 A 
ATOM     22  C   UNL A   1      34.690  22.404  23.970  1.00  0.00     0.140 A 
ATOM     23  C   UNL A   1      32.538  21.378  23.858  1.00  0.00     0.014 A 
ATOM     24  O   UNL A   1      37.790  21.328  25.347  1.00  0.00    -0.246 OA
ATOM     25  O   UNL A   1      36.044  22.428  24.356  1.00  0.00    -0.423 OA
ATOM     26  C   UNL A   1      34.208  23.539  23.320  1.00  0.00     0.074 A 
ATOM     27  C   UNL A   1      32.039  22.514  23.210  1.00  0.00     0.027 A 
ENDBRANCH  13  16
ENDBRANCH  11  12
ENDBRANCH   6  11
ENDBRANCH   5   6
ENDBRANCH   3   5
ENDBRANCH   2   3
ENDBRANCH   1   2
BRANCH   1  28
ATOM     28  C   UNL A   1      32.876  30.840  27.025  1.00  0.00     0.275 C 
BRANCH  28  29
ATOM     29  O   UNL A   1      34.050  30.130  27.454  1.00  0.00    -0.458 OA
BRANCH  29  30
ATOM     30  C   UNL A   1      34.820  30.770  28.361  1.00  0.00     0.338 C 
ATOM     31  O   UNL A   1      34.530  31.763  29.014  1.00  0.00    -0.246 OA
BRANCH  30  32
ATOM     32  C   UNL A   1      36.126  30.102  28.470  1.00  0.00     0.060 A 
ATOM     33  C   UNL A   1      36.561  29.602  29.696  1.00  0.00     0.016 A 
ATOM     34  C   UNL A   1      36.976  30.088  27.365  1.00  0.00     0.016 A 
ATOM     35  C   UNL A   1      37.873  29.156  29.839  1.00  0.00     0.010 A 
ATOM     36  C   UNL A   1      38.263  29.561  27.491  1.00  0.00     0.010 A 
ATOM     37  C   UNL A   1      38.735  29.114  28.737  1.00  0.00    -0.014 A 
BRANCH  37  38
ATOM     38  C   UNL A   1      40.125  28.606  28.870  1.00  0.00     0.031 A 
ATOM     39  C   UNL A   1      41.247  29.538  29.238  1.00  0.00     0.074 A 
ATOM     40  C   UNL A   1      40.393  27.310  28.615  1.00  0.00     0.049 A 
ATOM     41  N   UNL A   1      42.540  29.345  29.160  1.00  0.00    -0.248 NA
ATOM     42  C   UNL A   1      40.866  30.865  29.749  1.00  0.00     0.031 C 
ATOM     43  C   UNL A   1      39.400  26.282  28.301  1.00  0.00     0.029 A 
ATOM     44  N   UNL A   1      41.591  26.643  28.564  1.00  0.00    -0.354 N 
ATOM     45  C   UNL A   1      43.125  30.541  29.557  1.00  0.00     0.074 A 
ATOM     46  C   UNL A   1      42.048  31.453  29.880  1.00  0.00     0.031 C 
ATOM     47  C   UNL A   1      40.026  25.113  28.099  1.00  0.00     0.029 A 
ATOM     48  C   UNL A   1      41.466  25.329  28.185  1.00  0.00     0.049 A 
ATOM     49  H   UNL A   1      42.455  27.064  28.777  1.00  0.00     0.167 HD
ATOM     50  C   UNL A   1      44.443  30.849  29.635  1.00  0.00     0.031 A 
ATOM     51  C   UNL A   1      42.398  24.409  27.882  1.00  0.00     0.031 A 
ATOM     52  C   UNL A   1      45.512  29.929  29.348  1.00  0.00     0.049 A 
ATOM     53  C   UNL A   1      43.848  24.788  27.926  1.00  0.00     0.074 A 
ATOM     54  C   UNL A   1      46.879  30.145  29.417  1.00  0.00     0.029 A 
ATOM     55  N   UNL A   1      45.336  28.614  28.948  1.00  0.00    -0.354 N 
ATOM     56  N   UNL A   1      44.390  25.937  28.248  1.00  0.00    -0.248 NA
ATOM     57  C   UNL A   1      44.814  23.746  27.550  1.00  0.00     0.031 C 
ATOM     58  C   UNL A   1      47.529  28.970  29.023  1.00  0.00     0.029 A 
ATOM     59  C   UNL A   1      46.568  28.010  28.753  1.00  0.00     0.049 A 
ATOM     60  H   UNL A   1      44.465  28.174  28.822  1.00  0.00     0.167 HD
ATOM     61  C   UNL A   1      45.759  25.753  28.130  1.00  0.00     0.074 A 
ATOM     62  C   UNL A   1      45.967  24.378  27.719  1.00  0.00     0.031 C 
ATOM     63  C   UNL A   1      46.758  26.644  28.343  1.00  0.00     0.031 A 
BRANCH  50  64
ATOM     64  C   UNL A   1      44.810  32.257  30.012  1.00  0.00    -0.014 A 
ATOM     65  C   UNL A   1      44.983  33.256  29.043  1.00  0.00     0.009 A 
ATOM     66  C   UNL A   1      44.925  32.600  31.369  1.00  0.00     0.009 A 
ATOM     67  C   UNL A   1      45.286  34.566  29.425  1.00  0.00     0.001 A 
ATOM     68  C   UNL A   1      45.205  33.913  31.749  1.00  0.00     0.001 A 
ATOM     69  C   UNL A   1      45.392  34.894  30.777  1.00  0.00     0.000 A 
ENDBRANCH  50  64
BRANCH  51  70
ATOM     70  C   UNL A   1      41.976  23.051  27.457  1.00  0.00    -0.014 A 
ATOM     71  C   UNL A   1      41.682  22.066  28.412  1.00  0.00     0.009 A 
ATOM     72  C   UNL A   1      41.835  22.743  26.095  1.00  0.00     0.009 A 
ATOM     73  C   UNL A   1      41.266  20.796  28.008  1.00  0.00     0.001 A 
ATOM     74  C   UNL A   1      41.392  21.482  25.696  1.00  0.00     0.001 A 
ATOM     75  C   UNL A   1      41.113  20.508  26.653  1.00  0.00     0.000 A 
ENDBRANCH  51  70
BRANCH  63  76
ATOM     76  C   UNL A   1      48.161  26.145  28.172  1.00  0.00    -0.014 A 
ATOM     77  C   UNL A   1      48.891  25.642  29.260  1.00  0.00     0.009 A 
ATOM     78  C   UNL A   1      48.752  26.159  26.899  1.00  0.00     0.009 A 
ATOM     79  C   UNL A   1      50.199  25.190  29.080  1.00  0.00     0.001 A 
ATOM     80  C   UNL A   1      50.053  25.687  26.719  1.00  0.00     0.001 A 
ATOM     81  C   UNL A   1      50.778  25.211  27.810  1.00  0.00     0.000 A 
ENDBRANCH  63  76
ENDBRANCH  37  38
ENDBRANCH  30  32
ENDBRANCH  29  30
ENDBRANCH  28  29
ENDBRANCH   1  28
TORSDOF 15
ENDMDL
MODEL 2
REMARK VINA RESULT:     -11.4      1.030      1.746
REMARK SMILES Cc1cc(=O)oc2cc(NC(=O)CC3(CC(=O)OCCOC(=O)c4ccc(-c5c6nc(c(-c7ccccc7)c7ccc([nH]7)c(-c7ccccc7)c7nc(c(-c8ccccc8)c8ccc5[nH]8)C=C7)C=C6)cc4)CCCC3)ccc12
REMARK SMILES IDX 19 1 18 2 16 3 17 4 15 5 14 6 72 7 75 8 73 9 74 10 13 11
REMARK SMILES IDX 11 12 10 13 12 15 9 16 1 17 2 18 3 19 78 20 4 21 7 22 77 23
REMARK SMILES IDX 5 24 6 25 8 26 76 27 20 28 21 29 22 30 23 31 24 32 25 33
REMARK SMILES IDX 71 34 26 35 70 36 27 37 28 38 29 39 64 40 30 41 69 42 63 43
REMARK SMILES IDX 65 44 31 45 68 46 62 47 61 48 32 50 54 51 39 52 53 53 40 54
REMARK SMILES IDX 43 55 52 56 66 57 41 58 42 59 51 61 67 62 44 63 33 64 34 65
REMARK SMILES IDX 38 66 35 67 37 68 36 69 55 70 56 71 60 72 57 73 59 74 58 75
REMARK SMILES IDX 45 76 46 77 50 78 47 79 49 80 48 81
REMARK H PARENT 10 14 65 49 43 60
REMARK Flexibility Score: inf
ROOT
ATOM      1  C   UNL A   1      32.131  30.404  26.159  1.00  0.00     0.274 C 
ENDROOT
BRANCH   1   2
ATOM      2  O   UNL A   1      32.301  29.607  24.969  1.00  0.00    -0.462 OA
BRANCH   2   3
ATOM      3  C   UNL A   1      31.206  28.913  24.581  1.00  0.00     0.306 C 
ATOM      4  O   UNL A   1      30.313  29.367  23.870  1.00  0.00    -0.252 OA
BRANCH   3   5
ATOM      5  C   UNL A   1      31.102  27.517  25.153  1.00  0.00     0.130 C 
BRANCH   5   6
ATOM      6  C   UNL A   1      31.806  26.283  24.520  1.00  0.00    -0.011 C 
ATOM      7  C   UNL A   1      30.726  25.178  24.422  1.00  0.00     0.008 C 
ATOM      8  C   UNL A   1      32.804  25.567  25.458  1.00  0.00     0.008 C 
ATOM      9  C   UNL A   1      30.619  24.568  25.821  1.00  0.00     0.001 C 
ATOM     10  C   UNL A   1      31.955  24.852  26.501  1.00  0.00     0.001 C 
BRANCH   6  11
ATOM     11  C   UNL A   1      32.504  26.641  23.178  1.00  0.00     0.108 C 
BRANCH  11  12
ATOM     12  C   UNL A   1      32.041  25.924  21.916  1.00  0.00     0.224 C 
ATOM     13  N   UNL A   1      32.392  24.652  21.570  1.00  0.00    -0.326 N 
ATOM     14  H   UNL A   1      32.060  24.377  20.685  1.00  0.00     0.169 HD
ATOM     15  O   UNL A   1      31.238  26.483  21.162  1.00  0.00    -0.275 OA
BRANCH  13  16
ATOM     16  C   UNL A   1      33.132  23.661  22.227  1.00  0.00     0.044 A 
ATOM     17  C   UNL A   1      35.759  21.447  26.110  1.00  0.00     0.045 C 
ATOM     18  C   UNL A   1      34.594  21.040  25.258  1.00  0.00    -0.033 A 
ATOM     19  C   UNL A   1      33.830  19.982  25.565  1.00  0.00     0.098 A 
ATOM     20  C   UNL A   1      34.207  21.865  24.108  1.00  0.00     0.021 A 
ATOM     21  C   UNL A   1      32.618  19.614  24.815  1.00  0.00     0.336 A 
ATOM     22  C   UNL A   1      32.985  21.615  23.488  1.00  0.00     0.140 A 
ATOM     23  C   UNL A   1      34.965  22.938  23.636  1.00  0.00     0.014 A 
ATOM     24  O   UNL A   1      31.996  18.595  25.090  1.00  0.00    -0.246 OA
ATOM     25  O   UNL A   1      32.203  20.496  23.830  1.00  0.00    -0.423 OA
ATOM     26  C   UNL A   1      32.445  22.487  22.544  1.00  0.00     0.074 A 
ATOM     27  C   UNL A   1      34.438  23.819  22.683  1.00  0.00     0.027 A 
ENDBRANCH  13  16
ENDBRANCH  11  12
ENDBRANCH   6  11
ENDBRANCH   5   6
ENDBRANCH   3   5
ENDBRANCH   2   3
ENDBRANCH   1   2
BRANCH   1  28
ATOM     28  C   UNL A   1      33.084  29.958  27.263  1.00  0.00     0.275 C 
BRANCH  28  29
ATOM     29  O   UNL A   1      34.300  30.722  27.205  1.00  0.00    -0.458 OA
BRANCH  29  30
ATOM     30  C   UNL A   1      34.858  31.021  28.398  1.00  0.00     0.338 C 
ATOM     31  O   UNL A   1      34.405  31.752  29.269  1.00  0.00    -0.246 OA
BRANCH  30  32
ATOM     32  C   UNL A   1      36.150  30.332  28.533  1.00  0.00     0.060 A 
ATOM     33  C   UNL A   1      36.579  29.875  29.777  1.00  0.00     0.016 A 
ATOM     34  C   UNL A   1      36.998  30.257  27.427  1.00  0.00     0.016 A 
ATOM     35  C   UNL A   1      37.882  29.410  29.937  1.00  0.00     0.010 A 
ATOM     36  C   UNL A   1      38.275  29.710  27.573  1.00  0.00     0.010 A 
ATOM     37  C   UNL A   1      38.741  29.306  28.835  1.00  0.00    -0.014 A 
BRANCH  37  38
ATOM     38  C   UNL A   1      40.122  28.777  28.987  1.00  0.00     0.031 A 
ATOM     39  C   UNL A   1      41.249  29.689  29.386  1.00  0.00     0.074 A 
ATOM     40  C   UNL A   1      40.376  27.481  28.721  1.00  0.00     0.049 A 
ATOM     41  N   UNL A   1      42.541  29.479  29.328  1.00  0.00    -0.248 NA
ATOM     42  C   UNL A   1      40.878  31.015  29.906  1.00  0.00     0.031 C 
ATOM     43  C   UNL A   1      39.374  26.470  28.377  1.00  0.00     0.029 A 
ATOM     44  N   UNL A   1      41.566  26.797  28.683  1.00  0.00    -0.354 N 
ATOM     45  C   UNL A   1      43.135  30.662  29.749  1.00  0.00     0.074 A 
ATOM     46  C   UNL A   1      42.065  31.585  30.064  1.00  0.00     0.031 C 
ATOM     47  C   UNL A   1      39.988  25.295  28.173  1.00  0.00     0.029 A 
ATOM     48  C   UNL A   1      41.429  25.490  28.287  1.00  0.00     0.049 A 
ATOM     49  H   UNL A   1      42.431  27.203  28.917  1.00  0.00     0.167 HD
ATOM     50  C   UNL A   1      44.456  30.951  29.854  1.00  0.00     0.031 A 
ATOM     51  C   UNL A   1      42.354  24.560  27.989  1.00  0.00     0.031 A 
ATOM     52  C   UNL A   1      45.517  30.019  29.574  1.00  0.00     0.049 A 
ATOM     53  C   UNL A   1      43.808  24.919  28.063  1.00  0.00     0.074 A 
ATOM     54  C   UNL A   1      46.885  30.215  29.670  1.00  0.00     0.029 A 
ATOM     55  N   UNL A   1      45.330  28.711  29.156  1.00  0.00    -0.354 N 
ATOM     56  N   UNL A   1      44.359  26.056  28.408  1.00  0.00    -0.248 NA
ATOM     57  C   UNL A   1      44.765  23.868  27.692  1.00  0.00     0.031 C 
ATOM     58  C   UNL A   1      47.526  29.036  29.274  1.00  0.00     0.029 A 
ATOM     59  C   UNL A   1      46.556  28.092  28.976  1.00  0.00     0.049 A 
ATOM     60  H   UNL A   1      44.455  28.285  29.009  1.00  0.00     0.167 HD
ATOM     61  C   UNL A   1      45.728  25.854  28.312  1.00  0.00     0.074 A 
ATOM     62  C   UNL A   1      45.924  24.482  27.889  1.00  0.00     0.031 C 
ATOM     63  C   UNL A   1      46.735  26.729  28.553  1.00  0.00     0.031 A 
BRANCH  50  64
ATOM     64  C   UNL A   1      44.836  32.349  30.254  1.00  0.00    -0.014 A 
ATOM     65  C   UNL A   1      45.064  32.694  31.594  1.00  0.00     0.009 A 
ATOM     66  C   UNL A   1      45.026  33.323  29.260  1.00  0.00     0.009 A 
ATOM     67  C   UNL A   1      45.454  33.992  31.932  1.00  0.00     0.001 A 
ATOM     68  C   UNL A   1      45.437  34.613  29.598  1.00  0.00     0.001 A 
ATOM     69  C   UNL A   1      45.644  34.949  30.934  1.00  0.00     0.000 A 
ENDBRANCH  50  64
BRANCH  51  70
ATOM     70  C   UNL A   1      41.920  23.213  27.541  1.00  0.00    -0.014 A 
ATOM     71  C   UNL A   1      41.846  22.909  26.175  1.00  0.00     0.009 A 
ATOM     72  C   UNL A   1      41.609  22.217  28.480  1.00  0.00     0.009 A 
ATOM     73  C   UNL A   1      41.456  21.634  25.757  1.00  0.00     0.001 A 
ATOM     74  C   UNL A   1      41.247  20.937  28.060  1.00  0.00     0.001 A 
ATOM     75  C   UNL A   1      41.166  20.648  26.699  1.00  0.00     0.000 A 
ENDBRANCH  51  70
BRANCH  63  76
ATOM     76  C   UNL A   1      48.134  26.212  28.400  1.00  0.00    -0.014 A 
ATOM     77  C   UNL A   1      48.789  26.246  27.160  1.00  0.00     0.009 A 
ATOM     78  C   UNL A   1      48.812  25.704  29.519  1.00  0.00     0.009 A 
ATOM     79  C   UNL A   1      50.089  25.751  27.038  1.00  0.00     0.001 A 
ATOM     80  C   UNL A   1      50.119  25.230  29.398  1.00  0.00     0.001 A 
ATOM     81  C   UNL A   1      50.752  25.246  28.157  1.00  0.00     0.000 A 
ENDBRANCH  63  76
ENDBRANCH  37  38
ENDBRANCH  30  32
ENDBRANCH  29  30
ENDBRANCH  28  29
ENDBRANCH   1  28
TORSDOF 15
ENDMDL
MODEL 3
REMARK VINA RESULT:     -11.3      2.311      7.381
REMARK SMILES Cc1cc(=O)oc2cc(NC(=O)CC3(CC(=O)OCCOC(=O)c4ccc(-c5c6nc(c(-c7ccccc7)c7ccc([nH]7)c(-c7ccccc7)c7nc(c(-c8ccccc8)c8ccc5[nH]8)C=C7)C=C6)cc4)CCCC3)ccc12
REMARK SMILES IDX 19 1 18 2 16 3 17 4 15 5 14 6 72 7 75 8 73 9 74 10 13 11
REMARK SMILES IDX 11 12 10 13 12 15 9 16 1 17 2 18 3 19 78 20 4 21 7 22 77 23
REMARK SMILES IDX 5 24 6 25 8 26 76 27 20 28 21 29 22 30 23 31 24 32 25 33
REMARK SMILES IDX 71 34 26 35 70 36 27 37 28 38 29 39 64 40 30 41 69 42 63 43
REMARK SMILES IDX 65 44 31 45 68 46 62 47 61 48 32 50 54 51 39 52 53 53 40 54
REMARK SMILES IDX 43 55 52 56 66 57 41 58 42 59 51 61 67 62 44 63 33 64 34 65
REMARK SMILES IDX 38 66 35 67 37 68 36 69 55 70 56 71 60 72 57 73 59 74 58 75
REMARK SMILES IDX 45 76 46 77 50 78 47 79 49 80 48 81
REMARK H PARENT 10 14 65 49 43 60
REMARK Flexibility Score: inf
ROOT
ATOM      1  C   UNL A   1      35.548  19.895  24.951  1.00  0.00     0.274 C 
ENDROOT
BRANCH   1   2
ATOM      2  O   UNL A   1      34.209  19.947  24.416  1.00  0.00    -0.462 OA
BRANCH   2   3
ATOM      3  C   UNL A   1      33.237  20.185  25.325  1.00  0.00     0.306 C 
ATOM      4  O   UNL A   1      33.218  19.715  26.460  1.00  0.00    -0.252 OA
BRANCH   3   5
ATOM      5  C   UNL A   1      32.091  21.036  24.825  1.00  0.00     0.130 C 
BRANCH   5   6
ATOM      6  C   UNL A   1      32.211  22.569  24.584  1.00  0.00    -0.011 C 
ATOM      7  C   UNL A   1      33.260  23.080  25.602  1.00  0.00     0.008 C 
ATOM      8  C   UNL A   1      30.989  23.386  25.058  1.00  0.00     0.008 C 
ATOM      9  C   UNL A   1      32.522  23.213  26.936  1.00  0.00     0.001 C 
ATOM     10  C   UNL A   1      31.047  23.377  26.580  1.00  0.00     0.001 C 
BRANCH   6  11
ATOM     11  C   UNL A   1      32.524  22.897  23.097  1.00  0.00     0.108 C 
BRANCH  11  12
ATOM     12  C   UNL A   1      33.732  23.775  22.796  1.00  0.00     0.224 C 
ATOM     13  N   UNL A   1      33.777  25.126  22.979  1.00  0.00    -0.326 N 
ATOM     14  H   UNL A   1      34.613  25.541  22.663  1.00  0.00     0.169 HD
ATOM     15  O   UNL A   1      34.784  23.249  22.418  1.00  0.00    -0.275 OA
BRANCH  13  16
ATOM     16  C   UNL A   1      32.869  26.038  23.529  1.00  0.00     0.044 A 
ATOM     17  C   UNL A   1      31.226  30.544  25.501  1.00  0.00     0.045 C 
ATOM     18  C   UNL A   1      30.776  29.657  24.378  1.00  0.00    -0.033 A 
ATOM     19  C   UNL A   1      29.883  30.070  23.466  1.00  0.00     0.098 A 
ATOM     20  C   UNL A   1      31.388  28.336  24.201  1.00  0.00     0.021 A 
ATOM     21  C   UNL A   1      29.497  29.270  22.293  1.00  0.00     0.336 A 
ATOM     22  C   UNL A   1      31.143  27.639  23.020  1.00  0.00     0.140 A 
ATOM     23  C   UNL A   1      32.263  27.758  25.124  1.00  0.00     0.014 A 
ATOM     24  O   UNL A   1      28.621  29.660  21.529  1.00  0.00    -0.246 OA
ATOM     25  O   UNL A   1      30.200  28.095  22.080  1.00  0.00    -0.423 OA
ATOM     26  C   UNL A   1      31.858  26.492  22.679  1.00  0.00     0.074 A 
ATOM     27  C   UNL A   1      32.983  26.603  24.798  1.00  0.00     0.027 A 
ENDBRANCH  13  16
ENDBRANCH  11  12
ENDBRANCH   6  11
ENDBRANCH   5   6
ENDBRANCH   3   5
ENDBRANCH   2   3
ENDBRANCH   1   2
BRANCH   1  28
ATOM     28  C   UNL A   1      36.304  21.190  24.673  1.00  0.00     0.275 C 
BRANCH  28  29
ATOM     29  O   UNL A   1      36.985  21.630  25.860  1.00  0.00    -0.458 OA
BRANCH  29  30
ATOM     30  C   UNL A   1      38.323  21.443  25.867  1.00  0.00     0.338 C 
ATOM     31  O   UNL A   1      38.939  20.457  25.484  1.00  0.00    -0.246 OA
BRANCH  30  32
ATOM     32  C   UNL A   1      38.990  22.627  26.429  1.00  0.00     0.060 A 
ATOM     33  C   UNL A   1      38.567  23.907  26.078  1.00  0.00     0.016 A 
ATOM     34  C   UNL A   1      40.131  22.456  27.213  1.00  0.00     0.016 A 
ATOM     35  C   UNL A   1      39.323  25.017  26.447  1.00  0.00     0.010 A 
ATOM     36  C   UNL A   1      40.840  23.577  27.654  1.00  0.00     0.010 A 
ATOM     37  C   UNL A   1      40.459  24.868  27.252  1.00  0.00    -0.014 A 
BRANCH  37  38
ATOM     38  C   UNL A   1      41.254  26.048  27.682  1.00  0.00     0.031 A 
ATOM     39  C   UNL A   1      40.658  27.074  28.607  1.00  0.00     0.074 A 
ATOM     40  C   UNL A   1      42.501  26.226  27.206  1.00  0.00     0.049 A 
ATOM     41  N   UNL A   1      41.089  28.278  28.892  1.00  0.00    -0.248 NA
ATOM     42  C   UNL A   1      39.408  26.706  29.290  1.00  0.00     0.031 C 
ATOM     43  C   UNL A   1      43.226  25.288  26.346  1.00  0.00     0.029 A 
ATOM     44  N   UNL A   1      43.374  27.273  27.366  1.00  0.00    -0.354 N 
ATOM     45  C   UNL A   1      40.138  28.829  29.742  1.00  0.00     0.074 A 
ATOM     46  C   UNL A   1      39.108  27.829  29.929  1.00  0.00     0.031 C 
ATOM     47  C   UNL A   1      44.435  25.795  26.063  1.00  0.00     0.029 A 
ATOM     48  C   UNL A   1      44.536  27.128  26.648  1.00  0.00     0.049 A 
ATOM     49  H   UNL A   1      43.187  28.051  27.939  1.00  0.00     0.167 HD
ATOM     50  C   UNL A   1      40.124  30.062  30.305  1.00  0.00     0.031 A 
ATOM     51  C   UNL A   1      45.548  27.986  26.431  1.00  0.00     0.031 A 
ATOM     52  C   UNL A   1      41.167  31.041  30.145  1.00  0.00     0.049 A 
ATOM     53  C   UNL A   1      45.486  29.362  27.023  1.00  0.00     0.074 A 
ATOM     54  C   UNL A   1      41.250  32.311  30.692  1.00  0.00     0.029 A 
ATOM     55  N   UNL A   1      42.315  30.855  29.391  1.00  0.00    -0.354 N 
ATOM     56  N   UNL A   1      44.556  29.893  27.777  1.00  0.00    -0.248 NA
ATOM     57  C   UNL A   1      46.607  30.261  26.719  1.00  0.00     0.031 C 
ATOM     58  C   UNL A   1      42.432  32.908  30.239  1.00  0.00     0.029 A 
ATOM     59  C   UNL A   1      43.106  31.992  29.447  1.00  0.00     0.049 A 
ATOM     60  H   UNL A   1      42.537  30.037  28.891  1.00  0.00     0.167 HD
ATOM     61  C   UNL A   1      44.987  31.182  28.053  1.00  0.00     0.074 A 
ATOM     62  C   UNL A   1      46.267  31.349  27.395  1.00  0.00     0.031 C 
ATOM     63  C   UNL A   1      44.375  32.144  28.786  1.00  0.00     0.031 A 
BRANCH  50  64
ATOM     64  C   UNL A   1      38.921  30.444  31.121  1.00  0.00    -0.014 A 
ATOM     65  C   UNL A   1      37.779  31.002  30.528  1.00  0.00     0.009 A 
ATOM     66  C   UNL A   1      38.912  30.183  32.501  1.00  0.00     0.009 A 
ATOM     67  C   UNL A   1      36.660  31.311  31.306  1.00  0.00     0.001 A 
ATOM     68  C   UNL A   1      37.785  30.471  33.272  1.00  0.00     0.001 A 
ATOM     69  C   UNL A   1      36.662  31.042  32.676  1.00  0.00     0.000 A 
ENDBRANCH  50  64
BRANCH  51  70
ATOM     70  C   UNL A   1      46.683  27.575  25.567  1.00  0.00    -0.014 A 
ATOM     71  C   UNL A   1      47.733  26.806  26.089  1.00  0.00     0.009 A 
ATOM     72  C   UNL A   1      46.704  27.926  24.207  1.00  0.00     0.009 A 
ATOM     73  C   UNL A   1      48.788  26.406  25.267  1.00  0.00     0.001 A 
ATOM     74  C   UNL A   1      47.746  27.500  23.383  1.00  0.00     0.001 A 
ATOM     75  C   UNL A   1      48.790  26.745  23.915  1.00  0.00     0.000 A 
ENDBRANCH  51  70
BRANCH  63  76
ATOM     76  C   UNL A   1      45.105  33.445  28.944  1.00  0.00    -0.014 A 
ATOM     77  C   UNL A   1      46.021  33.641  29.988  1.00  0.00     0.009 A 
ATOM     78  C   UNL A   1      44.886  34.478  28.021  1.00  0.00     0.009 A 
ATOM     79  C   UNL A   1      46.683  34.862  30.121  1.00  0.00     0.001 A 
ATOM     80  C   UNL A   1      45.566  35.691  28.145  1.00  0.00     0.001 A 
ATOM     81  C   UNL A   1      46.456  35.885  29.200  1.00  0.00     0.000 A 
ENDBRANCH  63  76
ENDBRANCH  37  38
ENDBRANCH  30  32
ENDBRANCH  29  30
ENDBRANCH  28  29
ENDBRANCH   1  28
TORSDOF 15
ENDMDL
