MODEL 1
REMARK VINA RESULT:     -10.0      0.000      0.000
REMARK SMILES CCOC(=O)[C@H]1CCCN(C(=O)N[C@](C)(CC)C(=O)OCCOC(=O)c2ccc(-c3c4nc(c(-c5ccccc5)c5ccc([nH]5)c(-c5ccccc5)c5nc(c(-c6ccccc6)c6ccc3[nH]6)C=C5)C=C4)cc2)C1
REMARK SMILES IDX 20 1 18 2 19 3 14 4 15 5 13 6 11 7 12 8 10 10 6 11 7 12
REMARK SMILES IDX 74 13 8 14 9 15 4 16 5 17 3 18 2 19 1 20 16 21 17 22 21 23
REMARK SMILES IDX 22 24 23 25 24 26 25 27 26 28 27 29 73 30 28 31 72 32 29 33
REMARK SMILES IDX 30 34 31 35 66 36 32 37 71 38 65 39 67 40 33 41 70 42 64 43
REMARK SMILES IDX 63 44 34 46 56 47 41 48 55 49 42 50 45 51 54 52 68 53 43 54
REMARK SMILES IDX 44 55 53 57 69 58 46 59 35 60 36 61 40 62 37 63 39 64 38 65
REMARK SMILES IDX 57 66 58 67 62 68 59 69 61 70 60 71 47 72 48 73 52 74 49 75
REMARK SMILES IDX 51 76 50 77
REMARK H PARENT 13 9 67 45 45 56
REMARK Flexibility Score: inf
ROOT
ATOM      1  O   UNL A   1      34.010  22.439  24.580  1.00  0.00    -0.460 OA
ENDROOT
BRANCH   1   2
ATOM      2  C   UNL A   1      32.805  22.425  23.946  1.00  0.00     0.331 C 
ATOM      3  O   UNL A   1      32.319  21.406  23.465  1.00  0.00    -0.249 OA
BRANCH   2   4
ATOM      4  C   UNL A   1      32.128  23.839  23.897  1.00  0.00     0.136 C 
ATOM      5  C   UNL A   1      30.642  23.849  23.497  1.00  0.00     0.047 C 
BRANCH   4   6
ATOM      6  N   UNL A   1      32.971  24.657  22.951  1.00  0.00    -0.322 N 
ATOM      7  C   UNL A   1      33.090  25.892  22.427  1.00  0.00     0.318 C 
ATOM      8  O   UNL A   1      33.988  25.978  21.579  1.00  0.00    -0.249 OA
ATOM      9  H   UNL A   1      33.688  24.087  22.588  1.00  0.00     0.166 HD
BRANCH   7  10
ATOM     10  N   UNL A   1      32.341  26.979  22.764  1.00  0.00    -0.324 N 
ATOM     11  C   UNL A   1      31.933  28.181  24.932  1.00  0.00     0.119 C 
ATOM     12  C   UNL A   1      30.445  28.274  24.527  1.00  0.00     0.019 C 
ATOM     13  C   UNL A   1      32.876  27.967  23.729  1.00  0.00     0.136 C 
ATOM     14  C   UNL A   1      30.064  27.219  23.508  1.00  0.00     0.023 C 
ATOM     15  C   UNL A   1      31.012  27.336  22.324  1.00  0.00     0.121 C 
BRANCH  11  16
ATOM     16  C   UNL A   1      32.374  29.406  25.727  1.00  0.00     0.310 C 
ATOM     17  O   UNL A   1      31.798  30.484  25.702  1.00  0.00    -0.252 OA
BRANCH  16  18
ATOM     18  O   UNL A   1      33.509  29.150  26.432  1.00  0.00    -0.466 OA
BRANCH  18  19
ATOM     19  C   UNL A   1      34.107  30.219  27.176  1.00  0.00     0.229 C 
ATOM     20  C   UNL A   1      35.484  29.777  27.634  1.00  0.00     0.049 C 
ENDBRANCH  18  19
ENDBRANCH  16  18
ENDBRANCH  11  16
ENDBRANCH   7  10
ENDBRANCH   4   6
BRANCH   4  21
ATOM     21  C   UNL A   1      32.224  24.531  25.300  1.00  0.00     0.037 C 
ATOM     22  C   UNL A   1      30.921  24.615  26.111  1.00  0.00     0.007 C 
ENDBRANCH   4  21
ENDBRANCH   2   4
ENDBRANCH   1   2
BRANCH   1  23
ATOM     23  C   UNL A   1      34.565  21.170  24.989  1.00  0.00     0.274 C 
BRANCH  23  24
ATOM     24  C   UNL A   1      36.046  21.100  24.629  1.00  0.00     0.275 C 
BRANCH  24  25
ATOM     25  O   UNL A   1      36.807  21.563  25.756  1.00  0.00    -0.458 OA
BRANCH  25  26
ATOM     26  C   UNL A   1      38.131  21.296  25.753  1.00  0.00     0.338 C 
ATOM     27  O   UNL A   1      38.688  20.299  25.320  1.00  0.00    -0.246 OA
BRANCH  26  28
ATOM     28  C   UNL A   1      38.853  22.451  26.322  1.00  0.00     0.060 A 
ATOM     29  C   UNL A   1      38.368  23.738  26.112  1.00  0.00     0.016 A 
ATOM     30  C   UNL A   1      40.068  22.273  26.985  1.00  0.00     0.016 A 
ATOM     31  C   UNL A   1      39.129  24.841  26.486  1.00  0.00     0.010 A 
ATOM     32  C   UNL A   1      40.782  23.391  27.447  1.00  0.00     0.010 A 
ATOM     33  C   UNL A   1      40.339  24.696  27.173  1.00  0.00    -0.014 A 
BRANCH  33  34
ATOM     34  C   UNL A   1      41.147  25.900  27.542  1.00  0.00     0.031 A 
ATOM     35  C   UNL A   1      40.605  26.903  28.530  1.00  0.00     0.074 A 
ATOM     36  C   UNL A   1      42.390  26.096  27.052  1.00  0.00     0.049 A 
ATOM     37  N   UNL A   1      41.021  28.119  28.786  1.00  0.00    -0.248 NA
ATOM     38  C   UNL A   1      39.439  26.491  29.326  1.00  0.00     0.031 C 
ATOM     39  C   UNL A   1      43.117  25.189  26.161  1.00  0.00     0.029 A 
ATOM     40  N   UNL A   1      43.278  27.126  27.258  1.00  0.00    -0.354 N 
ATOM     41  C   UNL A   1      40.113  28.646  29.699  1.00  0.00     0.074 A 
ATOM     42  C   UNL A   1      39.141  27.609  29.972  1.00  0.00     0.031 C 
ATOM     43  C   UNL A   1      44.360  25.657  25.967  1.00  0.00     0.029 A 
ATOM     44  C   UNL A   1      44.474  26.965  26.598  1.00  0.00     0.049 A 
ATOM     45  H   UNL A   1      43.077  27.906  27.825  1.00  0.00     0.167 HD
ATOM     46  C   UNL A   1      40.083  29.886  30.244  1.00  0.00     0.031 A 
ATOM     47  C   UNL A   1      45.523  27.796  26.450  1.00  0.00     0.031 A 
ATOM     48  C   UNL A   1      41.086  30.895  30.030  1.00  0.00     0.049 A 
ATOM     49  C   UNL A   1      45.446  29.186  27.010  1.00  0.00     0.074 A 
ATOM     50  C   UNL A   1      41.134  32.186  30.527  1.00  0.00     0.029 A 
ATOM     51  N   UNL A   1      42.235  30.715  29.277  1.00  0.00    -0.354 N 
ATOM     52  N   UNL A   1      44.508  29.725  27.748  1.00  0.00    -0.248 NA
ATOM     53  C   UNL A   1      46.550  30.094  26.670  1.00  0.00     0.031 C 
ATOM     54  C   UNL A   1      42.299  32.798  30.048  1.00  0.00     0.029 A 
ATOM     55  C   UNL A   1      42.994  31.872  29.287  1.00  0.00     0.049 A 
ATOM     56  H   UNL A   1      42.476  29.884  28.804  1.00  0.00     0.167 HD
ATOM     57  C   UNL A   1      44.902  31.041  27.949  1.00  0.00     0.074 A 
ATOM     58  C   UNL A   1      46.179  31.207  27.286  1.00  0.00     0.031 C 
ATOM     59  C   UNL A   1      44.253  32.029  28.612  1.00  0.00     0.031 A 
BRANCH  46  60
ATOM     60  C   UNL A   1      38.886  30.244  31.078  1.00  0.00    -0.014 A 
ATOM     61  C   UNL A   1      37.715  30.766  30.511  1.00  0.00     0.009 A 
ATOM     62  C   UNL A   1      38.931  30.021  32.465  1.00  0.00     0.009 A 
ATOM     63  C   UNL A   1      36.624  31.088  31.321  1.00  0.00     0.001 A 
ATOM     64  C   UNL A   1      37.829  30.320  33.268  1.00  0.00     0.001 A 
ATOM     65  C   UNL A   1      36.679  30.862  32.696  1.00  0.00     0.000 A 
ENDBRANCH  46  60
BRANCH  47  66
ATOM     66  C   UNL A   1      46.699  27.369  25.647  1.00  0.00    -0.014 A 
ATOM     67  C   UNL A   1      47.716  26.597  26.227  1.00  0.00     0.009 A 
ATOM     68  C   UNL A   1      46.805  27.726  24.292  1.00  0.00     0.009 A 
ATOM     69  C   UNL A   1      48.815  26.192  25.466  1.00  0.00     0.001 A 
ATOM     70  C   UNL A   1      47.889  27.294  23.527  1.00  0.00     0.001 A 
ATOM     71  C   UNL A   1      48.896  26.531  24.116  1.00  0.00     0.000 A 
ENDBRANCH  47  66
BRANCH  59  72
ATOM     72  C   UNL A   1      44.921  33.371  28.654  1.00  0.00    -0.014 A 
ATOM     73  C   UNL A   1      45.833  33.689  29.672  1.00  0.00     0.009 A 
ATOM     74  C   UNL A   1      44.652  34.318  27.655  1.00  0.00     0.009 A 
ATOM     75  C   UNL A   1      46.442  34.945  29.705  1.00  0.00     0.001 A 
ATOM     76  C   UNL A   1      45.278  35.565  27.680  1.00  0.00     0.001 A 
ATOM     77  C   UNL A   1      46.166  35.881  28.707  1.00  0.00     0.000 A 
ENDBRANCH  59  72
ENDBRANCH  33  34
ENDBRANCH  26  28
ENDBRANCH  25  26
ENDBRANCH  24  25
ENDBRANCH  23  24
ENDBRANCH   1  23
TORSDOF 17
ENDMDL
MODEL 2
REMARK VINA RESULT:      -9.9      3.013      6.665
REMARK SMILES CCOC(=O)[C@H]1CCCN(C(=O)N[C@](C)(CC)C(=O)OCCOC(=O)c2ccc(-c3c4nc(c(-c5ccccc5)c5ccc([nH]5)c(-c5ccccc5)c5nc(c(-c6ccccc6)c6ccc3[nH]6)C=C5)C=C4)cc2)C1
REMARK SMILES IDX 20 1 18 2 19 3 14 4 15 5 13 6 11 7 12 8 10 10 6 11 7 12
REMARK SMILES IDX 74 13 8 14 9 15 4 16 5 17 3 18 2 19 1 20 16 21 17 22 21 23
REMARK SMILES IDX 22 24 23 25 24 26 25 27 26 28 27 29 73 30 28 31 72 32 29 33
REMARK SMILES IDX 30 34 31 35 66 36 32 37 71 38 65 39 67 40 33 41 70 42 64 43
REMARK SMILES IDX 63 44 34 46 56 47 41 48 55 49 42 50 45 51 54 52 68 53 43 54
REMARK SMILES IDX 44 55 53 57 69 58 46 59 35 60 36 61 40 62 37 63 39 64 38 65
REMARK SMILES IDX 57 66 58 67 62 68 59 69 61 70 60 71 47 72 48 73 52 74 49 75
REMARK SMILES IDX 51 76 50 77
REMARK H PARENT 13 9 67 45 45 56
REMARK Flexibility Score: inf
ROOT
ATOM      1  O   UNL A   1      35.467  22.007  25.196  1.00  0.00    -0.460 OA
ENDROOT
BRANCH   1   2
ATOM      2  C   UNL A   1      34.463  21.917  26.112  1.00  0.00     0.331 C 
ATOM      3  O   UNL A   1      34.611  22.216  27.292  1.00  0.00    -0.249 OA
BRANCH   2   4
ATOM      4  C   UNL A   1      33.122  21.389  25.492  1.00  0.00     0.136 C 
ATOM      5  C   UNL A   1      32.932  21.663  23.990  1.00  0.00     0.047 C 
BRANCH   4   6
ATOM      6  N   UNL A   1      32.025  22.009  26.322  1.00  0.00    -0.322 N 
ATOM      7  C   UNL A   1      31.365  23.167  26.520  1.00  0.00     0.318 C 
ATOM      8  O   UNL A   1      30.556  23.113  27.455  1.00  0.00    -0.249 OA
ATOM      9  H   UNL A   1      31.666  21.329  26.936  1.00  0.00     0.166 HD
BRANCH   7  10
ATOM     10  N   UNL A   1      31.514  24.308  25.790  1.00  0.00    -0.324 N 
ATOM     11  C   UNL A   1      31.949  26.702  26.414  1.00  0.00     0.119 C 
ATOM     12  C   UNL A   1      30.907  27.103  25.346  1.00  0.00     0.019 C 
ATOM     13  C   UNL A   1      32.544  25.297  26.182  1.00  0.00     0.136 C 
ATOM     14  C   UNL A   1      29.948  25.971  25.032  1.00  0.00     0.023 C 
ATOM     15  C   UNL A   1      30.766  24.750  24.637  1.00  0.00     0.121 C 
BRANCH  11  16
ATOM     16  C   UNL A   1      33.070  27.732  26.514  1.00  0.00     0.310 C 
ATOM     17  O   UNL A   1      34.088  27.708  25.837  1.00  0.00    -0.252 OA
BRANCH  16  18
ATOM     18  O   UNL A   1      32.803  28.654  27.479  1.00  0.00    -0.466 OA
BRANCH  18  19
ATOM     19  C   UNL A   1      33.321  29.980  27.319  1.00  0.00     0.229 C 
ATOM     20  C   UNL A   1      32.222  30.863  26.762  1.00  0.00     0.049 C 
ENDBRANCH  18  19
ENDBRANCH  16  18
ENDBRANCH  11  16
ENDBRANCH   7  10
ENDBRANCH   4   6
BRANCH   4  21
ATOM     21  C   UNL A   1      33.012  19.838  25.688  1.00  0.00     0.037 C 
ATOM     22  C   UNL A   1      32.665  19.015  24.436  1.00  0.00     0.007 C 
ENDBRANCH   4  21
ENDBRANCH   2   4
ENDBRANCH   1   2
BRANCH   1  23
ATOM     23  C   UNL A   1      36.475  20.973  25.205  1.00  0.00     0.274 C 
BRANCH  23  24
ATOM     24  C   UNL A   1      37.856  21.579  24.975  1.00  0.00     0.275 C 
BRANCH  24  25
ATOM     25  O   UNL A   1      38.152  22.457  26.074  1.00  0.00    -0.458 OA
BRANCH  25  26
ATOM     26  C   UNL A   1      39.455  22.715  26.318  1.00  0.00     0.338 C 
ATOM     27  O   UNL A   1      40.413  21.993  26.086  1.00  0.00    -0.246 OA
BRANCH  26  28
ATOM     28  C   UNL A   1      39.577  24.075  26.881  1.00  0.00     0.060 A 
ATOM     29  C   UNL A   1      40.163  25.084  26.122  1.00  0.00     0.016 A 
ATOM     30  C   UNL A   1      39.198  24.335  28.198  1.00  0.00     0.016 A 
ATOM     31  C   UNL A   1      40.446  26.317  26.701  1.00  0.00     0.010 A 
ATOM     32  C   UNL A   1      39.398  25.614  28.742  1.00  0.00     0.010 A 
ATOM     33  C   UNL A   1      40.058  26.617  28.011  1.00  0.00    -0.014 A 
BRANCH  33  34
ATOM     34  C   UNL A   1      40.396  27.944  28.614  1.00  0.00     0.031 A 
ATOM     35  C   UNL A   1      41.807  28.236  29.062  1.00  0.00     0.074 A 
ATOM     36  C   UNL A   1      39.476  28.926  28.724  1.00  0.00     0.049 A 
ATOM     37  N   UNL A   1      42.247  29.203  29.829  1.00  0.00    -0.248 NA
ATOM     38  C   UNL A   1      42.857  27.317  28.597  1.00  0.00     0.031 C 
ATOM     39  C   UNL A   1      38.088  28.862  28.260  1.00  0.00     0.029 A 
ATOM     40  N   UNL A   1      39.582  30.193  29.249  1.00  0.00    -0.354 N 
ATOM     41  C   UNL A   1      43.603  28.954  30.013  1.00  0.00     0.074 A 
ATOM     42  C   UNL A   1      43.918  27.761  29.257  1.00  0.00     0.031 C 
ATOM     43  C   UNL A   1      37.503  30.055  28.442  1.00  0.00     0.029 A 
ATOM     44  C   UNL A   1      38.421  30.925  29.165  1.00  0.00     0.049 A 
ATOM     45  H   UNL A   1      40.412  30.544  29.647  1.00  0.00     0.167 HD
ATOM     46  C   UNL A   1      44.498  29.645  30.759  1.00  0.00     0.031 A 
ATOM     47  C   UNL A   1      38.095  32.130  29.669  1.00  0.00     0.031 A 
ATOM     48  C   UNL A   1      44.205  30.870  31.455  1.00  0.00     0.049 A 
ATOM     49  C   UNL A   1      39.078  32.853  30.542  1.00  0.00     0.074 A 
ATOM     50  C   UNL A   1      45.042  31.636  32.249  1.00  0.00     0.029 A 
ATOM     51  N   UNL A   1      42.985  31.525  31.415  1.00  0.00    -0.354 N 
ATOM     52  N   UNL A   1      40.313  32.530  30.834  1.00  0.00    -0.248 NA
ATOM     53  C   UNL A   1      38.600  34.080  31.195  1.00  0.00     0.031 C 
ATOM     54  C   UNL A   1      44.317  32.739  32.715  1.00  0.00     0.029 A 
ATOM     55  C   UNL A   1      43.043  32.680  32.176  1.00  0.00     0.049 A 
ATOM     56  H   UNL A   1      42.193  31.215  30.916  1.00  0.00     0.167 HD
ATOM     57  C   UNL A   1      40.756  33.507  31.717  1.00  0.00     0.074 A 
ATOM     58  C   UNL A   1      39.670  34.450  31.883  1.00  0.00     0.031 C 
ATOM     59  C   UNL A   1      41.952  33.601  32.346  1.00  0.00     0.031 A 
BRANCH  46  60
ATOM     60  C   UNL A   1      45.869  29.053  30.916  1.00  0.00    -0.014 A 
ATOM     61  C   UNL A   1      46.168  28.130  31.928  1.00  0.00     0.009 A 
ATOM     62  C   UNL A   1      46.875  29.413  30.003  1.00  0.00     0.009 A 
ATOM     63  C   UNL A   1      47.457  27.603  32.042  1.00  0.00     0.001 A 
ATOM     64  C   UNL A   1      48.154  28.865  30.104  1.00  0.00     0.001 A 
ATOM     65  C   UNL A   1      48.447  27.967  31.129  1.00  0.00     0.000 A 
ENDBRANCH  46  60
BRANCH  47  66
ATOM     66  C   UNL A   1      36.734  32.684  29.444  1.00  0.00    -0.014 A 
ATOM     67  C   UNL A   1      36.432  33.377  28.264  1.00  0.00     0.009 A 
ATOM     68  C   UNL A   1      35.727  32.514  30.409  1.00  0.00     0.009 A 
ATOM     69  C   UNL A   1      35.148  33.889  28.055  1.00  0.00     0.001 A 
ATOM     70  C   UNL A   1      34.438  32.999  30.184  1.00  0.00     0.001 A 
ATOM     71  C   UNL A   1      34.152  33.691  29.008  1.00  0.00     0.000 A 
ENDBRANCH  47  66
BRANCH  59  72
ATOM     72  C   UNL A   1      42.144  34.771  33.264  1.00  0.00    -0.014 A 
ATOM     73  C   UNL A   1      41.651  34.743  34.578  1.00  0.00     0.009 A 
ATOM     74  C   UNL A   1      42.842  35.903  32.819  1.00  0.00     0.009 A 
ATOM     75  C   UNL A   1      41.828  35.842  35.420  1.00  0.00     0.001 A 
ATOM     76  C   UNL A   1      43.034  36.992  33.671  1.00  0.00     0.001 A 
ATOM     77  C   UNL A   1      42.522  36.964  34.967  1.00  0.00     0.000 A 
ENDBRANCH  59  72
ENDBRANCH  33  34
ENDBRANCH  26  28
ENDBRANCH  25  26
ENDBRANCH  24  25
ENDBRANCH  23  24
ENDBRANCH   1  23
TORSDOF 17
ENDMDL
MODEL 3
REMARK VINA RESULT:      -9.8      1.301      2.141
REMARK SMILES CCOC(=O)[C@H]1CCCN(C(=O)N[C@](C)(CC)C(=O)OCCOC(=O)c2ccc(-c3c4nc(c(-c5ccccc5)c5ccc([nH]5)c(-c5ccccc5)c5nc(c(-c6ccccc6)c6ccc3[nH]6)C=C5)C=C4)cc2)C1
REMARK SMILES IDX 20 1 18 2 19 3 14 4 15 5 13 6 11 7 12 8 10 10 6 11 7 12
REMARK SMILES IDX 74 13 8 14 9 15 4 16 5 17 3 18 2 19 1 20 16 21 17 22 21 23
REMARK SMILES IDX 22 24 23 25 24 26 25 27 26 28 27 29 73 30 28 31 72 32 29 33
REMARK SMILES IDX 30 34 31 35 66 36 32 37 71 38 65 39 67 40 33 41 70 42 64 43
REMARK SMILES IDX 63 44 34 46 56 47 41 48 55 49 42 50 45 51 54 52 68 53 43 54
REMARK SMILES IDX 44 55 53 57 69 58 46 59 35 60 36 61 40 62 37 63 39 64 38 65
REMARK SMILES IDX 57 66 58 67 62 68 59 69 61 70 60 71 47 72 48 73 52 74 49 75
REMARK SMILES IDX 51 76 50 77
REMARK H PARENT 13 9 67 45 45 56
REMARK Flexibility Score: inf
ROOT
ATOM      1  O   UNL A   1      34.673  23.199  23.319  1.00  0.00    -0.460 OA
ENDROOT
BRANCH   1   2
ATOM      2  C   UNL A   1      34.090  24.101  24.156  1.00  0.00     0.331 C 
ATOM      3  O   UNL A   1      34.732  24.794  24.939  1.00  0.00    -0.249 OA
BRANCH   2   4
ATOM      4  C   UNL A   1      32.529  24.146  24.008  1.00  0.00     0.136 C 
ATOM      5  C   UNL A   1      32.004  24.820  22.728  1.00  0.00     0.047 C 
BRANCH   4   6
ATOM      6  N   UNL A   1      32.026  24.833  25.254  1.00  0.00    -0.322 N 
ATOM      7  C   UNL A   1      31.861  26.051  25.805  1.00  0.00     0.318 C 
ATOM      8  O   UNL A   1      31.444  26.006  26.970  1.00  0.00    -0.249 OA
ATOM      9  H   UNL A   1      31.707  24.150  25.887  1.00  0.00     0.166 HD
BRANCH   7  10
ATOM     10  N   UNL A   1      32.095  27.244  25.192  1.00  0.00    -0.324 N 
ATOM     11  C   UNL A   1      31.198  28.309  23.101  1.00  0.00     0.119 C 
ATOM     12  C   UNL A   1      32.639  28.773  22.795  1.00  0.00     0.019 C 
ATOM     13  C   UNL A   1      30.967  27.995  24.594  1.00  0.00     0.136 C 
ATOM     14  C   UNL A   1      33.675  27.927  23.509  1.00  0.00     0.023 C 
ATOM     15  C   UNL A   1      33.351  27.931  24.995  1.00  0.00     0.121 C 
BRANCH  11  16
ATOM     16  C   UNL A   1      30.169  29.327  22.619  1.00  0.00     0.310 C 
ATOM     17  O   UNL A   1      29.659  29.314  21.508  1.00  0.00    -0.252 OA
BRANCH  16  18
ATOM     18  O   UNL A   1      29.927  30.268  23.572  1.00  0.00    -0.466 OA
BRANCH  18  19
ATOM     19  C   UNL A   1      28.884  31.222  23.340  1.00  0.00     0.229 C 
ATOM     20  C   UNL A   1      27.553  30.495  23.356  1.00  0.00     0.049 C 
ENDBRANCH  18  19
ENDBRANCH  16  18
ENDBRANCH  11  16
ENDBRANCH   7  10
ENDBRANCH   4   6
BRANCH   4  21
ATOM     21  C   UNL A   1      31.943  22.692  24.028  1.00  0.00     0.037 C 
ATOM     22  C   UNL A   1      31.390  22.197  25.375  1.00  0.00     0.007 C 
ENDBRANCH   4  21
ENDBRANCH   2   4
ENDBRANCH   1   2
BRANCH   1  23
ATOM     23  C   UNL A   1      36.059  22.868  23.555  1.00  0.00     0.274 C 
BRANCH  23  24
ATOM     24  C   UNL A   1      36.164  21.562  24.339  1.00  0.00     0.275 C 
BRANCH  24  25
ATOM     25  O   UNL A   1      36.780  21.845  25.606  1.00  0.00    -0.458 OA
BRANCH  25  26
ATOM     26  C   UNL A   1      38.075  21.489  25.750  1.00  0.00     0.338 C 
ATOM     27  O   UNL A   1      38.597  20.432  25.430  1.00  0.00    -0.246 OA
BRANCH  26  28
ATOM     28  C   UNL A   1      38.822  22.625  26.326  1.00  0.00     0.060 A 
ATOM     29  C   UNL A   1      38.329  23.918  26.181  1.00  0.00     0.016 A 
ATOM     30  C   UNL A   1      40.064  22.426  26.930  1.00  0.00     0.016 A 
ATOM     31  C   UNL A   1      39.107  25.008  26.558  1.00  0.00     0.010 A 
ATOM     32  C   UNL A   1      40.798  23.527  27.397  1.00  0.00     0.010 A 
ATOM     33  C   UNL A   1      40.345  24.841  27.187  1.00  0.00    -0.014 A 
BRANCH  33  34
ATOM     34  C   UNL A   1      41.169  26.032  27.562  1.00  0.00     0.031 A 
ATOM     35  C   UNL A   1      40.646  27.032  28.564  1.00  0.00     0.074 A 
ATOM     36  C   UNL A   1      42.410  26.219  27.064  1.00  0.00     0.049 A 
ATOM     37  N   UNL A   1      41.077  28.240  28.828  1.00  0.00    -0.248 NA
ATOM     38  C   UNL A   1      39.481  26.624  29.365  1.00  0.00     0.031 C 
ATOM     39  C   UNL A   1      43.120  25.313  26.158  1.00  0.00     0.029 A 
ATOM     40  N   UNL A   1      43.311  27.238  27.272  1.00  0.00    -0.354 N 
ATOM     41  C   UNL A   1      40.183  28.768  29.753  1.00  0.00     0.074 A 
ATOM     42  C   UNL A   1      39.202  27.740  30.024  1.00  0.00     0.031 C 
ATOM     43  C   UNL A   1      44.366  25.769  25.959  1.00  0.00     0.029 A 
ATOM     44  C   UNL A   1      44.500  27.070  26.601  1.00  0.00     0.049 A 
ATOM     45  H   UNL A   1      43.123  28.014  27.849  1.00  0.00     0.167 HD
ATOM     46  C   UNL A   1      40.171  30.003  30.311  1.00  0.00     0.031 A 
ATOM     47  C   UNL A   1      45.557  27.891  26.453  1.00  0.00     0.031 A 
ATOM     48  C   UNL A   1      41.183  31.003  30.098  1.00  0.00     0.049 A 
ATOM     49  C   UNL A   1      45.500  29.276  27.027  1.00  0.00     0.074 A 
ATOM     50  C   UNL A   1      41.249  32.289  30.608  1.00  0.00     0.029 A 
ATOM     51  N   UNL A   1      42.324  30.818  29.334  1.00  0.00    -0.354 N 
ATOM     52  N   UNL A   1      44.574  29.818  27.778  1.00  0.00    -0.248 NA
ATOM     53  C   UNL A   1      46.611  30.175  26.687  1.00  0.00     0.031 C 
ATOM     54  C   UNL A   1      42.417  32.892  30.126  1.00  0.00     0.029 A 
ATOM     55  C   UNL A   1      43.095  31.967  29.350  1.00  0.00     0.049 A 
ATOM     56  H   UNL A   1      42.552  29.989  28.852  1.00  0.00     0.167 HD
ATOM     57  C   UNL A   1      44.984  31.128  27.989  1.00  0.00     0.074 A 
ATOM     58  C   UNL A   1      46.257  31.286  27.317  1.00  0.00     0.031 C 
ATOM     59  C   UNL A   1      44.351  32.116  28.666  1.00  0.00     0.031 A 
BRANCH  46  60
ATOM     60  C   UNL A   1      38.984  30.366  31.158  1.00  0.00    -0.014 A 
ATOM     61  C   UNL A   1      37.794  30.851  30.599  1.00  0.00     0.009 A 
ATOM     62  C   UNL A   1      39.060  30.186  32.550  1.00  0.00     0.009 A 
ATOM     63  C   UNL A   1      36.713  31.179  31.421  1.00  0.00     0.001 A 
ATOM     64  C   UNL A   1      37.970  30.491  33.365  1.00  0.00     0.001 A 
ATOM     65  C   UNL A   1      36.799  30.995  32.801  1.00  0.00     0.000 A 
ENDBRANCH  46  60
BRANCH  47  66
ATOM     66  C   UNL A   1      46.722  27.458  25.637  1.00  0.00    -0.014 A 
ATOM     67  C   UNL A   1      47.748  26.692  26.208  1.00  0.00     0.009 A 
ATOM     68  C   UNL A   1      46.808  27.806  24.278  1.00  0.00     0.009 A 
ATOM     69  C   UNL A   1      48.836  26.282  25.434  1.00  0.00     0.001 A 
ATOM     70  C   UNL A   1      47.881  27.369  23.500  1.00  0.00     0.001 A 
ATOM     71  C   UNL A   1      48.897  26.612  24.081  1.00  0.00     0.000 A 
ENDBRANCH  47  66
BRANCH  59  72
ATOM     72  C   UNL A   1      45.034  33.450  28.716  1.00  0.00    -0.014 A 
ATOM     73  C   UNL A   1      45.969  33.743  29.721  1.00  0.00     0.009 A 
ATOM     74  C   UNL A   1      44.756  34.415  27.737  1.00  0.00     0.009 A 
ATOM     75  C   UNL A   1      46.591  34.992  29.761  1.00  0.00     0.001 A 
ATOM     76  C   UNL A   1      45.395  35.656  27.769  1.00  0.00     0.001 A 
ATOM     77  C   UNL A   1      46.307  35.946  28.784  1.00  0.00     0.000 A 
ENDBRANCH  59  72
ENDBRANCH  33  34
ENDBRANCH  26  28
ENDBRANCH  25  26
ENDBRANCH  24  25
ENDBRANCH  23  24
ENDBRANCH   1  23
TORSDOF 17
ENDMDL
