MODEL 1
REMARK VINA RESULT:     -10.3      0.000      0.000
REMARK SMILES C[C@@H]1CC[C@@]1(SC1CCCCC1)C(=O)OCCOC(=O)c1ccc(-c2c3nc(c(-c4ccccc4)c4ccc([nH]4)c(-c4ccccc4)c4nc(c(-c5ccccc5)c5ccc2[nH]5)C=C4)C=C3)cc1
REMARK SMILES IDX 16 1 15 2 13 3 14 4 5 5 1 6 2 7 3 8 4 9 6 10 7 11 8 12 12 13
REMARK SMILES IDX 9 14 11 15 10 16 17 17 18 18 19 19 20 20 21 21 22 22 68 23
REMARK SMILES IDX 23 24 67 25 24 26 25 27 26 28 61 29 27 30 66 31 60 32 62 33
REMARK SMILES IDX 28 34 65 35 59 36 58 37 29 39 51 40 36 41 50 42 37 43 40 44
REMARK SMILES IDX 49 45 63 46 38 47 39 48 48 50 64 51 41 52 30 53 31 54 35 55
REMARK SMILES IDX 32 56 34 57 33 58 52 59 53 60 57 61 54 62 56 63 55 64 42 65
REMARK SMILES IDX 43 66 47 67 44 68 46 69 45 70
REMARK H PARENT 62 38 40 49
REMARK Flexibility Score: inf
ROOT
ATOM      1  C   UNL A   1      36.394  22.232  23.930  1.00  0.00     0.274 C 
ENDROOT
BRANCH   1   2
ATOM      2  O   UNL A   1      35.051  22.345  24.443  1.00  0.00    -0.461 OA
BRANCH   2   3
ATOM      3  C   UNL A   1      34.099  22.753  23.543  1.00  0.00     0.322 C 
ATOM      4  O   UNL A   1      34.401  23.089  22.397  1.00  0.00    -0.251 OA
BRANCH   3   5
ATOM      5  C   UNL A   1      32.630  22.725  24.146  1.00  0.00     0.116 C 
ATOM      6  C   UNL A   1      32.279  24.087  26.548  1.00  0.00     0.010 C 
ATOM      7  C   UNL A   1      32.274  24.018  25.024  1.00  0.00     0.013 C 
ATOM      8  C   UNL A   1      30.858  23.974  24.412  1.00  0.00     0.007 C 
ATOM      9  C   UNL A   1      31.421  23.138  23.253  1.00  0.00     0.030 C 
BRANCH   5  10
ATOM     10  S   UNL A   1      32.281  21.165  25.123  1.00  0.00    -0.140 SA
BRANCH  10  11
ATOM     11  C   UNL A   1      32.996  19.785  24.155  1.00  0.00     0.048 C 
ATOM     12  C   UNL A   1      33.909  18.900  25.008  1.00  0.00     0.014 C 
ATOM     13  C   UNL A   1      32.043  18.945  23.300  1.00  0.00     0.014 C 
ATOM     14  C   UNL A   1      34.661  17.887  24.143  1.00  0.00     0.001 C 
ATOM     15  C   UNL A   1      32.795  17.917  22.453  1.00  0.00     0.001 C 
ATOM     16  C   UNL A   1      33.700  17.042  23.313  1.00  0.00     0.000 C 
ENDBRANCH  10  11
ENDBRANCH   5  10
ENDBRANCH   3   5
ENDBRANCH   2   3
ENDBRANCH   1   2
BRANCH   1  17
ATOM     17  C   UNL A   1      37.150  21.054  24.546  1.00  0.00     0.275 C 
BRANCH  17  18
ATOM     18  O   UNL A   1      37.614  21.380  25.868  1.00  0.00    -0.458 OA
BRANCH  18  19
ATOM     19  C   UNL A   1      38.934  21.194  26.094  1.00  0.00     0.338 C 
ATOM     20  O   UNL A   1      39.596  20.195  25.878  1.00  0.00    -0.246 OA
BRANCH  19  21
ATOM     21  C   UNL A   1      39.522  22.435  26.626  1.00  0.00     0.060 A 
ATOM     22  C   UNL A   1      39.004  23.660  26.215  1.00  0.00     0.016 A 
ATOM     23  C   UNL A   1      40.669  22.392  27.416  1.00  0.00     0.016 A 
ATOM     24  C   UNL A   1      39.647  24.846  26.540  1.00  0.00     0.010 A 
ATOM     25  C   UNL A   1      41.284  23.590  27.798  1.00  0.00     0.010 A 
ATOM     26  C   UNL A   1      40.792  24.826  27.341  1.00  0.00    -0.014 A 
BRANCH  26  27
ATOM     27  C   UNL A   1      41.485  26.098  27.651  1.00  0.00     0.031 A 
ATOM     28  C   UNL A   1      40.853  27.089  28.584  1.00  0.00     0.074 A 
ATOM     29  C   UNL A   1      42.703  26.344  27.136  1.00  0.00     0.049 A 
ATOM     30  N   UNL A   1      41.223  28.314  28.859  1.00  0.00    -0.248 NA
ATOM     31  C   UNL A   1      39.645  26.649  29.300  1.00  0.00     0.031 C 
ATOM     32  C   UNL A   1      43.467  25.429  26.283  1.00  0.00     0.029 A 
ATOM     33  N   UNL A   1      43.521  27.438  27.264  1.00  0.00    -0.354 N 
ATOM     34  C   UNL A   1      40.266  28.808  29.735  1.00  0.00     0.074 A 
ATOM     35  C   UNL A   1      39.305  27.749  29.956  1.00  0.00     0.031 C 
ATOM     36  C   UNL A   1      44.650  25.988  25.989  1.00  0.00     0.029 A 
ATOM     37  C   UNL A   1      44.696  27.329  26.563  1.00  0.00     0.049 A 
ATOM     38  H   UNL A   1      43.287  28.226  27.807  1.00  0.00     0.167 HD
ATOM     39  C   UNL A   1      40.190  30.041  30.291  1.00  0.00     0.031 A 
ATOM     40  C   UNL A   1      45.680  28.224  26.362  1.00  0.00     0.031 A 
ATOM     41  C   UNL A   1      41.165  31.079  30.096  1.00  0.00     0.049 A 
ATOM     42  C   UNL A   1      45.550  29.599  26.945  1.00  0.00     0.074 A 
ATOM     43  C   UNL A   1      41.178  32.361  30.617  1.00  0.00     0.029 A 
ATOM     44  N   UNL A   1      42.311  30.947  29.327  1.00  0.00    -0.354 N 
ATOM     45  N   UNL A   1      44.600  30.082  27.708  1.00  0.00    -0.248 NA
ATOM     46  C   UNL A   1      46.610  30.560  26.614  1.00  0.00     0.031 C 
ATOM     47  C   UNL A   1      42.314  33.018  30.132  1.00  0.00     0.029 A 
ATOM     48  C   UNL A   1      43.027  32.131  29.340  1.00  0.00     0.049 A 
ATOM     49  H   UNL A   1      42.575  30.131  28.843  1.00  0.00     0.167 HD
ATOM     50  C   UNL A   1      44.940  31.407  27.939  1.00  0.00     0.074 A 
ATOM     51  C   UNL A   1      46.200  31.642  27.260  1.00  0.00     0.031 C 
ATOM     52  C   UNL A   1      44.264  32.348  28.640  1.00  0.00     0.031 A 
BRANCH  39  53
ATOM     53  C   UNL A   1      38.975  30.347  31.115  1.00  0.00    -0.014 A 
ATOM     54  C   UNL A   1      37.801  30.852  30.537  1.00  0.00     0.009 A 
ATOM     55  C   UNL A   1      39.006  30.105  32.499  1.00  0.00     0.009 A 
ATOM     56  C   UNL A   1      36.689  31.133  31.335  1.00  0.00     0.001 A 
ATOM     57  C   UNL A   1      37.888  30.370  33.289  1.00  0.00     0.001 A 
ATOM     58  C   UNL A   1      36.733  30.890  32.708  1.00  0.00     0.000 A 
ENDBRANCH  39  53
BRANCH  40  59
ATOM     59  C   UNL A   1      46.835  27.861  25.504  1.00  0.00    -0.014 A 
ATOM     60  C   UNL A   1      48.011  27.343  26.064  1.00  0.00     0.009 A 
ATOM     61  C   UNL A   1      46.753  28.008  24.109  1.00  0.00     0.009 A 
ATOM     62  C   UNL A   1      49.084  26.984  25.245  1.00  0.00     0.001 A 
ATOM     63  C   UNL A   1      47.816  27.626  23.291  1.00  0.00     0.001 A 
ATOM     64  C   UNL A   1      48.982  27.118  23.860  1.00  0.00     0.000 A 
ENDBRANCH  40  59
BRANCH  52  65
ATOM     65  C   UNL A   1      44.872  33.718  28.693  1.00  0.00    -0.014 A 
ATOM     66  C   UNL A   1      44.537  34.686  27.734  1.00  0.00     0.009 A 
ATOM     67  C   UNL A   1      45.766  34.050  29.722  1.00  0.00     0.009 A 
ATOM     68  C   UNL A   1      45.106  35.959  27.792  1.00  0.00     0.001 A 
ATOM     69  C   UNL A   1      46.319  35.329  29.787  1.00  0.00     0.001 A 
ATOM     70  C   UNL A   1      45.994  36.280  28.819  1.00  0.00     0.000 A 
ENDBRANCH  52  65
ENDBRANCH  26  27
ENDBRANCH  19  21
ENDBRANCH  18  19
ENDBRANCH  17  18
ENDBRANCH   1  17
TORSDOF 13
ENDMDL
MODEL 2
REMARK VINA RESULT:     -10.3      3.720      7.821
REMARK SMILES C[C@@H]1CC[C@@]1(SC1CCCCC1)C(=O)OCCOC(=O)c1ccc(-c2c3nc(c(-c4ccccc4)c4ccc([nH]4)c(-c4ccccc4)c4nc(c(-c5ccccc5)c5ccc2[nH]5)C=C4)C=C3)cc1
REMARK SMILES IDX 16 1 15 2 13 3 14 4 5 5 1 6 2 7 3 8 4 9 6 10 7 11 8 12 12 13
REMARK SMILES IDX 9 14 11 15 10 16 17 17 18 18 19 19 20 20 21 21 22 22 68 23
REMARK SMILES IDX 23 24 67 25 24 26 25 27 26 28 61 29 27 30 66 31 60 32 62 33
REMARK SMILES IDX 28 34 65 35 59 36 58 37 29 39 51 40 36 41 50 42 37 43 40 44
REMARK SMILES IDX 49 45 63 46 38 47 39 48 48 50 64 51 41 52 30 53 31 54 35 55
REMARK SMILES IDX 32 56 34 57 33 58 52 59 53 60 57 61 54 62 56 63 55 64 42 65
REMARK SMILES IDX 43 66 47 67 44 68 46 69 45 70
REMARK H PARENT 62 38 40 49
REMARK Flexibility Score: inf
ROOT
ATOM      1  C   UNL A   1      31.998  30.241  26.767  1.00  0.00     0.274 C 
ENDROOT
BRANCH   1   2
ATOM      2  O   UNL A   1      32.385  28.940  26.281  1.00  0.00    -0.461 OA
BRANCH   2   3
ATOM      3  C   UNL A   1      31.686  27.877  26.796  1.00  0.00     0.322 C 
ATOM      4  O   UNL A   1      31.359  27.839  27.984  1.00  0.00    -0.251 OA
BRANCH   3   5
ATOM      5  C   UNL A   1      31.365  26.766  25.709  1.00  0.00     0.116 C 
ATOM      6  C   UNL A   1      33.532  25.238  24.861  1.00  0.00     0.010 C 
ATOM      7  C   UNL A   1      32.344  25.498  25.782  1.00  0.00     0.013 C 
ATOM      8  C   UNL A   1      31.121  24.608  25.478  1.00  0.00     0.007 C 
ATOM      9  C   UNL A   1      30.212  25.748  25.961  1.00  0.00     0.030 C 
BRANCH   5  10
ATOM     10  S   UNL A   1      31.326  27.452  23.966  1.00  0.00    -0.140 SA
BRANCH  10  11
ATOM     11  C   UNL A   1      29.797  28.453  23.845  1.00  0.00     0.048 C 
ATOM     12  C   UNL A   1      30.082  29.874  23.350  1.00  0.00     0.014 C 
ATOM     13  C   UNL A   1      28.598  27.837  23.121  1.00  0.00     0.014 C 
ATOM     14  C   UNL A   1      28.836  30.755  23.458  1.00  0.00     0.001 C 
ATOM     15  C   UNL A   1      27.360  28.731  23.211  1.00  0.00     0.001 C 
ATOM     16  C   UNL A   1      27.654  30.141  22.714  1.00  0.00     0.000 C 
ENDBRANCH  10  11
ENDBRANCH   5  10
ENDBRANCH   3   5
ENDBRANCH   2   3
ENDBRANCH   1   2
BRANCH   1  17
ATOM     17  C   UNL A   1      33.198  31.056  27.251  1.00  0.00     0.275 C 
BRANCH  17  18
ATOM     18  O   UNL A   1      34.107  30.231  28.001  1.00  0.00    -0.458 OA
BRANCH  18  19
ATOM     19  C   UNL A   1      35.018  30.887  28.755  1.00  0.00     0.338 C 
ATOM     20  O   UNL A   1      34.847  31.883  29.434  1.00  0.00    -0.246 OA
BRANCH  19  21
ATOM     21  C   UNL A   1      36.309  30.183  28.688  1.00  0.00     0.060 A 
ATOM     22  C   UNL A   1      36.840  29.631  29.851  1.00  0.00     0.016 A 
ATOM     23  C   UNL A   1      37.059  30.191  27.514  1.00  0.00     0.016 A 
ATOM     24  C   UNL A   1      38.135  29.132  29.870  1.00  0.00     0.010 A 
ATOM     25  C   UNL A   1      38.342  29.631  27.515  1.00  0.00     0.010 A 
ATOM     26  C   UNL A   1      38.899  29.119  28.700  1.00  0.00    -0.014 A 
BRANCH  26  27
ATOM     27  C   UNL A   1      40.291  28.612  28.746  1.00  0.00     0.031 A 
ATOM     28  C   UNL A   1      41.409  29.524  29.156  1.00  0.00     0.074 A 
ATOM     29  C   UNL A   1      40.546  27.320  28.468  1.00  0.00     0.049 A 
ATOM     30  N   UNL A   1      42.700  29.317  29.112  1.00  0.00    -0.248 NA
ATOM     31  C   UNL A   1      41.028  30.845  29.682  1.00  0.00     0.031 C 
ATOM     32  C   UNL A   1      39.541  26.306  28.138  1.00  0.00     0.029 A 
ATOM     33  N   UNL A   1      41.734  26.635  28.430  1.00  0.00    -0.354 N 
ATOM     34  C   UNL A   1      43.286  30.497  29.551  1.00  0.00     0.074 A 
ATOM     35  C   UNL A   1      42.211  31.411  29.869  1.00  0.00     0.031 C 
ATOM     36  C   UNL A   1      40.152  25.126  27.958  1.00  0.00     0.029 A 
ATOM     37  C   UNL A   1      41.593  25.315  28.081  1.00  0.00     0.049 A 
ATOM     38  H   UNL A   1      42.603  27.050  28.632  1.00  0.00     0.167 HD
ATOM     39  C   UNL A   1      44.603  30.792  29.664  1.00  0.00     0.031 A 
ATOM     40  C   UNL A   1      42.521  24.371  27.838  1.00  0.00     0.031 A 
ATOM     41  C   UNL A   1      45.667  29.868  29.380  1.00  0.00     0.049 A 
ATOM     42  C   UNL A   1      43.974  24.736  27.918  1.00  0.00     0.074 A 
ATOM     43  C   UNL A   1      47.034  30.072  29.464  1.00  0.00     0.029 A 
ATOM     44  N   UNL A   1      45.482  28.557  28.969  1.00  0.00    -0.354 N 
ATOM     45  N   UNL A   1      44.518  25.878  28.258  1.00  0.00    -0.248 NA
ATOM     46  C   UNL A   1      44.938  23.690  27.552  1.00  0.00     0.031 C 
ATOM     47  C   UNL A   1      47.676  28.894  29.068  1.00  0.00     0.029 A 
ATOM     48  C   UNL A   1      46.708  27.946  28.773  1.00  0.00     0.049 A 
ATOM     49  H   UNL A   1      44.607  28.126  28.836  1.00  0.00     0.167 HD
ATOM     50  C   UNL A   1      45.887  25.695  28.136  1.00  0.00     0.074 A 
ATOM     51  C   UNL A   1      46.092  24.321  27.719  1.00  0.00     0.031 C 
ATOM     52  C   UNL A   1      46.886  26.587  28.337  1.00  0.00     0.031 A 
BRANCH  39  53
ATOM     53  C   UNL A   1      44.959  32.195  30.055  1.00  0.00    -0.014 A 
ATOM     54  C   UNL A   1      45.160  32.558  31.395  1.00  0.00     0.009 A 
ATOM     55  C   UNL A   1      45.115  33.167  29.053  1.00  0.00     0.009 A 
ATOM     56  C   UNL A   1      45.484  33.876  31.726  1.00  0.00     0.001 A 
ATOM     57  C   UNL A   1      45.457  34.478  29.386  1.00  0.00     0.001 A 
ATOM     58  C   UNL A   1      45.634  34.833  30.721  1.00  0.00     0.000 A 
ENDBRANCH  39  53
BRANCH  40  59
ATOM     59  C   UNL A   1      42.094  23.014  27.418  1.00  0.00    -0.014 A 
ATOM     60  C   UNL A   1      42.101  22.646  26.066  1.00  0.00     0.009 A 
ATOM     61  C   UNL A   1      41.701  22.068  28.379  1.00  0.00     0.009 A 
ATOM     62  C   UNL A   1      41.718  21.358  25.684  1.00  0.00     0.001 A 
ATOM     63  C   UNL A   1      41.343  20.775  27.998  1.00  0.00     0.001 A 
ATOM     64  C   UNL A   1      41.347  20.423  26.650  1.00  0.00     0.000 A 
ENDBRANCH  40  59
BRANCH  52  65
ATOM     65  C   UNL A   1      48.284  26.102  28.097  1.00  0.00    -0.014 A 
ATOM     66  C   UNL A   1      48.859  26.186  26.820  1.00  0.00     0.009 A 
ATOM     67  C   UNL A   1      49.040  25.582  29.158  1.00  0.00     0.009 A 
ATOM     68  C   UNL A   1      50.162  25.735  26.605  1.00  0.00     0.001 A 
ATOM     69  C   UNL A   1      50.348  25.149  28.943  1.00  0.00     0.001 A 
ATOM     70  C   UNL A   1      50.906  25.219  27.666  1.00  0.00     0.000 A 
ENDBRANCH  52  65
ENDBRANCH  26  27
ENDBRANCH  19  21
ENDBRANCH  18  19
ENDBRANCH  17  18
ENDBRANCH   1  17
TORSDOF 13
ENDMDL
MODEL 3
REMARK VINA RESULT:     -10.2      1.626      3.294
REMARK SMILES C[C@@H]1CC[C@@]1(SC1CCCCC1)C(=O)OCCOC(=O)c1ccc(-c2c3nc(c(-c4ccccc4)c4ccc([nH]4)c(-c4ccccc4)c4nc(c(-c5ccccc5)c5ccc2[nH]5)C=C4)C=C3)cc1
REMARK SMILES IDX 16 1 15 2 13 3 14 4 5 5 1 6 2 7 3 8 4 9 6 10 7 11 8 12 12 13
REMARK SMILES IDX 9 14 11 15 10 16 17 17 18 18 19 19 20 20 21 21 22 22 68 23
REMARK SMILES IDX 23 24 67 25 24 26 25 27 26 28 61 29 27 30 66 31 60 32 62 33
REMARK SMILES IDX 28 34 65 35 59 36 58 37 29 39 51 40 36 41 50 42 37 43 40 44
REMARK SMILES IDX 49 45 63 46 38 47 39 48 48 50 64 51 41 52 30 53 31 54 35 55
REMARK SMILES IDX 32 56 34 57 33 58 52 59 53 60 57 61 54 62 56 63 55 64 42 65
REMARK SMILES IDX 43 66 47 67 44 68 46 69 45 70
REMARK H PARENT 62 38 40 49
REMARK Flexibility Score: inf
ROOT
ATOM      1  C   UNL A   1      35.026  21.349  26.155  1.00  0.00     0.274 C 
ENDROOT
BRANCH   1   2
ATOM      2  O   UNL A   1      33.891  22.016  25.566  1.00  0.00    -0.461 OA
BRANCH   2   3
ATOM      3  C   UNL A   1      33.965  23.385  25.508  1.00  0.00     0.322 C 
ATOM      4  O   UNL A   1      34.817  24.009  26.143  1.00  0.00    -0.251 OA
BRANCH   3   5
ATOM      5  C   UNL A   1      32.867  24.021  24.555  1.00  0.00     0.116 C 
ATOM      6  C   UNL A   1      33.141  23.457  21.843  1.00  0.00     0.010 C 
ATOM      7  C   UNL A   1      32.589  23.158  23.233  1.00  0.00     0.013 C 
ATOM      8  C   UNL A   1      31.093  23.503  23.391  1.00  0.00     0.007 C 
ATOM      9  C   UNL A   1      31.355  23.814  24.872  1.00  0.00     0.030 C 
BRANCH   5  10
ATOM     10  S   UNL A   1      33.251  25.797  24.097  1.00  0.00    -0.140 SA
BRANCH  10  11
ATOM     11  C   UNL A   1      32.933  26.793  25.601  1.00  0.00     0.048 C 
ATOM     12  C   UNL A   1      33.944  27.932  25.758  1.00  0.00     0.014 C 
ATOM     13  C   UNL A   1      31.501  27.276  25.845  1.00  0.00     0.014 C 
ATOM     14  C   UNL A   1      33.798  28.616  27.118  1.00  0.00     0.001 C 
ATOM     15  C   UNL A   1      31.363  27.981  27.196  1.00  0.00     0.001 C 
ATOM     16  C   UNL A   1      32.372  29.114  27.340  1.00  0.00     0.000 C 
ENDBRANCH  10  11
ENDBRANCH   5  10
ENDBRANCH   3   5
ENDBRANCH   2   3
ENDBRANCH   1   2
BRANCH   1  17
ATOM     17  C   UNL A   1      35.926  20.703  25.101  1.00  0.00     0.275 C 
BRANCH  17  18
ATOM     18  O   UNL A   1      37.107  21.494  24.883  1.00  0.00    -0.458 OA
BRANCH  18  19
ATOM     19  C   UNL A   1      38.225  21.077  25.518  1.00  0.00     0.338 C 
ATOM     20  O   UNL A   1      38.665  19.943  25.588  1.00  0.00    -0.246 OA
BRANCH  19  21
ATOM     21  C   UNL A   1      38.915  22.233  26.113  1.00  0.00     0.060 A 
ATOM     22  C   UNL A   1      38.401  23.510  25.900  1.00  0.00     0.016 A 
ATOM     23  C   UNL A   1      40.139  22.072  26.759  1.00  0.00     0.016 A 
ATOM     24  C   UNL A   1      39.121  24.635  26.279  1.00  0.00     0.010 A 
ATOM     25  C   UNL A   1      40.837  23.203  27.199  1.00  0.00     0.010 A 
ATOM     26  C   UNL A   1      40.345  24.494  26.940  1.00  0.00    -0.014 A 
BRANCH  26  27
ATOM     27  C   UNL A   1      41.115  25.705  27.308  1.00  0.00     0.031 A 
ATOM     28  C   UNL A   1      40.554  26.678  28.302  1.00  0.00     0.074 A 
ATOM     29  C   UNL A   1      42.340  25.907  26.788  1.00  0.00     0.049 A 
ATOM     30  N   UNL A   1      41.000  27.863  28.638  1.00  0.00    -0.248 NA
ATOM     31  C   UNL A   1      39.331  26.270  29.011  1.00  0.00     0.031 C 
ATOM     32  C   UNL A   1      43.038  24.997  25.876  1.00  0.00     0.029 A 
ATOM     33  N   UNL A   1      43.223  26.943  26.963  1.00  0.00    -0.354 N 
ATOM     34  C   UNL A   1      40.083  28.363  29.554  1.00  0.00     0.074 A 
ATOM     35  C   UNL A   1      39.065  27.351  29.732  1.00  0.00     0.031 C 
ATOM     36  C   UNL A   1      44.249  25.502  25.594  1.00  0.00     0.029 A 
ATOM     37  C   UNL A   1      44.381  26.804  26.239  1.00  0.00     0.049 A 
ATOM     38  H   UNL A   1      43.042  27.712  27.551  1.00  0.00     0.167 HD
ATOM     39  C   UNL A   1      40.087  29.565  30.177  1.00  0.00     0.031 A 
ATOM     40  C   UNL A   1      45.414  27.650  26.072  1.00  0.00     0.031 A 
ATOM     41  C   UNL A   1      41.120  30.554  30.024  1.00  0.00     0.049 A 
ATOM     42  C   UNL A   1      45.371  28.996  26.731  1.00  0.00     0.074 A 
ATOM     43  C   UNL A   1      41.214  31.803  30.613  1.00  0.00     0.029 A 
ATOM     44  N   UNL A   1      42.246  30.398  29.232  1.00  0.00    -0.354 N 
ATOM     45  N   UNL A   1      44.461  29.491  27.533  1.00  0.00    -0.248 NA
ATOM     46  C   UNL A   1      46.483  29.910  26.437  1.00  0.00     0.031 C 
ATOM     47  C   UNL A   1      42.382  32.417  30.148  1.00  0.00     0.029 A 
ATOM     48  C   UNL A   1      43.031  31.536  29.298  1.00  0.00     0.049 A 
ATOM     49  H   UNL A   1      42.456  29.596  28.700  1.00  0.00     0.167 HD
ATOM     50  C   UNL A   1      44.882  30.779  27.831  1.00  0.00     0.074 A 
ATOM     51  C   UNL A   1      46.145  30.978  27.147  1.00  0.00     0.031 C 
ATOM     52  C   UNL A   1      44.271  31.718  28.592  1.00  0.00     0.031 A 
BRANCH  39  53
ATOM     53  C   UNL A   1      38.902  29.896  31.034  1.00  0.00    -0.014 A 
ATOM     54  C   UNL A   1      37.729  30.440  30.492  1.00  0.00     0.009 A 
ATOM     55  C   UNL A   1      38.961  29.638  32.414  1.00  0.00     0.009 A 
ATOM     56  C   UNL A   1      36.646  30.744  31.320  1.00  0.00     0.001 A 
ATOM     57  C   UNL A   1      37.871  29.924  33.235  1.00  0.00     0.001 A 
ATOM     58  C   UNL A   1      36.717  30.484  32.689  1.00  0.00     0.000 A 
ENDBRANCH  39  53
BRANCH  40  59
ATOM     59  C   UNL A   1      46.535  27.268  25.179  1.00  0.00    -0.014 A 
ATOM     60  C   UNL A   1      47.409  26.230  25.528  1.00  0.00     0.009 A 
ATOM     61  C   UNL A   1      46.717  27.929  23.952  1.00  0.00     0.009 A 
ATOM     62  C   UNL A   1      48.448  25.864  24.668  1.00  0.00     0.001 A 
ATOM     63  C   UNL A   1      47.739  27.546  23.084  1.00  0.00     0.001 A 
ATOM     64  C   UNL A   1      48.607  26.516  23.445  1.00  0.00     0.000 A 
ENDBRANCH  40  59
BRANCH  52  65
ATOM     65  C   UNL A   1      44.960  33.045  28.710  1.00  0.00    -0.014 A 
ATOM     66  C   UNL A   1      44.654  34.090  27.825  1.00  0.00     0.009 A 
ATOM     67  C   UNL A   1      45.901  33.260  29.728  1.00  0.00     0.009 A 
ATOM     68  C   UNL A   1      45.298  35.322  27.943  1.00  0.00     0.001 A 
ATOM     69  C   UNL A   1      46.529  34.498  29.854  1.00  0.00     0.001 A 
ATOM     70  C   UNL A   1      46.232  35.527  28.958  1.00  0.00     0.000 A 
ENDBRANCH  52  65
ENDBRANCH  26  27
ENDBRANCH  19  21
ENDBRANCH  18  19
ENDBRANCH  17  18
ENDBRANCH   1  17
TORSDOF 13
ENDMDL
