MODEL 1
REMARK VINA RESULT:     -11.6      0.000      0.000
REMARK SMILES O=C(C[C@@H](C(=O)OCCOC(=O)c1ccc(-c2c3nc(c(-c4ccccc4)c4ccc([nH]4)c(-c4ccccc4)c4nc(c(-c5ccccc5)c5ccc2[nH]5)C=C4)C=C3)cc1)[NH+]1CCN(c2cccc(Cl)c2)CC1)c1ccc(F)cc1
REMARK SMILES IDX 8 1 7 2 5 3 6 4 4 5 3 6 2 7 1 8 74 9 75 10 80 11 76 12 79 13
REMARK SMILES IDX 77 14 78 15 61 16 62 17 73 18 63 20 72 21 64 22 65 23 66 24
REMARK SMILES IDX 71 25 67 26 69 27 68 28 70 29 9 30 10 31 11 32 12 33 13 34
REMARK SMILES IDX 14 35 60 36 15 37 59 38 16 39 17 40 18 41 53 42 19 43 58 44
REMARK SMILES IDX 52 45 54 46 20 47 57 48 51 49 50 50 21 52 43 53 28 54 42 55
REMARK SMILES IDX 29 56 32 57 41 58 55 59 30 60 31 61 40 63 56 64 33 65 22 66
REMARK SMILES IDX 23 67 27 68 24 69 26 70 25 71 44 72 45 73 49 74 46 75 48 76
REMARK SMILES IDX 47 77 34 78 35 79 39 80 36 81 38 82 37 83
REMARK H PARENT 61 19 54 51 32 62
REMARK Flexibility Score: inf
ROOT
ATOM      1  C   UNL A   1      36.303  22.748  25.592  1.00  0.00     0.274 C 
ENDROOT
BRANCH   1   2
ATOM      2  O   UNL A   1      35.566  23.841  24.983  1.00  0.00    -0.458 OA
BRANCH   2   3
ATOM      3  C   UNL A   1      34.927  23.567  23.798  1.00  0.00     0.365 C 
ATOM      4  O   UNL A   1      35.524  23.357  22.749  1.00  0.00    -0.245 OA
BRANCH   3   5
ATOM      5  C   UNL A   1      33.369  23.436  23.978  1.00  0.00     0.303 C 
BRANCH   5   6
ATOM      6  C   UNL A   1      32.784  22.082  23.559  1.00  0.00     0.158 C 
BRANCH   6   7
ATOM      7  C   UNL A   1      32.883  21.058  24.664  1.00  0.00     0.169 C 
ATOM      8  O   UNL A   1      32.826  21.362  25.850  1.00  0.00    -0.294 OA
BRANCH   7   9
ATOM      9  C   UNL A   1      33.186  19.667  24.270  1.00  0.00     0.018 A 
ATOM     10  C   UNL A   1      34.362  19.089  24.762  1.00  0.00     0.015 A 
ATOM     11  C   UNL A   1      32.386  18.991  23.344  1.00  0.00     0.015 A 
ATOM     12  C   UNL A   1      34.776  17.854  24.269  1.00  0.00     0.040 A 
ATOM     13  C   UNL A   1      32.795  17.745  22.871  1.00  0.00     0.040 A 
ATOM     14  C   UNL A   1      33.992  17.198  23.323  1.00  0.00     0.123 A 
ATOM     15  F   UNL A   1      34.405  16.024  22.828  1.00  0.00    -0.207 F 
ENDBRANCH   7   9
ENDBRANCH   6   7
ENDBRANCH   5   6
BRANCH   5  16
ATOM     16  N   UNL A   1      32.631  24.649  23.493  1.00  0.00    -0.320 N 
ATOM     17  C   UNL A   1      31.926  25.387  24.529  1.00  0.00     0.284 C 
ATOM     18  C   UNL A   1      33.370  25.640  22.685  1.00  0.00     0.284 C 
ATOM     19  H   UNL A   1      31.979  24.175  22.868  1.00  0.00     0.348 HD
ATOM     20  C   UNL A   1      32.851  26.138  25.476  1.00  0.00     0.178 C 
ATOM     21  C   UNL A   1      33.799  27.031  23.315  1.00  0.00     0.178 C 
ATOM     22  N   UNL A   1      33.557  27.195  24.761  1.00  0.00    -0.360 N 
BRANCH  22  23
ATOM     23  C   UNL A   1      33.476  28.408  25.445  1.00  0.00     0.038 A 
ATOM     24  C   UNL A   1      34.289  28.601  26.584  1.00  0.00     0.026 A 
ATOM     25  C   UNL A   1      32.485  29.358  25.194  1.00  0.00     0.046 A 
ATOM     26  C   UNL A   1      34.066  29.639  27.489  1.00  0.00     0.004 A 
ATOM     27  C   UNL A   1      32.264  30.404  26.100  1.00  0.00     0.043 A 
ATOM     28  C   UNL A   1      33.034  30.535  27.255  1.00  0.00     0.020 A 
ATOM     29  Cl  UNL A   1      30.989  31.529  25.831  1.00  0.00    -0.084 Cl
ENDBRANCH  22  23
ENDBRANCH   5  16
ENDBRANCH   3   5
ENDBRANCH   2   3
ENDBRANCH   1   2
BRANCH   1  30
ATOM     30  C   UNL A   1      37.794  22.851  25.223  1.00  0.00     0.275 C 
BRANCH  30  31
ATOM     31  O   UNL A   1      38.639  22.518  26.346  1.00  0.00    -0.458 OA
BRANCH  31  32
ATOM     32  C   UNL A   1      39.896  23.028  26.329  1.00  0.00     0.338 C 
ATOM     33  O   UNL A   1      40.926  22.422  26.134  1.00  0.00    -0.246 OA
BRANCH  32  34
ATOM     34  C   UNL A   1      39.829  24.398  26.881  1.00  0.00     0.060 A 
ATOM     35  C   UNL A   1      39.106  24.552  28.061  1.00  0.00     0.016 A 
ATOM     36  C   UNL A   1      40.428  25.508  26.277  1.00  0.00     0.016 A 
ATOM     37  C   UNL A   1      38.930  25.818  28.613  1.00  0.00     0.010 A 
ATOM     38  C   UNL A   1      40.383  26.756  26.926  1.00  0.00     0.010 A 
ATOM     39  C   UNL A   1      39.674  26.907  28.130  1.00  0.00    -0.014 A 
BRANCH  39  40
ATOM     40  C   UNL A   1      39.925  28.045  29.063  1.00  0.00     0.031 A 
ATOM     41  C   UNL A   1      41.093  28.122  29.999  1.00  0.00     0.074 A 
ATOM     42  C   UNL A   1      39.027  29.053  29.048  1.00  0.00     0.049 A 
ATOM     43  N   UNL A   1      41.311  28.968  30.975  1.00  0.00    -0.248 NA
ATOM     44  C   UNL A   1      42.147  27.120  29.829  1.00  0.00     0.031 C 
ATOM     45  C   UNL A   1      37.846  29.114  28.180  1.00  0.00     0.029 A 
ATOM     46  N   UNL A   1      38.973  30.230  29.748  1.00  0.00    -0.354 N 
ATOM     47  C   UNL A   1      42.492  28.558  31.584  1.00  0.00     0.074 A 
ATOM     48  C   UNL A   1      42.960  27.406  30.842  1.00  0.00     0.031 C 
ATOM     49  C   UNL A   1      37.253  30.302  28.314  1.00  0.00     0.029 A 
ATOM     50  C   UNL A   1      37.903  31.017  29.398  1.00  0.00     0.049 A 
ATOM     51  H   UNL A   1      39.633  30.486  30.431  1.00  0.00     0.167 HD
ATOM     52  C   UNL A   1      43.104  29.087  32.676  1.00  0.00     0.031 A 
ATOM     53  C   UNL A   1      37.428  32.156  29.929  1.00  0.00     0.031 A 
ATOM     54  C   UNL A   1      42.633  30.258  33.378  1.00  0.00     0.049 A 
ATOM     55  C   UNL A   1      38.106  32.714  31.131  1.00  0.00     0.074 A 
ATOM     56  C   UNL A   1      43.175  30.880  34.491  1.00  0.00     0.029 A 
ATOM     57  N   UNL A   1      41.512  30.995  33.021  1.00  0.00    -0.354 N 
ATOM     58  N   UNL A   1      39.166  32.261  31.755  1.00  0.00    -0.248 NA
ATOM     59  C   UNL A   1      37.508  33.912  31.724  1.00  0.00     0.031 C 
ATOM     60  C   UNL A   1      42.361  31.968  34.828  1.00  0.00     0.029 A 
ATOM     61  C   UNL A   1      41.338  32.055  33.897  1.00  0.00     0.049 A 
ATOM     62  H   UNL A   1      40.925  30.796  32.256  1.00  0.00     0.167 HD
ATOM     63  C   UNL A   1      39.352  33.104  32.835  1.00  0.00     0.074 A 
ATOM     64  C   UNL A   1      38.317  34.121  32.755  1.00  0.00     0.031 C 
ATOM     65  C   UNL A   1      40.283  33.033  33.817  1.00  0.00     0.031 A 
BRANCH  52  66
ATOM     66  C   UNL A   1      44.309  28.366  33.224  1.00  0.00    -0.014 A 
ATOM     67  C   UNL A   1      44.194  27.316  34.148  1.00  0.00     0.009 A 
ATOM     68  C   UNL A   1      45.589  28.723  32.767  1.00  0.00     0.009 A 
ATOM     69  C   UNL A   1      45.337  26.667  34.629  1.00  0.00     0.001 A 
ATOM     70  C   UNL A   1      46.727  28.057  33.230  1.00  0.00     0.001 A 
ATOM     71  C   UNL A   1      46.600  27.036  34.168  1.00  0.00     0.000 A 
ENDBRANCH  52  66
BRANCH  53  72
ATOM     72  C   UNL A   1      36.192  32.745  29.356  1.00  0.00    -0.014 A 
ATOM     73  C   UNL A   1      34.970  32.635  30.031  1.00  0.00     0.009 A 
ATOM     74  C   UNL A   1      36.265  33.544  28.200  1.00  0.00     0.009 A 
ATOM     75  C   UNL A   1      33.849  33.331  29.570  1.00  0.00     0.001 A 
ATOM     76  C   UNL A   1      35.155  34.265  27.764  1.00  0.00     0.001 A 
ATOM     77  C   UNL A   1      33.946  34.158  28.450  1.00  0.00     0.000 A 
ENDBRANCH  53  72
BRANCH  65  78
ATOM     78  C   UNL A   1      40.203  34.091  34.874  1.00  0.00    -0.014 A 
ATOM     79  C   UNL A   1      40.861  35.320  34.710  1.00  0.00     0.009 A 
ATOM     80  C   UNL A   1      39.481  33.850  36.051  1.00  0.00     0.009 A 
ATOM     81  C   UNL A   1      40.828  36.276  35.726  1.00  0.00     0.001 A 
ATOM     82  C   UNL A   1      39.432  34.817  37.055  1.00  0.00     0.001 A 
ATOM     83  C   UNL A   1      40.113  36.023  36.897  1.00  0.00     0.000 A 
ENDBRANCH  65  78
ENDBRANCH  39  40
ENDBRANCH  32  34
ENDBRANCH  31  32
ENDBRANCH  30  31
ENDBRANCH   1  30
TORSDOF 16
ENDMDL
MODEL 2
REMARK VINA RESULT:     -11.5      4.638      9.366
REMARK SMILES O=C(C[C@@H](C(=O)OCCOC(=O)c1ccc(-c2c3nc(c(-c4ccccc4)c4ccc([nH]4)c(-c4ccccc4)c4nc(c(-c5ccccc5)c5ccc2[nH]5)C=C4)C=C3)cc1)[NH+]1CCN(c2cccc(Cl)c2)CC1)c1ccc(F)cc1
REMARK SMILES IDX 8 1 7 2 5 3 6 4 4 5 3 6 2 7 1 8 74 9 75 10 80 11 76 12 79 13
REMARK SMILES IDX 77 14 78 15 61 16 62 17 73 18 63 20 72 21 64 22 65 23 66 24
REMARK SMILES IDX 71 25 67 26 69 27 68 28 70 29 9 30 10 31 11 32 12 33 13 34
REMARK SMILES IDX 14 35 60 36 15 37 59 38 16 39 17 40 18 41 53 42 19 43 58 44
REMARK SMILES IDX 52 45 54 46 20 47 57 48 51 49 50 50 21 52 43 53 28 54 42 55
REMARK SMILES IDX 29 56 32 57 41 58 55 59 30 60 31 61 40 63 56 64 33 65 22 66
REMARK SMILES IDX 23 67 27 68 24 69 26 70 25 71 44 72 45 73 49 74 46 75 48 76
REMARK SMILES IDX 47 77 34 78 35 79 39 80 36 81 38 82 37 83
REMARK H PARENT 61 19 54 51 32 62
REMARK Flexibility Score: inf
ROOT
ATOM      1  C   UNL A   1      32.937  29.100  27.548  1.00  0.00     0.274 C 
ENDROOT
BRANCH   1   2
ATOM      2  O   UNL A   1      32.934  28.326  26.320  1.00  0.00    -0.458 OA
BRANCH   2   3
ATOM      3  C   UNL A   1      31.986  27.337  26.218  1.00  0.00     0.365 C 
ATOM      4  O   UNL A   1      31.068  27.207  27.018  1.00  0.00    -0.245 OA
BRANCH   3   5
ATOM      5  C   UNL A   1      32.151  26.488  24.904  1.00  0.00     0.303 C 
BRANCH   5   6
ATOM      6  C   UNL A   1      31.499  27.098  23.657  1.00  0.00     0.158 C 
BRANCH   6   7
ATOM      7  C   UNL A   1      29.992  27.090  23.747  1.00  0.00     0.169 C 
ATOM      8  O   UNL A   1      29.348  26.061  23.909  1.00  0.00    -0.294 OA
BRANCH   7   9
ATOM      9  C   UNL A   1      29.295  28.368  23.499  1.00  0.00     0.018 A 
ATOM     10  C   UNL A   1      29.989  29.555  23.761  1.00  0.00     0.015 A 
ATOM     11  C   UNL A   1      27.947  28.392  23.126  1.00  0.00     0.015 A 
ATOM     12  C   UNL A   1      29.309  30.770  23.717  1.00  0.00     0.040 A 
ATOM     13  C   UNL A   1      27.279  29.613  23.063  1.00  0.00     0.040 A 
ATOM     14  C   UNL A   1      27.960  30.786  23.376  1.00  0.00     0.123 A 
ATOM     15  F   UNL A   1      27.300  31.951  23.362  1.00  0.00    -0.207 F 
ENDBRANCH   7   9
ENDBRANCH   6   7
ENDBRANCH   5   6
BRANCH   5  16
ATOM     16  N   UNL A   1      31.897  25.026  25.129  1.00  0.00    -0.320 N 
ATOM     17  C   UNL A   1      32.596  24.139  24.213  1.00  0.00     0.284 C 
ATOM     18  C   UNL A   1      32.094  24.484  26.489  1.00  0.00     0.284 C 
ATOM     19  H   UNL A   1      30.894  25.029  24.948  1.00  0.00     0.348 HD
ATOM     20  C   UNL A   1      34.097  24.074  24.457  1.00  0.00     0.178 C 
ATOM     21  C   UNL A   1      33.360  23.587  26.821  1.00  0.00     0.178 C 
ATOM     22  N   UNL A   1      34.374  23.468  25.755  1.00  0.00    -0.360 N 
BRANCH  22  23
ATOM     23  C   UNL A   1      35.336  22.465  25.649  1.00  0.00     0.038 A 
ATOM     24  C   UNL A   1      36.698  22.835  25.568  1.00  0.00     0.026 A 
ATOM     25  C   UNL A   1      35.017  21.128  25.402  1.00  0.00     0.046 A 
ATOM     26  C   UNL A   1      37.688  21.939  25.166  1.00  0.00     0.004 A 
ATOM     27  C   UNL A   1      36.014  20.227  25.005  1.00  0.00     0.043 A 
ATOM     28  C   UNL A   1      37.340  20.631  24.864  1.00  0.00     0.020 A 
ATOM     29  Cl  UNL A   1      35.607  18.598  24.624  1.00  0.00    -0.084 Cl
ENDBRANCH  22  23
ENDBRANCH   5  16
ENDBRANCH   3   5
ENDBRANCH   2   3
ENDBRANCH   1   2
BRANCH   1  30
ATOM     30  C   UNL A   1      33.161  30.590  27.229  1.00  0.00     0.275 C 
BRANCH  30  31
ATOM     31  O   UNL A   1      34.556  30.948  27.334  1.00  0.00    -0.458 OA
BRANCH  31  32
ATOM     32  C   UNL A   1      35.044  31.119  28.588  1.00  0.00     0.338 C 
ATOM     33  O   UNL A   1      34.720  31.969  29.388  1.00  0.00    -0.246 OA
BRANCH  32  34
ATOM     34  C   UNL A   1      36.251  30.275  28.716  1.00  0.00     0.060 A 
ATOM     35  C   UNL A   1      36.995  30.084  27.554  1.00  0.00     0.016 A 
ATOM     36  C   UNL A   1      36.651  29.669  29.911  1.00  0.00     0.016 A 
ATOM     37  C   UNL A   1      38.106  29.245  27.566  1.00  0.00     0.010 A 
ATOM     38  C   UNL A   1      37.864  28.956  29.953  1.00  0.00     0.010 A 
ATOM     39  C   UNL A   1      38.628  28.784  28.786  1.00  0.00    -0.014 A 
BRANCH  39  40
ATOM     40  C   UNL A   1      40.077  28.425  28.830  1.00  0.00     0.031 A 
ATOM     41  C   UNL A   1      41.169  29.382  29.201  1.00  0.00     0.074 A 
ATOM     42  C   UNL A   1      40.398  27.154  28.506  1.00  0.00     0.049 A 
ATOM     43  N   UNL A   1      42.466  29.230  29.097  1.00  0.00    -0.248 NA
ATOM     44  C   UNL A   1      40.759  30.677  29.749  1.00  0.00     0.031 C 
ATOM     45  C   UNL A   1      39.435  26.112  28.135  1.00  0.00     0.029 A 
ATOM     46  N   UNL A   1      41.605  26.505  28.467  1.00  0.00    -0.354 N 
ATOM     47  C   UNL A   1      43.028  30.437  29.498  1.00  0.00     0.074 A 
ATOM     48  C   UNL A   1      41.927  31.298  29.880  1.00  0.00     0.031 C 
ATOM     49  C   UNL A   1      40.065  24.942  28.016  1.00  0.00     0.029 A 
ATOM     50  C   UNL A   1      41.493  25.178  28.131  1.00  0.00     0.049 A 
ATOM     51  H   UNL A   1      42.463  26.945  28.662  1.00  0.00     0.167 HD
ATOM     52  C   UNL A   1      44.339  30.790  29.516  1.00  0.00     0.031 A 
ATOM     53  C   UNL A   1      42.426  24.251  27.858  1.00  0.00     0.031 A 
ATOM     54  C   UNL A   1      45.421  29.900  29.162  1.00  0.00     0.049 A 
ATOM     55  C   UNL A   1      43.858  24.659  27.874  1.00  0.00     0.074 A 
ATOM     56  C   UNL A   1      46.783  30.152  29.147  1.00  0.00     0.029 A 
ATOM     57  N   UNL A   1      45.260  28.578  28.773  1.00  0.00    -0.354 N 
ATOM     58  N   UNL A   1      44.369  25.831  28.161  1.00  0.00    -0.248 NA
ATOM     59  C   UNL A   1      44.836  23.638  27.494  1.00  0.00     0.031 C 
ATOM     60  C   UNL A   1      47.440  28.994  28.713  1.00  0.00     0.029 A 
ATOM     61  C   UNL A   1      46.493  28.005  28.504  1.00  0.00     0.049 A 
ATOM     62  H   UNL A   1      44.395  28.112  28.700  1.00  0.00     0.167 HD
ATOM     63  C   UNL A   1      45.733  25.699  27.973  1.00  0.00     0.074 A 
ATOM     64  C   UNL A   1      45.970  24.319  27.586  1.00  0.00     0.031 C 
ATOM     65  C   UNL A   1      46.700  26.641  28.090  1.00  0.00     0.031 A 
BRANCH  52  66
ATOM     66  C   UNL A   1      44.679  32.217  29.865  1.00  0.00    -0.014 A 
ATOM     67  C   UNL A   1      44.977  32.616  31.177  1.00  0.00     0.009 A 
ATOM     68  C   UNL A   1      44.741  33.177  28.840  1.00  0.00     0.009 A 
ATOM     69  C   UNL A   1      45.294  33.949  31.458  1.00  0.00     0.001 A 
ATOM     70  C   UNL A   1      45.083  34.503  29.120  1.00  0.00     0.001 A 
ATOM     71  C   UNL A   1      45.348  34.890  30.431  1.00  0.00     0.000 A 
ENDBRANCH  52  66
BRANCH  53  72
ATOM     72  C   UNL A   1      41.981  22.892  27.456  1.00  0.00    -0.014 A 
ATOM     73  C   UNL A   1      41.737  21.908  28.421  1.00  0.00     0.009 A 
ATOM     74  C   UNL A   1      41.663  22.627  26.112  1.00  0.00     0.009 A 
ATOM     75  C   UNL A   1      41.163  20.689  28.049  1.00  0.00     0.001 A 
ATOM     76  C   UNL A   1      41.057  21.425  25.750  1.00  0.00     0.001 A 
ATOM     77  C   UNL A   1      40.807  20.456  26.720  1.00  0.00     0.000 A 
ENDBRANCH  53  72
BRANCH  65  78
ATOM     78  C   UNL A   1      48.096  26.187  27.789  1.00  0.00    -0.014 A 
ATOM     79  C   UNL A   1      48.642  26.349  26.507  1.00  0.00     0.009 A 
ATOM     80  C   UNL A   1      48.863  25.574  28.790  1.00  0.00     0.009 A 
ATOM     81  C   UNL A   1      49.921  25.870  26.222  1.00  0.00     0.001 A 
ATOM     82  C   UNL A   1      50.150  25.116  28.508  1.00  0.00     0.001 A 
ATOM     83  C   UNL A   1      50.674  25.255  27.223  1.00  0.00     0.000 A 
ENDBRANCH  65  78
ENDBRANCH  39  40
ENDBRANCH  32  34
ENDBRANCH  31  32
ENDBRANCH  30  31
ENDBRANCH   1  30
TORSDOF 16
ENDMDL
MODEL 3
REMARK VINA RESULT:     -11.3      3.965      7.165
REMARK SMILES O=C(C[C@@H](C(=O)OCCOC(=O)c1ccc(-c2c3nc(c(-c4ccccc4)c4ccc([nH]4)c(-c4ccccc4)c4nc(c(-c5ccccc5)c5ccc2[nH]5)C=C4)C=C3)cc1)[NH+]1CCN(c2cccc(Cl)c2)CC1)c1ccc(F)cc1
REMARK SMILES IDX 8 1 7 2 5 3 6 4 4 5 3 6 2 7 1 8 74 9 75 10 80 11 76 12 79 13
REMARK SMILES IDX 77 14 78 15 61 16 62 17 73 18 63 20 72 21 64 22 65 23 66 24
REMARK SMILES IDX 71 25 67 26 69 27 68 28 70 29 9 30 10 31 11 32 12 33 13 34
REMARK SMILES IDX 14 35 60 36 15 37 59 38 16 39 17 40 18 41 53 42 19 43 58 44
REMARK SMILES IDX 52 45 54 46 20 47 57 48 51 49 50 50 21 52 43 53 28 54 42 55
REMARK SMILES IDX 29 56 32 57 41 58 55 59 30 60 31 61 40 63 56 64 33 65 22 66
REMARK SMILES IDX 23 67 27 68 24 69 26 70 25 71 44 72 45 73 49 74 46 75 48 76
REMARK SMILES IDX 47 77 34 78 35 79 39 80 36 81 38 82 37 83
REMARK H PARENT 61 19 54 51 32 62
REMARK Flexibility Score: inf
ROOT
ATOM      1  C   UNL A   1      35.570  21.411  25.281  1.00  0.00     0.274 C 
ENDROOT
BRANCH   1   2
ATOM      2  O   UNL A   1      34.971  21.823  24.024  1.00  0.00    -0.458 OA
BRANCH   2   3
ATOM      3  C   UNL A   1      33.598  21.854  23.978  1.00  0.00     0.365 C 
ATOM      4  O   UNL A   1      32.906  20.845  23.996  1.00  0.00    -0.245 OA
BRANCH   3   5
ATOM      5  C   UNL A   1      33.035  23.322  24.024  1.00  0.00     0.303 C 
BRANCH   5   6
ATOM      6  C   UNL A   1      33.894  24.365  23.298  1.00  0.00     0.158 C 
BRANCH   6   7
ATOM      7  C   UNL A   1      33.198  24.920  22.079  1.00  0.00     0.169 C 
ATOM      8  O   UNL A   1      33.278  24.390  20.977  1.00  0.00    -0.294 OA
BRANCH   7   9
ATOM      9  C   UNL A   1      32.511  26.219  22.227  1.00  0.00     0.018 A 
ATOM     10  C   UNL A   1      33.298  27.356  22.440  1.00  0.00     0.015 A 
ATOM     11  C   UNL A   1      31.115  26.294  22.272  1.00  0.00     0.015 A 
ATOM     12  C   UNL A   1      32.684  28.563  22.768  1.00  0.00     0.040 A 
ATOM     13  C   UNL A   1      30.506  27.509  22.578  1.00  0.00     0.040 A 
ATOM     14  C   UNL A   1      31.296  28.625  22.841  1.00  0.00     0.123 A 
ATOM     15  F   UNL A   1      30.707  29.778  23.185  1.00  0.00    -0.207 F 
ENDBRANCH   7   9
ENDBRANCH   6   7
ENDBRANCH   5   6
BRANCH   5  16
ATOM     16  N   UNL A   1      32.547  23.708  25.389  1.00  0.00    -0.320 N 
ATOM     17  C   UNL A   1      33.509  24.447  26.193  1.00  0.00     0.284 C 
ATOM     18  C   UNL A   1      31.259  24.422  25.495  1.00  0.00     0.284 C 
ATOM     19  H   UNL A   1      32.403  22.768  25.757  1.00  0.00     0.348 HD
ATOM     20  C   UNL A   1      33.743  25.869  25.705  1.00  0.00     0.178 C 
ATOM     21  C   UNL A   1      31.225  25.974  25.824  1.00  0.00     0.178 C 
ATOM     22  N   UNL A   1      32.529  26.663  25.858  1.00  0.00    -0.360 N 
BRANCH  22  23
ATOM     23  C   UNL A   1      32.797  27.878  26.488  1.00  0.00     0.038 A 
ATOM     24  C   UNL A   1      31.778  28.856  26.541  1.00  0.00     0.026 A 
ATOM     25  C   UNL A   1      34.080  28.265  26.880  1.00  0.00     0.046 A 
ATOM     26  C   UNL A   1      32.039  30.184  26.876  1.00  0.00     0.004 A 
ATOM     27  C   UNL A   1      34.341  29.598  27.224  1.00  0.00     0.043 A 
ATOM     28  C   UNL A   1      33.334  30.561  27.201  1.00  0.00     0.020 A 
ATOM     29  Cl  UNL A   1      35.940  30.091  27.630  1.00  0.00    -0.084 Cl
ENDBRANCH  22  23
ENDBRANCH   5  16
ENDBRANCH   3   5
ENDBRANCH   2   3
ENDBRANCH   1   2
BRANCH   1  30
ATOM     30  C   UNL A   1      36.908  20.696  25.015  1.00  0.00     0.275 C 
BRANCH  30  31
ATOM     31  O   UNL A   1      38.003  21.635  24.951  1.00  0.00    -0.458 OA
BRANCH  31  32
ATOM     32  C   UNL A   1      39.037  21.418  25.802  1.00  0.00     0.338 C 
ATOM     33  O   UNL A   1      39.499  20.348  26.130  1.00  0.00    -0.246 OA
BRANCH  32  34
ATOM     34  C   UNL A   1      39.321  22.693  26.494  1.00  0.00     0.060 A 
ATOM     35  C   UNL A   1      40.436  22.707  27.327  1.00  0.00     0.016 A 
ATOM     36  C   UNL A   1      38.531  23.839  26.362  1.00  0.00     0.016 A 
ATOM     37  C   UNL A   1      40.737  23.843  28.073  1.00  0.00     0.010 A 
ATOM     38  C   UNL A   1      38.933  25.032  26.992  1.00  0.00     0.010 A 
ATOM     39  C   UNL A   1      40.073  25.054  27.813  1.00  0.00    -0.014 A 
BRANCH  39  40
ATOM     40  C   UNL A   1      40.781  26.322  28.158  1.00  0.00     0.031 A 
ATOM     41  C   UNL A   1      40.213  27.387  29.047  1.00  0.00     0.074 A 
ATOM     42  C   UNL A   1      42.007  26.499  27.620  1.00  0.00     0.049 A 
ATOM     43  N   UNL A   1      40.659  28.599  29.267  1.00  0.00    -0.248 NA
ATOM     44  C   UNL A   1      38.986  27.059  29.775  1.00  0.00     0.031 C 
ATOM     45  C   UNL A   1      42.688  25.539  26.745  1.00  0.00     0.029 A 
ATOM     46  N   UNL A   1      42.915  27.518  27.748  1.00  0.00    -0.354 N 
ATOM     47  C   UNL A   1      39.728  29.206  30.103  1.00  0.00     0.074 A 
ATOM     48  C   UNL A   1      38.710  28.212  30.376  1.00  0.00     0.031 C 
ATOM     49  C   UNL A   1      43.933  25.956  26.507  1.00  0.00     0.029 A 
ATOM     50  C   UNL A   1      44.084  27.287  27.065  1.00  0.00     0.049 A 
ATOM     51  H   UNL A   1      42.747  28.331  28.276  1.00  0.00     0.167 HD
ATOM     52  C   UNL A   1      39.721  30.481  30.569  1.00  0.00     0.031 A 
ATOM     53  C   UNL A   1      45.144  28.077  26.829  1.00  0.00     0.031 A 
ATOM     54  C   UNL A   1      40.767  31.443  30.308  1.00  0.00     0.049 A 
ATOM     55  C   UNL A   1      45.114  29.475  27.341  1.00  0.00     0.074 A 
ATOM     56  C   UNL A   1      40.863  32.758  30.732  1.00  0.00     0.029 A 
ATOM     57  N   UNL A   1      41.910  31.184  29.564  1.00  0.00    -0.354 N 
ATOM     58  N   UNL A   1      44.182  30.066  28.048  1.00  0.00    -0.248 NA
ATOM     59  C   UNL A   1      46.255  30.326  26.994  1.00  0.00     0.031 C 
ATOM     60  C   UNL A   1      42.044  33.303  30.213  1.00  0.00     0.029 A 
ATOM     61  C   UNL A   1      42.708  32.315  29.505  1.00  0.00     0.049 A 
ATOM     62  H   UNL A   1      42.124  30.321  29.140  1.00  0.00     0.167 HD
ATOM     63  C   UNL A   1      44.610  31.371  28.213  1.00  0.00     0.074 A 
ATOM     64  C   UNL A   1      45.906  31.471  27.565  1.00  0.00     0.031 C 
ATOM     65  C   UNL A   1      43.978  32.399  28.828  1.00  0.00     0.031 A 
BRANCH  52  66
ATOM     66  C   UNL A   1      38.516  30.937  31.351  1.00  0.00    -0.014 A 
ATOM     67  C   UNL A   1      37.366  31.442  30.725  1.00  0.00     0.009 A 
ATOM     68  C   UNL A   1      38.520  30.816  32.752  1.00  0.00     0.009 A 
ATOM     69  C   UNL A   1      36.265  31.849  31.486  1.00  0.00     0.001 A 
ATOM     70  C   UNL A   1      37.409  31.199  33.507  1.00  0.00     0.001 A 
ATOM     71  C   UNL A   1      36.286  31.726  32.874  1.00  0.00     0.000 A 
ENDBRANCH  52  66
BRANCH  53  72
ATOM     72  C   UNL A   1      46.248  27.552  25.986  1.00  0.00    -0.014 A 
ATOM     73  C   UNL A   1      46.280  27.814  24.611  1.00  0.00     0.009 A 
ATOM     74  C   UNL A   1      47.346  26.910  26.586  1.00  0.00     0.009 A 
ATOM     75  C   UNL A   1      47.402  27.460  23.856  1.00  0.00     0.001 A 
ATOM     76  C   UNL A   1      48.478  26.592  25.838  1.00  0.00     0.001 A 
ATOM     77  C   UNL A   1      48.505  26.866  24.472  1.00  0.00     0.000 A 
ENDBRANCH  53  72
BRANCH  65  78
ATOM     78  C   UNL A   1      44.697  33.713  28.814  1.00  0.00    -0.014 A 
ATOM     79  C   UNL A   1      45.601  34.047  29.835  1.00  0.00     0.009 A 
ATOM     80  C   UNL A   1      44.456  34.632  27.783  1.00  0.00     0.009 A 
ATOM     81  C   UNL A   1      46.221  35.297  29.843  1.00  0.00     0.001 A 
ATOM     82  C   UNL A   1      45.095  35.871  27.782  1.00  0.00     0.001 A 
ATOM     83  C   UNL A   1      45.968  36.207  28.816  1.00  0.00     0.000 A 
ENDBRANCH  65  78
ENDBRANCH  39  40
ENDBRANCH  32  34
ENDBRANCH  31  32
ENDBRANCH  30  31
ENDBRANCH   1  30
TORSDOF 16
ENDMDL
