MODEL 1
REMARK VINA RESULT:     -11.2      0.000      0.000
REMARK SMILES Cc1cc(C)c2c(O[C@@H](C)C(=O)OCCOC(=O)c3ccc(-c4c5nc(c(-c6ccccc6)c6ccc([nH]6)c(-c6ccccc6)c6nc(c(-c7ccccc7)c7ccc4[nH]7)C=C6)C=C5)cc3)nsc2n1
REMARK SMILES IDX 14 1 13 2 11 3 12 4 9 5 10 6 8 7 7 8 1 9 2 10 3 11 70 12
REMARK SMILES IDX 4 13 69 14 5 15 6 16 68 17 67 18 15 19 16 20 17 21 18 22
REMARK SMILES IDX 19 23 20 24 66 25 21 26 65 27 22 28 23 29 24 30 59 31 25 32
REMARK SMILES IDX 64 33 58 34 60 35 26 36 63 37 57 38 56 39 27 41 49 42 34 43
REMARK SMILES IDX 48 44 35 45 38 46 47 47 61 48 36 49 37 50 46 52 62 53 39 54
REMARK SMILES IDX 28 55 29 56 33 57 30 58 32 59 31 60 50 61 51 62 55 63 52 64
REMARK SMILES IDX 54 65 53 66 40 67 41 68 45 69 42 70 44 71 43 72
REMARK H PARENT 60 40 38 51
REMARK Flexibility Score: inf
ROOT
ATOM      1  C   UNL A   1      36.460  22.034  25.100  1.00  0.00     0.274 C 
ENDROOT
BRANCH   1   2
ATOM      2  O   UNL A   1      35.202  21.566  24.573  1.00  0.00    -0.459 OA
BRANCH   2   3
ATOM      3  C   UNL A   1      34.159  22.413  24.417  1.00  0.00     0.347 C 
ATOM      4  O   UNL A   1      33.094  22.097  23.897  1.00  0.00    -0.248 OA
BRANCH   3   5
ATOM      5  C   UNL A   1      34.447  23.829  25.004  1.00  0.00     0.281 C 
ATOM      6  C   UNL A   1      33.524  24.134  26.191  1.00  0.00     0.066 C 
BRANCH   5   7
ATOM      7  O   UNL A   1      34.585  25.085  24.389  1.00  0.00    -0.462 OA
BRANCH   7   8
ATOM      8  C   UNL A   1      33.651  25.556  23.540  1.00  0.00     0.236 A 
ATOM      9  C   UNL A   1      29.037  28.759  22.812  1.00  0.00     0.067 C 
ATOM     10  C   UNL A   1      30.288  27.997  23.125  1.00  0.00     0.039 A 
ATOM     11  C   UNL A   1      30.851  28.085  24.387  1.00  0.00     0.027 A 
ATOM     12  N   UNL A   1      30.830  27.296  22.120  1.00  0.00    -0.240 NA
ATOM     13  C   UNL A   1      32.044  27.402  24.704  1.00  0.00    -0.034 A 
ATOM     14  C   UNL A   1      31.937  26.606  22.450  1.00  0.00     0.147 A 
ATOM     15  C   UNL A   1      32.522  27.596  26.121  1.00  0.00     0.045 C 
ATOM     16  C   UNL A   1      32.592  26.551  23.687  1.00  0.00     0.078 A 
ATOM     17  S   UNL A   1      32.737  25.653  21.294  1.00  0.00    -0.012 S 
ATOM     18  N   UNL A   1      33.887  25.080  22.318  1.00  0.00    -0.153 NA
ENDBRANCH   7   8
ENDBRANCH   5   7
ENDBRANCH   3   5
ENDBRANCH   2   3
ENDBRANCH   1   2
BRANCH   1  19
ATOM     19  C   UNL A   1      37.494  20.931  24.944  1.00  0.00     0.275 C 
BRANCH  19  20
ATOM     20  O   UNL A   1      38.654  21.326  25.665  1.00  0.00    -0.458 OA
BRANCH  20  21
ATOM     21  C   UNL A   1      39.632  20.395  25.728  1.00  0.00     0.338 C 
ATOM     22  O   UNL A   1      39.580  19.229  25.390  1.00  0.00    -0.246 OA
BRANCH  21  23
ATOM     23  C   UNL A   1      40.809  20.996  26.352  1.00  0.00     0.060 A 
ATOM     24  C   UNL A   1      40.926  20.883  27.743  1.00  0.00     0.016 A 
ATOM     25  C   UNL A   1      41.534  21.924  25.604  1.00  0.00     0.016 A 
ATOM     26  C   UNL A   1      41.577  21.887  28.422  1.00  0.00     0.010 A 
ATOM     27  C   UNL A   1      42.110  22.958  26.281  1.00  0.00     0.010 A 
ATOM     28  C   UNL A   1      42.046  22.966  27.675  1.00  0.00    -0.014 A 
BRANCH  28  29
ATOM     29  C   UNL A   1      42.319  24.216  28.344  1.00  0.00     0.031 A 
ATOM     30  C   UNL A   1      41.315  25.277  28.141  1.00  0.00     0.074 A 
ATOM     31  C   UNL A   1      43.276  24.257  29.291  1.00  0.00     0.049 A 
ATOM     32  N   UNL A   1      41.471  26.428  27.575  1.00  0.00    -0.248 NA
ATOM     33  C   UNL A   1      39.922  24.958  28.495  1.00  0.00     0.031 C 
ATOM     34  C   UNL A   1      44.042  23.134  29.847  1.00  0.00     0.029 A 
ATOM     35  N   UNL A   1      43.637  25.299  30.077  1.00  0.00    -0.354 N 
ATOM     36  C   UNL A   1      40.217  27.025  27.626  1.00  0.00     0.074 A 
ATOM     37  C   UNL A   1      39.278  25.993  27.971  1.00  0.00     0.031 C 
ATOM     38  C   UNL A   1      44.585  23.516  31.026  1.00  0.00     0.029 A 
ATOM     39  C   UNL A   1      44.297  24.925  31.236  1.00  0.00     0.049 A 
ATOM     40  H   UNL A   1      43.450  26.238  29.844  1.00  0.00     0.167 HD
ATOM     41  C   UNL A   1      40.038  28.371  27.653  1.00  0.00     0.031 A 
ATOM     42  C   UNL A   1      44.469  25.707  32.329  1.00  0.00     0.031 A 
ATOM     43  C   UNL A   1      41.234  29.088  27.316  1.00  0.00     0.049 A 
ATOM     44  C   UNL A   1      44.197  27.110  31.922  1.00  0.00     0.074 A 
ATOM     45  C   UNL A   1      42.026  29.175  26.190  1.00  0.00     0.029 A 
ATOM     46  N   UNL A   1      41.997  29.553  28.361  1.00  0.00    -0.354 N 
ATOM     47  N   UNL A   1      44.934  27.784  31.086  1.00  0.00    -0.248 NA
ATOM     48  C   UNL A   1      42.855  27.637  32.123  1.00  0.00     0.031 C 
ATOM     49  C   UNL A   1      43.361  29.277  26.680  1.00  0.00     0.029 A 
ATOM     50  C   UNL A   1      43.311  29.276  28.076  1.00  0.00     0.049 A 
ATOM     51  H   UNL A   1      41.661  30.005  29.168  1.00  0.00     0.167 HD
ATOM     52  C   UNL A   1      44.041  28.557  30.356  1.00  0.00     0.074 A 
ATOM     53  C   UNL A   1      42.798  28.518  31.119  1.00  0.00     0.031 C 
ATOM     54  C   UNL A   1      44.308  28.916  29.065  1.00  0.00     0.031 A 
BRANCH  41  55
ATOM     55  C   UNL A   1      38.855  29.015  28.320  1.00  0.00    -0.014 A 
ATOM     56  C   UNL A   1      38.659  28.838  29.696  1.00  0.00     0.009 A 
ATOM     57  C   UNL A   1      37.809  29.637  27.605  1.00  0.00     0.009 A 
ATOM     58  C   UNL A   1      37.481  29.270  30.319  1.00  0.00     0.001 A 
ATOM     59  C   UNL A   1      36.660  30.120  28.230  1.00  0.00     0.001 A 
ATOM     60  C   UNL A   1      36.489  29.920  29.589  1.00  0.00     0.000 A 
ENDBRANCH  41  55
BRANCH  42  61
ATOM     61  C   UNL A   1      44.499  25.287  33.748  1.00  0.00    -0.014 A 
ATOM     62  C   UNL A   1      43.344  24.782  34.363  1.00  0.00     0.009 A 
ATOM     63  C   UNL A   1      45.721  25.136  34.431  1.00  0.00     0.009 A 
ATOM     64  C   UNL A   1      43.417  24.112  35.592  1.00  0.00     0.001 A 
ATOM     65  C   UNL A   1      45.793  24.478  35.662  1.00  0.00     0.001 A 
ATOM     66  C   UNL A   1      44.642  23.949  36.234  1.00  0.00     0.000 A 
ENDBRANCH  42  61
BRANCH  54  67
ATOM     67  C   UNL A   1      45.698  28.636  28.537  1.00  0.00    -0.014 A 
ATOM     68  C   UNL A   1      46.072  27.382  28.018  1.00  0.00     0.009 A 
ATOM     69  C   UNL A   1      46.597  29.703  28.399  1.00  0.00     0.009 A 
ATOM     70  C   UNL A   1      47.315  27.197  27.404  1.00  0.00     0.001 A 
ATOM     71  C   UNL A   1      47.830  29.523  27.765  1.00  0.00     0.001 A 
ATOM     72  C   UNL A   1      48.190  28.271  27.270  1.00  0.00     0.000 A 
ENDBRANCH  54  67
ENDBRANCH  28  29
ENDBRANCH  21  23
ENDBRANCH  20  21
ENDBRANCH  19  20
ENDBRANCH   1  19
TORSDOF 13
ENDMDL
MODEL 2
REMARK VINA RESULT:     -11.0      1.978      3.105
REMARK SMILES Cc1cc(C)c2c(O[C@@H](C)C(=O)OCCOC(=O)c3ccc(-c4c5nc(c(-c6ccccc6)c6ccc([nH]6)c(-c6ccccc6)c6nc(c(-c7ccccc7)c7ccc4[nH]7)C=C6)C=C5)cc3)nsc2n1
REMARK SMILES IDX 14 1 13 2 11 3 12 4 9 5 10 6 8 7 7 8 1 9 2 10 3 11 70 12
REMARK SMILES IDX 4 13 69 14 5 15 6 16 68 17 67 18 15 19 16 20 17 21 18 22
REMARK SMILES IDX 19 23 20 24 66 25 21 26 65 27 22 28 23 29 24 30 59 31 25 32
REMARK SMILES IDX 64 33 58 34 60 35 26 36 63 37 57 38 56 39 27 41 49 42 34 43
REMARK SMILES IDX 48 44 35 45 38 46 47 47 61 48 36 49 37 50 46 52 62 53 39 54
REMARK SMILES IDX 28 55 29 56 33 57 30 58 32 59 31 60 50 61 51 62 55 63 52 64
REMARK SMILES IDX 54 65 53 66 40 67 41 68 45 69 42 70 44 71 43 72
REMARK H PARENT 60 40 38 51
REMARK Flexibility Score: inf
ROOT
ATOM      1  C   UNL A   1      36.968  21.125  24.563  1.00  0.00     0.274 C 
ENDROOT
BRANCH   1   2
ATOM      2  O   UNL A   1      36.725  22.544  24.633  1.00  0.00    -0.459 OA
BRANCH   2   3
ATOM      3  C   UNL A   1      36.141  23.198  23.602  1.00  0.00     0.347 C 
ATOM      4  O   UNL A   1      36.530  23.128  22.442  1.00  0.00    -0.248 OA
BRANCH   3   5
ATOM      5  C   UNL A   1      34.896  24.024  24.049  1.00  0.00     0.281 C 
ATOM      6  C   UNL A   1      35.103  24.626  25.446  1.00  0.00     0.066 C 
BRANCH   5   7
ATOM      7  O   UNL A   1      33.524  23.723  24.044  1.00  0.00    -0.462 OA
BRANCH   7   8
ATOM      8  C   UNL A   1      33.078  22.492  23.729  1.00  0.00     0.236 A 
ATOM      9  C   UNL A   1      32.576  17.059  25.250  1.00  0.00     0.067 C 
ATOM     10  C   UNL A   1      32.721  18.528  24.994  1.00  0.00     0.039 A 
ATOM     11  C   UNL A   1      33.245  19.350  25.977  1.00  0.00     0.027 A 
ATOM     12  N   UNL A   1      32.274  18.978  23.814  1.00  0.00    -0.240 NA
ATOM     13  C   UNL A   1      33.366  20.742  25.778  1.00  0.00    -0.034 A 
ATOM     14  C   UNL A   1      32.446  20.297  23.614  1.00  0.00     0.147 A 
ATOM     15  C   UNL A   1      33.961  21.494  26.941  1.00  0.00     0.045 C 
ATOM     16  C   UNL A   1      33.004  21.244  24.483  1.00  0.00     0.078 A 
ATOM     17  S   UNL A   1      31.948  21.023  22.161  1.00  0.00    -0.012 S 
ATOM     18  N   UNL A   1      32.480  22.531  22.539  1.00  0.00    -0.153 NA
ENDBRANCH   7   8
ENDBRANCH   5   7
ENDBRANCH   3   5
ENDBRANCH   2   3
ENDBRANCH   1   2
BRANCH   1  19
ATOM     19  C   UNL A   1      37.748  20.703  25.798  1.00  0.00     0.275 C 
BRANCH  19  20
ATOM     20  O   UNL A   1      39.059  21.240  25.681  1.00  0.00    -0.458 OA
BRANCH  20  21
ATOM     21  C   UNL A   1      40.059  20.345  25.845  1.00  0.00     0.338 C 
ATOM     22  O   UNL A   1      40.056  19.160  25.579  1.00  0.00    -0.246 OA
BRANCH  21  23
ATOM     23  C   UNL A   1      41.188  21.020  26.481  1.00  0.00     0.060 A 
ATOM     24  C   UNL A   1      41.288  20.930  27.875  1.00  0.00     0.016 A 
ATOM     25  C   UNL A   1      41.872  21.980  25.734  1.00  0.00     0.016 A 
ATOM     26  C   UNL A   1      41.868  21.977  28.552  1.00  0.00     0.010 A 
ATOM     27  C   UNL A   1      42.376  23.053  26.407  1.00  0.00     0.010 A 
ATOM     28  C   UNL A   1      42.288  23.072  27.800  1.00  0.00    -0.014 A 
BRANCH  28  29
ATOM     29  C   UNL A   1      42.478  24.344  28.458  1.00  0.00     0.031 A 
ATOM     30  C   UNL A   1      41.443  25.360  28.187  1.00  0.00     0.074 A 
ATOM     31  C   UNL A   1      43.384  24.440  29.449  1.00  0.00     0.049 A 
ATOM     32  N   UNL A   1      41.579  26.506  27.607  1.00  0.00    -0.248 NA
ATOM     33  C   UNL A   1      40.048  24.989  28.478  1.00  0.00     0.031 C 
ATOM     34  C   UNL A   1      44.167  23.359  30.062  1.00  0.00     0.029 A 
ATOM     35  N   UNL A   1      43.664  25.509  30.231  1.00  0.00    -0.354 N 
ATOM     36  C   UNL A   1      40.301  27.052  27.587  1.00  0.00     0.074 A 
ATOM     37  C   UNL A   1      39.389  25.988  27.904  1.00  0.00     0.031 C 
ATOM     38  C   UNL A   1      44.635  23.782  31.258  1.00  0.00     0.029 A 
ATOM     39  C   UNL A   1      44.281  25.182  31.428  1.00  0.00     0.049 A 
ATOM     40  H   UNL A   1      43.451  26.435  29.973  1.00  0.00     0.167 HD
ATOM     41  C   UNL A   1      40.067  28.389  27.579  1.00  0.00     0.031 A 
ATOM     42  C   UNL A   1      44.368  25.989  32.513  1.00  0.00     0.031 A 
ATOM     43  C   UNL A   1      41.249  29.149  27.287  1.00  0.00     0.049 A 
ATOM     44  C   UNL A   1      44.059  27.372  32.068  1.00  0.00     0.074 A 
ATOM     45  C   UNL A   1      42.091  29.250  26.199  1.00  0.00     0.029 A 
ATOM     46  N   UNL A   1      41.940  29.663  28.359  1.00  0.00    -0.354 N 
ATOM     47  N   UNL A   1      44.809  28.061  31.255  1.00  0.00    -0.248 NA
ATOM     48  C   UNL A   1      42.689  27.847  32.193  1.00  0.00     0.031 C 
ATOM     49  C   UNL A   1      43.395  29.415  26.751  1.00  0.00     0.029 A 
ATOM     50  C   UNL A   1      43.277  29.435  28.143  1.00  0.00     0.049 A 
ATOM     51  H   UNL A   1      41.547  30.114  29.141  1.00  0.00     0.167 HD
ATOM     52  C   UNL A   1      43.922  28.785  30.468  1.00  0.00     0.074 A 
ATOM     53  C   UNL A   1      42.646  28.708  31.172  1.00  0.00     0.031 C 
ATOM     54  C   UNL A   1      44.238  29.133  29.185  1.00  0.00     0.031 A 
BRANCH  41  55
ATOM     55  C   UNL A   1      38.828  28.996  28.177  1.00  0.00    -0.014 A 
ATOM     56  C   UNL A   1      38.545  28.790  29.533  1.00  0.00     0.009 A 
ATOM     57  C   UNL A   1      37.818  29.608  27.403  1.00  0.00     0.009 A 
ATOM     58  C   UNL A   1      37.319  29.184  30.082  1.00  0.00     0.001 A 
ATOM     59  C   UNL A   1      36.619  30.054  27.958  1.00  0.00     0.001 A 
ATOM     60  C   UNL A   1      36.363  29.826  29.299  1.00  0.00     0.000 A 
ENDBRANCH  41  55
BRANCH  42  61
ATOM     61  C   UNL A   1      44.345  25.594  33.939  1.00  0.00    -0.014 A 
ATOM     62  C   UNL A   1      43.224  24.946  34.478  1.00  0.00     0.009 A 
ATOM     63  C   UNL A   1      45.521  25.617  34.714  1.00  0.00     0.009 A 
ATOM     64  C   UNL A   1      43.291  24.307  35.724  1.00  0.00     0.001 A 
ATOM     65  C   UNL A   1      45.585  24.990  35.962  1.00  0.00     0.001 A 
ATOM     66  C   UNL A   1      44.474  24.319  36.459  1.00  0.00     0.000 A 
ENDBRANCH  42  61
BRANCH  54  67
ATOM     67  C   UNL A   1      45.662  28.901  28.731  1.00  0.00    -0.014 A 
ATOM     68  C   UNL A   1      46.663  29.884  28.847  1.00  0.00     0.009 A 
ATOM     69  C   UNL A   1      46.045  27.611  28.338  1.00  0.00     0.009 A 
ATOM     70  C   UNL A   1      47.999  29.591  28.557  1.00  0.00     0.001 A 
ATOM     71  C   UNL A   1      47.384  27.312  28.069  1.00  0.00     0.001 A 
ATOM     72  C   UNL A   1      48.361  28.302  28.176  1.00  0.00     0.000 A 
ENDBRANCH  54  67
ENDBRANCH  28  29
ENDBRANCH  21  23
ENDBRANCH  20  21
ENDBRANCH  19  20
ENDBRANCH   1  19
TORSDOF 13
ENDMDL
MODEL 3
REMARK VINA RESULT:     -10.8      3.977      8.709
REMARK SMILES Cc1cc(C)c2c(O[C@@H](C)C(=O)OCCOC(=O)c3ccc(-c4c5nc(c(-c6ccccc6)c6ccc([nH]6)c(-c6ccccc6)c6nc(c(-c7ccccc7)c7ccc4[nH]7)C=C6)C=C5)cc3)nsc2n1
REMARK SMILES IDX 14 1 13 2 11 3 12 4 9 5 10 6 8 7 7 8 1 9 2 10 3 11 70 12
REMARK SMILES IDX 4 13 69 14 5 15 6 16 68 17 67 18 15 19 16 20 17 21 18 22
REMARK SMILES IDX 19 23 20 24 66 25 21 26 65 27 22 28 23 29 24 30 59 31 25 32
REMARK SMILES IDX 64 33 58 34 60 35 26 36 63 37 57 38 56 39 27 41 49 42 34 43
REMARK SMILES IDX 48 44 35 45 38 46 47 47 61 48 36 49 37 50 46 52 62 53 39 54
REMARK SMILES IDX 28 55 29 56 33 57 30 58 32 59 31 60 50 61 51 62 55 63 52 64
REMARK SMILES IDX 54 65 53 66 40 67 41 68 45 69 42 70 44 71 43 72
REMARK H PARENT 60 40 38 51
REMARK Flexibility Score: inf
ROOT
ATOM      1  C   UNL A   1      32.447  29.840  25.808  1.00  0.00     0.274 C 
ENDROOT
BRANCH   1   2
ATOM      2  O   UNL A   1      31.332  29.012  25.423  1.00  0.00    -0.459 OA
BRANCH   2   3
ATOM      3  C   UNL A   1      31.531  27.827  24.800  1.00  0.00     0.347 C 
ATOM      4  O   UNL A   1      30.765  27.358  23.965  1.00  0.00    -0.248 OA
BRANCH   3   5
ATOM      5  C   UNL A   1      32.862  27.140  25.236  1.00  0.00     0.281 C 
ATOM      6  C   UNL A   1      33.687  26.710  24.016  1.00  0.00     0.066 C 
BRANCH   5   7
ATOM      7  O   UNL A   1      33.125  26.119  26.163  1.00  0.00    -0.462 OA
BRANCH   7   8
ATOM      8  C   UNL A   1      32.524  24.917  26.071  1.00  0.00     0.236 A 
ATOM      9  C   UNL A   1      32.766  19.586  24.175  1.00  0.00     0.067 C 
ATOM     10  C   UNL A   1      32.852  20.996  24.671  1.00  0.00     0.039 A 
ATOM     11  C   UNL A   1      34.017  21.722  24.484  1.00  0.00     0.027 A 
ATOM     12  N   UNL A   1      31.785  21.467  25.329  1.00  0.00    -0.240 NA
ATOM     13  C   UNL A   1      34.139  23.043  24.965  1.00  0.00    -0.034 A 
ATOM     14  C   UNL A   1      31.893  22.745  25.735  1.00  0.00     0.147 A 
ATOM     15  C   UNL A   1      35.466  23.697  24.675  1.00  0.00     0.045 C 
ATOM     16  C   UNL A   1      32.975  23.620  25.576  1.00  0.00     0.078 A 
ATOM     17  S   UNL A   1      30.619  23.497  26.570  1.00  0.00    -0.012 S 
ATOM     18  N   UNL A   1      31.348  24.964  26.696  1.00  0.00    -0.153 NA
ENDBRANCH   7   8
ENDBRANCH   5   7
ENDBRANCH   3   5
ENDBRANCH   2   3
ENDBRANCH   1   2
BRANCH   1  19
ATOM     19  C   UNL A   1      31.944  30.938  26.731  1.00  0.00     0.275 C 
BRANCH  19  20
ATOM     20  O   UNL A   1      33.078  31.524  27.357  1.00  0.00    -0.458 OA
BRANCH  20  21
ATOM     21  C   UNL A   1      32.927  32.819  27.713  1.00  0.00     0.338 C 
ATOM     22  O   UNL A   1      32.026  33.579  27.415  1.00  0.00    -0.246 OA
BRANCH  21  23
ATOM     23  C   UNL A   1      34.090  33.226  28.497  1.00  0.00     0.060 A 
ATOM     24  C   UNL A   1      35.137  33.858  27.813  1.00  0.00     0.016 A 
ATOM     25  C   UNL A   1      34.247  32.661  29.764  1.00  0.00     0.016 A 
ATOM     26  C   UNL A   1      36.416  33.689  28.287  1.00  0.00     0.010 A 
ATOM     27  C   UNL A   1      35.520  32.426  30.190  1.00  0.00     0.010 A 
ATOM     28  C   UNL A   1      36.584  32.869  29.402  1.00  0.00    -0.014 A 
BRANCH  28  29
ATOM     29  C   UNL A   1      37.885  32.301  29.665  1.00  0.00     0.031 A 
ATOM     30  C   UNL A   1      38.048  30.884  29.289  1.00  0.00     0.074 A 
ATOM     31  C   UNL A   1      38.910  33.122  29.964  1.00  0.00     0.049 A 
ATOM     32  N   UNL A   1      38.299  29.876  30.056  1.00  0.00    -0.248 NA
ATOM     33  C   UNL A   1      37.757  30.525  27.890  1.00  0.00     0.031 C 
ATOM     34  C   UNL A   1      38.921  34.591  29.952  1.00  0.00     0.029 A 
ATOM     35  N   UNL A   1      40.209  32.803  30.176  1.00  0.00    -0.354 N 
ATOM     36  C   UNL A   1      38.329  28.777  29.206  1.00  0.00     0.074 A 
ATOM     37  C   UNL A   1      37.755  29.200  27.958  1.00  0.00     0.031 C 
ATOM     38  C   UNL A   1      40.204  35.018  29.905  1.00  0.00     0.029 A 
ATOM     39  C   UNL A   1      41.083  33.864  30.001  1.00  0.00     0.049 A 
ATOM     40  H   UNL A   1      40.506  31.899  30.432  1.00  0.00     0.167 HD
ATOM     41  C   UNL A   1      39.059  27.662  29.462  1.00  0.00     0.031 A 
ATOM     42  C   UNL A   1      42.421  33.757  29.823  1.00  0.00     0.031 A 
ATOM     43  C   UNL A   1      39.532  27.618  30.816  1.00  0.00     0.049 A 
ATOM     44  C   UNL A   1      42.821  32.389  30.243  1.00  0.00     0.074 A 
ATOM     45  C   UNL A   1      38.925  27.554  32.053  1.00  0.00     0.029 A 
ATOM     46  N   UNL A   1      40.819  28.047  31.040  1.00  0.00    -0.354 N 
ATOM     47  N   UNL A   1      42.754  31.953  31.469  1.00  0.00    -0.248 NA
ATOM     48  C   UNL A   1      42.903  31.352  29.225  1.00  0.00     0.031 C 
ATOM     49  C   UNL A   1      39.733  28.359  32.907  1.00  0.00     0.029 A 
ATOM     50  C   UNL A   1      40.805  28.847  32.157  1.00  0.00     0.049 A 
ATOM     51  H   UNL A   1      41.609  27.822  30.498  1.00  0.00     0.167 HD
ATOM     52  C   UNL A   1      42.375  30.622  31.361  1.00  0.00     0.074 A 
ATOM     53  C   UNL A   1      42.603  30.278  29.961  1.00  0.00     0.031 C 
ATOM     54  C   UNL A   1      41.647  30.012  32.343  1.00  0.00     0.031 A 
BRANCH  41  55
ATOM     55  C   UNL A   1      39.614  26.790  28.370  1.00  0.00    -0.014 A 
ATOM     56  C   UNL A   1      39.393  25.408  28.413  1.00  0.00     0.009 A 
ATOM     57  C   UNL A   1      40.520  27.259  27.395  1.00  0.00     0.009 A 
ATOM     58  C   UNL A   1      40.040  24.546  27.518  1.00  0.00     0.001 A 
ATOM     59  C   UNL A   1      41.122  26.411  26.465  1.00  0.00     0.001 A 
ATOM     60  C   UNL A   1      40.893  25.047  26.539  1.00  0.00     0.000 A 
ENDBRANCH  41  55
BRANCH  42  61
ATOM     61  C   UNL A   1      43.296  34.618  28.995  1.00  0.00    -0.014 A 
ATOM     62  C   UNL A   1      43.220  34.569  27.596  1.00  0.00     0.009 A 
ATOM     63  C   UNL A   1      44.026  35.675  29.573  1.00  0.00     0.009 A 
ATOM     64  C   UNL A   1      43.812  35.565  26.808  1.00  0.00     0.001 A 
ATOM     65  C   UNL A   1      44.627  36.662  28.787  1.00  0.00     0.001 A 
ATOM     66  C   UNL A   1      44.504  36.617  27.403  1.00  0.00     0.000 A 
ENDBRANCH  42  61
BRANCH  54  67
ATOM     67  C   UNL A   1      41.464  30.765  33.643  1.00  0.00    -0.014 A 
ATOM     68  C   UNL A   1      42.346  30.625  34.730  1.00  0.00     0.009 A 
ATOM     69  C   UNL A   1      40.483  31.765  33.713  1.00  0.00     0.009 A 
ATOM     70  C   UNL A   1      42.236  31.442  35.860  1.00  0.00     0.001 A 
ATOM     71  C   UNL A   1      40.387  32.596  34.832  1.00  0.00     0.001 A 
ATOM     72  C   UNL A   1      41.260  32.434  35.906  1.00  0.00     0.000 A 
ENDBRANCH  54  67
ENDBRANCH  28  29
ENDBRANCH  21  23
ENDBRANCH  20  21
ENDBRANCH  19  20
ENDBRANCH   1  19
TORSDOF 13
ENDMDL
