MODEL 1
REMARK VINA RESULT:     -10.9      0.000      0.000
REMARK SMILES O=C(OCCOC(=O)[C@H]1CCCCN1C(=O)c1nc(C2CC2)n[nH]1)c1ccc(-c2c3nc(c(-c4ccccc4)c4ccc([nH]4)c(-c4ccccc4)c4nc(c(-c5ccccc5)c5ccc2[nH]5)C=C4)C=C3)cc1
REMARK SMILES IDX 5 1 4 2 3 3 2 4 1 5 25 6 26 7 72 8 27 9 71 10 28 11 29 12
REMARK SMILES IDX 30 13 65 14 31 15 70 16 64 17 66 18 32 19 69 20 63 21 62 22
REMARK SMILES IDX 33 24 55 25 40 26 54 27 41 28 44 29 53 30 67 31 42 32 43 33
REMARK SMILES IDX 52 35 68 36 45 37 34 38 35 39 39 40 36 41 38 42 37 43 56 44
REMARK SMILES IDX 57 45 61 46 58 47 60 48 59 49 46 50 47 51 51 52 48 53 50 54
REMARK SMILES IDX 49 55 6 56 7 57 8 58 9 59 10 60 14 61 11 62 13 63 12 64
REMARK SMILES IDX 15 65 16 66 17 67 18 68 24 69 19 70 23 71 20 73 21 74 22 75
REMARK H PARENT 66 23 44 34 24 72
REMARK Flexibility Score: inf
ROOT
ATOM      1  C   UNL A   1      37.340  21.018  25.285  1.00  0.00     0.274 C 
ENDROOT
BRANCH   1   2
ATOM      2  C   UNL A   1      38.391  20.021  24.761  1.00  0.00     0.275 C 
BRANCH   2   3
ATOM      3  O   UNL A   1      39.138  19.455  25.831  1.00  0.00    -0.458 OA
BRANCH   3   4
ATOM      4  C   UNL A   1      40.441  19.731  25.999  1.00  0.00     0.338 C 
ATOM      5  O   UNL A   1      41.297  18.880  25.777  1.00  0.00    -0.246 OA
BRANCH   4   6
ATOM      6  C   UNL A   1      40.857  20.983  26.693  1.00  0.00     0.060 A 
ATOM      7  C   UNL A   1      41.157  21.243  28.435  1.00  0.00     0.016 A 
ATOM      8  C   UNL A   1      41.660  22.092  25.606  1.00  0.00     0.016 A 
ATOM      9  C   UNL A   1      42.438  22.634  28.920  1.00  0.00     0.010 A 
ATOM     10  C   UNL A   1      42.748  23.337  26.101  1.00  0.00     0.010 A 
ATOM     11  C   UNL A   1      43.116  23.707  27.725  1.00  0.00    -0.014 A 
BRANCH  11  12
ATOM     12  C   UNL A   1      43.355  25.121  28.234  1.00  0.00     0.031 A 
ATOM     13  C   UNL A   1      44.750  25.745  28.198  1.00  0.00     0.074 A 
ATOM     14  C   UNL A   1      42.299  25.961  28.361  1.00  0.00     0.049 A 
ATOM     15  N   UNL A   1      45.090  27.002  28.384  1.00  0.00    -0.248 NA
ATOM     16  C   UNL A   1      45.907  24.897  27.870  1.00  0.00     0.031 C 
ATOM     17  C   UNL A   1      40.890  25.572  28.251  1.00  0.00     0.029 A 
ATOM     18  N   UNL A   1      42.235  27.330  28.510  1.00  0.00    -0.354 N 
ATOM     19  C   UNL A   1      46.472  27.059  28.216  1.00  0.00     0.074 A 
ATOM     20  C   UNL A   1      46.912  25.749  27.835  1.00  0.00     0.031 C 
ATOM     21  C   UNL A   1      40.135  26.673  28.173  1.00  0.00     0.029 A 
ATOM     22  C   UNL A   1      40.951  27.825  28.499  1.00  0.00     0.049 A 
ATOM     23  H   UNL A   1      43.031  27.899  28.614  1.00  0.00     0.167 HD
ATOM     24  C   UNL A   1      47.333  28.077  28.449  1.00  0.00     0.031 A 
ATOM     25  C   UNL A   1      40.431  29.022  28.836  1.00  0.00     0.031 A 
ATOM     26  C   UNL A   1      46.926  29.341  28.984  1.00  0.00     0.049 A 
ATOM     27  C   UNL A   1      41.379  30.067  29.325  1.00  0.00     0.074 A 
ATOM     28  C   UNL A   1      47.716  30.376  29.444  1.00  0.00     0.029 A 
ATOM     29  N   UNL A   1      45.606  29.715  29.177  1.00  0.00    -0.354 N 
ATOM     30  N   UNL A   1      42.689  30.040  29.314  1.00  0.00    -0.248 NA
ATOM     31  C   UNL A   1      40.797  31.272  29.925  1.00  0.00     0.031 C 
ATOM     32  C   UNL A   1      46.873  31.334  30.013  1.00  0.00     0.029 A 
ATOM     33  C   UNL A   1      45.559  30.946  29.803  1.00  0.00     0.049 A 
ATOM     34  H   UNL A   1      44.821  29.185  28.909  1.00  0.00     0.167 HD
ATOM     35  C   UNL A   1      43.093  31.220  29.909  1.00  0.00     0.074 A 
ATOM     36  C   UNL A   1      41.889  31.952  30.253  1.00  0.00     0.031 C 
ATOM     37  C   UNL A   1      44.353  31.653  30.148  1.00  0.00     0.031 A 
BRANCH  24  38
ATOM     38  C   UNL A   1      48.801  27.744  28.359  1.00  0.00    -0.014 A 
ATOM     39  C   UNL A   1      49.533  27.238  29.445  1.00  0.00     0.009 A 
ATOM     40  C   UNL A   1      49.482  28.055  27.170  1.00  0.00     0.009 A 
ATOM     41  C   UNL A   1      50.922  27.101  29.355  1.00  0.00     0.001 A 
ATOM     42  C   UNL A   1      50.863  27.886  27.072  1.00  0.00     0.001 A 
ATOM     43  C   UNL A   1      51.585  27.427  28.170  1.00  0.00     0.000 A 
ENDBRANCH  24  38
BRANCH  25  44
ATOM     44  C   UNL A   1      38.947  29.190  28.928  1.00  0.00    -0.014 A 
ATOM     45  C   UNL A   1      38.245  28.975  30.120  1.00  0.00     0.009 A 
ATOM     46  C   UNL A   1      38.227  29.637  27.800  1.00  0.00     0.009 A 
ATOM     47  C   UNL A   1      36.869  29.233  30.187  1.00  0.00     0.001 A 
ATOM     48  C   UNL A   1      36.868  29.942  27.882  1.00  0.00     0.001 A 
ATOM     49  C   UNL A   1      36.189  29.737  29.078  1.00  0.00     0.000 A 
ENDBRANCH  25  44
BRANCH  37  50
ATOM     50  C   UNL A   1      44.509  33.005  30.767  1.00  0.00    -0.014 A 
ATOM     51  C   UNL A   1      44.485  34.174  29.996  1.00  0.00     0.009 A 
ATOM     52  C   UNL A   1      44.594  33.100  32.165  1.00  0.00     0.009 A 
ATOM     53  C   UNL A   1      44.561  35.420  30.617  1.00  0.00     0.001 A 
ATOM     54  C   UNL A   1      44.636  34.346  32.784  1.00  0.00     0.001 A 
ATOM     55  C   UNL A   1      44.626  35.504  32.009  1.00  0.00     0.000 A 
ENDBRANCH  37  50
ENDBRANCH  11  12
ENDBRANCH   4   6
ENDBRANCH   3   4
ENDBRANCH   2   3
ENDBRANCH   1   2
BRANCH   1  56
ATOM     56  O   UNL A   1      37.460  22.383  24.799  1.00  0.00    -0.461 OA
BRANCH  56  57
ATOM     57  C   UNL A   1      36.508  22.914  23.957  1.00  0.00     0.328 C 
ATOM     58  O   UNL A   1      36.633  22.964  22.742  1.00  0.00    -0.250 OA
BRANCH  57  59
ATOM     59  C   UNL A   1      35.134  23.174  24.730  1.00  0.00     0.195 C 
ATOM     60  C   UNL A   1      34.779  25.055  25.055  1.00  0.00     0.037 C 
ATOM     61  N   UNL A   1      33.888  22.314  23.988  1.00  0.00    -0.322 N 
ATOM     62  C   UNL A   1      33.549  26.061  23.521  1.00  0.00     0.005 C 
ATOM     63  C   UNL A   1      32.956  22.901  22.611  1.00  0.00     0.121 C 
ATOM     64  C   UNL A   1      32.626  24.764  22.346  1.00  0.00     0.022 C 
BRANCH  61  65
ATOM     65  C   UNL A   1      33.500  21.225  24.821  1.00  0.00     0.291 C 
ATOM     66  O   UNL A   1      33.148  21.432  25.987  1.00  0.00    -0.265 OA
BRANCH  65  67
ATOM     67  C   UNL A   1      33.406  19.878  24.336  1.00  0.00     0.214 A 
ATOM     68  N   UNL A   1      34.219  18.873  24.559  1.00  0.00    -0.207 NA
ATOM     69  N   UNL A   1      32.309  19.413  23.657  1.00  0.00    -0.255 N 
ATOM     70  C   UNL A   1      33.598  17.830  23.914  1.00  0.00     0.154 A 
ATOM     71  N   UNL A   1      32.471  18.140  23.273  1.00  0.00    -0.158 NA
ATOM     72  H   UNL A   1      31.503  19.949  23.475  1.00  0.00     0.192 HD
BRANCH  70  73
ATOM     73  C   UNL A   1      34.125  16.417  23.994  1.00  0.00     0.060 C 
ATOM     74  C   UNL A   1      34.799  16.008  25.284  1.00  0.00     0.012 C 
ATOM     75  C   UNL A   1      33.446  15.465  24.951  1.00  0.00     0.012 C 
ENDBRANCH  70  73
ENDBRANCH  65  67
ENDBRANCH  61  65
ENDBRANCH  57  59
ENDBRANCH  56  57
ENDBRANCH   1  56
TORSDOF 14
ENDMDL
MODEL 2
REMARK VINA RESULT:     -10.9      1.963      6.683
REMARK SMILES O=C(OCCOC(=O)[C@H]1CCCCN1C(=O)c1nc(C2CC2)n[nH]1)c1ccc(-c2c3nc(c(-c4ccccc4)c4ccc([nH]4)c(-c4ccccc4)c4nc(c(-c5ccccc5)c5ccc2[nH]5)C=C4)C=C3)cc1
REMARK SMILES IDX 5 1 4 2 3 3 2 4 1 5 25 6 26 7 72 8 27 9 71 10 28 11 29 12
REMARK SMILES IDX 30 13 65 14 31 15 70 16 64 17 66 18 32 19 69 20 63 21 62 22
REMARK SMILES IDX 33 24 55 25 40 26 54 27 41 28 44 29 53 30 67 31 42 32 43 33
REMARK SMILES IDX 52 35 68 36 45 37 34 38 35 39 39 40 36 41 38 42 37 43 56 44
REMARK SMILES IDX 57 45 61 46 58 47 60 48 59 49 46 50 47 51 51 52 48 53 50 54
REMARK SMILES IDX 49 55 6 56 7 57 8 58 9 59 10 60 14 61 11 62 13 63 12 64
REMARK SMILES IDX 15 65 16 66 17 67 18 68 24 69 19 70 23 71 20 73 21 74 22 75
REMARK H PARENT 66 23 44 34 24 72
REMARK Flexibility Score: inf
ROOT
ATOM      1  C   UNL A   1      38.153  22.183  25.758  1.00  0.00     0.274 C 
ENDROOT
BRANCH   1   2
ATOM      2  C   UNL A   1      39.210  21.089  25.512  1.00  0.00     0.275 C 
BRANCH   2   3
ATOM      3  O   UNL A   1      40.268  21.177  26.459  1.00  0.00    -0.458 OA
BRANCH   3   4
ATOM      4  C   UNL A   1      41.427  21.783  26.159  1.00  0.00     0.338 C 
ATOM      5  O   UNL A   1      42.397  21.133  25.779  1.00  0.00    -0.246 OA
BRANCH   4   6
ATOM      6  C   UNL A   1      41.638  23.214  26.519  1.00  0.00     0.060 A 
ATOM      7  C   UNL A   1      42.110  24.572  25.457  1.00  0.00     0.016 A 
ATOM      8  C   UNL A   1      40.781  23.650  27.980  1.00  0.00     0.016 A 
ATOM      9  C   UNL A   1      41.508  26.356  25.972  1.00  0.00     0.010 A 
ATOM     10  C   UNL A   1      40.317  25.257  28.404  1.00  0.00     0.010 A 
ATOM     11  C   UNL A   1      40.711  26.646  27.495  1.00  0.00    -0.014 A 
BRANCH  11  12
ATOM     12  C   UNL A   1      41.048  27.993  28.118  1.00  0.00     0.031 A 
ATOM     13  C   UNL A   1      39.949  28.999  28.461  1.00  0.00     0.074 A 
ATOM     14  C   UNL A   1      42.253  28.157  28.717  1.00  0.00     0.049 A 
ATOM     15  N   UNL A   1      40.036  30.090  29.189  1.00  0.00    -0.248 NA
ATOM     16  C   UNL A   1      38.578  28.752  27.987  1.00  0.00     0.031 C 
ATOM     17  C   UNL A   1      43.370  27.211  28.643  1.00  0.00     0.029 A 
ATOM     18  N   UNL A   1      42.716  29.121  29.587  1.00  0.00    -0.354 N 
ATOM     19  C   UNL A   1      38.755  30.636  29.226  1.00  0.00     0.074 A 
ATOM     20  C   UNL A   1      37.886  29.736  28.526  1.00  0.00     0.031 C 
ATOM     21  C   UNL A   1      44.297  27.555  29.544  1.00  0.00     0.029 A 
ATOM     22  C   UNL A   1      43.984  28.873  30.058  1.00  0.00     0.049 A 
ATOM     23  H   UNL A   1      42.189  29.911  29.845  1.00  0.00     0.167 HD
ATOM     24  C   UNL A   1      38.334  31.829  29.706  1.00  0.00     0.031 A 
ATOM     25  C   UNL A   1      44.879  29.637  30.716  1.00  0.00     0.031 A 
ATOM     26  C   UNL A   1      39.218  32.807  30.261  1.00  0.00     0.049 A 
ATOM     27  C   UNL A   1      44.482  31.042  31.028  1.00  0.00     0.074 A 
ATOM     28  C   UNL A   1      38.948  34.118  30.601  1.00  0.00     0.029 A 
ATOM     29  N   UNL A   1      40.564  32.588  30.509  1.00  0.00    -0.354 N 
ATOM     30  N   UNL A   1      43.301  31.596  30.901  1.00  0.00    -0.248 NA
ATOM     31  C   UNL A   1      45.533  31.943  31.512  1.00  0.00     0.031 C 
ATOM     32  C   UNL A   1      40.157  34.723  30.956  1.00  0.00     0.029 A 
ATOM     33  C   UNL A   1      41.153  33.759  30.944  1.00  0.00     0.049 A 
ATOM     34  H   UNL A   1      41.030  31.729  30.391  1.00  0.00     0.167 HD
ATOM     35  C   UNL A   1      43.464  32.915  31.283  1.00  0.00     0.074 A 
ATOM     36  C   UNL A   1      44.853  33.073  31.667  1.00  0.00     0.031 C 
ATOM     37  C   UNL A   1      42.538  33.902  31.310  1.00  0.00     0.031 A 
BRANCH  24  38
ATOM     38  C   UNL A   1      36.904  32.204  29.403  1.00  0.00    -0.014 A 
ATOM     39  C   UNL A   1      36.507  32.753  28.173  1.00  0.00     0.009 A 
ATOM     40  C   UNL A   1      35.956  32.096  30.434  1.00  0.00     0.009 A 
ATOM     41  C   UNL A   1      35.204  33.232  28.004  1.00  0.00     0.001 A 
ATOM     42  C   UNL A   1      34.647  32.545  30.252  1.00  0.00     0.001 A 
ATOM     43  C   UNL A   1      34.277  33.129  29.043  1.00  0.00     0.000 A 
ENDBRANCH  24  38
BRANCH  25  44
ATOM     44  C   UNL A   1      46.281  29.147  30.902  1.00  0.00    -0.014 A 
ATOM     45  C   UNL A   1      46.689  28.481  32.065  1.00  0.00     0.009 A 
ATOM     46  C   UNL A   1      47.216  29.300  29.857  1.00  0.00     0.009 A 
ATOM     47  C   UNL A   1      47.985  27.956  32.161  1.00  0.00     0.001 A 
ATOM     48  C   UNL A   1      48.488  28.733  29.934  1.00  0.00     0.001 A 
ATOM     49  C   UNL A   1      48.873  28.063  31.089  1.00  0.00     0.000 A 
ENDBRANCH  25  44
BRANCH  37  50
ATOM     50  C   UNL A   1      42.975  35.238  31.819  1.00  0.00    -0.014 A 
ATOM     51  C   UNL A   1      42.878  35.577  33.175  1.00  0.00     0.009 A 
ATOM     52  C   UNL A   1      43.576  36.137  30.923  1.00  0.00     0.009 A 
ATOM     53  C   UNL A   1      43.362  36.805  33.623  1.00  0.00     0.001 A 
ATOM     54  C   UNL A   1      44.087  37.348  31.380  1.00  0.00     0.001 A 
ATOM     55  C   UNL A   1      43.974  37.683  32.727  1.00  0.00     0.000 A 
ENDBRANCH  37  50
ENDBRANCH  11  12
ENDBRANCH   4   6
ENDBRANCH   3   4
ENDBRANCH   2   3
ENDBRANCH   1   2
BRANCH   1  56
ATOM     56  O   UNL A   1      36.984  22.144  24.895  1.00  0.00    -0.461 OA
BRANCH  56  57
ATOM     57  C   UNL A   1      36.044  21.146  25.035  1.00  0.00     0.328 C 
ATOM     58  O   UNL A   1      36.314  19.954  25.004  1.00  0.00    -0.250 OA
BRANCH  57  59
ATOM     59  C   UNL A   1      34.642  21.738  25.523  1.00  0.00     0.195 C 
ATOM     60  C   UNL A   1      34.815  23.374  26.554  1.00  0.00     0.037 C 
ATOM     61  N   UNL A   1      33.567  21.804  24.225  1.00  0.00    -0.322 N 
ATOM     62  C   UNL A   1      34.655  25.244  25.390  1.00  0.00     0.005 C 
ATOM     63  C   UNL A   1      33.471  23.141  23.080  1.00  0.00     0.121 C 
ATOM     64  C   UNL A   1      33.884  24.933  23.595  1.00  0.00     0.022 C 
BRANCH  61  65
ATOM     65  C   UNL A   1      32.563  20.805  24.388  1.00  0.00     0.291 C 
ATOM     66  O   UNL A   1      31.466  21.104  24.869  1.00  0.00    -0.265 OA
BRANCH  65  67
ATOM     67  C   UNL A   1      32.734  19.458  23.925  1.00  0.00     0.214 A 
ATOM     68  N   UNL A   1      33.317  18.454  24.536  1.00  0.00    -0.207 NA
ATOM     69  N   UNL A   1      32.144  18.991  22.778  1.00  0.00    -0.255 N 
ATOM     70  C   UNL A   1      33.118  17.410  23.665  1.00  0.00     0.154 A 
ATOM     71  N   UNL A   1      32.482  17.718  22.534  1.00  0.00    -0.158 NA
ATOM     72  H   UNL A   1      31.547  19.526  22.206  1.00  0.00     0.192 HD
BRANCH  70  73
ATOM     73  C   UNL A   1      33.530  15.998  24.007  1.00  0.00     0.060 C 
ATOM     74  C   UNL A   1      34.538  15.828  25.122  1.00  0.00     0.012 C 
ATOM     75  C   UNL A   1      33.110  15.447  25.350  1.00  0.00     0.012 C 
ENDBRANCH  70  73
ENDBRANCH  65  67
ENDBRANCH  61  65
ENDBRANCH  57  59
ENDBRANCH  56  57
ENDBRANCH   1  56
TORSDOF 14
ENDMDL
MODEL 3
REMARK VINA RESULT:     -10.9      3.642      8.619
REMARK SMILES O=C(OCCOC(=O)[C@H]1CCCCN1C(=O)c1nc(C2CC2)n[nH]1)c1ccc(-c2c3nc(c(-c4ccccc4)c4ccc([nH]4)c(-c4ccccc4)c4nc(c(-c5ccccc5)c5ccc2[nH]5)C=C4)C=C3)cc1
REMARK SMILES IDX 5 1 4 2 3 3 2 4 1 5 25 6 26 7 72 8 27 9 71 10 28 11 29 12
REMARK SMILES IDX 30 13 65 14 31 15 70 16 64 17 66 18 32 19 69 20 63 21 62 22
REMARK SMILES IDX 33 24 55 25 40 26 54 27 41 28 44 29 53 30 67 31 42 32 43 33
REMARK SMILES IDX 52 35 68 36 45 37 34 38 35 39 39 40 36 41 38 42 37 43 56 44
REMARK SMILES IDX 57 45 61 46 58 47 60 48 59 49 46 50 47 51 51 52 48 53 50 54
REMARK SMILES IDX 49 55 6 56 7 57 8 58 9 59 10 60 14 61 11 62 13 63 12 64
REMARK SMILES IDX 15 65 16 66 17 67 18 68 24 69 19 70 23 71 20 73 21 74 22 75
REMARK H PARENT 66 23 44 34 24 72
REMARK Flexibility Score: inf
ROOT
ATOM      1  C   UNL A   1      33.655  29.166  26.431  1.00  0.00     0.274 C 
ENDROOT
BRANCH   1   2
ATOM      2  C   UNL A   1      33.340  30.649  26.712  1.00  0.00     0.275 C 
BRANCH   2   3
ATOM      3  O   UNL A   1      33.443  30.940  28.100  1.00  0.00    -0.458 OA
BRANCH   3   4
ATOM      4  C   UNL A   1      34.415  31.731  28.580  1.00  0.00     0.338 C 
ATOM      5  O   UNL A   1      34.320  32.954  28.514  1.00  0.00    -0.246 OA
BRANCH   4   6
ATOM      6  C   UNL A   1      35.730  31.149  28.971  1.00  0.00     0.060 A 
ATOM      7  C   UNL A   1      36.190  30.372  30.513  1.00  0.00     0.016 A 
ATOM      8  C   UNL A   1      36.681  30.698  27.574  1.00  0.00     0.016 A 
ATOM      9  C   UNL A   1      37.598  29.021  30.444  1.00  0.00     0.010 A 
ATOM     10  C   UNL A   1      37.949  29.528  27.587  1.00  0.00     0.010 A 
ATOM     11  C   UNL A   1      38.503  28.720  28.984  1.00  0.00    -0.014 A 
BRANCH  11  12
ATOM     12  C   UNL A   1      39.961  28.362  29.228  1.00  0.00     0.031 A 
ATOM     13  C   UNL A   1      40.555  27.064  28.681  1.00  0.00     0.074 A 
ATOM     14  C   UNL A   1      40.827  29.340  29.589  1.00  0.00     0.049 A 
ATOM     15  N   UNL A   1      41.820  26.709  28.607  1.00  0.00    -0.248 NA
ATOM     16  C   UNL A   1      39.657  26.053  28.100  1.00  0.00     0.031 C 
ATOM     17  C   UNL A   1      40.450  30.703  29.978  1.00  0.00     0.029 A 
ATOM     18  N   UNL A   1      42.205  29.383  29.597  1.00  0.00    -0.354 N 
ATOM     19  C   UNL A   1      41.836  25.454  28.003  1.00  0.00     0.074 A 
ATOM     20  C   UNL A   1      40.484  25.130  27.652  1.00  0.00     0.031 C 
ATOM     21  C   UNL A   1      41.546  31.466  30.021  1.00  0.00     0.029 A 
ATOM     22  C   UNL A   1      42.715  30.614  29.939  1.00  0.00     0.049 A 
ATOM     23  H   UNL A   1      42.769  28.607  29.378  1.00  0.00     0.167 HD
ATOM     24  C   UNL A   1      42.860  24.586  27.834  1.00  0.00     0.031 A 
ATOM     25  C   UNL A   1      43.951  31.025  30.287  1.00  0.00     0.031 A 
ATOM     26  C   UNL A   1      44.182  24.828  28.325  1.00  0.00     0.049 A 
ATOM     27  C   UNL A   1      45.029  29.993  30.329  1.00  0.00     0.074 A 
ATOM     28  C   UNL A   1      45.250  23.955  28.391  1.00  0.00     0.029 A 
ATOM     29  N   UNL A   1      44.597  26.026  28.884  1.00  0.00    -0.354 N 
ATOM     30  N   UNL A   1      44.980  28.755  29.904  1.00  0.00    -0.248 NA
ATOM     31  C   UNL A   1      46.303  30.381  30.944  1.00  0.00     0.031 C 
ATOM     32  C   UNL A   1      46.280  24.594  29.087  1.00  0.00     0.029 A 
ATOM     33  C   UNL A   1      45.891  25.898  29.351  1.00  0.00     0.049 A 
ATOM     34  H   UNL A   1      44.052  26.845  28.941  1.00  0.00     0.167 HD
ATOM     35  C   UNL A   1      46.214  28.208  30.204  1.00  0.00     0.074 A 
ATOM     36  C   UNL A   1      46.999  29.256  30.828  1.00  0.00     0.031 C 
ATOM     37  C   UNL A   1      46.651  26.946  29.980  1.00  0.00     0.031 A 
BRANCH  24  38
ATOM     38  C   UNL A   1      42.496  23.215  27.320  1.00  0.00    -0.014 A 
ATOM     39  C   UNL A   1      41.940  22.219  28.140  1.00  0.00     0.009 A 
ATOM     40  C   UNL A   1      42.827  22.893  25.993  1.00  0.00     0.009 A 
ATOM     41  C   UNL A   1      41.774  20.919  27.652  1.00  0.00     0.001 A 
ATOM     42  C   UNL A   1      42.630  21.603  25.500  1.00  0.00     0.001 A 
ATOM     43  C   UNL A   1      42.120  20.612  26.335  1.00  0.00     0.000 A 
ENDBRANCH  24  38
BRANCH  25  44
ATOM     44  C   UNL A   1      44.151  32.406  30.826  1.00  0.00    -0.014 A 
ATOM     45  C   UNL A   1      43.997  32.705  32.186  1.00  0.00     0.009 A 
ATOM     46  C   UNL A   1      44.567  33.438  29.959  1.00  0.00     0.009 A 
ATOM     47  C   UNL A   1      44.284  33.991  32.664  1.00  0.00     0.001 A 
ATOM     48  C   UNL A   1      44.902  34.702  30.444  1.00  0.00     0.001 A 
ATOM     49  C   UNL A   1      44.757  34.979  31.799  1.00  0.00     0.000 A 
ENDBRANCH  25  44
BRANCH  37  50
ATOM     50  C   UNL A   1      48.062  26.631  30.361  1.00  0.00    -0.014 A 
ATOM     51  C   UNL A   1      48.381  26.077  31.608  1.00  0.00     0.009 A 
ATOM     52  C   UNL A   1      49.076  26.820  29.409  1.00  0.00     0.009 A 
ATOM     53  C   UNL A   1      49.700  25.730  31.900  1.00  0.00     0.001 A 
ATOM     54  C   UNL A   1      50.385  26.442  29.691  1.00  0.00     0.001 A 
ATOM     55  C   UNL A   1      50.697  25.904  30.938  1.00  0.00     0.000 A 
ENDBRANCH  37  50
ENDBRANCH  11  12
ENDBRANCH   4   6
ENDBRANCH   3   4
ENDBRANCH   2   3
ENDBRANCH   1   2
BRANCH   1  56
ATOM     56  O   UNL A   1      32.951  28.199  27.257  1.00  0.00    -0.461 OA
BRANCH  56  57
ATOM     57  C   UNL A   1      32.153  27.235  26.679  1.00  0.00     0.328 C 
ATOM     58  O   UNL A   1      30.990  27.039  27.001  1.00  0.00    -0.250 OA
BRANCH  57  59
ATOM     59  C   UNL A   1      32.839  26.627  25.371  1.00  0.00     0.195 C 
ATOM     60  C   UNL A   1      34.006  25.120  25.743  1.00  0.00     0.037 C 
ATOM     61  N   UNL A   1      31.672  26.368  24.181  1.00  0.00    -0.322 N 
ATOM     62  C   UNL A   1      33.058  23.131  25.587  1.00  0.00     0.005 C 
ATOM     63  C   UNL A   1      30.682  24.915  24.057  1.00  0.00     0.121 C 
ATOM     64  C   UNL A   1      31.329  23.210  24.627  1.00  0.00     0.022 C 
BRANCH  61  65
ATOM     65  C   UNL A   1      31.836  27.326  23.138  1.00  0.00     0.291 C 
ATOM     66  O   UNL A   1      32.792  27.238  22.362  1.00  0.00    -0.265 OA
BRANCH  65  67
ATOM     67  C   UNL A   1      30.873  28.358  22.882  1.00  0.00     0.214 A 
ATOM     68  N   UNL A   1      30.018  28.901  23.715  1.00  0.00    -0.207 NA
ATOM     69  N   UNL A   1      30.828  29.047  21.696  1.00  0.00    -0.255 N 
ATOM     70  C   UNL A   1      29.417  29.870  22.948  1.00  0.00     0.154 A 
ATOM     71  N   UNL A   1      29.821  29.931  21.679  1.00  0.00    -0.158 NA
ATOM     72  H   UNL A   1      31.457  28.907  20.951  1.00  0.00     0.192 HD
BRANCH  70  73
ATOM     73  C   UNL A   1      28.420  30.843  23.531  1.00  0.00     0.060 C 
ATOM     74  C   UNL A   1      28.814  32.303  23.546  1.00  0.00     0.012 C 
ATOM     75  C   UNL A   1      27.765  31.829  22.591  1.00  0.00     0.012 C 
ENDBRANCH  70  73
ENDBRANCH  65  67
ENDBRANCH  61  65
ENDBRANCH  57  59
ENDBRANCH  56  57
ENDBRANCH   1  56
TORSDOF 14
ENDMDL
