MODEL 1
REMARK VINA RESULT:     -11.6      0.000      0.000
REMARK SMILES C[C@]12CCC[C@](C)(C(=O)OCCOC(=O)c3ccc(-c4c5nc(c(-c6ccccc6)c6ccc([nH]6)c(-c6ccccc6)c6nc(c(-c7ccccc7)c7ccc4[nH]7)C=C6)C=C5)cc3)[C@@H]1CC[C@]13C=C(CO)[C@H](CC[C@H]12)C3
REMARK SMILES IDX 11 1 10 2 8 3 9 4 6 5 1 6 2 7 3 8 64 9 75 10 4 11 65 12
REMARK SMILES IDX 67 13 74 14 5 15 7 16 66 17 68 18 76 19 73 20 69 21 72 22
REMARK SMILES IDX 70 23 71 24 12 26 13 27 14 28 15 29 16 30 17 31 63 32 18 33
REMARK SMILES IDX 62 34 19 35 20 36 21 37 56 38 22 39 61 40 55 41 57 42 23 43
REMARK SMILES IDX 60 44 54 45 53 46 24 48 46 49 31 50 45 51 32 52 35 53 44 54
REMARK SMILES IDX 58 55 33 56 34 57 43 59 59 60 36 61 25 62 26 63 30 64 27 65
REMARK SMILES IDX 29 66 28 67 47 68 48 69 52 70 49 71 51 72 50 73 37 74 38 75
REMARK SMILES IDX 42 76 39 77 41 78 40 79
REMARK H PARENT 71 25 57 47 35 58
REMARK Flexibility Score: inf
ROOT
ATOM      1  C   UNL A   1      31.852  28.397  26.701  1.00  0.00     0.274 C 
ENDROOT
BRANCH   1   2
ATOM      2  O   UNL A   1      31.512  28.315  25.304  1.00  0.00    -0.462 OA
BRANCH   2   3
ATOM      3  C   UNL A   1      32.287  27.658  24.422  1.00  0.00     0.312 C 
ATOM      4  O   UNL A   1      33.382  28.070  24.062  1.00  0.00    -0.252 OA
BRANCH   3   5
ATOM      5  C   UNL A   1      31.548  26.415  23.806  1.00  0.00     0.069 C 
ATOM      6  C   UNL A   1      34.331  25.285  23.756  1.00  0.00     0.012 C 
ATOM      7  C   UNL A   1      33.102  24.300  23.853  1.00  0.00    -0.025 C 
ATOM      8  C   UNL A   1      32.678  23.957  22.417  1.00  0.00     0.007 C 
ATOM      9  C   UNL A   1      31.878  24.992  24.531  1.00  0.00     0.012 C 
ATOM     10  C   UNL A   1      33.654  23.039  24.598  1.00  0.00     0.005 C 
ATOM     11  C   UNL A   1      32.516  25.211  21.581  1.00  0.00     0.002 C 
ATOM     12  C   UNL A   1      32.010  24.935  26.080  1.00  0.00     0.006 C 
ATOM     13  C   UNL A   1      33.665  23.068  26.183  1.00  0.00    -0.008 C 
ATOM     14  C   UNL A   1      33.520  21.582  24.170  1.00  0.00     0.006 C 
ATOM     15  C   UNL A   1      31.698  26.323  22.239  1.00  0.00     0.019 C 
ATOM     16  C   UNL A   1      30.067  26.877  23.936  1.00  0.00     0.024 C 
ATOM     17  C   UNL A   1      32.348  23.587  26.709  1.00  0.00     0.012 C 
ATOM     18  C   UNL A   1      34.953  23.762  26.525  1.00  0.00    -0.018 C 
ATOM     19  C   UNL A   1      34.074  21.716  26.823  1.00  0.00     0.019 C 
ATOM     20  C   UNL A   1      34.869  20.917  24.658  1.00  0.00     0.008 C 
ATOM     21  C   UNL A   1      35.943  22.906  26.187  1.00  0.00    -0.045 C 
ATOM     22  C   UNL A   1      35.375  21.469  26.047  1.00  0.00     0.018 C 
BRANCH  21  23
ATOM     23  C   UNL A   1      37.316  23.380  25.862  1.00  0.00     0.187 C 
BRANCH  23  24
ATOM     24  O   UNL A   1      37.436  23.540  24.457  1.00  0.00    -0.392 OA
ATOM     25  H   UNL A   1      36.724  24.114  24.134  1.00  0.00     0.211 HD
ENDBRANCH  23  24
ENDBRANCH  21  23
ENDBRANCH   3   5
ENDBRANCH   2   3
ENDBRANCH   1   2
BRANCH   1  26
ATOM     26  C   UNL A   1      32.653  29.654  27.085  1.00  0.00     0.275 C 
BRANCH  26  27
ATOM     27  O   UNL A   1      34.000  29.331  27.497  1.00  0.00    -0.458 OA
BRANCH  27  28
ATOM     28  C   UNL A   1      34.686  30.333  28.104  1.00  0.00     0.338 C 
ATOM     29  O   UNL A   1      34.257  31.442  28.390  1.00  0.00    -0.246 OA
BRANCH  28  30
ATOM     30  C   UNL A   1      36.090  29.921  28.346  1.00  0.00     0.060 A 
ATOM     31  C   UNL A   1      37.045  30.015  27.331  1.00  0.00     0.016 A 
ATOM     32  C   UNL A   1      36.475  29.393  29.571  1.00  0.00     0.016 A 
ATOM     33  C   UNL A   1      38.379  29.692  27.519  1.00  0.00     0.010 A 
ATOM     34  C   UNL A   1      37.809  29.010  29.766  1.00  0.00     0.010 A 
ATOM     35  C   UNL A   1      38.761  29.160  28.739  1.00  0.00    -0.014 A 
BRANCH  35  36
ATOM     36  C   UNL A   1      40.098  28.558  28.856  1.00  0.00     0.031 A 
ATOM     37  C   UNL A   1      41.230  29.464  29.231  1.00  0.00     0.074 A 
ATOM     38  C   UNL A   1      40.293  27.242  28.669  1.00  0.00     0.049 A 
ATOM     39  N   UNL A   1      42.514  29.246  29.172  1.00  0.00    -0.248 NA
ATOM     40  C   UNL A   1      40.859  30.795  29.745  1.00  0.00     0.031 C 
ATOM     41  C   UNL A   1      39.247  26.240  28.471  1.00  0.00     0.029 A 
ATOM     42  N   UNL A   1      41.463  26.531  28.598  1.00  0.00    -0.354 N 
ATOM     43  C   UNL A   1      43.107  30.425  29.607  1.00  0.00     0.074 A 
ATOM     44  C   UNL A   1      42.046  31.348  29.937  1.00  0.00     0.031 C 
ATOM     45  C   UNL A   1      39.827  25.045  28.253  1.00  0.00     0.029 A 
ATOM     46  C   UNL A   1      41.278  25.218  28.238  1.00  0.00     0.049 A 
ATOM     47  H   UNL A   1      42.347  26.921  28.787  1.00  0.00     0.167 HD
ATOM     48  C   UNL A   1      44.424  30.713  29.696  1.00  0.00     0.031 A 
ATOM     49  C   UNL A   1      42.188  24.291  27.878  1.00  0.00     0.031 A 
ATOM     50  C   UNL A   1      45.462  29.796  29.323  1.00  0.00     0.049 A 
ATOM     51  C   UNL A   1      43.644  24.685  27.837  1.00  0.00     0.074 A 
ATOM     52  C   UNL A   1      46.828  30.001  29.294  1.00  0.00     0.029 A 
ATOM     53  N   UNL A   1      45.238  28.491  28.912  1.00  0.00    -0.354 N 
ATOM     54  N   UNL A   1      44.207  25.823  28.171  1.00  0.00    -0.248 NA
ATOM     55  C   UNL A   1      44.591  23.668  27.356  1.00  0.00     0.031 C 
ATOM     56  C   UNL A   1      47.429  28.831  28.823  1.00  0.00     0.029 A 
ATOM     57  C   UNL A   1      46.441  27.879  28.621  1.00  0.00     0.049 A 
ATOM     58  H   UNL A   1      44.353  28.064  28.839  1.00  0.00     0.167 HD
ATOM     59  C   UNL A   1      45.572  25.641  27.985  1.00  0.00     0.074 A 
ATOM     60  C   UNL A   1      45.754  24.285  27.512  1.00  0.00     0.031 C 
ATOM     61  C   UNL A   1      46.588  26.515  28.187  1.00  0.00     0.031 A 
BRANCH  48  62
ATOM     62  C   UNL A   1      44.792  32.095  30.143  1.00  0.00    -0.014 A 
ATOM     63  C   UNL A   1      45.026  32.386  31.495  1.00  0.00     0.009 A 
ATOM     64  C   UNL A   1      44.903  33.122  29.194  1.00  0.00     0.009 A 
ATOM     65  C   UNL A   1      45.338  33.688  31.892  1.00  0.00     0.001 A 
ATOM     66  C   UNL A   1      45.242  34.418  29.590  1.00  0.00     0.001 A 
ATOM     67  C   UNL A   1      45.451  34.700  30.938  1.00  0.00     0.000 A 
ENDBRANCH  48  62
BRANCH  49  68
ATOM     68  C   UNL A   1      41.767  22.927  27.454  1.00  0.00    -0.014 A 
ATOM     69  C   UNL A   1      41.126  22.731  26.222  1.00  0.00     0.009 A 
ATOM     70  C   UNL A   1      41.935  21.827  28.311  1.00  0.00     0.009 A 
ATOM     71  C   UNL A   1      40.622  21.473  25.876  1.00  0.00     0.001 A 
ATOM     72  C   UNL A   1      41.460  20.565  27.949  1.00  0.00     0.001 A 
ATOM     73  C   UNL A   1      40.790  20.392  26.740  1.00  0.00     0.000 A 
ENDBRANCH  49  68
BRANCH  61  74
ATOM     74  C   UNL A   1      47.989  26.009  27.986  1.00  0.00    -0.014 A 
ATOM     75  C   UNL A   1      48.599  26.011  26.723  1.00  0.00     0.009 A 
ATOM     76  C   UNL A   1      48.732  25.596  29.103  1.00  0.00     0.009 A 
ATOM     77  C   UNL A   1      49.921  25.583  26.582  1.00  0.00     0.001 A 
ATOM     78  C   UNL A   1      50.061  25.199  28.963  1.00  0.00     0.001 A 
ATOM     79  C   UNL A   1      50.652  25.186  27.701  1.00  0.00     0.000 A 
ENDBRANCH  61  74
ENDBRANCH  35  36
ENDBRANCH  28  30
ENDBRANCH  27  28
ENDBRANCH  26  27
ENDBRANCH   1  26
TORSDOF 13
ENDMDL
MODEL 2
REMARK VINA RESULT:     -11.5      3.608      6.419
REMARK SMILES C[C@]12CCC[C@](C)(C(=O)OCCOC(=O)c3ccc(-c4c5nc(c(-c6ccccc6)c6ccc([nH]6)c(-c6ccccc6)c6nc(c(-c7ccccc7)c7ccc4[nH]7)C=C6)C=C5)cc3)[C@@H]1CC[C@]13C=C(CO)[C@H](CC[C@H]12)C3
REMARK SMILES IDX 11 1 10 2 8 3 9 4 6 5 1 6 2 7 3 8 64 9 75 10 4 11 65 12
REMARK SMILES IDX 67 13 74 14 5 15 7 16 66 17 68 18 76 19 73 20 69 21 72 22
REMARK SMILES IDX 70 23 71 24 12 26 13 27 14 28 15 29 16 30 17 31 63 32 18 33
REMARK SMILES IDX 62 34 19 35 20 36 21 37 56 38 22 39 61 40 55 41 57 42 23 43
REMARK SMILES IDX 60 44 54 45 53 46 24 48 46 49 31 50 45 51 32 52 35 53 44 54
REMARK SMILES IDX 58 55 33 56 34 57 43 59 59 60 36 61 25 62 26 63 30 64 27 65
REMARK SMILES IDX 29 66 28 67 47 68 48 69 52 70 49 71 51 72 50 73 37 74 38 75
REMARK SMILES IDX 42 76 39 77 41 78 40 79
REMARK H PARENT 71 25 57 47 35 58
REMARK Flexibility Score: inf
ROOT
ATOM      1  C   UNL A   1      31.865  28.382  26.761  1.00  0.00     0.274 C 
ENDROOT
BRANCH   1   2
ATOM      2  O   UNL A   1      31.190  27.740  25.664  1.00  0.00    -0.462 OA
BRANCH   2   3
ATOM      3  C   UNL A   1      31.829  27.422  24.523  1.00  0.00     0.312 C 
ATOM      4  O   UNL A   1      32.693  28.132  24.025  1.00  0.00    -0.252 OA
BRANCH   3   5
ATOM      5  C   UNL A   1      31.220  26.141  23.848  1.00  0.00     0.069 C 
ATOM      6  C   UNL A   1      34.092  25.261  23.846  1.00  0.00     0.012 C 
ATOM      7  C   UNL A   1      32.953  24.169  23.875  1.00  0.00    -0.025 C 
ATOM      8  C   UNL A   1      32.599  23.839  22.418  1.00  0.00     0.007 C 
ATOM      9  C   UNL A   1      31.654  24.729  24.538  1.00  0.00     0.012 C 
ATOM     10  C   UNL A   1      33.593  22.937  24.597  1.00  0.00     0.005 C 
ATOM     11  C   UNL A   1      32.349  25.102  21.616  1.00  0.00     0.002 C 
ATOM     12  C   UNL A   1      31.749  24.632  26.088  1.00  0.00     0.006 C 
ATOM     13  C   UNL A   1      33.559  22.914  26.182  1.00  0.00    -0.008 C 
ATOM     14  C   UNL A   1      33.600  21.489  24.121  1.00  0.00     0.006 C 
ATOM     15  C   UNL A   1      31.419  26.115  22.284  1.00  0.00     0.019 C 
ATOM     16  C   UNL A   1      29.700  26.467  23.949  1.00  0.00     0.024 C 
ATOM     17  C   UNL A   1      32.188  23.298  26.684  1.00  0.00     0.012 C 
ATOM     18  C   UNL A   1      34.771  23.706  26.583  1.00  0.00    -0.018 C 
ATOM     19  C   UNL A   1      34.068  21.582  26.792  1.00  0.00     0.019 C 
ATOM     20  C   UNL A   1      34.989  20.929  24.627  1.00  0.00     0.008 C 
ATOM     21  C   UNL A   1      35.841  22.951  26.248  1.00  0.00    -0.045 C 
ATOM     22  C   UNL A   1      35.406  21.476  26.047  1.00  0.00     0.018 C 
BRANCH  21  23
ATOM     23  C   UNL A   1      37.175  23.554  25.979  1.00  0.00     0.187 C 
BRANCH  23  24
ATOM     24  O   UNL A   1      37.382  23.627  24.577  1.00  0.00    -0.392 OA
ATOM     25  H   UNL A   1      37.969  22.906  24.298  1.00  0.00     0.211 HD
ENDBRANCH  23  24
ENDBRANCH  21  23
ENDBRANCH   3   5
ENDBRANCH   2   3
ENDBRANCH   1   2
BRANCH   1  26
ATOM     26  C   UNL A   1      31.774  29.918  26.750  1.00  0.00     0.275 C 
BRANCH  26  27
ATOM     27  O   UNL A   1      33.041  30.531  26.423  1.00  0.00    -0.458 OA
BRANCH  27  28
ATOM     28  C   UNL A   1      33.442  31.531  27.250  1.00  0.00     0.338 C 
ATOM     29  O   UNL A   1      32.850  32.578  27.469  1.00  0.00    -0.246 OA
BRANCH  28  30
ATOM     30  C   UNL A   1      34.762  31.209  27.844  1.00  0.00     0.060 A 
ATOM     31  C   UNL A   1      35.042  29.919  28.300  1.00  0.00     0.016 A 
ATOM     32  C   UNL A   1      35.730  32.192  28.001  1.00  0.00     0.016 A 
ATOM     33  C   UNL A   1      36.274  29.552  28.817  1.00  0.00     0.010 A 
ATOM     34  C   UNL A   1      36.966  31.854  28.572  1.00  0.00     0.010 A 
ATOM     35  C   UNL A   1      37.237  30.534  28.979  1.00  0.00    -0.014 A 
BRANCH  35  36
ATOM     36  C   UNL A   1      38.433  30.222  29.776  1.00  0.00     0.031 A 
ATOM     37  C   UNL A   1      39.494  29.388  29.126  1.00  0.00     0.074 A 
ATOM     38  C   UNL A   1      38.586  30.692  31.024  1.00  0.00     0.049 A 
ATOM     39  N   UNL A   1      40.514  28.782  29.668  1.00  0.00    -0.248 NA
ATOM     40  C   UNL A   1      39.389  29.218  27.666  1.00  0.00     0.031 C 
ATOM     41  C   UNL A   1      37.705  31.648  31.694  1.00  0.00     0.029 A 
ATOM     42  N   UNL A   1      39.545  30.402  31.959  1.00  0.00    -0.354 N 
ATOM     43  C   UNL A   1      41.153  28.130  28.622  1.00  0.00     0.074 A 
ATOM     44  C   UNL A   1      40.416  28.421  27.414  1.00  0.00     0.031 C 
ATOM     45  C   UNL A   1      38.141  31.830  32.954  1.00  0.00     0.029 A 
ATOM     46  C   UNL A   1      39.290  30.958  33.189  1.00  0.00     0.049 A 
ATOM     47  H   UNL A   1      40.338  29.850  31.769  1.00  0.00     0.167 HD
ATOM     48  C   UNL A   1      42.245  27.337  28.676  1.00  0.00     0.031 A 
ATOM     49  C   UNL A   1      39.888  30.730  34.375  1.00  0.00     0.031 A 
ATOM     50  C   UNL A   1      42.939  27.026  29.893  1.00  0.00     0.049 A 
ATOM     51  C   UNL A   1      41.009  29.721  34.437  1.00  0.00     0.074 A 
ATOM     52  C   UNL A   1      44.009  26.173  30.085  1.00  0.00     0.029 A 
ATOM     53  N   UNL A   1      42.621  27.566  31.130  1.00  0.00    -0.354 N 
ATOM     54  N   UNL A   1      41.568  29.039  33.465  1.00  0.00    -0.248 NA
ATOM     55  C   UNL A   1      41.573  29.440  35.766  1.00  0.00     0.031 C 
ATOM     56  C   UNL A   1      44.312  26.164  31.449  1.00  0.00     0.029 A 
ATOM     57  C   UNL A   1      43.471  27.060  32.093  1.00  0.00     0.049 A 
ATOM     58  H   UNL A   1      41.899  28.214  31.296  1.00  0.00     0.167 HD
ATOM     59  C   UNL A   1      42.576  28.288  34.058  1.00  0.00     0.074 A 
ATOM     60  C   UNL A   1      42.554  28.598  35.471  1.00  0.00     0.031 C 
ATOM     61  C   UNL A   1      43.445  27.419  33.486  1.00  0.00     0.031 A 
BRANCH  48  62
ATOM     62  C   UNL A   1      42.694  26.704  27.394  1.00  0.00    -0.014 A 
ATOM     63  C   UNL A   1      42.183  25.468  26.972  1.00  0.00     0.009 A 
ATOM     64  C   UNL A   1      43.647  27.357  26.598  1.00  0.00     0.009 A 
ATOM     65  C   UNL A   1      42.639  24.885  25.787  1.00  0.00     0.001 A 
ATOM     66  C   UNL A   1      44.081  26.785  25.401  1.00  0.00     0.001 A 
ATOM     67  C   UNL A   1      43.583  25.546  25.002  1.00  0.00     0.000 A 
ENDBRANCH  48  62
BRANCH  49  68
ATOM     68  C   UNL A   1      39.409  31.396  35.617  1.00  0.00    -0.014 A 
ATOM     69  C   UNL A   1      38.305  30.888  36.318  1.00  0.00     0.009 A 
ATOM     70  C   UNL A   1      40.005  32.586  36.066  1.00  0.00     0.009 A 
ATOM     71  C   UNL A   1      37.779  31.580  37.413  1.00  0.00     0.001 A 
ATOM     72  C   UNL A   1      39.498  33.258  37.181  1.00  0.00     0.001 A 
ATOM     73  C   UNL A   1      38.376  32.764  37.844  1.00  0.00     0.000 A 
ENDBRANCH  49  68
BRANCH  61  74
ATOM     74  C   UNL A   1      44.499  26.811  34.369  1.00  0.00    -0.014 A 
ATOM     75  C   UNL A   1      44.306  25.575  35.004  1.00  0.00     0.009 A 
ATOM     76  C   UNL A   1      45.738  27.460  34.499  1.00  0.00     0.009 A 
ATOM     77  C   UNL A   1      45.327  25.015  35.773  1.00  0.00     0.001 A 
ATOM     78  C   UNL A   1      46.765  26.883  35.243  1.00  0.00     0.001 A 
ATOM     79  C   UNL A   1      46.557  25.664  35.885  1.00  0.00     0.000 A 
ENDBRANCH  61  74
ENDBRANCH  35  36
ENDBRANCH  28  30
ENDBRANCH  27  28
ENDBRANCH  26  27
ENDBRANCH   1  26
TORSDOF 13
ENDMDL
MODEL 3
REMARK VINA RESULT:     -11.5      3.329      8.344
REMARK SMILES C[C@]12CCC[C@](C)(C(=O)OCCOC(=O)c3ccc(-c4c5nc(c(-c6ccccc6)c6ccc([nH]6)c(-c6ccccc6)c6nc(c(-c7ccccc7)c7ccc4[nH]7)C=C6)C=C5)cc3)[C@@H]1CC[C@]13C=C(CO)[C@H](CC[C@H]12)C3
REMARK SMILES IDX 11 1 10 2 8 3 9 4 6 5 1 6 2 7 3 8 64 9 75 10 4 11 65 12
REMARK SMILES IDX 67 13 74 14 5 15 7 16 66 17 68 18 76 19 73 20 69 21 72 22
REMARK SMILES IDX 70 23 71 24 12 26 13 27 14 28 15 29 16 30 17 31 63 32 18 33
REMARK SMILES IDX 62 34 19 35 20 36 21 37 56 38 22 39 61 40 55 41 57 42 23 43
REMARK SMILES IDX 60 44 54 45 53 46 24 48 46 49 31 50 45 51 32 52 35 53 44 54
REMARK SMILES IDX 58 55 33 56 34 57 43 59 59 60 36 61 25 62 26 63 30 64 27 65
REMARK SMILES IDX 29 66 28 67 47 68 48 69 52 70 49 71 51 72 50 73 37 74 38 75
REMARK SMILES IDX 42 76 39 77 41 78 40 79
REMARK H PARENT 71 25 57 47 35 58
REMARK Flexibility Score: inf
ROOT
ATOM      1  C   UNL A   1      36.548  22.608  23.823  1.00  0.00     0.274 C 
ENDROOT
BRANCH   1   2
ATOM      2  O   UNL A   1      35.155  22.247  23.794  1.00  0.00    -0.462 OA
BRANCH   2   3
ATOM      3  C   UNL A   1      34.227  23.038  23.225  1.00  0.00     0.312 C 
ATOM      4  O   UNL A   1      34.491  23.843  22.341  1.00  0.00    -0.252 OA
BRANCH   3   5
ATOM      5  C   UNL A   1      32.832  22.912  23.938  1.00  0.00     0.069 C 
ATOM      6  C   UNL A   1      34.049  24.929  25.803  1.00  0.00     0.012 C 
ATOM      7  C   UNL A   1      32.480  24.884  25.634  1.00  0.00    -0.025 C 
ATOM      8  C   UNL A   1      31.938  23.893  26.674  1.00  0.00     0.007 C 
ATOM      9  C   UNL A   1      32.081  24.328  24.231  1.00  0.00     0.012 C 
ATOM     10  C   UNL A   1      32.000  26.343  25.937  1.00  0.00     0.005 C 
ATOM     11  C   UNL A   1      32.693  22.579  26.623  1.00  0.00     0.002 C 
ATOM     12  C   UNL A   1      32.135  25.458  23.163  1.00  0.00     0.006 C 
ATOM     13  C   UNL A   1      32.028  27.388  24.744  1.00  0.00    -0.008 C 
ATOM     14  C   UNL A   1      30.892  26.770  26.892  1.00  0.00     0.006 C 
ATOM     15  C   UNL A   1      32.877  21.996  25.222  1.00  0.00     0.019 C 
ATOM     16  C   UNL A   1      32.087  21.982  22.935  1.00  0.00     0.024 C 
ATOM     17  C   UNL A   1      31.441  26.775  23.495  1.00  0.00     0.012 C 
ATOM     18  C   UNL A   1      33.436  27.911  24.752  1.00  0.00    -0.018 C 
ATOM     19  C   UNL A   1      31.382  28.752  25.103  1.00  0.00     0.019 C 
ATOM     20  C   UNL A   1      31.400  28.152  27.469  1.00  0.00     0.008 C 
ATOM     21  C   UNL A   1      33.553  28.659  25.872  1.00  0.00    -0.045 C 
ATOM     22  C   UNL A   1      32.146  29.042  26.402  1.00  0.00     0.018 C 
BRANCH  21  23
ATOM     23  C   UNL A   1      34.870  28.901  26.522  1.00  0.00     0.187 C 
BRANCH  23  24
ATOM     24  O   UNL A   1      34.663  29.293  27.869  1.00  0.00    -0.392 OA
ATOM     25  H   UNL A   1      35.153  30.112  28.048  1.00  0.00     0.211 HD
ENDBRANCH  23  24
ENDBRANCH  21  23
ENDBRANCH   3   5
ENDBRANCH   2   3
ENDBRANCH   1   2
BRANCH   1  26
ATOM     26  C   UNL A   1      37.247  22.330  25.165  1.00  0.00     0.275 C 
BRANCH  26  27
ATOM     27  O   UNL A   1      37.829  23.527  25.728  1.00  0.00    -0.458 OA
BRANCH  27  28
ATOM     28  C   UNL A   1      39.082  23.390  26.235  1.00  0.00     0.338 C 
ATOM     29  O   UNL A   1      39.816  22.420  26.112  1.00  0.00    -0.246 OA
BRANCH  28  30
ATOM     30  C   UNL A   1      39.450  24.588  27.027  1.00  0.00     0.060 A 
ATOM     31  C   UNL A   1      38.945  24.773  28.315  1.00  0.00     0.016 A 
ATOM     32  C   UNL A   1      40.268  25.572  26.488  1.00  0.00     0.016 A 
ATOM     33  C   UNL A   1      39.296  25.847  29.116  1.00  0.00     0.010 A 
ATOM     34  C   UNL A   1      40.593  26.695  27.263  1.00  0.00     0.010 A 
ATOM     35  C   UNL A   1      40.107  26.831  28.577  1.00  0.00    -0.014 A 
BRANCH  35  36
ATOM     36  C   UNL A   1      40.256  28.099  29.308  1.00  0.00     0.031 A 
ATOM     37  C   UNL A   1      41.416  28.218  30.248  1.00  0.00     0.074 A 
ATOM     38  C   UNL A   1      39.409  29.123  29.117  1.00  0.00     0.049 A 
ATOM     39  N   UNL A   1      41.641  29.112  31.171  1.00  0.00    -0.248 NA
ATOM     40  C   UNL A   1      42.464  27.189  30.127  1.00  0.00     0.031 C 
ATOM     41  C   UNL A   1      38.352  29.184  28.109  1.00  0.00     0.029 A 
ATOM     42  N   UNL A   1      39.301  30.310  29.793  1.00  0.00    -0.354 N 
ATOM     43  C   UNL A   1      42.838  28.734  31.764  1.00  0.00     0.074 A 
ATOM     44  C   UNL A   1      43.298  27.540  31.093  1.00  0.00     0.031 C 
ATOM     45  C   UNL A   1      37.670  30.333  28.264  1.00  0.00     0.029 A 
ATOM     46  C   UNL A   1      38.207  31.051  29.418  1.00  0.00     0.049 A 
ATOM     47  H   UNL A   1      39.943  30.603  30.480  1.00  0.00     0.167 HD
ATOM     48  C   UNL A   1      43.480  29.322  32.798  1.00  0.00     0.031 A 
ATOM     49  C   UNL A   1      37.676  32.149  29.991  1.00  0.00     0.031 A 
ATOM     50  C   UNL A   1      42.985  30.484  33.478  1.00  0.00     0.049 A 
ATOM     51  C   UNL A   1      38.325  32.699  31.238  1.00  0.00     0.074 A 
ATOM     52  C   UNL A   1      43.505  31.124  34.587  1.00  0.00     0.029 A 
ATOM     53  N   UNL A   1      41.845  31.180  33.104  1.00  0.00    -0.354 N 
ATOM     54  N   UNL A   1      39.414  32.299  31.854  1.00  0.00    -0.248 NA
ATOM     55  C   UNL A   1      37.662  33.844  31.879  1.00  0.00     0.031 C 
ATOM     56  C   UNL A   1      42.654  32.184  34.911  1.00  0.00     0.029 A 
ATOM     57  C   UNL A   1      41.641  32.240  33.965  1.00  0.00     0.049 A 
ATOM     58  H   UNL A   1      41.269  30.952  32.339  1.00  0.00     0.167 HD
ATOM     59  C   UNL A   1      39.589  33.172  32.921  1.00  0.00     0.074 A 
ATOM     60  C   UNL A   1      38.498  34.122  32.869  1.00  0.00     0.031 C 
ATOM     61  C   UNL A   1      40.565  33.189  33.862  1.00  0.00     0.031 A 
BRANCH  48  62
ATOM     62  C   UNL A   1      44.736  28.667  33.284  1.00  0.00    -0.014 A 
ATOM     63  C   UNL A   1      45.993  29.033  32.780  1.00  0.00     0.009 A 
ATOM     64  C   UNL A   1      44.658  27.664  34.263  1.00  0.00     0.009 A 
ATOM     65  C   UNL A   1      47.147  28.386  33.228  1.00  0.00     0.001 A 
ATOM     66  C   UNL A   1      45.816  27.038  34.729  1.00  0.00     0.001 A 
ATOM     67  C   UNL A   1      47.057  27.394  34.205  1.00  0.00     0.000 A 
ENDBRANCH  48  62
BRANCH  49  68
ATOM     68  C   UNL A   1      36.432  32.769  29.458  1.00  0.00    -0.014 A 
ATOM     69  C   UNL A   1      35.180  32.194  29.723  1.00  0.00     0.009 A 
ATOM     70  C   UNL A   1      36.495  33.892  28.617  1.00  0.00     0.009 A 
ATOM     71  C   UNL A   1      34.024  32.703  29.124  1.00  0.00     0.001 A 
ATOM     72  C   UNL A   1      35.335  34.419  28.046  1.00  0.00     0.001 A 
ATOM     73  C   UNL A   1      34.102  33.814  28.287  1.00  0.00     0.000 A 
ENDBRANCH  49  68
BRANCH  61  74
ATOM     74  C   UNL A   1      40.551  34.317  34.855  1.00  0.00    -0.014 A 
ATOM     75  C   UNL A   1      41.240  35.516  34.619  1.00  0.00     0.009 A 
ATOM     76  C   UNL A   1      39.764  34.198  36.012  1.00  0.00     0.009 A 
ATOM     77  C   UNL A   1      41.162  36.563  35.539  1.00  0.00     0.001 A 
ATOM     78  C   UNL A   1      39.664  35.257  36.913  1.00  0.00     0.001 A 
ATOM     79  C   UNL A   1      40.368  36.437  36.679  1.00  0.00     0.000 A 
ENDBRANCH  61  74
ENDBRANCH  35  36
ENDBRANCH  28  30
ENDBRANCH  27  28
ENDBRANCH  26  27
ENDBRANCH   1  26
TORSDOF 13
ENDMDL
