MODEL 1
REMARK VINA RESULT:     -10.6      0.000      0.000
REMARK SMILES C[C@@H](C(=O)OCCOC(=O)c1ccc(-c2c3nc(c(-c4ccccc4)c4ccc([nH]4)c(-c4ccccc4)c4nc(c(-c5ccccc5)c5ccc2[nH]5)C=C4)C=C3)cc1)c1ccc(C(=O)c2cccs2)cc1
REMARK SMILES IDX 6 1 5 2 3 3 4 4 2 5 1 6 59 7 60 8 71 9 61 10 70 11 62 12
REMARK SMILES IDX 63 13 64 14 65 15 66 16 69 17 67 18 68 19 7 20 8 21 9 22
REMARK SMILES IDX 10 23 11 24 12 25 58 26 13 27 57 28 14 29 15 30 16 31 51 32
REMARK SMILES IDX 17 33 56 34 50 35 52 36 18 37 55 38 49 39 48 40 19 42 41 43
REMARK SMILES IDX 26 44 40 45 27 46 30 47 39 48 53 49 28 50 29 51 38 53 54 54
REMARK SMILES IDX 31 55 20 56 21 57 25 58 22 59 24 60 23 61 42 62 43 63 47 64
REMARK SMILES IDX 44 65 46 66 45 67 32 68 33 69 37 70 34 71 36 72 35 73
REMARK H PARENT 52 41 30 52
REMARK Flexibility Score: inf
ROOT
ATOM      1  C   UNL A   1      42.429  20.968  26.072  1.00  0.00     0.274 C 
ENDROOT
BRANCH   1   2
ATOM      2  O   UNL A   1      41.183  21.511  25.583  1.00  0.00    -0.462 OA
BRANCH   2   3
ATOM      3  C   UNL A   1      40.236  21.833  26.507  1.00  0.00     0.313 C 
ATOM      4  O   UNL A   1      40.225  21.389  27.650  1.00  0.00    -0.252 OA
BRANCH   3   5
ATOM      5  C   UNL A   1      39.159  22.788  25.946  1.00  0.00     0.126 C 
ATOM      6  C   UNL A   1      39.074  24.066  26.802  1.00  0.00     0.025 C 
BRANCH   5   7
ATOM      7  C   UNL A   1      37.783  22.145  25.686  1.00  0.00    -0.034 A 
ATOM      8  C   UNL A   1      37.652  20.866  25.122  1.00  0.00     0.005 A 
ATOM      9  C   UNL A   1      36.586  22.839  25.963  1.00  0.00     0.005 A 
ATOM     10  C   UNL A   1      36.397  20.265  24.960  1.00  0.00     0.012 A 
ATOM     11  C   UNL A   1      35.325  22.244  25.799  1.00  0.00     0.012 A 
ATOM     12  C   UNL A   1      35.225  20.935  25.329  1.00  0.00     0.023 A 
BRANCH  12  13
ATOM     13  C   UNL A   1      33.939  20.177  25.298  1.00  0.00     0.202 C 
ATOM     14  O   UNL A   1      33.054  20.531  26.075  1.00  0.00    -0.288 OA
BRANCH  13  15
ATOM     15  C   UNL A   1      33.775  19.074  24.377  1.00  0.00     0.075 A 
ATOM     16  C   UNL A   1      34.471  17.884  24.327  1.00  0.00     0.024 A 
ATOM     17  S   UNL A   1      32.516  19.130  23.220  1.00  0.00    -0.140 S 
ATOM     18  C   UNL A   1      33.952  17.002  23.334  1.00  0.00     0.012 A 
ATOM     19  C   UNL A   1      32.893  17.559  22.650  1.00  0.00     0.065 A 
ENDBRANCH  13  15
ENDBRANCH  12  13
ENDBRANCH   5   7
ENDBRANCH   3   5
ENDBRANCH   2   3
ENDBRANCH   1   2
BRANCH   1  20
ATOM     20  C   UNL A   1      43.579  21.648  25.337  1.00  0.00     0.275 C 
BRANCH  20  21
ATOM     21  O   UNL A   1      43.102  22.908  24.831  1.00  0.00    -0.458 OA
BRANCH  21  22
ATOM     22  C   UNL A   1      43.889  23.978  25.066  1.00  0.00     0.338 C 
ATOM     23  O   UNL A   1      44.964  24.252  24.547  1.00  0.00    -0.246 OA
BRANCH  22  24
ATOM     24  C   UNL A   1      43.239  24.830  26.069  1.00  0.00     0.060 A 
ATOM     25  C   UNL A   1      43.239  26.211  25.889  1.00  0.00     0.016 A 
ATOM     26  C   UNL A   1      42.713  24.268  27.232  1.00  0.00     0.016 A 
ATOM     27  C   UNL A   1      42.751  27.039  26.899  1.00  0.00     0.010 A 
ATOM     28  C   UNL A   1      42.172  25.102  28.218  1.00  0.00     0.010 A 
ATOM     29  C   UNL A   1      42.211  26.500  28.075  1.00  0.00    -0.014 A 
BRANCH  29  30
ATOM     30  C   UNL A   1      41.777  27.405  29.175  1.00  0.00     0.031 A 
ATOM     31  C   UNL A   1      42.639  27.564  30.401  1.00  0.00     0.074 A 
ATOM     32  C   UNL A   1      40.657  28.146  29.064  1.00  0.00     0.049 A 
ATOM     33  N   UNL A   1      42.390  28.212  31.512  1.00  0.00    -0.248 NA
ATOM     34  C   UNL A   1      43.954  26.902  30.375  1.00  0.00     0.031 C 
ATOM     35  C   UNL A   1      39.775  28.181  27.896  1.00  0.00     0.029 A 
ATOM     36  N   UNL A   1      40.095  29.053  29.931  1.00  0.00    -0.354 N 
ATOM     37  C   UNL A   1      43.483  27.982  32.337  1.00  0.00     0.074 A 
ATOM     38  C   UNL A   1      44.406  27.150  31.596  1.00  0.00     0.031 C 
ATOM     39  C   UNL A   1      38.841  29.128  28.082  1.00  0.00     0.029 A 
ATOM     40  C   UNL A   1      39.001  29.703  29.414  1.00  0.00     0.049 A 
ATOM     41  H   UNL A   1      40.446  29.221  30.835  1.00  0.00     0.167 HD
ATOM     42  C   UNL A   1      43.694  28.412  33.604  1.00  0.00     0.031 A 
ATOM     43  C   UNL A   1      38.203  30.644  29.956  1.00  0.00     0.031 A 
ATOM     44  C   UNL A   1      42.802  29.275  34.332  1.00  0.00     0.049 A 
ATOM     45  C   UNL A   1      38.438  31.079  31.377  1.00  0.00     0.074 A 
ATOM     46  C   UNL A   1      42.907  29.722  35.638  1.00  0.00     0.029 A 
ATOM     47  N   UNL A   1      41.654  29.845  33.805  1.00  0.00    -0.354 N 
ATOM     48  N   UNL A   1      39.414  30.763  32.191  1.00  0.00    -0.248 NA
ATOM     49  C   UNL A   1      37.430  31.975  31.967  1.00  0.00     0.031 C 
ATOM     50  C   UNL A   1      41.801  30.533  35.915  1.00  0.00     0.029 A 
ATOM     51  C   UNL A   1      41.034  30.628  34.766  1.00  0.00     0.049 A 
ATOM     52  H   UNL A   1      41.328  29.714  32.886  1.00  0.00     0.167 HD
ATOM     53  C   UNL A   1      39.138  31.415  33.385  1.00  0.00     0.074 A 
ATOM     54  C   UNL A   1      37.922  32.174  33.181  1.00  0.00     0.031 C 
ATOM     55  C   UNL A   1      39.821  31.372  34.554  1.00  0.00     0.031 A 
BRANCH  42  56
ATOM     56  C   UNL A   1      44.907  27.888  34.315  1.00  0.00    -0.014 A 
ATOM     57  C   UNL A   1      44.875  26.696  35.052  1.00  0.00     0.009 A 
ATOM     58  C   UNL A   1      46.114  28.599  34.219  1.00  0.00     0.009 A 
ATOM     59  C   UNL A   1      46.025  26.240  35.702  1.00  0.00     0.001 A 
ATOM     60  C   UNL A   1      47.266  28.130  34.850  1.00  0.00     0.001 A 
ATOM     61  C   UNL A   1      47.218  26.954  35.598  1.00  0.00     0.000 A 
ENDBRANCH  42  56
BRANCH  43  62
ATOM     62  C   UNL A   1      37.070  31.213  29.178  1.00  0.00    -0.014 A 
ATOM     63  C   UNL A   1      37.142  32.519  28.670  1.00  0.00     0.009 A 
ATOM     64  C   UNL A   1      35.898  30.470  28.968  1.00  0.00     0.009 A 
ATOM     65  C   UNL A   1      36.058  33.075  27.986  1.00  0.00     0.001 A 
ATOM     66  C   UNL A   1      34.828  31.016  28.256  1.00  0.00     0.001 A 
ATOM     67  C   UNL A   1      34.905  32.321  27.775  1.00  0.00     0.000 A 
ENDBRANCH  43  62
BRANCH  55  68
ATOM     68  C   UNL A   1      39.270  32.168  35.701  1.00  0.00    -0.014 A 
ATOM     69  C   UNL A   1      38.315  31.614  36.567  1.00  0.00     0.009 A 
ATOM     70  C   UNL A   1      39.738  33.468  35.942  1.00  0.00     0.009 A 
ATOM     71  C   UNL A   1      37.817  32.360  37.639  1.00  0.00     0.001 A 
ATOM     72  C   UNL A   1      39.256  34.202  37.026  1.00  0.00     0.001 A 
ATOM     73  C   UNL A   1      38.290  33.651  37.869  1.00  0.00     0.000 A 
ENDBRANCH  55  68
ENDBRANCH  29  30
ENDBRANCH  22  24
ENDBRANCH  21  22
ENDBRANCH  20  21
ENDBRANCH   1  20
TORSDOF 14
ENDMDL
MODEL 2
REMARK VINA RESULT:     -10.5      1.454      6.359
REMARK SMILES C[C@@H](C(=O)OCCOC(=O)c1ccc(-c2c3nc(c(-c4ccccc4)c4ccc([nH]4)c(-c4ccccc4)c4nc(c(-c5ccccc5)c5ccc2[nH]5)C=C4)C=C3)cc1)c1ccc(C(=O)c2cccs2)cc1
REMARK SMILES IDX 6 1 5 2 3 3 4 4 2 5 1 6 59 7 60 8 71 9 61 10 70 11 62 12
REMARK SMILES IDX 63 13 64 14 65 15 66 16 69 17 67 18 68 19 7 20 8 21 9 22
REMARK SMILES IDX 10 23 11 24 12 25 58 26 13 27 57 28 14 29 15 30 16 31 51 32
REMARK SMILES IDX 17 33 56 34 50 35 52 36 18 37 55 38 49 39 48 40 19 42 41 43
REMARK SMILES IDX 26 44 40 45 27 46 30 47 39 48 53 49 28 50 29 51 38 53 54 54
REMARK SMILES IDX 31 55 20 56 21 57 25 58 22 59 24 60 23 61 42 62 43 63 47 64
REMARK SMILES IDX 44 65 46 66 45 67 32 68 33 69 37 70 34 71 36 72 35 73
REMARK H PARENT 52 41 30 52
REMARK Flexibility Score: inf
ROOT
ATOM      1  C   UNL A   1      44.578  21.481  24.843  1.00  0.00     0.274 C 
ENDROOT
BRANCH   1   2
ATOM      2  O   UNL A   1      43.543  21.610  25.842  1.00  0.00    -0.462 OA
BRANCH   2   3
ATOM      3  C   UNL A   1      42.606  20.624  25.902  1.00  0.00     0.313 C 
ATOM      4  O   UNL A   1      42.577  19.668  25.136  1.00  0.00    -0.252 OA
BRANCH   3   5
ATOM      5  C   UNL A   1      41.564  20.862  27.018  1.00  0.00     0.126 C 
ATOM      6  C   UNL A   1      41.330  19.568  27.822  1.00  0.00     0.025 C 
BRANCH   5   7
ATOM      7  C   UNL A   1      40.253  21.531  26.560  1.00  0.00    -0.034 A 
ATOM      8  C   UNL A   1      39.318  20.863  25.753  1.00  0.00     0.005 A 
ATOM      9  C   UNL A   1      39.957  22.869  26.897  1.00  0.00     0.005 A 
ATOM     10  C   UNL A   1      38.098  21.458  25.407  1.00  0.00     0.012 A 
ATOM     11  C   UNL A   1      38.738  23.472  26.549  1.00  0.00     0.012 A 
ATOM     12  C   UNL A   1      37.783  22.754  25.830  1.00  0.00     0.023 A 
BRANCH  12  13
ATOM     13  C   UNL A   1      36.401  23.263  25.580  1.00  0.00     0.202 C 
ATOM     14  O   UNL A   1      36.270  24.468  25.374  1.00  0.00    -0.288 OA
BRANCH  13  15
ATOM     15  C   UNL A   1      35.284  22.344  25.587  1.00  0.00     0.075 A 
ATOM     16  C   UNL A   1      34.743  21.655  26.653  1.00  0.00     0.024 A 
ATOM     17  S   UNL A   1      34.403  22.086  24.143  1.00  0.00    -0.140 S 
ATOM     18  C   UNL A   1      33.580  20.919  26.279  1.00  0.00     0.012 A 
ATOM     19  C   UNL A   1      33.289  21.057  24.939  1.00  0.00     0.065 A 
ENDBRANCH  13  15
ENDBRANCH  12  13
ENDBRANCH   5   7
ENDBRANCH   3   5
ENDBRANCH   2   3
ENDBRANCH   1   2
BRANCH   1  20
ATOM     20  C   UNL A   1      44.508  22.683  23.909  1.00  0.00     0.275 C 
BRANCH  20  21
ATOM     21  O   UNL A   1      43.808  23.739  24.593  1.00  0.00    -0.458 OA
BRANCH  21  22
ATOM     22  C   UNL A   1      44.561  24.778  25.009  1.00  0.00     0.338 C 
ATOM     23  O   UNL A   1      45.666  25.119  24.604  1.00  0.00    -0.246 OA
BRANCH  22  24
ATOM     24  C   UNL A   1      43.831  25.499  26.058  1.00  0.00     0.060 A 
ATOM     25  C   UNL A   1      44.116  26.844  26.284  1.00  0.00     0.016 A 
ATOM     26  C   UNL A   1      42.932  24.820  26.881  1.00  0.00     0.016 A 
ATOM     27  C   UNL A   1      43.534  27.502  27.365  1.00  0.00     0.010 A 
ATOM     28  C   UNL A   1      42.306  25.502  27.931  1.00  0.00     0.010 A 
ATOM     29  C   UNL A   1      42.622  26.845  28.203  1.00  0.00    -0.014 A 
BRANCH  29  30
ATOM     30  C   UNL A   1      42.080  27.542  29.402  1.00  0.00     0.031 A 
ATOM     31  C   UNL A   1      40.737  28.221  29.333  1.00  0.00     0.074 A 
ATOM     32  C   UNL A   1      42.739  27.515  30.578  1.00  0.00     0.049 A 
ATOM     33  N   UNL A   1      40.140  28.974  30.225  1.00  0.00    -0.248 NA
ATOM     34  C   UNL A   1      39.964  28.034  28.094  1.00  0.00     0.031 C 
ATOM     35  C   UNL A   1      43.996  26.811  30.830  1.00  0.00     0.029 A 
ATOM     36  N   UNL A   1      42.412  28.057  31.798  1.00  0.00    -0.354 N 
ATOM     37  C   UNL A   1      38.959  29.398  29.631  1.00  0.00     0.074 A 
ATOM     38  C   UNL A   1      38.912  28.810  28.311  1.00  0.00     0.031 C 
ATOM     39  C   UNL A   1      44.285  26.886  32.139  1.00  0.00     0.029 A 
ATOM     40  C   UNL A   1      43.285  27.718  32.803  1.00  0.00     0.049 A 
ATOM     41  H   UNL A   1      41.626  28.634  31.938  1.00  0.00     0.167 HD
ATOM     42  C   UNL A   1      38.005  30.218  30.135  1.00  0.00     0.031 A 
ATOM     43  C   UNL A   1      43.292  28.051  34.108  1.00  0.00     0.031 A 
ATOM     44  C   UNL A   1      38.023  30.772  31.462  1.00  0.00     0.049 A 
ATOM     45  C   UNL A   1      42.242  28.991  34.634  1.00  0.00     0.074 A 
ATOM     46  C   UNL A   1      37.126  31.654  32.042  1.00  0.00     0.029 A 
ATOM     47  N   UNL A   1      38.973  30.476  32.427  1.00  0.00    -0.354 N 
ATOM     48  N   UNL A   1      41.189  29.482  34.028  1.00  0.00    -0.248 NA
ATOM     49  C   UNL A   1      42.406  29.453  36.021  1.00  0.00     0.031 C 
ATOM     50  C   UNL A   1      37.555  31.920  33.347  1.00  0.00     0.029 A 
ATOM     51  C   UNL A   1      38.692  31.168  33.593  1.00  0.00     0.049 A 
ATOM     52  H   UNL A   1      39.733  29.863  32.302  1.00  0.00     0.167 HD
ATOM     53  C   UNL A   1      40.571  30.311  34.954  1.00  0.00     0.074 A 
ATOM     54  C   UNL A   1      41.344  30.231  36.175  1.00  0.00     0.031 C 
ATOM     55  C   UNL A   1      39.471  31.087  34.799  1.00  0.00     0.031 A 
BRANCH  42  56
ATOM     56  C   UNL A   1      36.896  30.629  29.211  1.00  0.00    -0.014 A 
ATOM     57  C   UNL A   1      35.896  29.732  28.811  1.00  0.00     0.009 A 
ATOM     58  C   UNL A   1      36.845  31.956  28.755  1.00  0.00     0.009 A 
ATOM     59  C   UNL A   1      34.880  30.151  27.948  1.00  0.00     0.001 A 
ATOM     60  C   UNL A   1      35.817  32.378  27.912  1.00  0.00     0.001 A 
ATOM     61  C   UNL A   1      34.839  31.472  27.503  1.00  0.00     0.000 A 
ENDBRANCH  42  56
BRANCH  43  62
ATOM     62  C   UNL A   1      44.355  27.537  35.013  1.00  0.00    -0.014 A 
ATOM     63  C   UNL A   1      45.596  28.187  35.092  1.00  0.00     0.009 A 
ATOM     64  C   UNL A   1      44.150  26.377  35.776  1.00  0.00     0.009 A 
ATOM     65  C   UNL A   1      46.615  27.676  35.900  1.00  0.00     0.001 A 
ATOM     66  C   UNL A   1      45.158  25.886  36.609  1.00  0.00     0.001 A 
ATOM     67  C   UNL A   1      46.393  26.529  36.662  1.00  0.00     0.000 A 
ENDBRANCH  43  62
BRANCH  55  68
ATOM     68  C   UNL A   1      39.039  31.909  35.978  1.00  0.00    -0.014 A 
ATOM     69  C   UNL A   1      39.547  33.201  36.179  1.00  0.00     0.009 A 
ATOM     70  C   UNL A   1      38.086  31.403  36.874  1.00  0.00     0.009 A 
ATOM     71  C   UNL A   1      39.129  33.962  37.274  1.00  0.00     0.001 A 
ATOM     72  C   UNL A   1      37.653  32.173  37.954  1.00  0.00     0.001 A 
ATOM     73  C   UNL A   1      38.181  33.449  38.158  1.00  0.00     0.000 A 
ENDBRANCH  55  68
ENDBRANCH  29  30
ENDBRANCH  22  24
ENDBRANCH  21  22
ENDBRANCH  20  21
ENDBRANCH   1  20
TORSDOF 14
ENDMDL
MODEL 3
REMARK VINA RESULT:     -10.5      3.973      5.778
REMARK SMILES C[C@@H](C(=O)OCCOC(=O)c1ccc(-c2c3nc(c(-c4ccccc4)c4ccc([nH]4)c(-c4ccccc4)c4nc(c(-c5ccccc5)c5ccc2[nH]5)C=C4)C=C3)cc1)c1ccc(C(=O)c2cccs2)cc1
REMARK SMILES IDX 6 1 5 2 3 3 4 4 2 5 1 6 59 7 60 8 71 9 61 10 70 11 62 12
REMARK SMILES IDX 63 13 64 14 65 15 66 16 69 17 67 18 68 19 7 20 8 21 9 22
REMARK SMILES IDX 10 23 11 24 12 25 58 26 13 27 57 28 14 29 15 30 16 31 51 32
REMARK SMILES IDX 17 33 56 34 50 35 52 36 18 37 55 38 49 39 48 40 19 42 41 43
REMARK SMILES IDX 26 44 40 45 27 46 30 47 39 48 53 49 28 50 29 51 38 53 54 54
REMARK SMILES IDX 31 55 20 56 21 57 25 58 22 59 24 60 23 61 42 62 43 63 47 64
REMARK SMILES IDX 44 65 46 66 45 67 32 68 33 69 37 70 34 71 36 72 35 73
REMARK H PARENT 52 41 30 52
REMARK Flexibility Score: inf
ROOT
ATOM      1  C   UNL A   1      38.601  21.155  25.733  1.00  0.00     0.274 C 
ENDROOT
BRANCH   1   2
ATOM      2  O   UNL A   1      37.524  21.410  24.805  1.00  0.00    -0.462 OA
BRANCH   2   3
ATOM      3  C   UNL A   1      36.270  21.036  25.185  1.00  0.00     0.313 C 
ATOM      4  O   UNL A   1      35.813  19.914  25.002  1.00  0.00    -0.252 OA
BRANCH   3   5
ATOM      5  C   UNL A   1      35.477  22.191  25.835  1.00  0.00     0.126 C 
ATOM      6  C   UNL A   1      34.400  21.636  26.786  1.00  0.00     0.025 C 
BRANCH   5   7
ATOM      7  C   UNL A   1      34.928  23.245  24.853  1.00  0.00    -0.034 A 
ATOM      8  C   UNL A   1      34.659  22.941  23.509  1.00  0.00     0.005 A 
ATOM      9  C   UNL A   1      34.714  24.580  25.255  1.00  0.00     0.005 A 
ATOM     10  C   UNL A   1      34.090  23.888  22.647  1.00  0.00     0.012 A 
ATOM     11  C   UNL A   1      34.149  25.536  24.395  1.00  0.00     0.012 A 
ATOM     12  C   UNL A   1      33.799  25.183  23.092  1.00  0.00     0.023 A 
BRANCH  12  13
ATOM     13  C   UNL A   1      33.034  26.087  22.182  1.00  0.00     0.202 C 
ATOM     14  O   UNL A   1      33.287  26.029  20.981  1.00  0.00    -0.288 OA
BRANCH  13  15
ATOM     15  C   UNL A   1      32.040  26.985  22.729  1.00  0.00     0.075 A 
ATOM     16  C   UNL A   1      30.761  26.694  23.160  1.00  0.00     0.024 A 
ATOM     17  S   UNL A   1      32.448  28.625  22.993  1.00  0.00    -0.140 S 
ATOM     18  C   UNL A   1      30.117  27.832  23.728  1.00  0.00     0.012 A 
ATOM     19  C   UNL A   1      30.919  28.953  23.691  1.00  0.00     0.065 A 
ENDBRANCH  13  15
ENDBRANCH  12  13
ENDBRANCH   5   7
ENDBRANCH   3   5
ENDBRANCH   2   3
ENDBRANCH   1   2
BRANCH   1  20
ATOM     20  C   UNL A   1      39.270  19.839  25.355  1.00  0.00     0.275 C 
BRANCH  20  21
ATOM     21  O   UNL A   1      40.162  19.469  26.422  1.00  0.00    -0.458 OA
BRANCH  21  22
ATOM     22  C   UNL A   1      41.480  19.560  26.152  1.00  0.00     0.338 C 
ATOM     23  O   UNL A   1      42.195  18.736  25.596  1.00  0.00    -0.246 OA
BRANCH  22  24
ATOM     24  C   UNL A   1      41.969  20.862  26.623  1.00  0.00     0.060 A 
ATOM     25  C   UNL A   1      41.953  21.142  27.988  1.00  0.00     0.016 A 
ATOM     26  C   UNL A   1      42.354  21.840  25.706  1.00  0.00     0.016 A 
ATOM     27  C   UNL A   1      42.280  22.420  28.435  1.00  0.00     0.010 A 
ATOM     28  C   UNL A   1      42.738  23.106  26.166  1.00  0.00     0.010 A 
ATOM     29  C   UNL A   1      42.677  23.419  27.535  1.00  0.00    -0.014 A 
BRANCH  29  30
ATOM     30  C   UNL A   1      42.937  24.800  28.027  1.00  0.00     0.031 A 
ATOM     31  C   UNL A   1      44.354  25.297  28.155  1.00  0.00     0.074 A 
ATOM     32  C   UNL A   1      41.922  25.646  28.292  1.00  0.00     0.049 A 
ATOM     33  N   UNL A   1      44.797  26.420  28.666  1.00  0.00    -0.248 NA
ATOM     34  C   UNL A   1      45.414  24.411  27.647  1.00  0.00     0.031 C 
ATOM     35  C   UNL A   1      40.500  25.347  28.115  1.00  0.00     0.029 A 
ATOM     36  N   UNL A   1      41.935  26.952  28.721  1.00  0.00    -0.354 N 
ATOM     37  C   UNL A   1      46.182  26.345  28.598  1.00  0.00     0.074 A 
ATOM     38  C   UNL A   1      46.509  25.078  27.984  1.00  0.00     0.031 C 
ATOM     39  C   UNL A   1      39.787  26.462  28.344  1.00  0.00     0.029 A 
ATOM     40  C   UNL A   1      40.689  27.528  28.769  1.00  0.00     0.049 A 
ATOM     41  H   UNL A   1      42.760  27.429  28.969  1.00  0.00     0.167 HD
ATOM     42  C   UNL A   1      47.100  27.246  29.024  1.00  0.00     0.031 A 
ATOM     43  C   UNL A   1      40.310  28.769  29.131  1.00  0.00     0.031 A 
ATOM     44  C   UNL A   1      46.783  28.527  29.596  1.00  0.00     0.049 A 
ATOM     45  C   UNL A   1      41.346  29.738  29.633  1.00  0.00     0.074 A 
ATOM     46  C   UNL A   1      47.646  29.484  30.104  1.00  0.00     0.029 A 
ATOM     47  N   UNL A   1      45.502  29.042  29.711  1.00  0.00    -0.354 N 
ATOM     48  N   UNL A   1      42.649  29.613  29.674  1.00  0.00    -0.248 NA
ATOM     49  C   UNL A   1      40.848  31.012  30.177  1.00  0.00     0.031 C 
ATOM     50  C   UNL A   1      46.883  30.564  30.561  1.00  0.00     0.029 A 
ATOM     51  C   UNL A   1      45.550  30.298  30.295  1.00  0.00     0.049 A 
ATOM     52  H   UNL A   1      44.680  28.585  29.420  1.00  0.00     0.167 HD
ATOM     53  C   UNL A   1      43.124  30.783  30.250  1.00  0.00     0.074 A 
ATOM     54  C   UNL A   1      41.975  31.624  30.510  1.00  0.00     0.031 C 
ATOM     55  C   UNL A   1      44.400  31.122  30.555  1.00  0.00     0.031 A 
BRANCH  42  56
ATOM     56  C   UNL A   1      48.543  26.839  28.958  1.00  0.00    -0.014 A 
ATOM     57  C   UNL A   1      49.314  27.032  27.803  1.00  0.00     0.009 A 
ATOM     58  C   UNL A   1      49.144  26.269  30.093  1.00  0.00     0.009 A 
ATOM     59  C   UNL A   1      50.654  26.638  27.779  1.00  0.00     0.001 A 
ATOM     60  C   UNL A   1      50.488  25.898  30.073  1.00  0.00     0.001 A 
ATOM     61  C   UNL A   1      51.240  26.075  28.912  1.00  0.00     0.000 A 
ENDBRANCH  42  56
BRANCH  43  62
ATOM     62  C   UNL A   1      38.877  29.166  29.084  1.00  0.00    -0.014 A 
ATOM     63  C   UNL A   1      38.048  28.963  30.198  1.00  0.00     0.009 A 
ATOM     64  C   UNL A   1      38.321  29.715  27.918  1.00  0.00     0.009 A 
ATOM     65  C   UNL A   1      36.689  29.284  30.138  1.00  0.00     0.001 A 
ATOM     66  C   UNL A   1      36.970  30.066  27.872  1.00  0.00     0.001 A 
ATOM     67  C   UNL A   1      36.154  29.841  28.977  1.00  0.00     0.000 A 
ENDBRANCH  43  62
BRANCH  55  68
ATOM     68  C   UNL A   1      44.619  32.458  31.202  1.00  0.00    -0.014 A 
ATOM     69  C   UNL A   1      44.802  33.613  30.426  1.00  0.00     0.009 A 
ATOM     70  C   UNL A   1      44.604  32.572  32.601  1.00  0.00     0.009 A 
ATOM     71  C   UNL A   1      44.993  34.853  31.039  1.00  0.00     0.001 A 
ATOM     72  C   UNL A   1      44.773  33.816  33.210  1.00  0.00     0.001 A 
ATOM     73  C   UNL A   1      44.976  34.954  32.429  1.00  0.00     0.000 A 
ENDBRANCH  55  68
ENDBRANCH  29  30
ENDBRANCH  22  24
ENDBRANCH  21  22
ENDBRANCH  20  21
ENDBRANCH   1  20
TORSDOF 14
ENDMDL
