MODEL 1
REMARK VINA RESULT:     -12.7      0.000      0.000
REMARK SMILES Cc1c(CC(=O)OCCOC(=O)c2ccc(-c3c4nc(c(-c5ccccc5)c5ccc([nH]5)c(-c5ccccc5)c5nc(c(-c6ccccc6)c6ccc3[nH]6)C=C5)C=C4)cc2)cccc1-c1ccn(C(F)F)c(=O)c1
REMARK SMILES IDX 8 1 7 2 5 3 6 4 4 5 3 6 1 7 2 8 64 9 61 10 63 11 62 12 65 13
REMARK SMILES IDX 66 14 74 15 67 16 72 17 68 18 73 19 69 20 70 21 71 22 9 23
REMARK SMILES IDX 10 24 11 25 12 26 13 27 14 28 60 29 15 30 59 31 16 32 17 33
REMARK SMILES IDX 18 34 53 35 19 36 58 37 52 38 54 39 20 40 57 41 51 42 50 43
REMARK SMILES IDX 21 45 43 46 28 47 42 48 29 49 32 50 41 51 55 52 30 53 31 54
REMARK SMILES IDX 40 56 56 57 33 58 22 59 23 60 27 61 24 62 26 63 25 64 44 65
REMARK SMILES IDX 45 66 49 67 46 68 48 69 47 70 34 71 35 72 39 73 36 74 38 75
REMARK SMILES IDX 37 76
REMARK H PARENT 54 44 32 55
REMARK Flexibility Score: inf
ROOT
ATOM      1  C   UNL A   1      40.140  20.637  25.950  1.00  0.00     0.274 C 
ENDROOT
BRANCH   1   2
ATOM      2  O   UNL A   1      39.276  21.643  26.498  1.00  0.00    -0.462 OA
BRANCH   2   3
ATOM      3  C   UNL A   1      38.069  21.936  25.752  1.00  0.00     0.310 C 
ATOM      4  O   UNL A   1      38.067  23.202  25.638  1.00  0.00    -0.252 OA
BRANCH   3   5
ATOM      5  C   UNL A   1      36.681  20.445  25.007  1.00  0.00     0.158 C 
BRANCH   5   6
ATOM      6  C   UNL A   1      34.961  20.369  24.812  1.00  0.00    -0.033 A 
ATOM      7  C   UNL A   1      34.791  22.896  24.416  1.00  0.00     0.045 C 
ATOM      8  C   UNL A   1      34.169  21.548  24.690  1.00  0.00    -0.039 A 
ATOM      9  C   UNL A   1      32.757  21.427  24.761  1.00  0.00    -0.015 A 
ATOM     10  C   UNL A   1      34.308  19.131  24.631  1.00  0.00     0.004 A 
ATOM     11  C   UNL A   1      32.159  20.167  24.877  1.00  0.00     0.009 A 
ATOM     12  C   UNL A   1      32.932  19.023  24.758  1.00  0.00     0.001 A 
BRANCH   9  13
ATOM     13  C   UNL A   1      31.870  22.600  24.664  1.00  0.00    -0.011 A 
ATOM     14  C   UNL A   1      31.470  23.154  23.384  1.00  0.00     0.027 A 
ATOM     15  C   UNL A   1      31.503  23.216  25.799  1.00  0.00     0.080 A 
ATOM     16  C   UNL A   1      30.851  24.338  23.328  1.00  0.00     0.095 A 
ATOM     17  C   UNL A   1      30.757  24.504  25.750  1.00  0.00     0.255 A 
ATOM     18  N   UNL A   1      30.525  25.021  24.484  1.00  0.00    -0.258 N 
ATOM     19  O   UNL A   1      30.439  25.034  26.808  1.00  0.00    -0.269 OA
BRANCH  18  20
ATOM     20  C   UNL A   1      29.940  26.334  24.415  1.00  0.00     0.451 C 
ATOM     21  F   UNL A   1      30.194  26.926  23.225  1.00  0.00    -0.185 F 
ATOM     22  F   UNL A   1      28.595  26.268  24.577  1.00  0.00    -0.185 F 
ENDBRANCH  18  20
ENDBRANCH   9  13
ENDBRANCH   5   6
ENDBRANCH   3   5
ENDBRANCH   2   3
ENDBRANCH   1   2
BRANCH   1  23
ATOM     23  C   UNL A   1      41.593  21.035  26.239  1.00  0.00     0.275 C 
BRANCH  23  24
ATOM     24  O   UNL A   1      42.009  22.333  25.720  1.00  0.00    -0.458 OA
BRANCH  24  25
ATOM     25  C   UNL A   1      42.312  23.418  26.489  1.00  0.00     0.338 C 
ATOM     26  O   UNL A   1      43.184  23.427  27.342  1.00  0.00    -0.246 OA
BRANCH  25  27
ATOM     27  C   UNL A   1      41.255  24.449  26.524  1.00  0.00     0.060 A 
ATOM     28  C   UNL A   1      41.596  25.907  25.508  1.00  0.00     0.016 A 
ATOM     29  C   UNL A   1      40.235  24.581  28.003  1.00  0.00     0.016 A 
ATOM     30  C   UNL A   1      41.119  27.551  26.131  1.00  0.00     0.010 A 
ATOM     31  C   UNL A   1      39.736  26.209  28.593  1.00  0.00     0.010 A 
ATOM     32  C   UNL A   1      40.289  27.688  27.709  1.00  0.00    -0.014 A 
BRANCH  32  33
ATOM     33  C   UNL A   1      40.516  28.807  28.609  1.00  0.00     0.031 A 
ATOM     34  C   UNL A   1      39.429  29.782  28.738  1.00  0.00     0.074 A 
ATOM     35  C   UNL A   1      41.584  28.776  29.447  1.00  0.00     0.049 A 
ATOM     36  N   UNL A   1      39.587  30.968  29.194  1.00  0.00    -0.248 NA
ATOM     37  C   UNL A   1      38.066  29.546  28.266  1.00  0.00     0.031 C 
ATOM     38  C   UNL A   1      41.793  29.545  30.673  1.00  0.00     0.029 A 
ATOM     39  N   UNL A   1      42.786  28.081  29.345  1.00  0.00    -0.354 N 
ATOM     40  C   UNL A   1      38.329  31.461  29.447  1.00  0.00     0.074 A 
ATOM     41  C   UNL A   1      37.437  30.651  28.668  1.00  0.00     0.031 C 
ATOM     42  C   UNL A   1      43.102  29.512  30.995  1.00  0.00     0.029 A 
ATOM     43  C   UNL A   1      43.801  28.847  29.913  1.00  0.00     0.049 A 
ATOM     44  H   UNL A   1      42.900  27.193  28.938  1.00  0.00     0.167 HD
ATOM     45  C   UNL A   1      38.189  32.372  30.443  1.00  0.00     0.031 A 
ATOM     46  C   UNL A   1      44.805  29.387  29.155  1.00  0.00     0.031 A 
ATOM     47  C   UNL A   1      39.507  32.789  30.940  1.00  0.00     0.049 A 
ATOM     48  C   UNL A   1      44.653  30.901  29.040  1.00  0.00     0.074 A 
ATOM     49  C   UNL A   1      40.238  32.522  32.083  1.00  0.00     0.029 A 
ATOM     50  N   UNL A   1      40.423  33.266  30.012  1.00  0.00    -0.354 N 
ATOM     51  N   UNL A   1      43.654  31.569  29.556  1.00  0.00    -0.248 NA
ATOM     52  C   UNL A   1      45.553  31.779  28.295  1.00  0.00     0.031 C 
ATOM     53  C   UNL A   1      41.614  32.810  31.801  1.00  0.00     0.029 A 
ATOM     54  C   UNL A   1      41.709  33.305  30.511  1.00  0.00     0.049 A 
ATOM     55  H   UNL A   1      40.182  33.546  29.099  1.00  0.00     0.167 HD
ATOM     56  C   UNL A   1      43.725  32.891  29.225  1.00  0.00     0.074 A 
ATOM     57  C   UNL A   1      44.923  32.966  28.401  1.00  0.00     0.031 C 
ATOM     58  C   UNL A   1      42.779  33.794  29.638  1.00  0.00     0.031 A 
BRANCH  45  59
ATOM     59  C   UNL A   1      36.880  32.719  31.106  1.00  0.00    -0.014 A 
ATOM     60  C   UNL A   1      35.995  33.586  30.443  1.00  0.00     0.009 A 
ATOM     61  C   UNL A   1      36.481  32.306  32.393  1.00  0.00     0.009 A 
ATOM     62  C   UNL A   1      34.798  34.018  31.031  1.00  0.00     0.001 A 
ATOM     63  C   UNL A   1      35.276  32.715  32.980  1.00  0.00     0.001 A 
ATOM     64  C   UNL A   1      34.435  33.579  32.300  1.00  0.00     0.000 A 
ENDBRANCH  45  59
BRANCH  46  65
ATOM     65  C   UNL A   1      45.316  28.448  28.105  1.00  0.00    -0.014 A 
ATOM     66  C   UNL A   1      45.814  27.204  28.557  1.00  0.00     0.009 A 
ATOM     67  C   UNL A   1      44.939  28.555  26.761  1.00  0.00     0.009 A 
ATOM     68  C   UNL A   1      45.732  26.060  27.758  1.00  0.00     0.001 A 
ATOM     69  C   UNL A   1      44.900  27.408  25.948  1.00  0.00     0.001 A 
ATOM     70  C   UNL A   1      45.235  26.156  26.465  1.00  0.00     0.000 A 
ENDBRANCH  46  65
BRANCH  58  71
ATOM     71  C   UNL A   1      42.738  35.248  29.218  1.00  0.00    -0.014 A 
ATOM     72  C   UNL A   1      43.401  36.271  29.899  1.00  0.00     0.009 A 
ATOM     73  C   UNL A   1      41.938  35.654  28.122  1.00  0.00     0.009 A 
ATOM     74  C   UNL A   1      43.369  37.594  29.437  1.00  0.00     0.001 A 
ATOM     75  C   UNL A   1      41.881  36.970  27.669  1.00  0.00     0.001 A 
ATOM     76  C   UNL A   1      42.623  37.941  28.315  1.00  0.00     0.000 A 
ENDBRANCH  58  71
ENDBRANCH  32  33
ENDBRANCH  25  27
ENDBRANCH  24  25
ENDBRANCH  23  24
ENDBRANCH   1  23
TORSDOF 14
ENDMDL
MODEL 2
REMARK VINA RESULT:     -12.4      3.938      9.058
REMARK SMILES Cc1c(CC(=O)OCCOC(=O)c2ccc(-c3c4nc(c(-c5ccccc5)c5ccc([nH]5)c(-c5ccccc5)c5nc(c(-c6ccccc6)c6ccc3[nH]6)C=C5)C=C4)cc2)cccc1-c1ccn(C(F)F)c(=O)c1
REMARK SMILES IDX 8 1 7 2 5 3 6 4 4 5 3 6 1 7 2 8 64 9 61 10 63 11 62 12 65 13
REMARK SMILES IDX 66 14 74 15 67 16 72 17 68 18 73 19 69 20 70 21 71 22 9 23
REMARK SMILES IDX 10 24 11 25 12 26 13 27 14 28 60 29 15 30 59 31 16 32 17 33
REMARK SMILES IDX 18 34 53 35 19 36 58 37 52 38 54 39 20 40 57 41 51 42 50 43
REMARK SMILES IDX 21 45 43 46 28 47 42 48 29 49 32 50 41 51 55 52 30 53 31 54
REMARK SMILES IDX 40 56 56 57 33 58 22 59 23 60 27 61 24 62 26 63 25 64 44 65
REMARK SMILES IDX 45 66 49 67 46 68 48 69 47 70 34 71 35 72 39 73 36 74 38 75
REMARK SMILES IDX 37 76
REMARK H PARENT 54 44 32 55
REMARK Flexibility Score: inf
ROOT
ATOM      1  C   UNL A   1      33.216  31.805  27.623  1.00  0.00     0.274 C 
ENDROOT
BRANCH   1   2
ATOM      2  O   UNL A   1      33.891  30.735  26.943  1.00  0.00    -0.462 OA
BRANCH   2   3
ATOM      3  C   UNL A   1      33.053  29.768  26.266  1.00  0.00     0.310 C 
ATOM      4  O   UNL A   1      32.040  30.437  25.887  1.00  0.00    -0.252 OA
BRANCH   3   5
ATOM      5  C   UNL A   1      33.554  27.677  25.982  1.00  0.00     0.158 C 
BRANCH   5   6
ATOM      6  C   UNL A   1      33.481  26.575  24.647  1.00  0.00    -0.033 A 
ATOM      7  C   UNL A   1      33.208  24.552  26.197  1.00  0.00     0.045 C 
ATOM      8  C   UNL A   1      33.469  25.163  24.841  1.00  0.00    -0.039 A 
ATOM      9  C   UNL A   1      33.636  24.321  23.711  1.00  0.00    -0.015 A 
ATOM     10  C   UNL A   1      33.295  27.048  23.330  1.00  0.00     0.004 A 
ATOM     11  C   UNL A   1      33.740  24.871  22.428  1.00  0.00     0.009 A 
ATOM     12  C   UNL A   1      33.516  26.224  22.237  1.00  0.00     0.001 A 
BRANCH   9  13
ATOM     13  C   UNL A   1      33.654  22.852  23.831  1.00  0.00    -0.011 A 
ATOM     14  C   UNL A   1      32.490  22.044  23.522  1.00  0.00     0.027 A 
ATOM     15  C   UNL A   1      34.756  22.268  24.327  1.00  0.00     0.080 A 
ATOM     16  C   UNL A   1      32.466  20.748  23.848  1.00  0.00     0.095 A 
ATOM     17  C   UNL A   1      34.763  20.811  24.634  1.00  0.00     0.255 A 
ATOM     18  N   UNL A   1      33.567  20.143  24.422  1.00  0.00    -0.258 N 
ATOM     19  O   UNL A   1      35.790  20.315  25.085  1.00  0.00    -0.269 OA
BRANCH  18  20
ATOM     20  C   UNL A   1      33.504  18.770  24.851  1.00  0.00     0.451 C 
ATOM     21  F   UNL A   1      32.227  18.325  24.896  1.00  0.00    -0.185 F 
ATOM     22  F   UNL A   1      34.202  17.971  24.007  1.00  0.00    -0.185 F 
ENDBRANCH  18  20
ENDBRANCH   9  13
ENDBRANCH   5   6
ENDBRANCH   3   5
ENDBRANCH   2   3
ENDBRANCH   1   2
BRANCH   1  23
ATOM     23  C   UNL A   1      34.267  32.817  28.098  1.00  0.00     0.275 C 
BRANCH  23  24
ATOM     24  O   UNL A   1      34.714  32.664  29.478  1.00  0.00    -0.458 OA
BRANCH  24  25
ATOM     25  C   UNL A   1      35.967  32.275  29.851  1.00  0.00     0.338 C 
ATOM     26  O   UNL A   1      36.851  33.050  30.179  1.00  0.00    -0.246 OA
BRANCH  25  27
ATOM     27  C   UNL A   1      36.324  30.903  29.440  1.00  0.00     0.060 A 
ATOM     28  C   UNL A   1      36.407  29.710  30.797  1.00  0.00     0.016 A 
ATOM     29  C   UNL A   1      37.338  30.686  27.967  1.00  0.00     0.016 A 
ATOM     30  C   UNL A   1      37.709  28.436  30.778  1.00  0.00     0.010 A 
ATOM     31  C   UNL A   1      38.599  29.400  27.940  1.00  0.00     0.010 A 
ATOM     32  C   UNL A   1      38.849  28.364  29.402  1.00  0.00    -0.014 A 
BRANCH  32  33
ATOM     33  C   UNL A   1      40.243  27.987  29.571  1.00  0.00     0.031 A 
ATOM     34  C   UNL A   1      40.652  26.698  29.003  1.00  0.00     0.074 A 
ATOM     35  C   UNL A   1      41.131  28.914  30.015  1.00  0.00     0.049 A 
ATOM     36  N   UNL A   1      41.712  26.071  29.352  1.00  0.00    -0.248 NA
ATOM     37  C   UNL A   1      39.845  25.937  28.052  1.00  0.00     0.031 C 
ATOM     38  C   UNL A   1      42.586  28.905  29.884  1.00  0.00     0.029 A 
ATOM     39  N   UNL A   1      40.924  30.068  30.765  1.00  0.00    -0.354 N 
ATOM     40  C   UNL A   1      41.915  25.091  28.411  1.00  0.00     0.074 A 
ATOM     41  C   UNL A   1      40.645  24.908  27.768  1.00  0.00     0.031 C 
ATOM     42  C   UNL A   1      43.112  29.782  30.763  1.00  0.00     0.029 A 
ATOM     43  C   UNL A   1      42.027  30.275  31.589  1.00  0.00     0.049 A 
ATOM     44  H   UNL A   1      40.127  30.644  30.720  1.00  0.00     0.167 HD
ATOM     45  C   UNL A   1      43.191  24.697  28.164  1.00  0.00     0.031 A 
ATOM     46  C   UNL A   1      41.939  30.161  32.951  1.00  0.00     0.031 A 
ATOM     47  C   UNL A   1      44.108  25.308  29.134  1.00  0.00     0.049 A 
ATOM     48  C   UNL A   1      42.657  28.909  33.445  1.00  0.00     0.074 A 
ATOM     49  C   UNL A   1      45.035  26.333  29.076  1.00  0.00     0.029 A 
ATOM     50  N   UNL A   1      43.830  25.130  30.483  1.00  0.00    -0.354 N 
ATOM     51  N   UNL A   1      43.225  28.039  32.650  1.00  0.00    -0.248 NA
ATOM     52  C   UNL A   1      42.745  28.490  34.842  1.00  0.00     0.031 C 
ATOM     53  C   UNL A   1      45.270  26.788  30.415  1.00  0.00     0.029 A 
ATOM     54  C   UNL A   1      44.532  26.004  31.287  1.00  0.00     0.049 A 
ATOM     55  H   UNL A   1      43.202  24.454  30.827  1.00  0.00     0.167 HD
ATOM     56  C   UNL A   1      43.711  26.976  33.354  1.00  0.00     0.074 A 
ATOM     57  C   UNL A   1      43.354  27.293  34.729  1.00  0.00     0.031 C 
ATOM     58  C   UNL A   1      44.339  25.924  32.737  1.00  0.00     0.031 A 
BRANCH  45  59
ATOM     59  C   UNL A   1      43.629  23.945  26.932  1.00  0.00    -0.014 A 
ATOM     60  C   UNL A   1      43.805  24.654  25.733  1.00  0.00     0.009 A 
ATOM     61  C   UNL A   1      43.811  22.549  26.850  1.00  0.00     0.009 A 
ATOM     62  C   UNL A   1      44.132  24.011  24.530  1.00  0.00     0.001 A 
ATOM     63  C   UNL A   1      44.158  21.901  25.657  1.00  0.00     0.001 A 
ATOM     64  C   UNL A   1      44.313  22.633  24.492  1.00  0.00     0.000 A 
ENDBRANCH  45  59
BRANCH  46  65
ATOM     65  C   UNL A   1      40.687  30.764  33.510  1.00  0.00    -0.014 A 
ATOM     66  C   UNL A   1      40.474  32.138  33.248  1.00  0.00     0.009 A 
ATOM     67  C   UNL A   1      39.579  29.986  33.869  1.00  0.00     0.009 A 
ATOM     68  C   UNL A   1      39.182  32.661  33.137  1.00  0.00     0.001 A 
ATOM     69  C   UNL A   1      38.284  30.529  33.798  1.00  0.00     0.001 A 
ATOM     70  C   UNL A   1      38.085  31.843  33.372  1.00  0.00     0.000 A 
ENDBRANCH  46  65
BRANCH  58  71
ATOM     71  C   UNL A   1      44.803  24.667  33.442  1.00  0.00    -0.014 A 
ATOM     72  C   UNL A   1      46.140  24.392  33.737  1.00  0.00     0.009 A 
ATOM     73  C   UNL A   1      43.875  23.651  33.777  1.00  0.00     0.009 A 
ATOM     74  C   UNL A   1      46.508  23.235  34.437  1.00  0.00     0.001 A 
ATOM     75  C   UNL A   1      44.235  22.486  34.452  1.00  0.00     0.001 A 
ATOM     76  C   UNL A   1      45.556  22.290  34.808  1.00  0.00     0.000 A 
ENDBRANCH  58  71
ENDBRANCH  32  33
ENDBRANCH  25  27
ENDBRANCH  24  25
ENDBRANCH  23  24
ENDBRANCH   1  23
TORSDOF 14
ENDMDL
MODEL 3
REMARK VINA RESULT:     -12.3      5.656      9.807
REMARK SMILES Cc1c(CC(=O)OCCOC(=O)c2ccc(-c3c4nc(c(-c5ccccc5)c5ccc([nH]5)c(-c5ccccc5)c5nc(c(-c6ccccc6)c6ccc3[nH]6)C=C5)C=C4)cc2)cccc1-c1ccn(C(F)F)c(=O)c1
REMARK SMILES IDX 8 1 7 2 5 3 6 4 4 5 3 6 1 7 2 8 64 9 61 10 63 11 62 12 65 13
REMARK SMILES IDX 66 14 74 15 67 16 72 17 68 18 73 19 69 20 70 21 71 22 9 23
REMARK SMILES IDX 10 24 11 25 12 26 13 27 14 28 60 29 15 30 59 31 16 32 17 33
REMARK SMILES IDX 18 34 53 35 19 36 58 37 52 38 54 39 20 40 57 41 51 42 50 43
REMARK SMILES IDX 21 45 43 46 28 47 42 48 29 49 32 50 41 51 55 52 30 53 31 54
REMARK SMILES IDX 40 56 56 57 33 58 22 59 23 60 27 61 24 62 26 63 25 64 44 65
REMARK SMILES IDX 45 66 49 67 46 68 48 69 47 70 34 71 35 72 39 73 36 74 38 75
REMARK SMILES IDX 37 76
REMARK H PARENT 54 44 32 55
REMARK Flexibility Score: inf
ROOT
ATOM      1  C   UNL A   1      38.120  21.481  25.447  1.00  0.00     0.274 C 
ENDROOT
BRANCH   1   2
ATOM      2  O   UNL A   1      36.956  22.135  25.978  1.00  0.00    -0.462 OA
BRANCH   2   3
ATOM      3  C   UNL A   1      36.079  22.774  25.019  1.00  0.00     0.310 C 
ATOM      4  O   UNL A   1      36.062  21.978  24.027  1.00  0.00    -0.252 OA
BRANCH   3   5
ATOM      5  C   UNL A   1      35.042  24.650  25.347  1.00  0.00     0.158 C 
BRANCH   5   6
ATOM      6  C   UNL A   1      33.378  25.123  25.447  1.00  0.00    -0.033 A 
ATOM      7  C   UNL A   1      33.725  27.068  23.814  1.00  0.00     0.045 C 
ATOM      8  C   UNL A   1      32.901  26.317  24.831  1.00  0.00    -0.039 A 
ATOM      9  C   UNL A   1      31.589  26.761  25.139  1.00  0.00    -0.015 A 
ATOM     10  C   UNL A   1      32.418  24.268  26.028  1.00  0.00     0.004 A 
ATOM     11  C   UNL A   1      30.761  26.001  25.974  1.00  0.00     0.009 A 
ATOM     12  C   UNL A   1      31.158  24.735  26.371  1.00  0.00     0.001 A 
BRANCH   9  13
ATOM     13  C   UNL A   1      31.029  27.996  24.559  1.00  0.00    -0.011 A 
ATOM     14  C   UNL A   1      31.317  29.303  25.118  1.00  0.00     0.027 A 
ATOM     15  C   UNL A   1      30.160  27.884  23.543  1.00  0.00     0.080 A 
ATOM     16  C   UNL A   1      30.626  30.374  24.713  1.00  0.00     0.095 A 
ATOM     17  C   UNL A   1      29.431  29.081  23.040  1.00  0.00     0.255 A 
ATOM     18  N   UNL A   1      29.678  30.267  23.714  1.00  0.00    -0.258 N 
ATOM     19  O   UNL A   1      28.647  28.937  22.109  1.00  0.00    -0.269 OA
BRANCH  18  20
ATOM     20  C   UNL A   1      28.877  31.404  23.345  1.00  0.00     0.451 C 
ATOM     21  F   UNL A   1      27.595  31.260  23.754  1.00  0.00    -0.185 F 
ATOM     22  F   UNL A   1      29.372  32.539  23.897  1.00  0.00    -0.185 F 
ENDBRANCH  18  20
ENDBRANCH   9  13
ENDBRANCH   5   6
ENDBRANCH   3   5
ENDBRANCH   2   3
ENDBRANCH   1   2
BRANCH   1  23
ATOM     23  C   UNL A   1      39.343  21.943  26.249  1.00  0.00     0.275 C 
BRANCH  23  24
ATOM     24  O   UNL A   1      40.629  21.425  25.798  1.00  0.00    -0.458 OA
BRANCH  24  25
ATOM     25  C   UNL A   1      41.815  22.091  25.898  1.00  0.00     0.338 C 
ATOM     26  O   UNL A   1      42.840  21.745  25.332  1.00  0.00    -0.246 OA
BRANCH  25  27
ATOM     27  C   UNL A   1      41.900  23.009  27.051  1.00  0.00     0.060 A 
ATOM     28  C   UNL A   1      42.091  24.753  26.610  1.00  0.00     0.016 A 
ATOM     29  C   UNL A   1      42.566  22.378  28.602  1.00  0.00     0.016 A 
ATOM     30  C   UNL A   1      43.185  25.806  27.617  1.00  0.00     0.010 A 
ATOM     31  C   UNL A   1      43.617  23.438  29.611  1.00  0.00     0.010 A 
ATOM     32  C   UNL A   1      44.011  25.109  29.041  1.00  0.00    -0.014 A 
BRANCH  32  33
ATOM     33  C   UNL A   1      45.349  25.518  29.436  1.00  0.00     0.031 A 
ATOM     34  C   UNL A   1      46.447  25.141  28.541  1.00  0.00     0.074 A 
ATOM     35  C   UNL A   1      45.496  26.409  30.451  1.00  0.00     0.049 A 
ATOM     36  N   UNL A   1      47.677  25.111  28.895  1.00  0.00    -0.248 NA
ATOM     37  C   UNL A   1      46.251  24.658  27.175  1.00  0.00     0.031 C 
ATOM     38  C   UNL A   1      46.652  27.251  30.752  1.00  0.00     0.029 A 
ATOM     39  N   UNL A   1      44.644  26.713  31.509  1.00  0.00    -0.354 N 
ATOM     40  C   UNL A   1      48.415  25.018  27.740  1.00  0.00     0.074 A 
ATOM     41  C   UNL A   1      47.507  24.528  26.744  1.00  0.00     0.031 C 
ATOM     42  C   UNL A   1      46.552  27.697  32.021  1.00  0.00     0.029 A 
ATOM     43  C   UNL A   1      45.409  27.040  32.625  1.00  0.00     0.049 A 
ATOM     44  H   UNL A   1      43.661  26.700  31.473  1.00  0.00     0.167 HD
ATOM     45  C   UNL A   1      49.661  25.559  27.734  1.00  0.00     0.031 A 
ATOM     46  C   UNL A   1      45.438  26.241  33.737  1.00  0.00     0.031 A 
ATOM     47  C   UNL A   1      50.035  25.989  29.086  1.00  0.00     0.049 A 
ATOM     48  C   UNL A   1      46.781  25.529  33.867  1.00  0.00     0.074 A 
ATOM     49  C   UNL A   1      50.144  27.215  29.717  1.00  0.00     0.029 A 
ATOM     50  N   UNL A   1      49.953  25.050  30.107  1.00  0.00    -0.354 N 
ATOM     51  N   UNL A   1      47.744  25.636  32.989  1.00  0.00    -0.248 NA
ATOM     52  C   UNL A   1      47.136  24.599  34.937  1.00  0.00     0.031 C 
ATOM     53  C   UNL A   1      50.080  26.989  31.131  1.00  0.00     0.029 A 
ATOM     54  C   UNL A   1      49.992  25.626  31.360  1.00  0.00     0.049 A 
ATOM     55  H   UNL A   1      49.874  24.081  29.952  1.00  0.00     0.167 HD
ATOM     56  C   UNL A   1      48.793  24.823  33.311  1.00  0.00     0.074 A 
ATOM     57  C   UNL A   1      48.346  24.166  34.531  1.00  0.00     0.031 C 
ATOM     58  C   UNL A   1      49.919  24.750  32.531  1.00  0.00     0.031 A 
BRANCH  45  59
ATOM     59  C   UNL A   1      50.441  25.891  26.486  1.00  0.00    -0.014 A 
ATOM     60  C   UNL A   1      51.709  25.316  26.308  1.00  0.00     0.009 A 
ATOM     61  C   UNL A   1      50.039  26.807  25.492  1.00  0.00     0.009 A 
ATOM     62  C   UNL A   1      52.526  25.642  25.215  1.00  0.00     0.001 A 
ATOM     63  C   UNL A   1      50.840  27.122  24.386  1.00  0.00     0.001 A 
ATOM     64  C   UNL A   1      52.090  26.542  24.250  1.00  0.00     0.000 A 
ENDBRANCH  45  59
BRANCH  46  65
ATOM     65  C   UNL A   1      44.090  25.701  34.106  1.00  0.00    -0.014 A 
ATOM     66  C   UNL A   1      43.879  24.320  33.884  1.00  0.00     0.009 A 
ATOM     67  C   UNL A   1      43.244  26.357  35.008  1.00  0.00     0.009 A 
ATOM     68  C   UNL A   1      43.007  23.584  34.691  1.00  0.00     0.001 A 
ATOM     69  C   UNL A   1      42.337  25.618  35.787  1.00  0.00     0.001 A 
ATOM     70  C   UNL A   1      42.265  24.229  35.672  1.00  0.00     0.000 A 
ENDBRANCH  46  65
BRANCH  58  71
ATOM     71  C   UNL A   1      51.068  23.793  32.770  1.00  0.00    -0.014 A 
ATOM     72  C   UNL A   1      52.412  24.149  32.643  1.00  0.00     0.009 A 
ATOM     73  C   UNL A   1      50.816  22.432  33.070  1.00  0.00     0.009 A 
ATOM     74  C   UNL A   1      53.438  23.235  32.925  1.00  0.00     0.001 A 
ATOM     75  C   UNL A   1      51.828  21.511  33.329  1.00  0.00     0.001 A 
ATOM     76  C   UNL A   1      53.146  21.923  33.282  1.00  0.00     0.000 A 
ENDBRANCH  58  71
ENDBRANCH  32  33
ENDBRANCH  25  27
ENDBRANCH  24  25
ENDBRANCH  23  24
ENDBRANCH   1  23
TORSDOF 14
ENDMDL
