MODEL 1
REMARK VINA RESULT:     -12.4      0.000      0.000
REMARK SMILES CS(=O)(=O)c1ccc(C2=NN(c3ccc(C(=O)OCCOC(=O)c4ccc(-c5c6nc(c(-c7ccccc7)c7ccc([nH]7)c(-c7ccccc7)c7nc(c(-c8ccccc8)c8ccc5[nH]8)C=C7)C=C6)cc4)cc3)[C@H](c3cccs3)C2)cc1
REMARK SMILES IDX 19 1 18 2 16 3 17 4 15 5 12 6 13 7 73 8 14 9 72 10 11 11
REMARK SMILES IDX 9 12 10 13 80 14 74 15 8 16 5 17 6 18 82 19 7 20 81 21 2 22
REMARK SMILES IDX 1 23 3 24 4 25 75 26 76 27 79 28 77 29 78 30 20 31 21 32
REMARK SMILES IDX 22 33 23 34 24 35 25 36 71 37 26 38 70 39 27 40 28 41 29 42
REMARK SMILES IDX 64 43 30 44 69 45 63 46 65 47 31 48 68 49 62 50 61 51 32 53
REMARK SMILES IDX 54 54 39 55 53 56 40 57 43 58 52 59 66 60 41 61 42 62 51 64
REMARK SMILES IDX 67 65 44 66 33 67 34 68 38 69 35 70 37 71 36 72 55 73 56 74
REMARK SMILES IDX 60 75 57 76 59 77 58 78 45 79 46 80 50 81 47 82 49 83 48 84
REMARK H PARENT 65 52 43 63
REMARK Flexibility Score: inf
ROOT
ATOM      1  C   UNL A   1      40.589  20.575  26.514  1.00  0.00     0.275 C 
ENDROOT
BRANCH   1   2
ATOM      2  O   UNL A   1      39.506  21.143  25.752  1.00  0.00    -0.458 OA
BRANCH   2   3
ATOM      3  C   UNL A   1      39.049  22.346  26.177  1.00  0.00     0.338 C 
ATOM      4  O   UNL A   1      39.643  23.134  26.896  1.00  0.00    -0.246 OA
BRANCH   3   5
ATOM      5  C   UNL A   1      37.724  22.649  25.581  1.00  0.00     0.060 A 
ATOM      6  C   UNL A   1      35.174  23.261  24.565  1.00  0.00     0.060 A 
ATOM      7  C   UNL A   1      35.640  23.887  25.723  1.00  0.00     0.029 A 
ATOM      8  C   UNL A   1      36.008  22.347  23.907  1.00  0.00     0.029 A 
ATOM      9  C   UNL A   1      36.889  23.558  26.246  1.00  0.00     0.018 A 
ATOM     10  C   UNL A   1      37.283  22.047  24.400  1.00  0.00     0.018 A 
BRANCH   6  11
ATOM     11  N   UNL A   1      33.857  23.443  24.130  1.00  0.00    -0.257 N 
ATOM     12  C   UNL A   1      32.155  24.717  23.999  1.00  0.00     0.071 C 
ATOM     13  N   UNL A   1      33.432  24.686  23.778  1.00  0.00    -0.176 NA
ATOM     14  C   UNL A   1      31.564  23.500  24.656  1.00  0.00     0.091 C 
ATOM     15  C   UNL A   1      32.819  22.634  24.789  1.00  0.00     0.154 C 
BRANCH  12  16
ATOM     16  C   UNL A   1      31.304  25.844  23.589  1.00  0.00    -0.002 A 
ATOM     17  C   UNL A   1      29.649  27.989  22.964  1.00  0.00     0.067 A 
ATOM     18  C   UNL A   1      29.157  26.950  23.758  1.00  0.00     0.021 A 
ATOM     19  C   UNL A   1      30.960  27.954  22.471  1.00  0.00     0.021 A 
ATOM     20  C   UNL A   1      29.984  25.867  24.055  1.00  0.00     0.011 A 
ATOM     21  C   UNL A   1      31.797  26.882  22.796  1.00  0.00     0.011 A 
BRANCH  17  22
ATOM     22  S   UNL A   1      28.619  29.389  22.583  1.00  0.00     0.175 S 
ATOM     23  C   UNL A   1      29.196  30.713  23.609  1.00  0.00     0.163 C 
ATOM     24  O   UNL A   1      27.277  29.061  23.026  1.00  0.00    -0.224 OA
ATOM     25  O   UNL A   1      28.890  29.731  21.200  1.00  0.00    -0.224 OA
ENDBRANCH  17  22
ENDBRANCH  12  16
BRANCH  15  26
ATOM     26  C   UNL A   1      32.728  21.215  24.272  1.00  0.00     0.030 A 
ATOM     27  C   UNL A   1      32.247  20.827  23.031  1.00  0.00     0.017 A 
ATOM     28  S   UNL A   1      33.085  19.848  25.241  1.00  0.00    -0.147 S 
ATOM     29  C   UNL A   1      32.166  19.414  22.887  1.00  0.00     0.012 A 
ATOM     30  C   UNL A   1      32.611  18.760  24.013  1.00  0.00     0.065 A 
ENDBRANCH  15  26
ENDBRANCH   6  11
ENDBRANCH   3   5
ENDBRANCH   2   3
ENDBRANCH   1   2
BRANCH   1  31
ATOM     31  C   UNL A   1      41.900  20.645  25.734  1.00  0.00     0.275 C 
BRANCH  31  32
ATOM     32  O   UNL A   1      42.812  21.567  26.358  1.00  0.00    -0.458 OA
BRANCH  32  33
ATOM     33  C   UNL A   1      42.983  22.743  25.713  1.00  0.00     0.338 C 
ATOM     34  O   UNL A   1      43.172  22.924  24.523  1.00  0.00    -0.246 OA
BRANCH  33  35
ATOM     35  C   UNL A   1      42.891  23.847  26.677  1.00  0.00     0.060 A 
ATOM     36  C   UNL A   1      42.556  23.565  28.000  1.00  0.00     0.016 A 
ATOM     37  C   UNL A   1      43.003  25.167  26.246  1.00  0.00     0.016 A 
ATOM     38  C   UNL A   1      42.261  24.597  28.889  1.00  0.00     0.010 A 
ATOM     39  C   UNL A   1      42.777  26.204  27.157  1.00  0.00     0.010 A 
ATOM     40  C   UNL A   1      42.373  25.931  28.478  1.00  0.00    -0.014 A 
BRANCH  40  41
ATOM     41  C   UNL A   1      42.022  27.049  29.395  1.00  0.00     0.031 A 
ATOM     42  C   UNL A   1      42.859  27.292  30.623  1.00  0.00     0.074 A 
ATOM     43  C   UNL A   1      40.949  27.829  29.158  1.00  0.00     0.049 A 
ATOM     44  N   UNL A   1      42.591  28.020  31.677  1.00  0.00    -0.248 NA
ATOM     45  C   UNL A   1      44.165  26.614  30.677  1.00  0.00     0.031 C 
ATOM     46  C   UNL A   1      40.085  27.760  27.978  1.00  0.00     0.029 A 
ATOM     47  N   UNL A   1      40.393  28.832  29.917  1.00  0.00    -0.354 N 
ATOM     48  C   UNL A   1      43.658  27.829  32.548  1.00  0.00     0.074 A 
ATOM     49  C   UNL A   1      44.585  26.932  31.893  1.00  0.00     0.031 C 
ATOM     50  C   UNL A   1      39.115  28.682  28.088  1.00  0.00     0.029 A 
ATOM     51  C   UNL A   1      39.235  29.345  29.382  1.00  0.00     0.049 A 
ATOM     52  H   UNL A   1      40.785  29.151  30.761  1.00  0.00     0.167 HD
ATOM     53  C   UNL A   1      43.837  28.346  33.786  1.00  0.00     0.031 A 
ATOM     54  C   UNL A   1      38.338  30.209  29.896  1.00  0.00     0.031 A 
ATOM     55  C   UNL A   1      42.941  29.280  34.411  1.00  0.00     0.049 A 
ATOM     56  C   UNL A   1      38.544  30.744  31.285  1.00  0.00     0.074 A 
ATOM     57  C   UNL A   1      43.048  29.875  35.656  1.00  0.00     0.029 A 
ATOM     58  N   UNL A   1      41.784  29.770  33.828  1.00  0.00    -0.354 N 
ATOM     59  N   UNL A   1      39.527  30.515  32.121  1.00  0.00    -0.248 NA
ATOM     60  C   UNL A   1      37.504  31.643  31.810  1.00  0.00     0.031 C 
ATOM     61  C   UNL A   1      41.936  30.701  35.842  1.00  0.00     0.029 A 
ATOM     62  C   UNL A   1      41.162  30.653  34.694  1.00  0.00     0.049 A 
ATOM     63  H   UNL A   1      41.453  29.527  32.935  1.00  0.00     0.167 HD
ATOM     64  C   UNL A   1      39.239  31.260  33.257  1.00  0.00     0.074 A 
ATOM     65  C   UNL A   1      37.995  31.956  33.001  1.00  0.00     0.031 C 
ATOM     66  C   UNL A   1      39.939  31.356  34.411  1.00  0.00     0.031 A 
BRANCH  53  67
ATOM     67  C   UNL A   1      45.029  27.883  34.575  1.00  0.00    -0.014 A 
ATOM     68  C   UNL A   1      46.239  28.590  34.565  1.00  0.00     0.009 A 
ATOM     69  C   UNL A   1      44.906  26.752  35.398  1.00  0.00     0.009 A 
ATOM     70  C   UNL A   1      47.311  28.160  35.353  1.00  0.00     0.001 A 
ATOM     71  C   UNL A   1      45.970  26.339  36.201  1.00  0.00     0.001 A 
ATOM     72  C   UNL A   1      47.173  27.040  36.174  1.00  0.00     0.000 A 
ENDBRANCH  53  67
BRANCH  54  73
ATOM     73  C   UNL A   1      37.121  30.572  29.121  1.00  0.00    -0.014 A 
ATOM     74  C   UNL A   1      36.136  29.612  28.845  1.00  0.00     0.009 A 
ATOM     75  C   UNL A   1      36.950  31.878  28.637  1.00  0.00     0.009 A 
ATOM     76  C   UNL A   1      35.018  29.948  28.078  1.00  0.00     0.001 A 
ATOM     77  C   UNL A   1      35.817  32.219  27.897  1.00  0.00     0.001 A 
ATOM     78  C   UNL A   1      34.857  31.251  27.609  1.00  0.00     0.000 A 
ENDBRANCH  54  73
BRANCH  66  79
ATOM     79  C   UNL A   1      39.416  32.290  35.461  1.00  0.00    -0.014 A 
ATOM     80  C   UNL A   1      39.787  33.642  35.483  1.00  0.00     0.009 A 
ATOM     81  C   UNL A   1      38.493  31.817  36.406  1.00  0.00     0.009 A 
ATOM     82  C   UNL A   1      39.257  34.500  36.449  1.00  0.00     0.001 A 
ATOM     83  C   UNL A   1      37.948  32.681  37.356  1.00  0.00     0.001 A 
ATOM     84  C   UNL A   1      38.335  34.021  37.380  1.00  0.00     0.000 A 
ENDBRANCH  66  79
ENDBRANCH  40  41
ENDBRANCH  33  35
ENDBRANCH  32  33
ENDBRANCH  31  32
ENDBRANCH   1  31
TORSDOF 15
ENDMDL
MODEL 2
REMARK VINA RESULT:     -12.3      3.255      4.082
REMARK SMILES CS(=O)(=O)c1ccc(C2=NN(c3ccc(C(=O)OCCOC(=O)c4ccc(-c5c6nc(c(-c7ccccc7)c7ccc([nH]7)c(-c7ccccc7)c7nc(c(-c8ccccc8)c8ccc5[nH]8)C=C7)C=C6)cc4)cc3)[C@H](c3cccs3)C2)cc1
REMARK SMILES IDX 19 1 18 2 16 3 17 4 15 5 12 6 13 7 73 8 14 9 72 10 11 11
REMARK SMILES IDX 9 12 10 13 80 14 74 15 8 16 5 17 6 18 82 19 7 20 81 21 2 22
REMARK SMILES IDX 1 23 3 24 4 25 75 26 76 27 79 28 77 29 78 30 20 31 21 32
REMARK SMILES IDX 22 33 23 34 24 35 25 36 71 37 26 38 70 39 27 40 28 41 29 42
REMARK SMILES IDX 64 43 30 44 69 45 63 46 65 47 31 48 68 49 62 50 61 51 32 53
REMARK SMILES IDX 54 54 39 55 53 56 40 57 43 58 52 59 66 60 41 61 42 62 51 64
REMARK SMILES IDX 67 65 44 66 33 67 34 68 38 69 35 70 37 71 36 72 55 73 56 74
REMARK SMILES IDX 60 75 57 76 59 77 58 78 45 79 46 80 50 81 47 82 49 83 48 84
REMARK H PARENT 65 52 43 63
REMARK Flexibility Score: inf
ROOT
ATOM      1  C   UNL A   1      40.651  20.097  26.687  1.00  0.00     0.275 C 
ENDROOT
BRANCH   1   2
ATOM      2  O   UNL A   1      39.870  20.899  25.780  1.00  0.00    -0.458 OA
BRANCH   2   3
ATOM      3  C   UNL A   1      39.431  22.085  26.265  1.00  0.00     0.338 C 
ATOM      4  O   UNL A   1      40.053  22.846  26.991  1.00  0.00    -0.246 OA
BRANCH   3   5
ATOM      5  C   UNL A   1      38.086  22.413  25.728  1.00  0.00     0.060 A 
ATOM      6  C   UNL A   1      35.519  23.104  24.812  1.00  0.00     0.060 A 
ATOM      7  C   UNL A   1      36.203  23.944  25.694  1.00  0.00     0.029 A 
ATOM      8  C   UNL A   1      36.145  21.929  24.375  1.00  0.00     0.029 A 
ATOM      9  C   UNL A   1      37.460  23.584  26.175  1.00  0.00     0.018 A 
ATOM     10  C   UNL A   1      37.427  21.585  24.816  1.00  0.00     0.018 A 
BRANCH   6  11
ATOM     11  N   UNL A   1      34.189  23.359  24.464  1.00  0.00    -0.257 N 
ATOM     12  C   UNL A   1      32.589  24.759  24.334  1.00  0.00     0.071 C 
ATOM     13  N   UNL A   1      33.836  24.594  24.019  1.00  0.00    -0.176 NA
ATOM     14  C   UNL A   1      31.961  23.667  25.156  1.00  0.00     0.091 C 
ATOM     15  C   UNL A   1      33.149  22.711  25.280  1.00  0.00     0.154 C 
BRANCH  12  16
ATOM     16  C   UNL A   1      31.799  25.911  23.876  1.00  0.00    -0.002 A 
ATOM     17  C   UNL A   1      30.247  28.104  23.158  1.00  0.00     0.067 A 
ATOM     18  C   UNL A   1      29.668  27.061  23.887  1.00  0.00     0.021 A 
ATOM     19  C   UNL A   1      31.594  28.049  22.776  1.00  0.00     0.021 A 
ATOM     20  C   UNL A   1      30.445  25.955  24.231  1.00  0.00     0.011 A 
ATOM     21  C   UNL A   1      32.378  26.953  23.149  1.00  0.00     0.011 A 
BRANCH  17  22
ATOM     22  S   UNL A   1      29.281  29.533  22.720  1.00  0.00     0.175 S 
ATOM     23  C   UNL A   1      27.586  29.031  22.840  1.00  0.00     0.163 C 
ATOM     24  O   UNL A   1      29.545  29.810  21.320  1.00  0.00    -0.224 OA
ATOM     25  O   UNL A   1      29.537  30.529  23.743  1.00  0.00    -0.224 OA
ENDBRANCH  17  22
ENDBRANCH  12  16
BRANCH  15  26
ATOM     26  C   UNL A   1      32.902  21.262  24.921  1.00  0.00     0.030 A 
ATOM     27  C   UNL A   1      33.124  20.168  25.742  1.00  0.00     0.017 A 
ATOM     28  S   UNL A   1      32.437  20.761  23.349  1.00  0.00    -0.147 S 
ATOM     29  C   UNL A   1      32.921  18.927  25.075  1.00  0.00     0.012 A 
ATOM     30  C   UNL A   1      32.525  19.108  23.770  1.00  0.00     0.065 A 
ENDBRANCH  15  26
ENDBRANCH   6  11
ENDBRANCH   3   5
ENDBRANCH   2   3
ENDBRANCH   1   2
BRANCH   1  31
ATOM     31  C   UNL A   1      41.761  19.357  25.942  1.00  0.00     0.275 C 
BRANCH  31  32
ATOM     32  O   UNL A   1      43.051  19.879  26.310  1.00  0.00    -0.458 OA
BRANCH  32  33
ATOM     33  C   UNL A   1      43.595  20.755  25.436  1.00  0.00     0.338 C 
ATOM     34  O   UNL A   1      44.170  20.511  24.391  1.00  0.00    -0.246 OA
BRANCH  33  35
ATOM     35  C   UNL A   1      43.380  22.125  25.922  1.00  0.00     0.060 A 
ATOM     36  C   UNL A   1      43.146  23.143  24.999  1.00  0.00     0.016 A 
ATOM     37  C   UNL A   1      43.542  22.424  27.272  1.00  0.00     0.016 A 
ATOM     38  C   UNL A   1      43.141  24.475  25.405  1.00  0.00     0.010 A 
ATOM     39  C   UNL A   1      43.467  23.756  27.691  1.00  0.00     0.010 A 
ATOM     40  C   UNL A   1      43.297  24.798  26.759  1.00  0.00    -0.014 A 
BRANCH  40  41
ATOM     41  C   UNL A   1      43.339  26.215  27.211  1.00  0.00     0.031 A 
ATOM     42  C   UNL A   1      44.670  26.890  27.411  1.00  0.00     0.074 A 
ATOM     43  C   UNL A   1      42.205  26.894  27.474  1.00  0.00     0.049 A 
ATOM     44  N   UNL A   1      44.948  28.004  28.041  1.00  0.00    -0.248 NA
ATOM     45  C   UNL A   1      45.847  26.214  26.839  1.00  0.00     0.031 C 
ATOM     46  C   UNL A   1      40.844  26.397  27.262  1.00  0.00     0.029 A 
ATOM     47  N   UNL A   1      42.021  28.153  27.994  1.00  0.00    -0.354 N 
ATOM     48  C   UNL A   1      46.333  28.123  28.003  1.00  0.00     0.074 A 
ATOM     49  C   UNL A   1      46.838  26.979  27.275  1.00  0.00     0.031 C 
ATOM     50  C   UNL A   1      39.968  27.341  27.642  1.00  0.00     0.029 A 
ATOM     51  C   UNL A   1      40.700  28.471  28.203  1.00  0.00     0.049 A 
ATOM     52  H   UNL A   1      42.763  28.766  28.197  1.00  0.00     0.167 HD
ATOM     53  C   UNL A   1      47.109  29.093  28.540  1.00  0.00     0.031 A 
ATOM     54  C   UNL A   1      40.140  29.524  28.829  1.00  0.00     0.031 A 
ATOM     55  C   UNL A   1      46.601  30.256  29.215  1.00  0.00     0.049 A 
ATOM     56  C   UNL A   1      41.025  30.571  29.445  1.00  0.00     0.074 A 
ATOM     57  C   UNL A   1      47.310  31.304  29.777  1.00  0.00     0.029 A 
ATOM     58  N   UNL A   1      45.257  30.533  29.400  1.00  0.00    -0.354 N 
ATOM     59  N   UNL A   1      42.333  30.647  29.451  1.00  0.00    -0.248 NA
ATOM     60  C   UNL A   1      40.355  31.670  30.157  1.00  0.00     0.031 C 
ATOM     61  C   UNL A   1      46.394  32.201  30.333  1.00  0.00     0.029 A 
ATOM     62  C   UNL A   1      45.116  31.732  30.078  1.00  0.00     0.049 A 
ATOM     63  H   UNL A   1      44.514  29.964  29.097  1.00  0.00     0.167 HD
ATOM     64  C   UNL A   1      42.641  31.810  30.142  1.00  0.00     0.074 A 
ATOM     65  C   UNL A   1      41.384  32.415  30.532  1.00  0.00     0.031 C 
ATOM     66  C   UNL A   1      43.857  32.330  30.432  1.00  0.00     0.031 A 
BRANCH  53  67
ATOM     67  C   UNL A   1      48.600  28.923  28.462  1.00  0.00    -0.014 A 
ATOM     68  C   UNL A   1      49.313  28.221  29.444  1.00  0.00     0.009 A 
ATOM     69  C   UNL A   1      49.288  29.418  27.343  1.00  0.00     0.009 A 
ATOM     70  C   UNL A   1      50.692  28.035  29.314  1.00  0.00     0.001 A 
ATOM     71  C   UNL A   1      50.661  29.211  27.204  1.00  0.00     0.001 A 
ATOM     72  C   UNL A   1      51.363  28.524  28.192  1.00  0.00     0.000 A 
ENDBRANCH  53  67
BRANCH  54  73
ATOM     73  C   UNL A   1      38.661  29.610  28.968  1.00  0.00    -0.014 A 
ATOM     74  C   UNL A   1      38.036  29.279  30.180  1.00  0.00     0.009 A 
ATOM     75  C   UNL A   1      37.867  30.005  27.880  1.00  0.00     0.009 A 
ATOM     76  C   UNL A   1      36.644  29.318  30.290  1.00  0.00     0.001 A 
ATOM     77  C   UNL A   1      36.478  30.073  28.003  1.00  0.00     0.001 A 
ATOM     78  C   UNL A   1      35.867  29.719  29.204  1.00  0.00     0.000 A 
ENDBRANCH  54  73
BRANCH  66  79
ATOM     79  C   UNL A   1      43.892  33.646  31.152  1.00  0.00    -0.014 A 
ATOM     80  C   UNL A   1      43.894  34.860  30.451  1.00  0.00     0.009 A 
ATOM     81  C   UNL A   1      43.864  33.665  32.555  1.00  0.00     0.009 A 
ATOM     82  C   UNL A   1      43.889  36.072  31.145  1.00  0.00     0.001 A 
ATOM     83  C   UNL A   1      43.836  34.877  33.245  1.00  0.00     0.001 A 
ATOM     84  C   UNL A   1      43.854  36.079  32.539  1.00  0.00     0.000 A 
ENDBRANCH  66  79
ENDBRANCH  40  41
ENDBRANCH  33  35
ENDBRANCH  32  33
ENDBRANCH  31  32
ENDBRANCH   1  31
TORSDOF 15
ENDMDL
MODEL 3
REMARK VINA RESULT:     -12.2      3.172      8.521
REMARK SMILES CS(=O)(=O)c1ccc(C2=NN(c3ccc(C(=O)OCCOC(=O)c4ccc(-c5c6nc(c(-c7ccccc7)c7ccc([nH]7)c(-c7ccccc7)c7nc(c(-c8ccccc8)c8ccc5[nH]8)C=C7)C=C6)cc4)cc3)[C@H](c3cccs3)C2)cc1
REMARK SMILES IDX 19 1 18 2 16 3 17 4 15 5 12 6 13 7 73 8 14 9 72 10 11 11
REMARK SMILES IDX 9 12 10 13 80 14 74 15 8 16 5 17 6 18 82 19 7 20 81 21 2 22
REMARK SMILES IDX 1 23 3 24 4 25 75 26 76 27 79 28 77 29 78 30 20 31 21 32
REMARK SMILES IDX 22 33 23 34 24 35 25 36 71 37 26 38 70 39 27 40 28 41 29 42
REMARK SMILES IDX 64 43 30 44 69 45 63 46 65 47 31 48 68 49 62 50 61 51 32 53
REMARK SMILES IDX 54 54 39 55 53 56 40 57 43 58 52 59 66 60 41 61 42 62 51 64
REMARK SMILES IDX 67 65 44 66 33 67 34 68 38 69 35 70 37 71 36 72 55 73 56 74
REMARK SMILES IDX 60 75 57 76 59 77 58 78 45 79 46 80 50 81 47 82 49 83 48 84
REMARK H PARENT 65 52 43 63
REMARK Flexibility Score: inf
ROOT
ATOM      1  C   UNL A   1      33.523  33.478  27.594  1.00  0.00     0.275 C 
ENDROOT
BRANCH   1   2
ATOM      2  O   UNL A   1      33.283  32.137  28.062  1.00  0.00    -0.458 OA
BRANCH   2   3
ATOM      3  C   UNL A   1      34.235  31.222  27.757  1.00  0.00     0.338 C 
ATOM      4  O   UNL A   1      35.427  31.304  28.012  1.00  0.00    -0.246 OA
BRANCH   3   5
ATOM      5  C   UNL A   1      33.634  30.022  27.124  1.00  0.00     0.060 A 
ATOM      6  C   UNL A   1      32.605  27.723  25.871  1.00  0.00     0.060 A 
ATOM      7  C   UNL A   1      33.976  27.843  26.109  1.00  0.00     0.029 A 
ATOM      8  C   UNL A   1      31.753  28.755  26.291  1.00  0.00     0.029 A 
ATOM      9  C   UNL A   1      34.489  28.997  26.698  1.00  0.00     0.018 A 
ATOM     10  C   UNL A   1      32.256  29.895  26.927  1.00  0.00     0.018 A 
BRANCH   6  11
ATOM     11  N   UNL A   1      32.096  26.660  25.121  1.00  0.00    -0.257 N 
ATOM     12  C   UNL A   1      32.342  24.668  24.407  1.00  0.00     0.071 C 
ATOM     13  N   UNL A   1      32.381  25.382  25.489  1.00  0.00    -0.176 NA
ATOM     14  C   UNL A   1      32.134  25.419  23.121  1.00  0.00     0.091 C 
ATOM     15  C   UNL A   1      32.020  26.846  23.663  1.00  0.00     0.154 C 
BRANCH  12  16
ATOM     16  C   UNL A   1      32.439  23.201  24.419  1.00  0.00    -0.002 A 
ATOM     17  C   UNL A   1      32.698  20.434  24.303  1.00  0.00     0.067 A 
ATOM     18  C   UNL A   1      32.246  21.131  23.179  1.00  0.00     0.021 A 
ATOM     19  C   UNL A   1      33.010  21.114  25.488  1.00  0.00     0.021 A 
ATOM     20  C   UNL A   1      32.100  22.516  23.246  1.00  0.00     0.011 A 
ATOM     21  C   UNL A   1      32.892  22.506  25.543  1.00  0.00     0.011 A 
BRANCH  17  22
ATOM     22  S   UNL A   1      32.906  18.669  24.239  1.00  0.00     0.175 S 
ATOM     23  C   UNL A   1      32.376  18.174  22.621  1.00  0.00     0.163 C 
ATOM     24  O   UNL A   1      31.968  18.096  25.187  1.00  0.00    -0.224 OA
ATOM     25  O   UNL A   1      34.330  18.420  24.350  1.00  0.00    -0.224 OA
ENDBRANCH  17  22
ENDBRANCH  12  16
BRANCH  15  26
ATOM     26  C   UNL A   1      30.825  27.656  23.210  1.00  0.00     0.030 A 
ATOM     27  C   UNL A   1      30.868  28.883  22.565  1.00  0.00     0.017 A 
ATOM     28  S   UNL A   1      29.210  27.216  23.577  1.00  0.00    -0.147 S 
ATOM     29  C   UNL A   1      29.578  29.457  22.385  1.00  0.00     0.012 A 
ATOM     30  C   UNL A   1      28.584  28.641  22.875  1.00  0.00     0.065 A 
ENDBRANCH  15  26
ENDBRANCH   6  11
ENDBRANCH   3   5
ENDBRANCH   2   3
ENDBRANCH   1   2
BRANCH   1  31
ATOM     31  C   UNL A   1      32.863  34.502  28.515  1.00  0.00     0.275 C 
BRANCH  31  32
ATOM     32  O   UNL A   1      33.842  35.122  29.368  1.00  0.00    -0.458 OA
BRANCH  32  33
ATOM     33  C   UNL A   1      33.901  34.641  30.631  1.00  0.00     0.338 C 
ATOM     34  O   UNL A   1      33.175  34.913  31.570  1.00  0.00    -0.246 OA
BRANCH  33  35
ATOM     35  C   UNL A   1      35.005  33.678  30.735  1.00  0.00     0.060 A 
ATOM     36  C   UNL A   1      34.821  32.513  31.477  1.00  0.00     0.016 A 
ATOM     37  C   UNL A   1      36.258  33.988  30.212  1.00  0.00     0.016 A 
ATOM     38  C   UNL A   1      35.902  31.682  31.765  1.00  0.00     0.010 A 
ATOM     39  C   UNL A   1      37.328  33.117  30.440  1.00  0.00     0.010 A 
ATOM     40  C   UNL A   1      37.169  31.972  31.245  1.00  0.00    -0.014 A 
BRANCH  40  41
ATOM     41  C   UNL A   1      38.348  31.125  31.574  1.00  0.00     0.031 A 
ATOM     42  C   UNL A   1      39.194  31.464  32.773  1.00  0.00     0.074 A 
ATOM     43  C   UNL A   1      38.687  30.077  30.798  1.00  0.00     0.049 A 
ATOM     44  N   UNL A   1      40.391  31.039  33.089  1.00  0.00    -0.248 NA
ATOM     45  C   UNL A   1      38.621  32.419  33.736  1.00  0.00     0.031 C 
ATOM     46  C   UNL A   1      37.927  29.585  29.646  1.00  0.00     0.029 A 
ATOM     47  N   UNL A   1      39.776  29.240  30.857  1.00  0.00    -0.354 N 
ATOM     48  C   UNL A   1      40.742  31.728  34.244  1.00  0.00     0.074 A 
ATOM     49  C   UNL A   1      39.628  32.586  34.583  1.00  0.00     0.031 C 
ATOM     50  C   UNL A   1      38.569  28.533  29.113  1.00  0.00     0.029 A 
ATOM     51  C   UNL A   1      39.825  28.331  29.828  1.00  0.00     0.049 A 
ATOM     52  H   UNL A   1      40.456  29.290  31.567  1.00  0.00     0.167 HD
ATOM     53  C   UNL A   1      41.897  31.658  34.947  1.00  0.00     0.031 A 
ATOM     54  C   UNL A   1      40.794  27.470  29.462  1.00  0.00     0.031 A 
ATOM     55  C   UNL A   1      42.980  30.765  34.639  1.00  0.00     0.049 A 
ATOM     56  C   UNL A   1      42.080  27.435  30.240  1.00  0.00     0.074 A 
ATOM     57  C   UNL A   1      44.184  30.609  35.304  1.00  0.00     0.029 A 
ATOM     58  N   UNL A   1      42.981  29.863  33.588  1.00  0.00    -0.354 N 
ATOM     59  N   UNL A   1      42.424  28.129  31.297  1.00  0.00    -0.248 NA
ATOM     60  C   UNL A   1      43.119  26.511  29.762  1.00  0.00     0.031 C 
ATOM     61  C   UNL A   1      44.929  29.634  34.636  1.00  0.00     0.029 A 
ATOM     62  C   UNL A   1      44.170  29.154  33.581  1.00  0.00     0.049 A 
ATOM     63  H   UNL A   1      42.248  29.744  32.943  1.00  0.00     0.167 HD
ATOM     64  C   UNL A   1      43.705  27.707  31.625  1.00  0.00     0.074 A 
ATOM     65  C   UNL A   1      44.075  26.691  30.662  1.00  0.00     0.031 C 
ATOM     66  C   UNL A   1      44.507  28.127  32.632  1.00  0.00     0.031 A 
BRANCH  53  67
ATOM     67  C   UNL A   1      42.076  32.606  36.099  1.00  0.00    -0.014 A 
ATOM     68  C   UNL A   1      42.352  33.965  35.899  1.00  0.00     0.009 A 
ATOM     69  C   UNL A   1      41.891  32.133  37.409  1.00  0.00     0.009 A 
ATOM     70  C   UNL A   1      42.460  34.830  36.992  1.00  0.00     0.001 A 
ATOM     71  C   UNL A   1      41.976  33.003  38.496  1.00  0.00     0.001 A 
ATOM     72  C   UNL A   1      42.266  34.349  38.288  1.00  0.00     0.000 A 
ENDBRANCH  53  67
BRANCH  54  73
ATOM     73  C   UNL A   1      40.619  26.614  28.258  1.00  0.00    -0.014 A 
ATOM     74  C   UNL A   1      39.926  25.397  28.340  1.00  0.00     0.009 A 
ATOM     75  C   UNL A   1      41.164  27.003  27.024  1.00  0.00     0.009 A 
ATOM     76  C   UNL A   1      39.805  24.577  27.215  1.00  0.00     0.001 A 
ATOM     77  C   UNL A   1      41.014  26.197  25.896  1.00  0.00     0.001 A 
ATOM     78  C   UNL A   1      40.344  24.979  25.994  1.00  0.00     0.000 A 
ENDBRANCH  54  73
BRANCH  66  79
ATOM     79  C   UNL A   1      45.836  27.449  32.785  1.00  0.00    -0.014 A 
ATOM     80  C   UNL A   1      46.994  27.974  32.194  1.00  0.00     0.009 A 
ATOM     81  C   UNL A   1      45.935  26.300  33.584  1.00  0.00     0.009 A 
ATOM     82  C   UNL A   1      48.227  27.345  32.383  1.00  0.00     0.001 A 
ATOM     83  C   UNL A   1      47.171  25.686  33.790  1.00  0.00     0.001 A 
ATOM     84  C   UNL A   1      48.315  26.206  33.184  1.00  0.00     0.000 A 
ENDBRANCH  66  79
ENDBRANCH  40  41
ENDBRANCH  33  35
ENDBRANCH  32  33
ENDBRANCH  31  32
ENDBRANCH   1  31
TORSDOF 15
ENDMDL
