MODEL 1
REMARK VINA RESULT:     -11.1      0.000      0.000
REMARK SMILES NS(=O)(=O)c1ccc(/N=C/c2ccc(O)c(C(=O)OCCOC(=O)c3ccc(-c4c5nc(c(-c6ccccc6)c6ccc([nH]6)c(-c6ccccc6)c6nc(c(-c7ccccc7)c7ccc4[nH]7)C=C6)C=C5)cc3)c2)cc1
REMARK SMILES IDX 20 1 19 2 17 3 18 4 16 5 11 6 12 7 73 8 13 9 14 10 10 11
REMARK SMILES IDX 9 12 8 13 5 14 6 15 75 16 7 17 74 18 2 19 3 20 4 21 1 22
REMARK SMILES IDX 15 25 21 27 22 28 23 29 24 30 25 31 26 32 72 33 27 34 71 35
REMARK SMILES IDX 28 36 29 37 30 38 65 39 31 40 70 41 64 42 66 43 32 44 69 45
REMARK SMILES IDX 63 46 62 47 33 49 55 50 40 51 54 52 41 53 44 54 53 55 67 56
REMARK SMILES IDX 42 57 43 58 52 60 68 61 45 62 34 63 35 64 39 65 36 66 38 67
REMARK SMILES IDX 37 68 56 69 57 70 61 71 58 72 60 73 59 74 46 75 47 76 51 77
REMARK SMILES IDX 48 78 50 79 49 80
REMARK H PARENT 1 23 1 24 15 26 66 48 44 59
REMARK Flexibility Score: inf
ROOT
ATOM      1  C   UNL A   1      31.780  29.050  24.654  1.00  0.00     0.275 C 
ENDROOT
BRANCH   1   2
ATOM      2  O   UNL A   1      30.870  27.959  24.906  1.00  0.00    -0.458 OA
BRANCH   2   3
ATOM      3  C   UNL A   1      31.330  26.942  25.671  1.00  0.00     0.342 C 
ATOM      4  O   UNL A   1      30.965  26.639  26.799  1.00  0.00    -0.246 OA
BRANCH   3   5
ATOM      5  C   UNL A   1      32.300  26.113  24.922  1.00  0.00     0.102 A 
ATOM      6  C   UNL A   1      34.364  24.879  24.795  1.00  0.00    -0.006 A 
ATOM      7  C   UNL A   1      34.143  24.602  23.443  1.00  0.00     0.013 A 
ATOM      8  C   UNL A   1      33.478  25.677  25.525  1.00  0.00     0.029 A 
ATOM      9  C   UNL A   1      32.959  25.023  22.848  1.00  0.00     0.048 A 
ATOM     10  C   UNL A   1      32.015  25.709  23.608  1.00  0.00     0.130 A 
BRANCH   6  11
ATOM     11  C   UNL A   1      35.491  24.213  25.466  1.00  0.00     0.119 C 
ATOM     12  N   UNL A   1      36.377  23.568  24.783  1.00  0.00    -0.256 NA
BRANCH  12  13
ATOM     13  C   UNL A   1      37.481  22.983  25.417  1.00  0.00     0.063 A 
ATOM     14  C   UNL A   1      39.816  22.016  26.631  1.00  0.00     0.082 A 
ATOM     15  C   UNL A   1      39.392  23.320  26.891  1.00  0.00     0.024 A 
ATOM     16  C   UNL A   1      39.077  21.186  25.788  1.00  0.00     0.024 A 
ATOM     17  C   UNL A   1      38.222  23.792  26.288  1.00  0.00     0.030 A 
ATOM     18  C   UNL A   1      37.921  21.676  25.177  1.00  0.00     0.030 A 
BRANCH  14  19
ATOM     19  S   UNL A   1      41.338  21.470  27.339  1.00  0.00     0.238 S 
ATOM     20  O   UNL A   1      41.650  22.317  28.461  1.00  0.00    -0.207 OA
ATOM     21  O   UNL A   1      42.271  21.207  26.264  1.00  0.00    -0.207 OA
BRANCH  19  22
ATOM     22  N   UNL A   1      40.979  19.960  27.989  1.00  0.00    -0.225 NA
ATOM     23  H   UNL A   1      41.243  19.944  28.975  1.00  0.00     0.137 HD
ATOM     24  H   UNL A   1      41.498  19.241  27.487  1.00  0.00     0.137 HD
ENDBRANCH  19  22
ENDBRANCH  14  19
ENDBRANCH  12  13
ENDBRANCH   6  11
BRANCH  10  25
ATOM     25  O   UNL A   1      30.797  25.890  23.014  1.00  0.00    -0.507 OA
ATOM     26  H   UNL A   1      30.684  26.567  22.376  1.00  0.00     0.293 HD
ENDBRANCH  10  25
ENDBRANCH   3   5
ENDBRANCH   2   3
ENDBRANCH   1   2
BRANCH   1  27
ATOM     27  C   UNL A   1      31.612  30.160  25.693  1.00  0.00     0.275 C 
BRANCH  27  28
ATOM     28  O   UNL A   1      32.631  30.058  26.705  1.00  0.00    -0.458 OA
BRANCH  28  29
ATOM     29  C   UNL A   1      33.153  31.236  27.117  1.00  0.00     0.338 C 
ATOM     30  O   UNL A   1      32.605  32.324  27.157  1.00  0.00    -0.246 OA
BRANCH  29  31
ATOM     31  C   UNL A   1      34.520  31.025  27.611  1.00  0.00     0.060 A 
ATOM     32  C   UNL A   1      34.900  29.731  27.940  1.00  0.00     0.016 A 
ATOM     33  C   UNL A   1      35.348  32.095  27.923  1.00  0.00     0.016 A 
ATOM     34  C   UNL A   1      36.044  29.501  28.694  1.00  0.00     0.010 A 
ATOM     35  C   UNL A   1      36.571  31.848  28.561  1.00  0.00     0.010 A 
ATOM     36  C   UNL A   1      36.920  30.550  28.988  1.00  0.00    -0.014 A 
BRANCH  36  37
ATOM     37  C   UNL A   1      38.183  30.314  29.747  1.00  0.00     0.031 A 
ATOM     38  C   UNL A   1      39.304  29.530  29.112  1.00  0.00     0.074 A 
ATOM     39  C   UNL A   1      38.331  30.773  31.008  1.00  0.00     0.049 A 
ATOM     40  N   UNL A   1      40.331  28.945  29.675  1.00  0.00    -0.248 NA
ATOM     41  C   UNL A   1      39.248  29.365  27.650  1.00  0.00     0.031 C 
ATOM     42  C   UNL A   1      37.382  31.626  31.729  1.00  0.00     0.029 A 
ATOM     43  N   UNL A   1      39.341  30.573  31.919  1.00  0.00    -0.354 N 
ATOM     44  C   UNL A   1      41.001  28.286  28.649  1.00  0.00     0.074 A 
ATOM     45  C   UNL A   1      40.265  28.541  27.430  1.00  0.00     0.031 C 
ATOM     46  C   UNL A   1      37.867  31.899  32.948  1.00  0.00     0.029 A 
ATOM     47  C   UNL A   1      39.091  31.139  33.147  1.00  0.00     0.049 A 
ATOM     48  H   UNL A   1      40.165  30.073  31.712  1.00  0.00     0.167 HD
ATOM     49  C   UNL A   1      42.122  27.529  28.726  1.00  0.00     0.031 A 
ATOM     50  C   UNL A   1      39.723  31.004  34.328  1.00  0.00     0.031 A 
ATOM     51  C   UNL A   1      42.861  27.314  29.943  1.00  0.00     0.049 A 
ATOM     52  C   UNL A   1      40.905  30.082  34.413  1.00  0.00     0.074 A 
ATOM     53  C   UNL A   1      44.002  26.556  30.138  1.00  0.00     0.029 A 
ATOM     54  N   UNL A   1      42.540  27.878  31.168  1.00  0.00    -0.354 N 
ATOM     55  N   UNL A   1      41.480  29.389  33.461  1.00  0.00    -0.248 NA
ATOM     56  C   UNL A   1      41.512  29.905  35.740  1.00  0.00     0.031 C 
ATOM     57  C   UNL A   1      44.342  26.621  31.492  1.00  0.00     0.029 A 
ATOM     58  C   UNL A   1      43.453  27.474  32.126  1.00  0.00     0.049 A 
ATOM     59  H   UNL A   1      41.775  28.476  31.332  1.00  0.00     0.167 HD
ATOM     60  C   UNL A   1      42.539  28.725  34.064  1.00  0.00     0.074 A 
ATOM     61  C   UNL A   1      42.528  29.100  35.463  1.00  0.00     0.031 C 
ATOM     62  C   UNL A   1      43.440  27.883  33.506  1.00  0.00     0.031 A 
BRANCH  49  63
ATOM     63  C   UNL A   1      42.592  26.837  27.473  1.00  0.00    -0.014 A 
ATOM     64  C   UNL A   1      42.132  25.561  27.115  1.00  0.00     0.009 A 
ATOM     65  C   UNL A   1      43.481  27.501  26.612  1.00  0.00     0.009 A 
ATOM     66  C   UNL A   1      42.583  24.949  25.942  1.00  0.00     0.001 A 
ATOM     67  C   UNL A   1      43.905  26.901  25.423  1.00  0.00     0.001 A 
ATOM     68  C   UNL A   1      43.464  25.621  25.095  1.00  0.00     0.000 A 
ENDBRANCH  49  63
BRANCH  50  69
ATOM     69  C   UNL A   1      39.206  31.698  35.540  1.00  0.00    -0.014 A 
ATOM     70  C   UNL A   1      38.269  31.074  36.375  1.00  0.00     0.009 A 
ATOM     71  C   UNL A   1      39.650  32.991  35.870  1.00  0.00     0.009 A 
ATOM     72  C   UNL A   1      37.769  31.737  37.499  1.00  0.00     0.001 A 
ATOM     73  C   UNL A   1      39.178  33.636  37.015  1.00  0.00     0.001 A 
ATOM     74  C   UNL A   1      38.230  33.013  37.823  1.00  0.00     0.000 A 
ENDBRANCH  50  69
BRANCH  62  75
ATOM     75  C   UNL A   1      44.544  27.373  34.387  1.00  0.00    -0.014 A 
ATOM     76  C   UNL A   1      44.426  26.165  35.090  1.00  0.00     0.009 A 
ATOM     77  C   UNL A   1      45.750  28.088  34.452  1.00  0.00     0.009 A 
ATOM     78  C   UNL A   1      45.493  25.693  35.856  1.00  0.00     0.001 A 
ATOM     79  C   UNL A   1      46.824  27.598  35.194  1.00  0.00     0.001 A 
ATOM     80  C   UNL A   1      46.692  26.404  35.900  1.00  0.00     0.000 A 
ENDBRANCH  62  75
ENDBRANCH  36  37
ENDBRANCH  29  31
ENDBRANCH  28  29
ENDBRANCH  27  28
ENDBRANCH   1  27
TORSDOF 16
ENDMDL
MODEL 2
REMARK VINA RESULT:     -11.0      4.307      9.153
REMARK SMILES NS(=O)(=O)c1ccc(/N=C/c2ccc(O)c(C(=O)OCCOC(=O)c3ccc(-c4c5nc(c(-c6ccccc6)c6ccc([nH]6)c(-c6ccccc6)c6nc(c(-c7ccccc7)c7ccc4[nH]7)C=C6)C=C5)cc3)c2)cc1
REMARK SMILES IDX 20 1 19 2 17 3 18 4 16 5 11 6 12 7 73 8 13 9 14 10 10 11
REMARK SMILES IDX 9 12 8 13 5 14 6 15 75 16 7 17 74 18 2 19 3 20 4 21 1 22
REMARK SMILES IDX 15 25 21 27 22 28 23 29 24 30 25 31 26 32 72 33 27 34 71 35
REMARK SMILES IDX 28 36 29 37 30 38 65 39 31 40 70 41 64 42 66 43 32 44 69 45
REMARK SMILES IDX 63 46 62 47 33 49 55 50 40 51 54 52 41 53 44 54 53 55 67 56
REMARK SMILES IDX 42 57 43 58 52 60 68 61 45 62 34 63 35 64 39 65 36 66 38 67
REMARK SMILES IDX 37 68 56 69 57 70 61 71 58 72 60 73 59 74 46 75 47 76 51 77
REMARK SMILES IDX 48 78 50 79 49 80
REMARK H PARENT 1 23 1 24 15 26 66 48 44 59
REMARK Flexibility Score: inf
ROOT
ATOM      1  C   UNL A   1      33.429  34.022  28.085  1.00  0.00     0.275 C 
ENDROOT
BRANCH   1   2
ATOM      2  O   UNL A   1      32.715  34.586  29.205  1.00  0.00    -0.458 OA
BRANCH   2   3
ATOM      3  C   UNL A   1      33.050  35.843  29.576  1.00  0.00     0.342 C 
ATOM      4  O   UNL A   1      32.893  36.872  28.934  1.00  0.00    -0.246 OA
BRANCH   3   5
ATOM      5  C   UNL A   1      33.556  35.867  30.966  1.00  0.00     0.102 A 
ATOM      6  C   UNL A   1      34.686  34.820  32.818  1.00  0.00    -0.006 A 
ATOM      7  C   UNL A   1      34.439  35.930  33.628  1.00  0.00     0.013 A 
ATOM      8  C   UNL A   1      34.202  34.757  31.507  1.00  0.00     0.029 A 
ATOM      9  C   UNL A   1      33.810  37.044  33.082  1.00  0.00     0.048 A 
ATOM     10  C   UNL A   1      33.441  37.033  31.739  1.00  0.00     0.130 A 
BRANCH   6  11
ATOM     11  C   UNL A   1      35.569  33.763  33.335  1.00  0.00     0.119 C 
ATOM     12  N   UNL A   1      36.735  33.566  32.816  1.00  0.00    -0.256 NA
BRANCH  12  13
ATOM     13  C   UNL A   1      37.599  32.599  33.346  1.00  0.00     0.063 A 
ATOM     14  C   UNL A   1      39.507  30.767  34.275  1.00  0.00     0.082 A 
ATOM     15  C   UNL A   1      39.808  32.129  34.260  1.00  0.00     0.024 A 
ATOM     16  C   UNL A   1      38.258  30.313  33.849  1.00  0.00     0.024 A 
ATOM     17  C   UNL A   1      38.849  33.037  33.802  1.00  0.00     0.030 A 
ATOM     18  C   UNL A   1      37.316  31.228  33.377  1.00  0.00     0.030 A 
BRANCH  14  19
ATOM     19  S   UNL A   1      40.763  29.633  34.779  1.00  0.00     0.238 S 
ATOM     20  O   UNL A   1      40.434  29.142  36.092  1.00  0.00    -0.207 OA
ATOM     21  O   UNL A   1      42.050  30.205  34.448  1.00  0.00    -0.207 OA
BRANCH  19  22
ATOM     22  N   UNL A   1      40.584  28.322  33.739  1.00  0.00    -0.225 NA
ATOM     23  H   UNL A   1      41.031  27.501  34.149  1.00  0.00     0.137 HD
ATOM     24  H   UNL A   1      41.020  28.536  32.844  1.00  0.00     0.137 HD
ENDBRANCH  19  22
ENDBRANCH  14  19
ENDBRANCH  12  13
ENDBRANCH   6  11
BRANCH  10  25
ATOM     25  O   UNL A   1      33.035  38.235  31.229  1.00  0.00    -0.507 OA
ATOM     26  H   UNL A   1      33.579  38.691  30.617  1.00  0.00     0.293 HD
ENDBRANCH  10  25
ENDBRANCH   3   5
ENDBRANCH   2   3
ENDBRANCH   1   2
BRANCH   1  27
ATOM     27  C   UNL A   1      34.661  33.245  28.551  1.00  0.00     0.275 C 
BRANCH  27  28
ATOM     28  O   UNL A   1      35.060  32.290  27.550  1.00  0.00    -0.458 OA
BRANCH  28  29
ATOM     29  C   UNL A   1      34.773  31.000  27.838  1.00  0.00     0.338 C 
ATOM     30  O   UNL A   1      33.681  30.461  27.845  1.00  0.00    -0.246 OA
BRANCH  29  31
ATOM     31  C   UNL A   1      36.017  30.260  28.084  1.00  0.00     0.060 A 
ATOM     32  C   UNL A   1      36.197  29.688  29.336  1.00  0.00     0.016 A 
ATOM     33  C   UNL A   1      37.066  30.286  27.173  1.00  0.00     0.016 A 
ATOM     34  C   UNL A   1      37.453  29.252  29.740  1.00  0.00     0.010 A 
ATOM     35  C   UNL A   1      38.295  29.719  27.531  1.00  0.00     0.010 A 
ATOM     36  C   UNL A   1      38.518  29.226  28.833  1.00  0.00    -0.014 A 
BRANCH  36  37
ATOM     37  C   UNL A   1      39.860  28.707  29.231  1.00  0.00     0.031 A 
ATOM     38  C   UNL A   1      40.820  29.603  29.972  1.00  0.00     0.074 A 
ATOM     39  C   UNL A   1      40.240  27.451  28.914  1.00  0.00     0.049 A 
ATOM     40  N   UNL A   1      42.113  29.481  30.133  1.00  0.00    -0.248 NA
ATOM     41  C   UNL A   1      40.249  30.807  30.599  1.00  0.00     0.031 C 
ATOM     42  C   UNL A   1      39.396  26.431  28.284  1.00  0.00     0.029 A 
ATOM     43  N   UNL A   1      41.449  26.817  29.071  1.00  0.00    -0.354 N 
ATOM     44  C   UNL A   1      42.520  30.623  30.814  1.00  0.00     0.074 A 
ATOM     45  C   UNL A   1      41.338  31.427  31.036  1.00  0.00     0.031 C 
ATOM     46  C   UNL A   1      40.099  25.300  28.139  1.00  0.00     0.029 A 
ATOM     47  C   UNL A   1      41.476  25.549  28.540  1.00  0.00     0.049 A 
ATOM     48  H   UNL A   1      42.223  27.231  29.521  1.00  0.00     0.167 HD
ATOM     49  C   UNL A   1      43.770  30.970  31.207  1.00  0.00     0.031 A 
ATOM     50  C   UNL A   1      42.499  24.703  28.322  1.00  0.00     0.031 A 
ATOM     51  C   UNL A   1      44.930  30.141  31.008  1.00  0.00     0.049 A 
ATOM     52  C   UNL A   1      43.890  25.146  28.673  1.00  0.00     0.074 A 
ATOM     53  C   UNL A   1      46.245  30.397  31.353  1.00  0.00     0.029 A 
ATOM     54  N   UNL A   1      44.907  28.882  30.427  1.00  0.00    -0.354 N 
ATOM     55  N   UNL A   1      44.282  26.264  29.234  1.00  0.00    -0.248 NA
ATOM     56  C   UNL A   1      44.984  24.222  28.342  1.00  0.00     0.031 C 
ATOM     57  C   UNL A   1      47.025  29.315  30.936  1.00  0.00     0.029 A 
ATOM     58  C   UNL A   1      46.186  28.355  30.392  1.00  0.00     0.049 A 
ATOM     59  H   UNL A   1      44.100  28.430  30.088  1.00  0.00     0.167 HD
ATOM     60  C   UNL A   1      45.660  26.163  29.358  1.00  0.00     0.074 A 
ATOM     61  C   UNL A   1      46.036  24.872  28.817  1.00  0.00     0.031 C 
ATOM     62  C   UNL A   1      46.534  27.057  29.877  1.00  0.00     0.031 A 
BRANCH  49  63
ATOM     63  C   UNL A   1      43.958  32.320  31.846  1.00  0.00    -0.014 A 
ATOM     64  C   UNL A   1      43.952  32.488  33.239  1.00  0.00     0.009 A 
ATOM     65  C   UNL A   1      44.193  33.441  31.032  1.00  0.00     0.009 A 
ATOM     66  C   UNL A   1      44.136  33.755  33.800  1.00  0.00     0.001 A 
ATOM     67  C   UNL A   1      44.410  34.700  31.596  1.00  0.00     0.001 A 
ATOM     68  C   UNL A   1      44.370  34.858  32.979  1.00  0.00     0.000 A 
ENDBRANCH  49  63
BRANCH  50  69
ATOM     69  C   UNL A   1      42.259  23.385  27.672  1.00  0.00    -0.014 A 
ATOM     70  C   UNL A   1      41.880  22.270  28.433  1.00  0.00     0.009 A 
ATOM     71  C   UNL A   1      42.407  23.233  26.281  1.00  0.00     0.009 A 
ATOM     72  C   UNL A   1      41.678  21.030  27.823  1.00  0.00     0.001 A 
ATOM     73  C   UNL A   1      42.166  22.002  25.669  1.00  0.00     0.001 A 
ATOM     74  C   UNL A   1      41.812  20.899  26.441  1.00  0.00     0.000 A 
ENDBRANCH  50  69
BRANCH  62  75
ATOM     75  C   UNL A   1      47.973  26.642  29.965  1.00  0.00    -0.014 A 
ATOM     76  C   UNL A   1      48.896  26.965  28.960  1.00  0.00     0.009 A 
ATOM     77  C   UNL A   1      48.422  25.978  31.118  1.00  0.00     0.009 A 
ATOM     78  C   UNL A   1      50.239  26.611  29.101  1.00  0.00     0.001 A 
ATOM     79  C   UNL A   1      49.769  25.652  31.268  1.00  0.00     0.001 A 
ATOM     80  C   UNL A   1      50.675  25.965  30.257  1.00  0.00     0.000 A 
ENDBRANCH  62  75
ENDBRANCH  36  37
ENDBRANCH  29  31
ENDBRANCH  28  29
ENDBRANCH  27  28
ENDBRANCH   1  27
TORSDOF 16
ENDMDL
MODEL 3
REMARK VINA RESULT:     -10.6      4.256      8.097
REMARK SMILES NS(=O)(=O)c1ccc(/N=C/c2ccc(O)c(C(=O)OCCOC(=O)c3ccc(-c4c5nc(c(-c6ccccc6)c6ccc([nH]6)c(-c6ccccc6)c6nc(c(-c7ccccc7)c7ccc4[nH]7)C=C6)C=C5)cc3)c2)cc1
REMARK SMILES IDX 20 1 19 2 17 3 18 4 16 5 11 6 12 7 73 8 13 9 14 10 10 11
REMARK SMILES IDX 9 12 8 13 5 14 6 15 75 16 7 17 74 18 2 19 3 20 4 21 1 22
REMARK SMILES IDX 15 25 21 27 22 28 23 29 24 30 25 31 26 32 72 33 27 34 71 35
REMARK SMILES IDX 28 36 29 37 30 38 65 39 31 40 70 41 64 42 66 43 32 44 69 45
REMARK SMILES IDX 63 46 62 47 33 49 55 50 40 51 54 52 41 53 44 54 53 55 67 56
REMARK SMILES IDX 42 57 43 58 52 60 68 61 45 62 34 63 35 64 39 65 36 66 38 67
REMARK SMILES IDX 37 68 56 69 57 70 61 71 58 72 60 73 59 74 46 75 47 76 51 77
REMARK SMILES IDX 48 78 50 79 49 80
REMARK H PARENT 1 23 1 24 15 26 66 48 44 59
REMARK Flexibility Score: inf
ROOT
ATOM      1  C   UNL A   1      33.309  34.949  30.042  1.00  0.00     0.275 C 
ENDROOT
BRANCH   1   2
ATOM      2  O   UNL A   1      33.965  34.519  28.831  1.00  0.00    -0.458 OA
BRANCH   2   3
ATOM      3  C   UNL A   1      33.338  33.570  28.098  1.00  0.00     0.342 C 
ATOM      4  O   UNL A   1      32.251  33.659  27.544  1.00  0.00    -0.246 OA
BRANCH   3   5
ATOM      5  C   UNL A   1      34.198  32.378  27.929  1.00  0.00     0.102 A 
ATOM      6  C   UNL A   1      34.480  30.001  27.665  1.00  0.00    -0.006 A 
ATOM      7  C   UNL A   1      35.870  30.139  27.679  1.00  0.00     0.013 A 
ATOM      8  C   UNL A   1      33.639  31.104  27.843  1.00  0.00     0.029 A 
ATOM      9  C   UNL A   1      36.425  31.412  27.747  1.00  0.00     0.048 A 
ATOM     10  C   UNL A   1      35.588  32.524  27.796  1.00  0.00     0.130 A 
BRANCH   6  11
ATOM     11  C   UNL A   1      33.915  28.682  27.338  1.00  0.00     0.119 C 
ATOM     12  N   UNL A   1      33.847  28.279  26.113  1.00  0.00    -0.256 NA
BRANCH  12  13
ATOM     13  C   UNL A   1      33.362  27.001  25.807  1.00  0.00     0.063 A 
ATOM     14  C   UNL A   1      32.362  24.408  25.436  1.00  0.00     0.082 A 
ATOM     15  C   UNL A   1      31.701  25.287  26.296  1.00  0.00     0.024 A 
ATOM     16  C   UNL A   1      33.504  24.816  24.748  1.00  0.00     0.024 A 
ATOM     17  C   UNL A   1      32.202  26.580  26.469  1.00  0.00     0.030 A 
ATOM     18  C   UNL A   1      34.004  26.105  24.945  1.00  0.00     0.030 A 
BRANCH  14  19
ATOM     19  S   UNL A   1      31.758  22.755  25.297  1.00  0.00     0.238 S 
ATOM     20  O   UNL A   1      32.553  21.905  26.144  1.00  0.00    -0.207 OA
ATOM     21  O   UNL A   1      31.519  22.475  23.897  1.00  0.00    -0.207 OA
BRANCH  19  22
ATOM     22  N   UNL A   1      30.231  22.807  26.002  1.00  0.00    -0.225 NA
ATOM     23  H   UNL A   1      29.769  21.905  25.877  1.00  0.00     0.137 HD
ATOM     24  H   UNL A   1      29.676  23.537  25.558  1.00  0.00     0.137 HD
ENDBRANCH  19  22
ENDBRANCH  14  19
ENDBRANCH  12  13
ENDBRANCH   6  11
BRANCH  10  25
ATOM     25  O   UNL A   1      36.204  33.734  27.638  1.00  0.00    -0.507 OA
ATOM     26  H   UNL A   1      37.117  33.770  27.431  1.00  0.00     0.293 HD
ENDBRANCH  10  25
ENDBRANCH   3   5
ENDBRANCH   2   3
ENDBRANCH   1   2
BRANCH   1  27
ATOM     27  C   UNL A   1      34.113  34.544  31.279  1.00  0.00     0.275 C 
BRANCH  27  28
ATOM     28  O   UNL A   1      34.303  33.118  31.310  1.00  0.00    -0.458 OA
BRANCH  28  29
ATOM     29  C   UNL A   1      35.238  32.680  32.183  1.00  0.00     0.338 C 
ATOM     30  O   UNL A   1      35.186  32.687  33.400  1.00  0.00    -0.246 OA
BRANCH  29  31
ATOM     31  C   UNL A   1      36.364  32.089  31.448  1.00  0.00     0.060 A 
ATOM     32  C   UNL A   1      36.516  30.710  31.488  1.00  0.00     0.016 A 
ATOM     33  C   UNL A   1      37.356  32.883  30.886  1.00  0.00     0.016 A 
ATOM     34  C   UNL A   1      37.708  30.119  31.090  1.00  0.00     0.010 A 
ATOM     35  C   UNL A   1      38.499  32.273  30.356  1.00  0.00     0.010 A 
ATOM     36  C   UNL A   1      38.709  30.884  30.482  1.00  0.00    -0.014 A 
BRANCH  36  37
ATOM     37  C   UNL A   1      39.972  30.258  29.994  1.00  0.00     0.031 A 
ATOM     38  C   UNL A   1      41.254  31.053  30.000  1.00  0.00     0.074 A 
ATOM     39  C   UNL A   1      39.983  28.993  29.522  1.00  0.00     0.049 A 
ATOM     40  N   UNL A   1      42.368  30.835  29.349  1.00  0.00    -0.248 NA
ATOM     41  C   UNL A   1      41.274  32.266  30.835  1.00  0.00     0.031 C 
ATOM     42  C   UNL A   1      38.851  28.061  29.535  1.00  0.00     0.029 A 
ATOM     43  N   UNL A   1      40.988  28.271  28.922  1.00  0.00    -0.354 N 
ATOM     44  C   UNL A   1      43.194  31.917  29.639  1.00  0.00     0.074 A 
ATOM     45  C   UNL A   1      42.452  32.790  30.523  1.00  0.00     0.031 C 
ATOM     46  C   UNL A   1      39.231  26.892  29.004  1.00  0.00     0.029 A 
ATOM     47  C   UNL A   1      40.587  27.028  28.492  1.00  0.00     0.049 A 
ATOM     48  H   UNL A   1      41.906  28.611  28.811  1.00  0.00     0.167 HD
ATOM     49  C   UNL A   1      44.451  32.160  29.196  1.00  0.00     0.031 A 
ATOM     50  C   UNL A   1      41.201  26.124  27.707  1.00  0.00     0.031 A 
ATOM     51  C   UNL A   1      45.187  31.263  28.344  1.00  0.00     0.049 A 
ATOM     52  C   UNL A   1      42.554  26.456  27.145  1.00  0.00     0.074 A 
ATOM     53  C   UNL A   1      46.460  31.414  27.824  1.00  0.00     0.029 A 
ATOM     54  N   UNL A   1      44.717  30.034  27.904  1.00  0.00    -0.354 N 
ATOM     55  N   UNL A   1      43.292  27.519  27.348  1.00  0.00    -0.248 NA
ATOM     56  C   UNL A   1      43.149  25.473  26.229  1.00  0.00     0.031 C 
ATOM     57  C   UNL A   1      46.742  30.299  27.029  1.00  0.00     0.029 A 
ATOM     58  C   UNL A   1      45.671  29.423  27.108  1.00  0.00     0.049 A 
ATOM     59  H   UNL A   1      43.836  29.654  28.123  1.00  0.00     0.167 HD
ATOM     60  C   UNL A   1      44.454  27.318  26.617  1.00  0.00     0.074 A 
ATOM     61  C   UNL A   1      44.324  26.029  25.968  1.00  0.00     0.031 C 
ATOM     62  C   UNL A   1      45.533  28.127  26.497  1.00  0.00     0.031 A 
BRANCH  49  63
ATOM     63  C   UNL A   1      45.094  33.466  29.582  1.00  0.00    -0.014 A 
ATOM     64  C   UNL A   1      44.937  34.626  28.808  1.00  0.00     0.009 A 
ATOM     65  C   UNL A   1      45.836  33.544  30.773  1.00  0.00     0.009 A 
ATOM     66  C   UNL A   1      45.542  35.824  29.198  1.00  0.00     0.001 A 
ATOM     67  C   UNL A   1      46.411  34.751  31.177  1.00  0.00     0.001 A 
ATOM     68  C   UNL A   1      46.273  35.887  30.384  1.00  0.00     0.000 A 
ENDBRANCH  49  63
BRANCH  50  69
ATOM     69  C   UNL A   1      40.513  24.854  27.343  1.00  0.00    -0.014 A 
ATOM     70  C   UNL A   1      39.426  24.859  26.457  1.00  0.00     0.009 A 
ATOM     71  C   UNL A   1      40.942  23.627  27.878  1.00  0.00     0.009 A 
ATOM     72  C   UNL A   1      38.768  23.670  26.135  1.00  0.00     0.001 A 
ATOM     73  C   UNL A   1      40.308  22.434  27.524  1.00  0.00     0.001 A 
ATOM     74  C   UNL A   1      39.215  22.458  26.661  1.00  0.00     0.000 A 
ENDBRANCH  50  69
BRANCH  62  75
ATOM     75  C   UNL A   1      46.697  27.611  25.703  1.00  0.00    -0.014 A 
ATOM     76  C   UNL A   1      47.636  26.732  26.260  1.00  0.00     0.009 A 
ATOM     77  C   UNL A   1      46.807  27.963  24.348  1.00  0.00     0.009 A 
ATOM     78  C   UNL A   1      48.675  26.228  25.476  1.00  0.00     0.001 A 
ATOM     79  C   UNL A   1      47.830  27.434  23.561  1.00  0.00     0.001 A 
ATOM     80  C   UNL A   1      48.766  26.571  24.128  1.00  0.00     0.000 A 
ENDBRANCH  62  75
ENDBRANCH  36  37
ENDBRANCH  29  31
ENDBRANCH  28  29
ENDBRANCH  27  28
ENDBRANCH   1  27
TORSDOF 16
ENDMDL
