MODEL 1
REMARK VINA RESULT:     -10.5      0.000      0.000
REMARK SMILES CCC[N@H+]1CCC[C@H]([C@@H](C)Nc2cccc(C(=O)OCCOC(=O)c3ccc(-c4c5nc(c(-c6ccccc6)c6ccc([nH]6)c(-c6ccccc6)c6nc(c(-c7ccccc7)c7ccc4[nH]7)C=C6)C=C5)cc3)c2)C1
REMARK SMILES IDX 19 1 17 2 18 3 16 4 12 5 13 6 73 7 14 8 15 9 11 10 9 12
REMARK SMILES IDX 10 13 8 14 4 15 5 16 74 17 6 19 7 20 3 21 2 22 1 23 20 24
REMARK SMILES IDX 21 25 22 26 23 27 24 28 25 29 26 30 72 31 27 32 71 33 28 34
REMARK SMILES IDX 29 35 30 36 65 37 31 38 70 39 64 40 66 41 32 42 69 43 63 44
REMARK SMILES IDX 62 45 33 47 55 48 40 49 54 50 41 51 44 52 53 53 67 54 42 55
REMARK SMILES IDX 43 56 52 58 68 59 45 60 34 61 35 62 39 63 36 64 38 65 37 66
REMARK SMILES IDX 56 67 57 68 61 69 58 70 60 71 59 72 46 73 47 74 51 75 48 76
REMARK SMILES IDX 50 77 49 78
REMARK H PARENT 11 11 4 18 66 46 44 57
REMARK Flexibility Score: inf
ROOT
ATOM      1  O   UNL A   1      41.301  20.873  25.775  1.00  0.00    -0.458 OA
ENDROOT
BRANCH   1   2
ATOM      2  C   UNL A   1      40.517  21.212  26.829  1.00  0.00     0.338 C 
ATOM      3  O   UNL A   1      40.726  20.948  28.001  1.00  0.00    -0.246 OA
BRANCH   2   4
ATOM      4  C   UNL A   1      39.389  22.069  26.380  1.00  0.00     0.062 A 
ATOM      5  C   UNL A   1      37.422  22.451  24.994  1.00  0.00     0.035 A 
ATOM      6  C   UNL A   1      37.341  23.749  25.511  1.00  0.00     0.026 A 
ATOM      7  C   UNL A   1      38.485  21.637  25.406  1.00  0.00     0.041 A 
ATOM      8  C   UNL A   1      38.234  24.190  26.490  1.00  0.00     0.003 A 
ATOM      9  C   UNL A   1      39.232  23.335  26.952  1.00  0.00     0.016 A 
BRANCH   5  10
ATOM     10  N   UNL A   1      36.400  21.976  24.181  1.00  0.00    -0.382 N 
ATOM     11  H   UNL A   1      36.579  21.774  23.235  1.00  0.00     0.160 HD
BRANCH  10  12
ATOM     12  C   UNL A   1      35.056  21.775  24.731  1.00  0.00     0.084 C 
ATOM     13  C   UNL A   1      34.890  20.271  24.968  1.00  0.00     0.031 C 
BRANCH  12  14
ATOM     14  C   UNL A   1      33.964  22.355  23.782  1.00  0.00     0.066 C 
ATOM     15  N   UNL A   1      33.433  24.461  25.061  1.00  0.00    -0.335 N 
ATOM     16  C   UNL A   1      32.112  23.930  25.442  1.00  0.00     0.262 C 
ATOM     17  C   UNL A   1      33.890  23.902  23.785  1.00  0.00     0.267 C 
ATOM     18  H   UNL A   1      34.148  24.160  25.724  1.00  0.00     0.348 HD
ATOM     19  C   UNL A   1      32.048  22.403  25.437  1.00  0.00     0.062 C 
ATOM     20  C   UNL A   1      32.559  21.823  24.120  1.00  0.00     0.017 C 
BRANCH  15  21
ATOM     21  C   UNL A   1      33.394  25.936  25.125  1.00  0.00     0.261 C 
BRANCH  21  22
ATOM     22  C   UNL A   1      32.126  26.639  25.637  1.00  0.00     0.058 C 
ATOM     23  C   UNL A   1      32.370  27.568  26.821  1.00  0.00     0.010 C 
ENDBRANCH  21  22
ENDBRANCH  15  21
ENDBRANCH  12  14
ENDBRANCH  10  12
ENDBRANCH   5  10
ENDBRANCH   2   4
ENDBRANCH   1   2
BRANCH   1  24
ATOM     24  C   UNL A   1      42.631  20.410  26.082  1.00  0.00     0.275 C 
BRANCH  24  25
ATOM     25  C   UNL A   1      43.669  21.292  25.393  1.00  0.00     0.275 C 
BRANCH  25  26
ATOM     26  O   UNL A   1      43.045  22.511  24.951  1.00  0.00    -0.458 OA
BRANCH  26  27
ATOM     27  C   UNL A   1      43.796  23.629  25.031  1.00  0.00     0.338 C 
ATOM     28  O   UNL A   1      44.818  23.897  24.421  1.00  0.00    -0.246 OA
BRANCH  27  29
ATOM     29  C   UNL A   1      43.170  24.546  25.993  1.00  0.00     0.060 A 
ATOM     30  C   UNL A   1      43.255  25.918  25.768  1.00  0.00     0.016 A 
ATOM     31  C   UNL A   1      42.588  24.058  27.160  1.00  0.00     0.016 A 
ATOM     32  C   UNL A   1      42.795  26.819  26.724  1.00  0.00     0.010 A 
ATOM     33  C   UNL A   1      42.079  24.960  28.099  1.00  0.00     0.010 A 
ATOM     34  C   UNL A   1      42.202  26.350  27.901  1.00  0.00    -0.014 A 
BRANCH  34  35
ATOM     35  C   UNL A   1      41.782  27.303  28.961  1.00  0.00     0.031 A 
ATOM     36  C   UNL A   1      42.622  27.455  30.199  1.00  0.00     0.074 A 
ATOM     37  C   UNL A   1      40.669  28.048  28.818  1.00  0.00     0.049 A 
ATOM     38  N   UNL A   1      42.354  28.095  31.308  1.00  0.00    -0.248 NA
ATOM     39  C   UNL A   1      43.938  26.793  30.188  1.00  0.00     0.031 C 
ATOM     40  C   UNL A   1      39.796  28.059  27.643  1.00  0.00     0.029 A 
ATOM     41  N   UNL A   1      40.086  28.949  29.675  1.00  0.00    -0.354 N 
ATOM     42  C   UNL A   1      43.439  27.869  32.146  1.00  0.00     0.074 A 
ATOM     43  C   UNL A   1      44.372  27.037  31.416  1.00  0.00     0.031 C 
ATOM     44  C   UNL A   1      38.805  28.942  27.843  1.00  0.00     0.029 A 
ATOM     45  C   UNL A   1      38.931  29.506  29.183  1.00  0.00     0.049 A 
ATOM     46  H   UNL A   1      40.461  29.175  30.557  1.00  0.00     0.167 HD
ATOM     47  C   UNL A   1      43.638  28.308  33.411  1.00  0.00     0.031 A 
ATOM     48  C   UNL A   1      38.051  30.347  29.759  1.00  0.00     0.031 A 
ATOM     49  C   UNL A   1      42.731  29.164  34.126  1.00  0.00     0.049 A 
ATOM     50  C   UNL A   1      38.273  30.790  31.178  1.00  0.00     0.074 A 
ATOM     51  C   UNL A   1      42.840  29.652  35.417  1.00  0.00     0.029 A 
ATOM     52  N   UNL A   1      41.557  29.677  33.603  1.00  0.00    -0.354 N 
ATOM     53  N   UNL A   1      39.266  30.508  31.986  1.00  0.00    -0.248 NA
ATOM     54  C   UNL A   1      37.241  31.654  31.770  1.00  0.00     0.031 C 
ATOM     55  C   UNL A   1      41.716  30.441  35.684  1.00  0.00     0.029 A 
ATOM     56  C   UNL A   1      40.927  30.473  34.545  1.00  0.00     0.049 A 
ATOM     57  H   UNL A   1      41.217  29.502  32.695  1.00  0.00     0.167 HD
ATOM     58  C   UNL A   1      38.984  31.166  33.175  1.00  0.00     0.074 A 
ATOM     59  C   UNL A   1      37.737  31.877  32.978  1.00  0.00     0.031 C 
ATOM     60  C   UNL A   1      39.691  31.175  34.331  1.00  0.00     0.031 A 
BRANCH  47  61
ATOM     61  C   UNL A   1      44.872  27.830  34.120  1.00  0.00    -0.014 A 
ATOM     62  C   UNL A   1      46.049  28.592  34.137  1.00  0.00     0.009 A 
ATOM     63  C   UNL A   1      44.841  26.604  34.804  1.00  0.00     0.009 A 
ATOM     64  C   UNL A   1      47.182  28.121  34.805  1.00  0.00     0.001 A 
ATOM     65  C   UNL A   1      45.967  26.147  35.489  1.00  0.00     0.001 A 
ATOM     66  C   UNL A   1      47.139  26.902  35.482  1.00  0.00     0.000 A 
ENDBRANCH  47  61
BRANCH  48  67
ATOM     67  C   UNL A   1      36.848  30.792  29.011  1.00  0.00    -0.014 A 
ATOM     68  C   UNL A   1      35.816  29.888  28.719  1.00  0.00     0.009 A 
ATOM     69  C   UNL A   1      36.732  32.121  28.577  1.00  0.00     0.009 A 
ATOM     70  C   UNL A   1      34.698  30.304  27.993  1.00  0.00     0.001 A 
ATOM     71  C   UNL A   1      35.601  32.540  27.873  1.00  0.00     0.001 A 
ATOM     72  C   UNL A   1      34.589  31.630  27.576  1.00  0.00     0.000 A 
ENDBRANCH  48  67
BRANCH  60  73
ATOM     73  C   UNL A   1      39.148  32.003  35.458  1.00  0.00    -0.014 A 
ATOM     74  C   UNL A   1      39.334  33.393  35.487  1.00  0.00     0.009 A 
ATOM     75  C   UNL A   1      38.414  31.388  36.482  1.00  0.00     0.009 A 
ATOM     76  C   UNL A   1      38.814  34.150  36.539  1.00  0.00     0.001 A 
ATOM     77  C   UNL A   1      37.878  32.150  37.522  1.00  0.00     0.001 A 
ATOM     78  C   UNL A   1      38.085  33.528  37.554  1.00  0.00     0.000 A 
ENDBRANCH  60  73
ENDBRANCH  34  35
ENDBRANCH  27  29
ENDBRANCH  26  27
ENDBRANCH  25  26
ENDBRANCH  24  25
ENDBRANCH   1  24
TORSDOF 16
ENDMDL
MODEL 2
REMARK VINA RESULT:     -10.5      4.466      6.515
REMARK SMILES CCC[N@H+]1CCC[C@H]([C@@H](C)Nc2cccc(C(=O)OCCOC(=O)c3ccc(-c4c5nc(c(-c6ccccc6)c6ccc([nH]6)c(-c6ccccc6)c6nc(c(-c7ccccc7)c7ccc4[nH]7)C=C6)C=C5)cc3)c2)C1
REMARK SMILES IDX 19 1 17 2 18 3 16 4 12 5 13 6 73 7 14 8 15 9 11 10 9 12
REMARK SMILES IDX 10 13 8 14 4 15 5 16 74 17 6 19 7 20 3 21 2 22 1 23 20 24
REMARK SMILES IDX 21 25 22 26 23 27 24 28 25 29 26 30 72 31 27 32 71 33 28 34
REMARK SMILES IDX 29 35 30 36 65 37 31 38 70 39 64 40 66 41 32 42 69 43 63 44
REMARK SMILES IDX 62 45 33 47 55 48 40 49 54 50 41 51 44 52 53 53 67 54 42 55
REMARK SMILES IDX 43 56 52 58 68 59 45 60 34 61 35 62 39 63 36 64 38 65 37 66
REMARK SMILES IDX 56 67 57 68 61 69 58 70 60 71 59 72 46 73 47 74 51 75 48 76
REMARK SMILES IDX 50 77 49 78
REMARK H PARENT 11 11 4 18 66 46 44 57
REMARK Flexibility Score: inf
ROOT
ATOM      1  O   UNL A   1      41.677  20.432  26.161  1.00  0.00    -0.458 OA
ENDROOT
BRANCH   1   2
ATOM      2  C   UNL A   1      41.500  21.463  27.025  1.00  0.00     0.338 C 
ATOM      3  O   UNL A   1      42.284  21.830  27.885  1.00  0.00    -0.246 OA
BRANCH   2   4
ATOM      4  C   UNL A   1      40.240  22.188  26.717  1.00  0.00     0.062 A 
ATOM      5  C   UNL A   1      38.151  22.400  25.481  1.00  0.00     0.035 A 
ATOM      6  C   UNL A   1      37.932  23.630  26.111  1.00  0.00     0.026 A 
ATOM      7  C   UNL A   1      39.338  21.712  25.761  1.00  0.00     0.041 A 
ATOM      8  C   UNL A   1      38.822  24.114  27.073  1.00  0.00     0.003 A 
ATOM      9  C   UNL A   1      39.954  23.372  27.403  1.00  0.00     0.016 A 
BRANCH   5  10
ATOM     10  N   UNL A   1      37.149  21.852  24.689  1.00  0.00    -0.382 N 
ATOM     11  H   UNL A   1      37.084  22.100  23.739  1.00  0.00     0.160 HD
BRANCH  10  12
ATOM     12  C   UNL A   1      36.189  20.907  25.266  1.00  0.00     0.084 C 
ATOM     13  C   UNL A   1      36.653  19.501  24.870  1.00  0.00     0.031 C 
BRANCH  12  14
ATOM     14  C   UNL A   1      34.738  21.213  24.791  1.00  0.00     0.066 C 
ATOM     15  N   UNL A   1      34.470  23.490  25.838  1.00  0.00    -0.335 N 
ATOM     16  C   UNL A   1      33.505  22.957  26.816  1.00  0.00     0.262 C 
ATOM     17  C   UNL A   1      34.450  22.722  24.590  1.00  0.00     0.267 C 
ATOM     18  H   UNL A   1      35.426  23.374  26.175  1.00  0.00     0.348 HD
ATOM     19  C   UNL A   1      33.665  21.459  27.071  1.00  0.00     0.062 C 
ATOM     20  C   UNL A   1      33.679  20.666  25.767  1.00  0.00     0.017 C 
BRANCH  15  21
ATOM     21  C   UNL A   1      34.250  24.943  25.688  1.00  0.00     0.261 C 
BRANCH  21  22
ATOM     22  C   UNL A   1      32.818  25.501  25.745  1.00  0.00     0.058 C 
ATOM     23  C   UNL A   1      32.720  26.885  26.379  1.00  0.00     0.010 C 
ENDBRANCH  21  22
ENDBRANCH  15  21
ENDBRANCH  12  14
ENDBRANCH  10  12
ENDBRANCH   5  10
ENDBRANCH   2   4
ENDBRANCH   1   2
BRANCH   1  24
ATOM     24  C   UNL A   1      42.126  19.185  26.727  1.00  0.00     0.275 C 
BRANCH  24  25
ATOM     25  C   UNL A   1      43.130  18.513  25.793  1.00  0.00     0.275 C 
BRANCH  25  26
ATOM     26  O   UNL A   1      43.380  19.369  24.664  1.00  0.00    -0.458 OA
BRANCH  26  27
ATOM     27  C   UNL A   1      44.676  19.608  24.372  1.00  0.00     0.338 C 
ATOM     28  O   UNL A   1      45.499  18.839  23.903  1.00  0.00    -0.246 OA
BRANCH  27  29
ATOM     29  C   UNL A   1      44.978  21.009  24.694  1.00  0.00     0.060 A 
ATOM     30  C   UNL A   1      45.478  21.317  25.957  1.00  0.00     0.016 A 
ATOM     31  C   UNL A   1      44.677  22.023  23.788  1.00  0.00     0.016 A 
ATOM     32  C   UNL A   1      45.646  22.643  26.345  1.00  0.00     0.010 A 
ATOM     33  C   UNL A   1      44.893  23.355  24.157  1.00  0.00     0.010 A 
ATOM     34  C   UNL A   1      45.354  23.678  25.449  1.00  0.00    -0.014 A 
BRANCH  34  35
ATOM     35  C   UNL A   1      45.454  25.096  25.882  1.00  0.00     0.031 A 
ATOM     36  C   UNL A   1      46.772  25.813  25.777  1.00  0.00     0.074 A 
ATOM     37  C   UNL A   1      44.375  25.754  26.346  1.00  0.00     0.049 A 
ATOM     38  N   UNL A   1      47.117  26.984  26.250  1.00  0.00    -0.248 NA
ATOM     39  C   UNL A   1      47.845  25.118  25.047  1.00  0.00     0.031 C 
ATOM     40  C   UNL A   1      43.019  25.209  26.437  1.00  0.00     0.029 A 
ATOM     41  N   UNL A   1      44.253  27.034  26.826  1.00  0.00    -0.354 N 
ATOM     42  C   UNL A   1      48.459  27.140  25.924  1.00  0.00     0.074 A 
ATOM     43  C   UNL A   1      48.863  25.949  25.209  1.00  0.00     0.031 C 
ATOM     44  C   UNL A   1      42.199  26.157  26.917  1.00  0.00     0.029 A 
ATOM     45  C   UNL A   1      42.979  27.349  27.234  1.00  0.00     0.049 A 
ATOM     46  H   UNL A   1      45.006  27.667  26.873  1.00  0.00     0.167 HD
ATOM     47  C   UNL A   1      49.281  28.180  26.201  1.00  0.00     0.031 A 
ATOM     48  C   UNL A   1      42.501  28.457  27.830  1.00  0.00     0.031 A 
ATOM     49  C   UNL A   1      48.874  29.381  26.879  1.00  0.00     0.049 A 
ATOM     50  C   UNL A   1      43.441  29.582  28.163  1.00  0.00     0.074 A 
ATOM     51  C   UNL A   1      49.638  30.484  27.217  1.00  0.00     0.029 A 
ATOM     52  N   UNL A   1      47.582  29.643  27.305  1.00  0.00    -0.354 N 
ATOM     53  N   UNL A   1      44.724  29.686  27.917  1.00  0.00    -0.248 NA
ATOM     54  C   UNL A   1      42.866  30.735  28.874  1.00  0.00     0.031 C 
ATOM     55  C   UNL A   1      48.813  31.404  27.872  1.00  0.00     0.029 A 
ATOM     56  C   UNL A   1      47.527  30.889  27.906  1.00  0.00     0.049 A 
ATOM     57  H   UNL A   1      46.816  29.034  27.197  1.00  0.00     0.167 HD
ATOM     58  C   UNL A   1      45.107  30.917  28.432  1.00  0.00     0.074 A 
ATOM     59  C   UNL A   1      43.919  31.532  28.987  1.00  0.00     0.031 C 
ATOM     60  C   UNL A   1      46.338  31.485  28.450  1.00  0.00     0.031 A 
BRANCH  47  61
ATOM     61  C   UNL A   1      50.723  28.041  25.806  1.00  0.00    -0.014 A 
ATOM     62  C   UNL A   1      51.187  28.488  24.561  1.00  0.00     0.009 A 
ATOM     63  C   UNL A   1      51.634  27.476  26.713  1.00  0.00     0.009 A 
ATOM     64  C   UNL A   1      52.534  28.346  24.220  1.00  0.00     0.001 A 
ATOM     65  C   UNL A   1      52.983  27.357  26.378  1.00  0.00     0.001 A 
ATOM     66  C   UNL A   1      53.431  27.784  25.129  1.00  0.00     0.000 A 
ENDBRANCH  47  61
BRANCH  48  67
ATOM     67  C   UNL A   1      41.064  28.543  28.197  1.00  0.00    -0.014 A 
ATOM     68  C   UNL A   1      40.607  28.014  29.412  1.00  0.00     0.009 A 
ATOM     69  C   UNL A   1      40.143  29.146  27.327  1.00  0.00     0.009 A 
ATOM     70  C   UNL A   1      39.251  28.073  29.743  1.00  0.00     0.001 A 
ATOM     71  C   UNL A   1      38.792  29.227  27.671  1.00  0.00     0.001 A 
ATOM     72  C   UNL A   1      38.346  28.684  28.874  1.00  0.00     0.000 A 
ENDBRANCH  48  67
BRANCH  60  73
ATOM     73  C   UNL A   1      46.451  32.850  29.062  1.00  0.00    -0.014 A 
ATOM     74  C   UNL A   1      46.257  34.006  28.291  1.00  0.00     0.009 A 
ATOM     75  C   UNL A   1      46.721  32.978  30.432  1.00  0.00     0.009 A 
ATOM     76  C   UNL A   1      46.357  35.269  28.879  1.00  0.00     0.001 A 
ATOM     77  C   UNL A   1      46.800  34.241  31.021  1.00  0.00     0.001 A 
ATOM     78  C   UNL A   1      46.626  35.384  30.243  1.00  0.00     0.000 A 
ENDBRANCH  60  73
ENDBRANCH  34  35
ENDBRANCH  27  29
ENDBRANCH  26  27
ENDBRANCH  25  26
ENDBRANCH  24  25
ENDBRANCH   1  24
TORSDOF 16
ENDMDL
MODEL 3
REMARK VINA RESULT:     -10.0      1.043      2.383
REMARK SMILES CCC[N@H+]1CCC[C@H]([C@@H](C)Nc2cccc(C(=O)OCCOC(=O)c3ccc(-c4c5nc(c(-c6ccccc6)c6ccc([nH]6)c(-c6ccccc6)c6nc(c(-c7ccccc7)c7ccc4[nH]7)C=C6)C=C5)cc3)c2)C1
REMARK SMILES IDX 19 1 17 2 18 3 16 4 12 5 13 6 73 7 14 8 15 9 11 10 9 12
REMARK SMILES IDX 10 13 8 14 4 15 5 16 74 17 6 19 7 20 3 21 2 22 1 23 20 24
REMARK SMILES IDX 21 25 22 26 23 27 24 28 25 29 26 30 72 31 27 32 71 33 28 34
REMARK SMILES IDX 29 35 30 36 65 37 31 38 70 39 64 40 66 41 32 42 69 43 63 44
REMARK SMILES IDX 62 45 33 47 55 48 40 49 54 50 41 51 44 52 53 53 67 54 42 55
REMARK SMILES IDX 43 56 52 58 68 59 45 60 34 61 35 62 39 63 36 64 38 65 37 66
REMARK SMILES IDX 56 67 57 68 61 69 58 70 60 71 59 72 46 73 47 74 51 75 48 76
REMARK SMILES IDX 50 77 49 78
REMARK H PARENT 11 11 4 18 66 46 44 57
REMARK Flexibility Score: inf
ROOT
ATOM      1  O   UNL A   1      40.952  20.494  27.039  1.00  0.00    -0.458 OA
ENDROOT
BRANCH   1   2
ATOM      2  C   UNL A   1      39.954  20.336  26.133  1.00  0.00     0.338 C 
ATOM      3  O   UNL A   1      39.656  19.303  25.557  1.00  0.00    -0.246 OA
BRANCH   2   4
ATOM      4  C   UNL A   1      39.169  21.591  26.003  1.00  0.00     0.062 A 
ATOM      5  C   UNL A   1      37.433  22.919  24.926  1.00  0.00     0.035 A 
ATOM      6  C   UNL A   1      37.784  23.996  25.745  1.00  0.00     0.026 A 
ATOM      7  C   UNL A   1      38.171  21.733  25.035  1.00  0.00     0.041 A 
ATOM      8  C   UNL A   1      38.774  23.866  26.721  1.00  0.00     0.003 A 
ATOM      9  C   UNL A   1      39.437  22.651  26.875  1.00  0.00     0.016 A 
BRANCH   5  10
ATOM     10  N   UNL A   1      36.310  23.017  24.113  1.00  0.00    -0.382 N 
ATOM     11  H   UNL A   1      36.414  23.063  23.136  1.00  0.00     0.160 HD
BRANCH  10  12
ATOM     12  C   UNL A   1      34.971  23.052  24.710  1.00  0.00     0.084 C 
ATOM     13  C   UNL A   1      34.761  24.469  25.252  1.00  0.00     0.031 C 
BRANCH  12  14
ATOM     14  C   UNL A   1      34.813  21.961  25.810  1.00  0.00     0.066 C 
ATOM     15  N   UNL A   1      33.390  20.328  24.522  1.00  0.00    -0.335 N 
ATOM     16  C   UNL A   1      32.222  20.638  25.363  1.00  0.00     0.262 C 
ATOM     17  C   UNL A   1      34.646  20.526  25.251  1.00  0.00     0.267 C 
ATOM     18  H   UNL A   1      33.459  20.984  23.743  1.00  0.00     0.348 HD
ATOM     19  C   UNL A   1      32.289  22.023  26.007  1.00  0.00     0.062 C 
ATOM     20  C   UNL A   1      33.614  22.239  26.736  1.00  0.00     0.017 C 
BRANCH  15  21
ATOM     21  C   UNL A   1      33.212  18.987  23.927  1.00  0.00     0.261 C 
BRANCH  21  22
ATOM     22  C   UNL A   1      34.219  17.872  24.257  1.00  0.00     0.058 C 
ATOM     23  C   UNL A   1      33.995  16.586  23.471  1.00  0.00     0.010 C 
ENDBRANCH  21  22
ENDBRANCH  15  21
ENDBRANCH  12  14
ENDBRANCH  10  12
ENDBRANCH   5  10
ENDBRANCH   2   4
ENDBRANCH   1   2
BRANCH   1  24
ATOM     24  C   UNL A   1      42.238  19.949  26.685  1.00  0.00     0.275 C 
BRANCH  24  25
ATOM     25  C   UNL A   1      42.906  20.819  25.624  1.00  0.00     0.275 C 
BRANCH  25  26
ATOM     26  O   UNL A   1      43.655  21.866  26.267  1.00  0.00    -0.458 OA
BRANCH  26  27
ATOM     27  C   UNL A   1      43.638  23.072  25.660  1.00  0.00     0.338 C 
ATOM     28  O   UNL A   1      44.028  23.359  24.540  1.00  0.00    -0.246 OA
BRANCH  27  29
ATOM     29  C   UNL A   1      43.029  24.047  26.574  1.00  0.00     0.060 A 
ATOM     30  C   UNL A   1      43.096  25.402  26.254  1.00  0.00     0.016 A 
ATOM     31  C   UNL A   1      42.482  23.635  27.786  1.00  0.00     0.016 A 
ATOM     32  C   UNL A   1      42.654  26.362  27.159  1.00  0.00     0.010 A 
ATOM     33  C   UNL A   1      41.990  24.596  28.675  1.00  0.00     0.010 A 
ATOM     34  C   UNL A   1      42.096  25.970  28.381  1.00  0.00    -0.014 A 
BRANCH  34  35
ATOM     35  C   UNL A   1      41.695  26.990  29.385  1.00  0.00     0.031 A 
ATOM     36  C   UNL A   1      42.514  27.164  30.634  1.00  0.00     0.074 A 
ATOM     37  C   UNL A   1      40.621  27.774  29.180  1.00  0.00     0.049 A 
ATOM     38  N   UNL A   1      42.250  27.868  31.705  1.00  0.00    -0.248 NA
ATOM     39  C   UNL A   1      43.799  26.446  30.685  1.00  0.00     0.031 C 
ATOM     40  C   UNL A   1      39.775  27.767  27.985  1.00  0.00     0.029 A 
ATOM     41  N   UNL A   1      40.060  28.740  29.979  1.00  0.00    -0.354 N 
ATOM     42  C   UNL A   1      43.306  27.635  32.578  1.00  0.00     0.074 A 
ATOM     43  C   UNL A   1      44.217  26.730  31.910  1.00  0.00     0.031 C 
ATOM     44  C   UNL A   1      38.820  28.701  28.120  1.00  0.00     0.029 A 
ATOM     45  C   UNL A   1      38.941  29.322  29.435  1.00  0.00     0.049 A 
ATOM     46  H   UNL A   1      40.425  28.991  30.859  1.00  0.00     0.167 HD
ATOM     47  C   UNL A   1      43.497  28.125  33.826  1.00  0.00     0.031 A 
ATOM     48  C   UNL A   1      38.087  30.227  29.950  1.00  0.00     0.031 A 
ATOM     49  C   UNL A   1      42.613  29.053  34.478  1.00  0.00     0.049 A 
ATOM     50  C   UNL A   1      38.297  30.727  31.352  1.00  0.00     0.074 A 
ATOM     51  C   UNL A   1      42.715  29.596  35.747  1.00  0.00     0.029 A 
ATOM     52  N   UNL A   1      41.474  29.591  33.903  1.00  0.00    -0.354 N 
ATOM     53  N   UNL A   1      39.259  30.441  32.195  1.00  0.00    -0.248 NA
ATOM     54  C   UNL A   1      37.291  31.663  31.877  1.00  0.00     0.031 C 
ATOM     55  C   UNL A   1      41.622  30.445  35.950  1.00  0.00     0.029 A 
ATOM     56  C   UNL A   1      40.861  30.457  34.792  1.00  0.00     0.049 A 
ATOM     57  H   UNL A   1      41.148  29.387  32.997  1.00  0.00     0.167 HD
ATOM     58  C   UNL A   1      38.980  31.167  33.345  1.00  0.00     0.074 A 
ATOM     59  C   UNL A   1      37.771  31.921  33.086  1.00  0.00     0.031 C 
ATOM     60  C   UNL A   1      39.662  31.200  34.516  1.00  0.00     0.031 A 
BRANCH  47  61
ATOM     61  C   UNL A   1      44.692  27.628  34.585  1.00  0.00    -0.014 A 
ATOM     62  C   UNL A   1      44.631  26.467  35.370  1.00  0.00     0.009 A 
ATOM     63  C   UNL A   1      45.908  28.324  34.489  1.00  0.00     0.009 A 
ATOM     64  C   UNL A   1      45.759  26.027  36.066  1.00  0.00     0.001 A 
ATOM     65  C   UNL A   1      47.039  27.869  35.167  1.00  0.00     0.001 A 
ATOM     66  C   UNL A   1      46.962  26.727  35.961  1.00  0.00     0.000 A 
ENDBRANCH  47  61
BRANCH  48  67
ATOM     67  C   UNL A   1      36.921  30.687  29.153  1.00  0.00    -0.014 A 
ATOM     68  C   UNL A   1      35.912  29.787  28.782  1.00  0.00     0.009 A 
ATOM     69  C   UNL A   1      36.819  32.028  28.752  1.00  0.00     0.009 A 
ATOM     70  C   UNL A   1      34.831  30.218  28.010  1.00  0.00     0.001 A 
ATOM     71  C   UNL A   1      35.724  32.462  28.002  1.00  0.00     0.001 A 
ATOM     72  C   UNL A   1      34.735  31.556  27.627  1.00  0.00     0.000 A 
ENDBRANCH  48  67
BRANCH  60  73
ATOM     73  C   UNL A   1      39.132  32.104  35.589  1.00  0.00    -0.014 A 
ATOM     74  C   UNL A   1      38.195  31.642  36.526  1.00  0.00     0.009 A 
ATOM     75  C   UNL A   1      39.603  33.422  35.684  1.00  0.00     0.009 A 
ATOM     76  C   UNL A   1      37.719  32.496  37.524  1.00  0.00     0.001 A 
ATOM     77  C   UNL A   1      39.140  34.266  36.696  1.00  0.00     0.001 A 
ATOM     78  C   UNL A   1      38.194  33.805  37.609  1.00  0.00     0.000 A 
ENDBRANCH  60  73
ENDBRANCH  34  35
ENDBRANCH  27  29
ENDBRANCH  26  27
ENDBRANCH  25  26
ENDBRANCH  24  25
ENDBRANCH   1  24
TORSDOF 16
ENDMDL
