MODEL 1
REMARK VINA RESULT:     -10.8      0.000      0.000
REMARK SMILES CCCCCCNC(=O)Oc1cccc(-c2ccc([C@@H](C)C(=O)OCCOC(=O)c3ccc(-c4c5nc(c(-c6ccccc6)c6ccc([nH]6)c(-c6ccccc6)c6nc(c(-c7ccccc7)c7ccc4[nH]7)C=C6)C=C5)cc3)cc2O)c1
REMARK SMILES IDX 20 1 21 2 19 3 16 4 17 5 79 6 18 7 78 8 15 9 11 10 12 11
REMARK SMILES IDX 81 12 13 13 14 14 10 15 8 16 7 17 9 19 6 20 5 21 4 22 3 23
REMARK SMILES IDX 2 24 1 25 80 26 22 28 23 29 24 30 25 31 26 32 27 33 28 34
REMARK SMILES IDX 29 35 30 36 31 37 77 38 32 39 76 40 33 41 34 42 35 43 70 44
REMARK SMILES IDX 36 45 75 46 69 47 71 48 37 49 74 50 68 51 67 52 38 54 60 55
REMARK SMILES IDX 45 56 59 57 46 58 49 59 58 60 72 61 47 62 48 63 57 65 73 66
REMARK SMILES IDX 50 67 39 68 40 69 44 70 41 71 43 72 42 73 61 74 62 75 66 76
REMARK SMILES IDX 63 77 65 78 64 79 51 80 52 81 56 82 53 83 55 84 54 85
REMARK H PARENT 7 18 80 27 71 53 49 64
REMARK Flexibility Score: inf
ROOT
ATOM      1  C   UNL A   1      35.160  33.074  29.162  1.00  0.00     0.126 C 
ATOM      2  C   UNL A   1      36.200  33.856  28.363  1.00  0.00     0.025 C 
ENDROOT
BRANCH   1   3
ATOM      3  C   UNL A   1      34.655  31.848  28.415  1.00  0.00    -0.030 A 
ATOM      4  C   UNL A   1      33.619  29.559  27.062  1.00  0.00     0.024 A 
ATOM      5  C   UNL A   1      34.867  29.529  27.710  1.00  0.00     0.013 A 
ATOM      6  C   UNL A   1      32.907  30.768  27.103  1.00  0.00     0.123 A 
ATOM      7  C   UNL A   1      35.373  30.648  28.382  1.00  0.00     0.005 A 
ATOM      8  C   UNL A   1      33.416  31.892  27.760  1.00  0.00     0.051 A 
BRANCH   4   9
ATOM      9  C   UNL A   1      33.100  28.334  26.426  1.00  0.00    -0.011 A 
ATOM     10  C   UNL A   1      32.864  26.853  24.519  1.00  0.00     0.133 A 
ATOM     11  C   UNL A   1      31.993  26.031  25.230  1.00  0.00     0.047 A 
ATOM     12  C   UNL A   1      33.421  27.994  25.102  1.00  0.00     0.056 A 
ATOM     13  C   UNL A   1      31.686  26.342  26.551  1.00  0.00     0.004 A 
ATOM     14  C   UNL A   1      32.230  27.486  27.138  1.00  0.00     0.009 A 
BRANCH  10  15
ATOM     15  O   UNL A   1      33.026  26.560  23.155  1.00  0.00    -0.410 OA
BRANCH  15  16
ATOM     16  C   UNL A   1      33.050  27.600  22.238  1.00  0.00     0.412 C 
ATOM     17  N   UNL A   1      31.806  28.112  21.982  1.00  0.00    -0.321 N 
ATOM     18  H   UNL A   1      31.761  28.859  21.342  1.00  0.00     0.167 HD
ATOM     19  O   UNL A   1      34.043  28.045  21.678  1.00  0.00    -0.224 OA
BRANCH  17  20
ATOM     20  C   UNL A   1      30.548  27.670  22.553  1.00  0.00     0.119 C 
BRANCH  20  21
ATOM     21  C   UNL A   1      29.467  28.747  22.468  1.00  0.00     0.021 C 
BRANCH  21  22
ATOM     22  C   UNL A   1      29.724  29.990  23.330  1.00  0.00     0.002 C 
BRANCH  22  23
ATOM     23  C   UNL A   1      28.522  30.922  23.523  1.00  0.00    -0.000 C 
BRANCH  23  24
ATOM     24  C   UNL A   1      28.438  32.101  22.549  1.00  0.00    -0.003 C 
ATOM     25  C   UNL A   1      28.999  33.394  23.118  1.00  0.00     0.004 C 
ENDBRANCH  23  24
ENDBRANCH  22  23
ENDBRANCH  21  22
ENDBRANCH  20  21
ENDBRANCH  17  20
ENDBRANCH  15  16
ENDBRANCH  10  15
ENDBRANCH   4   9
BRANCH   6  26
ATOM     26  O   UNL A   1      31.660  30.926  26.555  1.00  0.00    -0.507 OA
ATOM     27  H   UNL A   1      31.065  30.203  26.530  1.00  0.00     0.293 HD
ENDBRANCH   6  26
ENDBRANCH   1   3
BRANCH   1  28
ATOM     28  C   UNL A   1      34.094  34.022  29.698  1.00  0.00     0.313 C 
ATOM     29  O   UNL A   1      33.522  34.833  28.974  1.00  0.00    -0.252 OA
BRANCH  28  30
ATOM     30  O   UNL A   1      33.810  33.841  31.013  1.00  0.00    -0.462 OA
BRANCH  30  31
ATOM     31  C   UNL A   1      34.636  34.546  31.960  1.00  0.00     0.274 C 
BRANCH  31  32
ATOM     32  C   UNL A   1      34.757  33.781  33.280  1.00  0.00     0.275 C 
BRANCH  32  33
ATOM     33  O   UNL A   1      35.305  32.465  33.073  1.00  0.00    -0.458 OA
BRANCH  33  34
ATOM     34  C   UNL A   1      36.513  32.260  33.644  1.00  0.00     0.338 C 
ATOM     35  O   UNL A   1      36.839  32.496  34.793  1.00  0.00    -0.246 OA
BRANCH  34  36
ATOM     36  C   UNL A   1      37.405  31.578  32.696  1.00  0.00     0.060 A 
ATOM     37  C   UNL A   1      38.452  30.818  33.221  1.00  0.00     0.016 A 
ATOM     38  C   UNL A   1      37.297  31.779  31.320  1.00  0.00     0.016 A 
ATOM     39  C   UNL A   1      39.422  30.286  32.380  1.00  0.00     0.010 A 
ATOM     40  C   UNL A   1      38.269  31.236  30.471  1.00  0.00     0.010 A 
ATOM     41  C   UNL A   1      39.352  30.510  31.000  1.00  0.00    -0.014 A 
BRANCH  41  42
ATOM     42  C   UNL A   1      40.472  30.062  30.140  1.00  0.00     0.031 A 
ATOM     43  C   UNL A   1      41.640  30.978  29.900  1.00  0.00     0.074 A 
ATOM     44  C   UNL A   1      40.476  28.817  29.626  1.00  0.00     0.049 A 
ATOM     45  N   UNL A   1      42.709  30.782  29.169  1.00  0.00    -0.248 NA
ATOM     46  C   UNL A   1      41.601  32.287  30.571  1.00  0.00     0.031 C 
ATOM     47  C   UNL A   1      39.429  27.816  29.827  1.00  0.00     0.029 A 
ATOM     48  N   UNL A   1      41.402  28.182  28.838  1.00  0.00    -0.354 N 
ATOM     49  C   UNL A   1      43.457  31.948  29.275  1.00  0.00     0.074 A 
ATOM     50  C   UNL A   1      42.715  32.853  30.126  1.00  0.00     0.031 C 
ATOM     51  C   UNL A   1      39.777  26.686  29.188  1.00  0.00     0.029 A 
ATOM     52  C   UNL A   1      41.049  26.898  28.504  1.00  0.00     0.049 A 
ATOM     53  H   UNL A   1      42.239  28.606  28.541  1.00  0.00     0.167 HD
ATOM     54  C   UNL A   1      44.656  32.238  28.717  1.00  0.00     0.031 A 
ATOM     55  C   UNL A   1      41.675  25.999  27.721  1.00  0.00     0.031 A 
ATOM     56  C   UNL A   1      45.406  31.335  27.885  1.00  0.00     0.049 A 
ATOM     57  C   UNL A   1      42.984  26.364  27.078  1.00  0.00     0.074 A 
ATOM     58  C   UNL A   1      46.637  31.537  27.283  1.00  0.00     0.029 A 
ATOM     59  N   UNL A   1      44.997  30.057  27.541  1.00  0.00    -0.354 N 
ATOM     60  N   UNL A   1      43.678  27.471  27.185  1.00  0.00    -0.248 NA
ATOM     61  C   UNL A   1      43.596  25.352  26.205  1.00  0.00     0.031 C 
ATOM     62  C   UNL A   1      46.953  30.394  26.542  1.00  0.00     0.029 A 
ATOM     63  C   UNL A   1      45.941  29.466  26.719  1.00  0.00     0.049 A 
ATOM     64  H   UNL A   1      44.159  29.633  27.836  1.00  0.00     0.167 HD
ATOM     65  C   UNL A   1      44.815  27.281  26.411  1.00  0.00     0.074 A 
ATOM     66  C   UNL A   1      44.727  25.947  25.855  1.00  0.00     0.031 C 
ATOM     67  C   UNL A   1      45.838  28.138  26.175  1.00  0.00     0.031 A 
BRANCH  54  68
ATOM     68  C   UNL A   1      45.222  33.606  28.965  1.00  0.00    -0.014 A 
ATOM     69  C   UNL A   1      46.073  33.858  30.051  1.00  0.00     0.009 A 
ATOM     70  C   UNL A   1      44.927  34.649  28.072  1.00  0.00     0.009 A 
ATOM     71  C   UNL A   1      46.601  35.136  30.251  1.00  0.00     0.001 A 
ATOM     72  C   UNL A   1      45.475  35.919  28.262  1.00  0.00     0.001 A 
ATOM     73  C   UNL A   1      46.305  36.163  29.355  1.00  0.00     0.000 A 
ENDBRANCH  54  68
BRANCH  55  74
ATOM     74  C   UNL A   1      41.060  24.670  27.472  1.00  0.00    -0.014 A 
ATOM     75  C   UNL A   1      39.939  24.543  26.638  1.00  0.00     0.009 A 
ATOM     76  C   UNL A   1      41.578  23.523  28.092  1.00  0.00     0.009 A 
ATOM     77  C   UNL A   1      39.332  23.299  26.455  1.00  0.00     0.001 A 
ATOM     78  C   UNL A   1      40.987  22.275  27.886  1.00  0.00     0.001 A 
ATOM     79  C   UNL A   1      39.858  22.166  27.075  1.00  0.00     0.000 A 
ENDBRANCH  55  74
BRANCH  67  80
ATOM     80  C   UNL A   1      46.954  27.644  25.301  1.00  0.00    -0.014 A 
ATOM     81  C   UNL A   1      48.005  26.879  25.831  1.00  0.00     0.009 A 
ATOM     82  C   UNL A   1      46.938  27.924  23.926  1.00  0.00     0.009 A 
ATOM     83  C   UNL A   1      49.037  26.433  25.004  1.00  0.00     0.001 A 
ATOM     84  C   UNL A   1      47.959  27.456  23.098  1.00  0.00     0.001 A 
ATOM     85  C   UNL A   1      49.012  26.718  23.639  1.00  0.00     0.000 A 
ENDBRANCH  67  80
ENDBRANCH  41  42
ENDBRANCH  34  36
ENDBRANCH  33  34
ENDBRANCH  32  33
ENDBRANCH  31  32
ENDBRANCH  30  31
ENDBRANCH  28  30
ENDBRANCH   1  28
TORSDOF 21
ENDMDL
MODEL 2
REMARK VINA RESULT:     -10.7      5.149     10.899
REMARK SMILES CCCCCCNC(=O)Oc1cccc(-c2ccc([C@@H](C)C(=O)OCCOC(=O)c3ccc(-c4c5nc(c(-c6ccccc6)c6ccc([nH]6)c(-c6ccccc6)c6nc(c(-c7ccccc7)c7ccc4[nH]7)C=C6)C=C5)cc3)cc2O)c1
REMARK SMILES IDX 20 1 21 2 19 3 16 4 17 5 79 6 18 7 78 8 15 9 11 10 12 11
REMARK SMILES IDX 81 12 13 13 14 14 10 15 8 16 7 17 9 19 6 20 5 21 4 22 3 23
REMARK SMILES IDX 2 24 1 25 80 26 22 28 23 29 24 30 25 31 26 32 27 33 28 34
REMARK SMILES IDX 29 35 30 36 31 37 77 38 32 39 76 40 33 41 34 42 35 43 70 44
REMARK SMILES IDX 36 45 75 46 69 47 71 48 37 49 74 50 68 51 67 52 38 54 60 55
REMARK SMILES IDX 45 56 59 57 46 58 49 59 58 60 72 61 47 62 48 63 57 65 73 66
REMARK SMILES IDX 50 67 39 68 40 69 44 70 41 71 43 72 42 73 61 74 62 75 66 76
REMARK SMILES IDX 63 77 65 78 64 79 51 80 52 81 56 82 53 83 55 84 54 85
REMARK H PARENT 7 18 80 27 71 53 49 64
REMARK Flexibility Score: inf
ROOT
ATOM      1  C   UNL A   1      41.784  19.923  26.781  1.00  0.00     0.126 C 
ATOM      2  C   UNL A   1      41.533  19.084  28.032  1.00  0.00     0.025 C 
ENDROOT
BRANCH   1   3
ATOM      3  C   UNL A   1      40.513  20.573  26.254  1.00  0.00    -0.030 A 
ATOM      4  C   UNL A   1      38.118  21.839  25.356  1.00  0.00     0.024 A 
ATOM      5  C   UNL A   1      38.322  20.457  25.201  1.00  0.00     0.013 A 
ATOM      6  C   UNL A   1      39.149  22.573  25.965  1.00  0.00     0.123 A 
ATOM      7  C   UNL A   1      39.493  19.832  25.649  1.00  0.00     0.005 A 
ATOM      8  C   UNL A   1      40.325  21.956  26.400  1.00  0.00     0.051 A 
BRANCH   4   9
ATOM      9  C   UNL A   1      36.841  22.438  24.928  1.00  0.00    -0.011 A 
ATOM     10  C   UNL A   1      34.601  23.247  25.388  1.00  0.00     0.133 A 
ATOM     11  C   UNL A   1      34.379  23.487  24.034  1.00  0.00     0.047 A 
ATOM     12  C   UNL A   1      35.817  22.731  25.843  1.00  0.00     0.056 A 
ATOM     13  C   UNL A   1      35.393  23.224  23.119  1.00  0.00     0.004 A 
ATOM     14  C   UNL A   1      36.609  22.699  23.564  1.00  0.00     0.009 A 
BRANCH  10  15
ATOM     15  O   UNL A   1      33.494  23.406  26.240  1.00  0.00    -0.410 OA
BRANCH  15  16
ATOM     16  C   UNL A   1      33.253  22.453  27.219  1.00  0.00     0.412 C 
ATOM     17  N   UNL A   1      32.629  21.336  26.730  1.00  0.00    -0.321 N 
ATOM     18  H   UNL A   1      32.438  20.620  27.379  1.00  0.00     0.167 HD
ATOM     19  O   UNL A   1      33.533  22.551  28.405  1.00  0.00    -0.224 OA
BRANCH  17  20
ATOM     20  C   UNL A   1      32.221  21.095  25.360  1.00  0.00     0.119 C 
BRANCH  20  21
ATOM     21  C   UNL A   1      32.743  19.761  24.828  1.00  0.00     0.021 C 
BRANCH  21  22
ATOM     22  C   UNL A   1      34.240  19.741  24.491  1.00  0.00     0.002 C 
BRANCH  22  23
ATOM     23  C   UNL A   1      34.932  18.380  24.628  1.00  0.00    -0.000 C 
BRANCH  23  24
ATOM     24  C   UNL A   1      34.022  17.158  24.475  1.00  0.00    -0.003 C 
ATOM     25  C   UNL A   1      34.029  16.574  23.072  1.00  0.00     0.004 C 
ENDBRANCH  23  24
ENDBRANCH  22  23
ENDBRANCH  21  22
ENDBRANCH  20  21
ENDBRANCH  17  20
ENDBRANCH  15  16
ENDBRANCH  10  15
ENDBRANCH   4   9
BRANCH   6  26
ATOM     26  O   UNL A   1      39.065  23.917  26.221  1.00  0.00    -0.507 OA
ATOM     27  H   UNL A   1      39.534  24.526  25.684  1.00  0.00     0.293 HD
ENDBRANCH   6  26
ENDBRANCH   1   3
BRANCH   1  28
ATOM     28  C   UNL A   1      42.600  19.124  25.772  1.00  0.00     0.313 C 
ATOM     29  O   UNL A   1      42.619  17.896  25.779  1.00  0.00    -0.252 OA
BRANCH  28  30
ATOM     30  O   UNL A   1      43.241  19.892  24.854  1.00  0.00    -0.462 OA
BRANCH  30  31
ATOM     31  C   UNL A   1      44.665  20.041  25.012  1.00  0.00     0.274 C 
BRANCH  31  32
ATOM     32  C   UNL A   1      45.114  21.479  24.738  1.00  0.00     0.275 C 
BRANCH  32  33
ATOM     33  O   UNL A   1      44.719  22.361  25.805  1.00  0.00    -0.458 OA
BRANCH  33  34
ATOM     34  C   UNL A   1      43.738  23.234  25.483  1.00  0.00     0.338 C 
ATOM     35  O   UNL A   1      43.044  23.233  24.482  1.00  0.00    -0.246 OA
BRANCH  34  36
ATOM     36  C   UNL A   1      43.515  24.169  26.594  1.00  0.00     0.060 A 
ATOM     37  C   UNL A   1      42.916  23.672  27.753  1.00  0.00     0.016 A 
ATOM     38  C   UNL A   1      43.772  25.534  26.459  1.00  0.00     0.016 A 
ATOM     39  C   UNL A   1      42.531  24.538  28.770  1.00  0.00     0.010 A 
ATOM     40  C   UNL A   1      43.393  26.406  27.487  1.00  0.00     0.010 A 
ATOM     41  C   UNL A   1      42.746  25.915  28.636  1.00  0.00    -0.014 A 
BRANCH  41  42
ATOM     42  C   UNL A   1      42.196  26.832  29.662  1.00  0.00     0.031 A 
ATOM     43  C   UNL A   1      42.916  27.001  30.971  1.00  0.00     0.074 A 
ATOM     44  C   UNL A   1      41.094  27.560  29.400  1.00  0.00     0.049 A 
ATOM     45  N   UNL A   1      42.593  27.741  32.003  1.00  0.00    -0.248 NA
ATOM     46  C   UNL A   1      44.162  26.239  31.143  1.00  0.00     0.031 C 
ATOM     47  C   UNL A   1      40.335  27.525  28.150  1.00  0.00     0.029 A 
ATOM     48  N   UNL A   1      40.430  28.479  30.172  1.00  0.00    -0.354 N 
ATOM     49  C   UNL A   1      43.583  27.517  32.952  1.00  0.00     0.074 A 
ATOM     50  C   UNL A   1      44.509  26.561  32.382  1.00  0.00     0.031 C 
ATOM     51  C   UNL A   1      39.314  28.395  28.235  1.00  0.00     0.029 A 
ATOM     52  C   UNL A   1      39.326  29.016  29.557  1.00  0.00     0.049 A 
ATOM     53  H   UNL A   1      40.717  28.730  31.080  1.00  0.00     0.167 HD
ATOM     54  C   UNL A   1      43.712  28.061  34.185  1.00  0.00     0.031 A 
ATOM     55  C   UNL A   1      38.418  29.899  30.013  1.00  0.00     0.031 A 
ATOM     56  C   UNL A   1      42.804  29.024  34.748  1.00  0.00     0.049 A 
ATOM     57  C   UNL A   1      38.562  30.453  31.404  1.00  0.00     0.074 A 
ATOM     58  C   UNL A   1      42.860  29.640  35.988  1.00  0.00     0.029 A 
ATOM     59  N   UNL A   1      41.679  29.515  34.107  1.00  0.00    -0.354 N 
ATOM     60  N   UNL A   1      39.501  30.231  32.290  1.00  0.00    -0.248 NA
ATOM     61  C   UNL A   1      37.516  31.384  31.855  1.00  0.00     0.031 C 
ATOM     62  C   UNL A   1      41.745  30.475  36.111  1.00  0.00     0.029 A 
ATOM     63  C   UNL A   1      41.021  30.412  34.932  1.00  0.00     0.049 A 
ATOM     64  H   UNL A   1      41.390  29.263  33.200  1.00  0.00     0.167 HD
ATOM     65  C   UNL A   1      39.171  31.005  33.394  1.00  0.00     0.074 A 
ATOM     66  C   UNL A   1      37.957  31.718  33.060  1.00  0.00     0.031 C 
ATOM     67  C   UNL A   1      39.814  31.112  34.584  1.00  0.00     0.031 A 
BRANCH  54  68
ATOM     68  C   UNL A   1      44.868  27.601  35.026  1.00  0.00    -0.014 A 
ATOM     69  C   UNL A   1      46.102  28.265  34.997  1.00  0.00     0.009 A 
ATOM     70  C   UNL A   1      44.701  26.508  35.892  1.00  0.00     0.009 A 
ATOM     71  C   UNL A   1      47.157  27.829  35.802  1.00  0.00     0.001 A 
ATOM     72  C   UNL A   1      45.750  26.089  36.712  1.00  0.00     0.001 A 
ATOM     73  C   UNL A   1      46.978  26.745  36.661  1.00  0.00     0.000 A 
ENDBRANCH  54  68
BRANCH  55  74
ATOM     74  C   UNL A   1      37.270  30.298  29.161  1.00  0.00    -0.014 A 
ATOM     75  C   UNL A   1      37.109  31.630  28.751  1.00  0.00     0.009 A 
ATOM     76  C   UNL A   1      36.310  29.348  28.778  1.00  0.00     0.009 A 
ATOM     77  C   UNL A   1      35.994  32.008  27.997  1.00  0.00     0.001 A 
ATOM     78  C   UNL A   1      35.211  29.723  28.002  1.00  0.00     0.001 A 
ATOM     79  C   UNL A   1      35.049  31.054  27.621  1.00  0.00     0.000 A 
ENDBRANCH  55  74
BRANCH  67  80
ATOM     80  C   UNL A   1      39.226  32.055  35.594  1.00  0.00    -0.014 A 
ATOM     81  C   UNL A   1      38.293  31.609  36.543  1.00  0.00     0.009 A 
ATOM     82  C   UNL A   1      39.633  33.397  35.612  1.00  0.00     0.009 A 
ATOM     83  C   UNL A   1      37.753  32.501  37.470  1.00  0.00     0.001 A 
ATOM     84  C   UNL A   1      39.109  34.281  36.556  1.00  0.00     0.001 A 
ATOM     85  C   UNL A   1      38.163  33.834  37.480  1.00  0.00     0.000 A 
ENDBRANCH  67  80
ENDBRANCH  41  42
ENDBRANCH  34  36
ENDBRANCH  33  34
ENDBRANCH  32  33
ENDBRANCH  31  32
ENDBRANCH  30  31
ENDBRANCH  28  30
ENDBRANCH   1  28
TORSDOF 21
ENDMDL
MODEL 3
REMARK VINA RESULT:     -10.6      4.560     10.726
REMARK SMILES CCCCCCNC(=O)Oc1cccc(-c2ccc([C@@H](C)C(=O)OCCOC(=O)c3ccc(-c4c5nc(c(-c6ccccc6)c6ccc([nH]6)c(-c6ccccc6)c6nc(c(-c7ccccc7)c7ccc4[nH]7)C=C6)C=C5)cc3)cc2O)c1
REMARK SMILES IDX 20 1 21 2 19 3 16 4 17 5 79 6 18 7 78 8 15 9 11 10 12 11
REMARK SMILES IDX 81 12 13 13 14 14 10 15 8 16 7 17 9 19 6 20 5 21 4 22 3 23
REMARK SMILES IDX 2 24 1 25 80 26 22 28 23 29 24 30 25 31 26 32 27 33 28 34
REMARK SMILES IDX 29 35 30 36 31 37 77 38 32 39 76 40 33 41 34 42 35 43 70 44
REMARK SMILES IDX 36 45 75 46 69 47 71 48 37 49 74 50 68 51 67 52 38 54 60 55
REMARK SMILES IDX 45 56 59 57 46 58 49 59 58 60 72 61 47 62 48 63 57 65 73 66
REMARK SMILES IDX 50 67 39 68 40 69 44 70 41 71 43 72 42 73 61 74 62 75 66 76
REMARK SMILES IDX 63 77 65 78 64 79 51 80 52 81 56 82 53 83 55 84 54 85
REMARK H PARENT 7 18 80 27 71 53 49 64
REMARK Flexibility Score: inf
ROOT
ATOM      1  C   UNL A   1      41.800  20.625  26.905  1.00  0.00     0.126 C 
ATOM      2  C   UNL A   1      41.618  19.292  27.629  1.00  0.00     0.025 C 
ENDROOT
BRANCH   1   3
ATOM      3  C   UNL A   1      40.474  21.241  26.485  1.00  0.00    -0.030 A 
ATOM      4  C   UNL A   1      37.973  22.429  25.792  1.00  0.00     0.024 A 
ATOM      5  C   UNL A   1      38.285  21.107  25.430  1.00  0.00     0.013 A 
ATOM      6  C   UNL A   1      38.950  23.145  26.503  1.00  0.00     0.123 A 
ATOM      7  C   UNL A   1      39.508  20.518  25.776  1.00  0.00     0.005 A 
ATOM      8  C   UNL A   1      40.178  22.566  26.838  1.00  0.00     0.051 A 
BRANCH   4   9
ATOM      9  C   UNL A   1      36.646  22.980  25.461  1.00  0.00    -0.011 A 
ATOM     10  C   UNL A   1      35.027  23.845  23.875  1.00  0.00     0.133 A 
ATOM     11  C   UNL A   1      34.131  24.129  24.902  1.00  0.00     0.047 A 
ATOM     12  C   UNL A   1      36.274  23.272  24.139  1.00  0.00     0.056 A 
ATOM     13  C   UNL A   1      34.476  23.821  26.215  1.00  0.00     0.004 A 
ATOM     14  C   UNL A   1      35.724  23.258  26.489  1.00  0.00     0.009 A 
BRANCH  10  15
ATOM     15  O   UNL A   1      34.674  24.301  22.594  1.00  0.00    -0.410 OA
BRANCH  15  16
ATOM     16  C   UNL A   1      33.458  24.946  22.418  1.00  0.00     0.412 C 
ATOM     17  N   UNL A   1      32.452  24.092  22.053  1.00  0.00    -0.321 N 
ATOM     18  H   UNL A   1      31.562  24.492  21.920  1.00  0.00     0.167 HD
ATOM     19  O   UNL A   1      33.253  26.145  22.548  1.00  0.00    -0.224 OA
BRANCH  17  20
ATOM     20  C   UNL A   1      32.557  22.661  21.842  1.00  0.00     0.119 C 
BRANCH  20  21
ATOM     21  C   UNL A   1      32.015  21.862  23.026  1.00  0.00     0.021 C 
BRANCH  21  22
ATOM     22  C   UNL A   1      32.155  20.340  22.897  1.00  0.00     0.002 C 
BRANCH  22  23
ATOM     23  C   UNL A   1      32.523  19.596  24.186  1.00  0.00    -0.000 C 
BRANCH  23  24
ATOM     24  C   UNL A   1      33.476  20.337  25.127  1.00  0.00    -0.003 C 
ATOM     25  C   UNL A   1      34.922  19.883  25.001  1.00  0.00     0.004 C 
ENDBRANCH  23  24
ENDBRANCH  22  23
ENDBRANCH  21  22
ENDBRANCH  20  21
ENDBRANCH  17  20
ENDBRANCH  15  16
ENDBRANCH  10  15
ENDBRANCH   4   9
BRANCH   6  26
ATOM     26  O   UNL A   1      38.763  24.424  26.958  1.00  0.00    -0.507 OA
ATOM     27  H   UNL A   1      38.245  25.027  26.462  1.00  0.00     0.293 HD
ENDBRANCH   6  26
ENDBRANCH   1   3
BRANCH   1  28
ATOM     28  C   UNL A   1      42.854  20.485  25.814  1.00  0.00     0.313 C 
ATOM     29  O   UNL A   1      42.829  19.566  25.000  1.00  0.00    -0.252 OA
BRANCH  28  30
ATOM     30  O   UNL A   1      43.767  21.490  25.802  1.00  0.00    -0.462 OA
BRANCH  30  31
ATOM     31  C   UNL A   1      44.777  21.438  24.777  1.00  0.00     0.274 C 
BRANCH  31  32
ATOM     32  C   UNL A   1      44.780  22.709  23.924  1.00  0.00     0.275 C 
BRANCH  32  33
ATOM     33  O   UNL A   1      43.935  23.724  24.497  1.00  0.00    -0.458 OA
BRANCH  33  34
ATOM     34  C   UNL A   1      44.594  24.793  24.996  1.00  0.00     0.338 C 
ATOM     35  O   UNL A   1      45.681  25.221  24.650  1.00  0.00    -0.246 OA
BRANCH  34  36
ATOM     36  C   UNL A   1      43.753  25.486  25.982  1.00  0.00     0.060 A 
ATOM     37  C   UNL A   1      43.934  26.861  26.139  1.00  0.00     0.016 A 
ATOM     38  C   UNL A   1      42.893  24.784  26.826  1.00  0.00     0.016 A 
ATOM     39  C   UNL A   1      43.288  27.541  27.166  1.00  0.00     0.010 A 
ATOM     40  C   UNL A   1      42.234  25.469  27.855  1.00  0.00     0.010 A 
ATOM     41  C   UNL A   1      42.451  26.846  28.046  1.00  0.00    -0.014 A 
BRANCH  41  42
ATOM     42  C   UNL A   1      41.891  27.558  29.219  1.00  0.00     0.031 A 
ATOM     43  C   UNL A   1      40.545  28.220  29.115  1.00  0.00     0.074 A 
ATOM     44  C   UNL A   1      42.554  27.558  30.391  1.00  0.00     0.049 A 
ATOM     45  N   UNL A   1      39.888  28.904  30.019  1.00  0.00    -0.248 NA
ATOM     46  C   UNL A   1      39.846  28.096  27.827  1.00  0.00     0.031 C 
ATOM     47  C   UNL A   1      43.842  26.910  30.635  1.00  0.00     0.029 A 
ATOM     48  N   UNL A   1      42.224  28.117  31.600  1.00  0.00    -0.354 N 
ATOM     49  C   UNL A   1      38.711  29.309  29.402  1.00  0.00     0.074 A 
ATOM     50  C   UNL A   1      38.749  28.809  28.044  1.00  0.00     0.031 C 
ATOM     51  C   UNL A   1      44.189  27.097  31.920  1.00  0.00     0.029 A 
ATOM     52  C   UNL A   1      43.167  27.909  32.576  1.00  0.00     0.049 A 
ATOM     53  H   UNL A   1      41.391  28.619  31.753  1.00  0.00     0.167 HD
ATOM     54  C   UNL A   1      37.687  30.028  29.921  1.00  0.00     0.031 A 
ATOM     55  C   UNL A   1      43.211  28.338  33.851  1.00  0.00     0.031 A 
ATOM     56  C   UNL A   1      37.637  30.512  31.275  1.00  0.00     0.049 A 
ATOM     57  C   UNL A   1      42.081  29.174  34.387  1.00  0.00     0.074 A 
ATOM     58  C   UNL A   1      36.635  31.241  31.893  1.00  0.00     0.029 A 
ATOM     59  N   UNL A   1      38.629  30.311  32.220  1.00  0.00    -0.354 N 
ATOM     60  N   UNL A   1      40.975  29.551  33.792  1.00  0.00    -0.248 NA
ATOM     61  C   UNL A   1      42.207  29.643  35.775  1.00  0.00     0.031 C 
ATOM     62  C   UNL A   1      37.040  31.514  33.204  1.00  0.00     0.029 A 
ATOM     63  C   UNL A   1      38.273  30.918  33.413  1.00  0.00     0.049 A 
ATOM     64  H   UNL A   1      39.463  29.811  32.067  1.00  0.00     0.167 HD
ATOM     65  C   UNL A   1      40.268  30.283  34.736  1.00  0.00     0.074 A 
ATOM     66  C   UNL A   1      41.059  30.281  35.948  1.00  0.00     0.031 C 
ATOM     67  C   UNL A   1      39.071  30.907  34.609  1.00  0.00     0.031 A 
BRANCH  54  68
ATOM     68  C   UNL A   1      36.545  30.364  29.006  1.00  0.00    -0.014 A 
ATOM     69  C   UNL A   1      36.323  31.679  28.570  1.00  0.00     0.009 A 
ATOM     70  C   UNL A   1      35.705  29.340  28.542  1.00  0.00     0.009 A 
ATOM     71  C   UNL A   1      35.264  31.965  27.705  1.00  0.00     0.001 A 
ATOM     72  C   UNL A   1      34.662  29.626  27.660  1.00  0.00     0.001 A 
ATOM     73  C   UNL A   1      34.438  30.938  27.248  1.00  0.00     0.000 A 
ENDBRANCH  54  68
BRANCH  55  74
ATOM     74  C   UNL A   1      44.378  28.015  34.709  1.00  0.00    -0.014 A 
ATOM     75  C   UNL A   1      45.505  28.850  34.732  1.00  0.00     0.009 A 
ATOM     76  C   UNL A   1      44.381  26.848  35.489  1.00  0.00     0.009 A 
ATOM     77  C   UNL A   1      46.623  28.509  35.498  1.00  0.00     0.001 A 
ATOM     78  C   UNL A   1      45.489  26.523  36.275  1.00  0.00     0.001 A 
ATOM     79  C   UNL A   1      46.612  27.348  36.271  1.00  0.00     0.000 A 
ENDBRANCH  55  74
BRANCH  67  80
ATOM     80  C   UNL A   1      38.538  31.614  35.822  1.00  0.00    -0.014 A 
ATOM     81  C   UNL A   1      37.895  30.905  36.848  1.00  0.00     0.009 A 
ATOM     82  C   UNL A   1      38.706  33.000  35.949  1.00  0.00     0.009 A 
ATOM     83  C   UNL A   1      37.400  31.579  37.965  1.00  0.00     0.001 A 
ATOM     84  C   UNL A   1      38.232  33.668  37.079  1.00  0.00     0.001 A 
ATOM     85  C   UNL A   1      37.572  32.958  38.083  1.00  0.00     0.000 A 
ENDBRANCH  67  80
ENDBRANCH  41  42
ENDBRANCH  34  36
ENDBRANCH  33  34
ENDBRANCH  32  33
ENDBRANCH  31  32
ENDBRANCH  30  31
ENDBRANCH  28  30
ENDBRANCH   1  28
TORSDOF 21
ENDMDL
