MODEL 1
REMARK VINA RESULT:     -11.3      0.000      0.000
REMARK SMILES O=C(OCCOC(=O)c1ccc(F)cc1-c1ccc(F)c(Cl)c1)c1ccc(-c2c3nc(c(-c4ccccc4)c4ccc([nH]4)c(-c4ccccc4)c4nc(c(-c5ccccc5)c5ccc2[nH]5)C=C4)C=C3)cc1
REMARK SMILES IDX 4 1 3 2 2 3 1 4 24 5 25 6 71 7 26 8 70 9 27 10 28 11 29 12
REMARK SMILES IDX 64 13 30 14 69 15 63 16 65 17 31 18 68 19 62 20 61 21 32 23
REMARK SMILES IDX 54 24 39 25 53 26 40 27 43 28 52 29 66 30 41 31 42 32 51 34
REMARK SMILES IDX 67 35 44 36 33 37 34 38 38 39 35 40 37 41 36 42 55 43 56 44
REMARK SMILES IDX 60 45 57 46 59 47 58 48 45 49 46 50 50 51 47 52 49 53 48 54
REMARK SMILES IDX 5 55 6 56 7 57 8 58 9 59 10 60 15 61 11 62 14 63 12 64 13 65
REMARK SMILES IDX 16 66 17 67 23 68 18 69 21 70 19 71 22 72 20 73
REMARK H PARENT 65 22 43 33
REMARK Flexibility Score: inf
ROOT
ATOM      1  C   UNL A   1      38.791  19.944  25.226  1.00  0.00     0.275 C 
ENDROOT
BRANCH   1   2
ATOM      2  O   UNL A   1      39.653  19.654  26.325  1.00  0.00    -0.458 OA
BRANCH   2   3
ATOM      3  C   UNL A   1      40.979  19.629  26.077  1.00  0.00     0.338 C 
ATOM      4  O   UNL A   1      41.628  18.678  25.691  1.00  0.00    -0.246 OA
BRANCH   3   5
ATOM      5  C   UNL A   1      41.527  20.918  26.584  1.00  0.00     0.060 A 
ATOM      6  C   UNL A   1      41.972  21.889  25.672  1.00  0.00     0.016 A 
ATOM      7  C   UNL A   1      41.426  21.233  27.939  1.00  0.00     0.016 A 
ATOM      8  C   UNL A   1      42.293  23.162  26.101  1.00  0.00     0.010 A 
ATOM      9  C   UNL A   1      41.677  22.532  28.363  1.00  0.00     0.010 A 
ATOM     10  C   UNL A   1      42.137  23.487  27.446  1.00  0.00    -0.014 A 
BRANCH  10  11
ATOM     11  C   UNL A   1      42.630  24.786  27.922  1.00  0.00     0.031 A 
ATOM     12  C   UNL A   1      41.621  25.876  28.114  1.00  0.00     0.074 A 
ATOM     13  C   UNL A   1      43.936  24.957  28.189  1.00  0.00     0.049 A 
ATOM     14  N   UNL A   1      41.805  27.103  28.513  1.00  0.00    -0.248 NA
ATOM     15  C   UNL A   1      40.213  25.539  27.825  1.00  0.00     0.031 C 
ATOM     16  C   UNL A   1      44.971  23.927  28.080  1.00  0.00     0.029 A 
ATOM     17  N   UNL A   1      44.624  26.073  28.577  1.00  0.00    -0.354 N 
ATOM     18  C   UNL A   1      40.540  27.672  28.538  1.00  0.00     0.074 A 
ATOM     19  C   UNL A   1      39.607  26.696  28.034  1.00  0.00     0.031 C 
ATOM     20  C   UNL A   1      46.175  24.483  28.298  1.00  0.00     0.029 A 
ATOM     21  C   UNL A   1      45.986  25.898  28.583  1.00  0.00     0.049 A 
ATOM     22  H   UNL A   1      44.186  26.919  28.826  1.00  0.00     0.167 HD
ATOM     23  C   UNL A   1      40.189  28.892  28.995  1.00  0.00     0.031 A 
ATOM     24  C   UNL A   1      46.965  26.799  28.779  1.00  0.00     0.031 A 
ATOM     25  C   UNL A   1      41.142  29.833  29.507  1.00  0.00     0.049 A 
ATOM     26  C   UNL A   1      46.559  28.191  29.175  1.00  0.00     0.074 A 
ATOM     27  C   UNL A   1      40.916  31.067  30.082  1.00  0.00     0.029 A 
ATOM     28  N   UNL A   1      42.515  29.633  29.490  1.00  0.00    -0.354 N 
ATOM     29  N   UNL A   1      45.350  28.684  29.315  1.00  0.00    -0.248 NA
ATOM     30  C   UNL A   1      47.638  29.133  29.489  1.00  0.00     0.031 C 
ATOM     31  C   UNL A   1      42.160  31.640  30.360  1.00  0.00     0.029 A 
ATOM     32  C   UNL A   1      43.157  30.742  30.003  1.00  0.00     0.049 A 
ATOM     33  H   UNL A   1      42.965  28.820  29.161  1.00  0.00     0.167 HD
ATOM     34  C   UNL A   1      45.520  29.976  29.783  1.00  0.00     0.074 A 
ATOM     35  C   UNL A   1      46.950  30.189  29.900  1.00  0.00     0.031 C 
ATOM     36  C   UNL A   1      44.583  30.902  30.105  1.00  0.00     0.031 A 
BRANCH  23  37
ATOM     37  C   UNL A   1      38.733  29.250  28.962  1.00  0.00    -0.014 A 
ATOM     38  C   UNL A   1      37.909  29.047  30.081  1.00  0.00     0.009 A 
ATOM     39  C   UNL A   1      38.176  29.796  27.797  1.00  0.00     0.009 A 
ATOM     40  C   UNL A   1      36.548  29.352  30.023  1.00  0.00     0.001 A 
ATOM     41  C   UNL A   1      36.819  30.123  27.751  1.00  0.00     0.001 A 
ATOM     42  C   UNL A   1      36.005  29.894  28.859  1.00  0.00     0.000 A 
ENDBRANCH  23  37
BRANCH  24  43
ATOM     43  C   UNL A   1      48.390  26.421  28.601  1.00  0.00    -0.014 A 
ATOM     44  C   UNL A   1      49.160  25.956  29.676  1.00  0.00     0.009 A 
ATOM     45  C   UNL A   1      48.998  26.548  27.340  1.00  0.00     0.009 A 
ATOM     46  C   UNL A   1      50.517  25.665  29.503  1.00  0.00     0.001 A 
ATOM     47  C   UNL A   1      50.348  26.234  27.163  1.00  0.00     0.001 A 
ATOM     48  C   UNL A   1      51.110  25.805  28.248  1.00  0.00     0.000 A 
ENDBRANCH  24  43
BRANCH  36  49
ATOM     49  C   UNL A   1      45.082  32.208  30.643  1.00  0.00    -0.014 A 
ATOM     50  C   UNL A   1      45.314  32.380  32.015  1.00  0.00     0.009 A 
ATOM     51  C   UNL A   1      45.390  33.248  29.753  1.00  0.00     0.009 A 
ATOM     52  C   UNL A   1      45.831  33.586  32.489  1.00  0.00     0.001 A 
ATOM     53  C   UNL A   1      45.936  34.439  30.227  1.00  0.00     0.001 A 
ATOM     54  C   UNL A   1      46.149  34.608  31.594  1.00  0.00     0.000 A 
ENDBRANCH  36  49
ENDBRANCH  10  11
ENDBRANCH   3   5
ENDBRANCH   2   3
ENDBRANCH   1   2
BRANCH   1  55
ATOM     55  C   UNL A   1      37.892  21.202  25.321  1.00  0.00     0.275 C 
BRANCH  55  56
ATOM     56  O   UNL A   1      36.637  21.143  24.619  1.00  0.00    -0.458 OA
BRANCH  56  57
ATOM     57  C   UNL A   1      35.507  20.984  25.361  1.00  0.00     0.338 C 
ATOM     58  O   UNL A   1      35.224  21.550  26.397  1.00  0.00    -0.246 OA
BRANCH  57  59
ATOM     59  C   UNL A   1      34.677  19.918  24.741  1.00  0.00     0.068 A 
ATOM     60  C   UNL A   1      35.215  18.616  24.714  1.00  0.00     0.019 A 
ATOM     61  C   UNL A   1      33.373  20.156  24.254  1.00  0.00    -0.001 A 
ATOM     62  C   UNL A   1      34.484  17.560  24.164  1.00  0.00     0.040 A 
ATOM     63  C   UNL A   1      32.692  19.084  23.638  1.00  0.00     0.048 A 
ATOM     64  C   UNL A   1      33.248  17.811  23.596  1.00  0.00     0.123 A 
ATOM     65  F   UNL A   1      32.567  16.811  23.021  1.00  0.00    -0.207 F 
BRANCH  61  66
ATOM     66  C   UNL A   1      32.638  21.422  24.400  1.00  0.00    -0.016 A 
ATOM     67  C   UNL A   1      32.621  22.395  23.393  1.00  0.00     0.012 A 
ATOM     68  C   UNL A   1      31.825  21.629  25.525  1.00  0.00     0.032 A 
ATOM     69  C   UNL A   1      31.825  23.537  23.489  1.00  0.00     0.041 A 
ATOM     70  C   UNL A   1      31.020  22.768  25.624  1.00  0.00     0.077 A 
ATOM     71  C   UNL A   1      31.024  23.716  24.605  1.00  0.00     0.141 A 
ATOM     72  Cl  UNL A   1      30.002  22.964  26.998  1.00  0.00    -0.081 Cl
ATOM     73  F   UNL A   1      30.245  24.805  24.672  1.00  0.00    -0.205 F 
ENDBRANCH  61  66
ENDBRANCH  57  59
ENDBRANCH  56  57
ENDBRANCH  55  56
ENDBRANCH   1  55
TORSDOF 12
ENDMDL
MODEL 2
REMARK VINA RESULT:     -11.1      1.291      2.627
REMARK SMILES O=C(OCCOC(=O)c1ccc(F)cc1-c1ccc(F)c(Cl)c1)c1ccc(-c2c3nc(c(-c4ccccc4)c4ccc([nH]4)c(-c4ccccc4)c4nc(c(-c5ccccc5)c5ccc2[nH]5)C=C4)C=C3)cc1
REMARK SMILES IDX 4 1 3 2 2 3 1 4 24 5 25 6 71 7 26 8 70 9 27 10 28 11 29 12
REMARK SMILES IDX 64 13 30 14 69 15 63 16 65 17 31 18 68 19 62 20 61 21 32 23
REMARK SMILES IDX 54 24 39 25 53 26 40 27 43 28 52 29 66 30 41 31 42 32 51 34
REMARK SMILES IDX 67 35 44 36 33 37 34 38 38 39 35 40 37 41 36 42 55 43 56 44
REMARK SMILES IDX 60 45 57 46 59 47 58 48 45 49 46 50 50 51 47 52 49 53 48 54
REMARK SMILES IDX 5 55 6 56 7 57 8 58 9 59 10 60 15 61 11 62 14 63 12 64 13 65
REMARK SMILES IDX 16 66 17 67 23 68 18 69 21 70 19 71 22 72 20 73
REMARK H PARENT 65 22 43 33
REMARK Flexibility Score: inf
ROOT
ATOM      1  C   UNL A   1      38.684  20.029  25.200  1.00  0.00     0.275 C 
ENDROOT
BRANCH   1   2
ATOM      2  O   UNL A   1      39.523  19.691  26.303  1.00  0.00    -0.458 OA
BRANCH   2   3
ATOM      3  C   UNL A   1      40.853  19.650  26.075  1.00  0.00     0.338 C 
ATOM      4  O   UNL A   1      41.495  18.693  25.694  1.00  0.00    -0.246 OA
BRANCH   3   5
ATOM      5  C   UNL A   1      41.409  20.930  26.596  1.00  0.00     0.060 A 
ATOM      6  C   UNL A   1      41.919  21.882  25.698  1.00  0.00     0.016 A 
ATOM      7  C   UNL A   1      41.254  21.259  27.943  1.00  0.00     0.016 A 
ATOM      8  C   UNL A   1      42.252  23.150  26.132  1.00  0.00     0.010 A 
ATOM      9  C   UNL A   1      41.518  22.555  28.368  1.00  0.00     0.010 A 
ATOM     10  C   UNL A   1      42.043  23.491  27.466  1.00  0.00    -0.014 A 
BRANCH  10  11
ATOM     11  C   UNL A   1      42.546  24.782  27.954  1.00  0.00     0.031 A 
ATOM     12  C   UNL A   1      41.547  25.882  28.141  1.00  0.00     0.074 A 
ATOM     13  C   UNL A   1      43.851  24.935  28.237  1.00  0.00     0.049 A 
ATOM     14  N   UNL A   1      41.742  27.105  28.548  1.00  0.00    -0.248 NA
ATOM     15  C   UNL A   1      40.139  25.563  27.834  1.00  0.00     0.031 C 
ATOM     16  C   UNL A   1      44.875  23.893  28.134  1.00  0.00     0.029 A 
ATOM     17  N   UNL A   1      44.548  26.041  28.638  1.00  0.00    -0.354 N 
ATOM     18  C   UNL A   1      40.483  27.689  28.562  1.00  0.00     0.074 A 
ATOM     19  C   UNL A   1      39.545  26.726  28.043  1.00  0.00     0.031 C 
ATOM     20  C   UNL A   1      46.082  24.434  28.367  1.00  0.00     0.029 A 
ATOM     21  C   UNL A   1      45.908  25.850  28.658  1.00  0.00     0.049 A 
ATOM     22  H   UNL A   1      44.117  26.891  28.887  1.00  0.00     0.167 HD
ATOM     23  C   UNL A   1      40.142  28.911  29.022  1.00  0.00     0.031 A 
ATOM     24  C   UNL A   1      46.895  26.739  28.869  1.00  0.00     0.031 A 
ATOM     25  C   UNL A   1      41.100  29.837  29.549  1.00  0.00     0.049 A 
ATOM     26  C   UNL A   1      46.501  28.133  29.268  1.00  0.00     0.074 A 
ATOM     27  C   UNL A   1      40.882  31.071  30.128  1.00  0.00     0.029 A 
ATOM     28  N   UNL A   1      42.471  29.621  29.546  1.00  0.00    -0.354 N 
ATOM     29  N   UNL A   1      45.296  28.639  29.397  1.00  0.00    -0.248 NA
ATOM     30  C   UNL A   1      47.587  29.060  29.599  1.00  0.00     0.031 C 
ATOM     31  C   UNL A   1      42.130  31.628  30.422  1.00  0.00     0.029 A 
ATOM     32  C   UNL A   1      43.120  30.720  30.072  1.00  0.00     0.049 A 
ATOM     33  H   UNL A   1      42.915  28.805  29.217  1.00  0.00     0.167 HD
ATOM     34  C   UNL A   1      45.476  29.927  29.874  1.00  0.00     0.074 A 
ATOM     35  C   UNL A   1      46.907  30.123  30.007  1.00  0.00     0.031 C 
ATOM     36  C   UNL A   1      44.547  30.863  30.191  1.00  0.00     0.031 A 
BRANCH  23  37
ATOM     37  C   UNL A   1      38.691  29.286  28.975  1.00  0.00    -0.014 A 
ATOM     38  C   UNL A   1      37.852  29.088  30.084  1.00  0.00     0.009 A 
ATOM     39  C   UNL A   1      38.152  29.843  27.806  1.00  0.00     0.009 A 
ATOM     40  C   UNL A   1      36.496  29.410  30.013  1.00  0.00     0.001 A 
ATOM     41  C   UNL A   1      36.800  30.186  27.747  1.00  0.00     0.001 A 
ATOM     42  C   UNL A   1      35.972  29.963  28.845  1.00  0.00     0.000 A 
ENDBRANCH  23  37
BRANCH  24  43
ATOM     43  C   UNL A   1      48.317  26.344  28.705  1.00  0.00    -0.014 A 
ATOM     44  C   UNL A   1      49.061  25.834  29.778  1.00  0.00     0.009 A 
ATOM     45  C   UNL A   1      48.950  26.501  27.459  1.00  0.00     0.009 A 
ATOM     46  C   UNL A   1      50.416  25.528  29.620  1.00  0.00     0.001 A 
ATOM     47  C   UNL A   1      50.298  26.172  27.297  1.00  0.00     0.001 A 
ATOM     48  C   UNL A   1      51.033  25.698  28.381  1.00  0.00     0.000 A 
ENDBRANCH  24  43
BRANCH  36  49
ATOM     49  C   UNL A   1      45.056  32.159  30.741  1.00  0.00    -0.014 A 
ATOM     50  C   UNL A   1      45.319  33.246  29.897  1.00  0.00     0.009 A 
ATOM     51  C   UNL A   1      45.200  32.310  32.128  1.00  0.00     0.009 A 
ATOM     52  C   UNL A   1      45.739  34.463  30.435  1.00  0.00     0.001 A 
ATOM     53  C   UNL A   1      45.590  33.536  32.665  1.00  0.00     0.001 A 
ATOM     54  C   UNL A   1      45.865  34.607  31.817  1.00  0.00     0.000 A 
ENDBRANCH  36  49
ENDBRANCH  10  11
ENDBRANCH   3   5
ENDBRANCH   2   3
ENDBRANCH   1   2
BRANCH   1  55
ATOM     55  C   UNL A   1      37.956  21.395  25.234  1.00  0.00     0.275 C 
BRANCH  55  56
ATOM     56  O   UNL A   1      36.550  21.377  24.925  1.00  0.00    -0.458 OA
BRANCH  56  57
ATOM     57  C   UNL A   1      36.083  22.319  24.059  1.00  0.00     0.338 C 
ATOM     58  O   UNL A   1      36.497  22.559  22.944  1.00  0.00    -0.246 OA
BRANCH  57  59
ATOM     59  C   UNL A   1      35.011  23.095  24.735  1.00  0.00     0.068 A 
ATOM     60  C   UNL A   1      35.342  24.384  25.201  1.00  0.00     0.019 A 
ATOM     61  C   UNL A   1      33.688  22.616  24.858  1.00  0.00    -0.001 A 
ATOM     62  C   UNL A   1      34.379  25.177  25.828  1.00  0.00     0.040 A 
ATOM     63  C   UNL A   1      32.760  23.413  25.563  1.00  0.00     0.048 A 
ATOM     64  C   UNL A   1      33.109  24.670  26.039  1.00  0.00     0.123 A 
ATOM     65  F   UNL A   1      32.200  25.408  26.687  1.00  0.00    -0.207 F 
BRANCH  61  66
ATOM     66  C   UNL A   1      33.182  21.377  24.247  1.00  0.00    -0.016 A 
ATOM     67  C   UNL A   1      32.485  21.374  23.032  1.00  0.00     0.012 A 
ATOM     68  C   UNL A   1      33.501  20.137  24.823  1.00  0.00     0.032 A 
ATOM     69  C   UNL A   1      32.116  20.186  22.401  1.00  0.00     0.041 A 
ATOM     70  C   UNL A   1      33.139  18.943  24.191  1.00  0.00     0.077 A 
ATOM     71  C   UNL A   1      32.449  18.974  22.983  1.00  0.00     0.141 A 
ATOM     72  Cl  UNL A   1      33.588  17.443  24.905  1.00  0.00    -0.081 Cl
ATOM     73  F   UNL A   1      32.110  17.841  22.352  1.00  0.00    -0.205 F 
ENDBRANCH  61  66
ENDBRANCH  57  59
ENDBRANCH  56  57
ENDBRANCH  55  56
ENDBRANCH   1  55
TORSDOF 12
ENDMDL
MODEL 3
REMARK VINA RESULT:     -11.0      4.945      9.102
REMARK SMILES O=C(OCCOC(=O)c1ccc(F)cc1-c1ccc(F)c(Cl)c1)c1ccc(-c2c3nc(c(-c4ccccc4)c4ccc([nH]4)c(-c4ccccc4)c4nc(c(-c5ccccc5)c5ccc2[nH]5)C=C4)C=C3)cc1
REMARK SMILES IDX 4 1 3 2 2 3 1 4 24 5 25 6 71 7 26 8 70 9 27 10 28 11 29 12
REMARK SMILES IDX 64 13 30 14 69 15 63 16 65 17 31 18 68 19 62 20 61 21 32 23
REMARK SMILES IDX 54 24 39 25 53 26 40 27 43 28 52 29 66 30 41 31 42 32 51 34
REMARK SMILES IDX 67 35 44 36 33 37 34 38 38 39 35 40 37 41 36 42 55 43 56 44
REMARK SMILES IDX 60 45 57 46 59 47 58 48 45 49 46 50 50 51 47 52 49 53 48 54
REMARK SMILES IDX 5 55 6 56 7 57 8 58 9 59 10 60 15 61 11 62 14 63 12 64 13 65
REMARK SMILES IDX 16 66 17 67 23 68 18 69 21 70 19 71 22 72 20 73
REMARK H PARENT 65 22 43 33
REMARK Flexibility Score: inf
ROOT
ATOM      1  C   UNL A   1      31.941  31.867  27.088  1.00  0.00     0.275 C 
ENDROOT
BRANCH   1   2
ATOM      2  O   UNL A   1      32.787  33.003  26.920  1.00  0.00    -0.458 OA
BRANCH   2   3
ATOM      3  C   UNL A   1      33.083  33.719  28.026  1.00  0.00     0.338 C 
ATOM      4  O   UNL A   1      32.532  34.732  28.404  1.00  0.00    -0.246 OA
BRANCH   3   5
ATOM      5  C   UNL A   1      34.354  33.157  28.563  1.00  0.00     0.060 A 
ATOM      6  C   UNL A   1      35.564  33.423  27.902  1.00  0.00     0.016 A 
ATOM      7  C   UNL A   1      34.367  32.530  29.809  1.00  0.00     0.016 A 
ATOM      8  C   UNL A   1      36.771  33.088  28.482  1.00  0.00     0.010 A 
ATOM      9  C   UNL A   1      35.581  32.259  30.429  1.00  0.00     0.010 A 
ATOM     10  C   UNL A   1      36.781  32.514  29.751  1.00  0.00    -0.014 A 
BRANCH  10  11
ATOM     11  C   UNL A   1      38.052  32.015  30.292  1.00  0.00     0.031 A 
ATOM     12  C   UNL A   1      38.540  30.691  29.791  1.00  0.00     0.074 A 
ATOM     13  C   UNL A   1      38.740  32.747  31.185  1.00  0.00     0.049 A 
ATOM     14  N   UNL A   1      39.619  30.037  30.119  1.00  0.00    -0.248 NA
ATOM     15  C   UNL A   1      37.707  30.014  28.778  1.00  0.00     0.031 C 
ATOM     16  C   UNL A   1      38.357  34.071  31.680  1.00  0.00     0.029 A 
ATOM     17  N   UNL A   1      39.894  32.466  31.862  1.00  0.00    -0.354 N 
ATOM     18  C   UNL A   1      39.599  28.887  29.343  1.00  0.00     0.074 A 
ATOM     19  C   UNL A   1      38.368  28.883  28.593  1.00  0.00     0.031 C 
ATOM     20  C   UNL A   1      39.205  34.443  32.653  1.00  0.00     0.029 A 
ATOM     21  C   UNL A   1      40.199  33.394  32.827  1.00  0.00     0.049 A 
ATOM     22  H   UNL A   1      40.451  31.675  31.676  1.00  0.00     0.167 HD
ATOM     23  C   UNL A   1      40.559  27.946  29.232  1.00  0.00     0.031 A 
ATOM     24  C   UNL A   1      41.168  33.374  33.760  1.00  0.00     0.031 A 
ATOM     25  C   UNL A   1      41.781  27.991  29.980  1.00  0.00     0.049 A 
ATOM     26  C   UNL A   1      42.167  32.253  33.699  1.00  0.00     0.074 A 
ATOM     27  C   UNL A   1      42.874  27.152  29.902  1.00  0.00     0.029 A 
ATOM     28  N   UNL A   1      42.057  28.936  30.958  1.00  0.00    -0.354 N 
ATOM     29  N   UNL A   1      42.204  31.232  32.875  1.00  0.00    -0.248 NA
ATOM     30  C   UNL A   1      43.279  32.303  34.654  1.00  0.00     0.031 C 
ATOM     31  C   UNL A   1      43.790  27.558  30.878  1.00  0.00     0.029 A 
ATOM     32  C   UNL A   1      43.287  28.676  31.527  1.00  0.00     0.049 A 
ATOM     33  H   UNL A   1      41.463  29.681  31.209  1.00  0.00     0.167 HD
ATOM     34  C   UNL A   1      43.370  30.546  33.175  1.00  0.00     0.074 A 
ATOM     35  C   UNL A   1      44.007  31.268  34.261  1.00  0.00     0.031 C 
ATOM     36  C   UNL A   1      43.881  29.430  32.600  1.00  0.00     0.031 A 
BRANCH  23  37
ATOM     37  C   UNL A   1      40.314  26.819  28.273  1.00  0.00    -0.014 A 
ATOM     38  C   UNL A   1      39.590  25.679  28.661  1.00  0.00     0.009 A 
ATOM     39  C   UNL A   1      40.815  26.894  26.966  1.00  0.00     0.009 A 
ATOM     40  C   UNL A   1      39.401  24.623  27.768  1.00  0.00     0.001 A 
ATOM     41  C   UNL A   1      40.602  25.847  26.068  1.00  0.00     0.001 A 
ATOM     42  C   UNL A   1      39.903  24.710  26.471  1.00  0.00     0.000 A 
ENDBRANCH  23  37
BRANCH  24  43
ATOM     43  C   UNL A   1      41.233  34.425  34.807  1.00  0.00    -0.014 A 
ATOM     44  C   UNL A   1      40.548  34.286  36.023  1.00  0.00     0.009 A 
ATOM     45  C   UNL A   1      41.973  35.599  34.579  1.00  0.00     0.009 A 
ATOM     46  C   UNL A   1      40.570  35.314  36.971  1.00  0.00     0.001 A 
ATOM     47  C   UNL A   1      42.012  36.615  35.538  1.00  0.00     0.001 A 
ATOM     48  C   UNL A   1      41.300  36.477  36.727  1.00  0.00     0.000 A 
ENDBRANCH  24  43
BRANCH  36  49
ATOM     49  C   UNL A   1      45.204  28.951  33.114  1.00  0.00    -0.014 A 
ATOM     50  C   UNL A   1      46.404  29.445  32.585  1.00  0.00     0.009 A 
ATOM     51  C   UNL A   1      45.241  28.050  34.189  1.00  0.00     0.009 A 
ATOM     52  C   UNL A   1      47.625  29.027  33.115  1.00  0.00     0.001 A 
ATOM     53  C   UNL A   1      46.461  27.659  34.736  1.00  0.00     0.001 A 
ATOM     54  C   UNL A   1      47.650  28.143  34.194  1.00  0.00     0.000 A 
ENDBRANCH  36  49
ENDBRANCH  10  11
ENDBRANCH   3   5
ENDBRANCH   2   3
ENDBRANCH   1   2
BRANCH   1  55
ATOM     55  C   UNL A   1      32.585  30.462  26.992  1.00  0.00     0.275 C 
BRANCH  55  56
ATOM     56  O   UNL A   1      31.960  29.534  26.086  1.00  0.00    -0.458 OA
BRANCH  56  57
ATOM     57  C   UNL A   1      31.730  28.270  26.538  1.00  0.00     0.338 C 
ATOM     58  O   UNL A   1      31.121  27.949  27.537  1.00  0.00    -0.246 OA
BRANCH  57  59
ATOM     59  C   UNL A   1      32.429  27.311  25.643  1.00  0.00     0.068 A 
ATOM     60  C   UNL A   1      33.623  26.734  26.122  1.00  0.00     0.019 A 
ATOM     61  C   UNL A   1      31.908  26.922  24.390  1.00  0.00    -0.001 A 
ATOM     62  C   UNL A   1      34.323  25.810  25.344  1.00  0.00     0.040 A 
ATOM     63  C   UNL A   1      32.679  26.043  23.598  1.00  0.00     0.048 A 
ATOM     64  C   UNL A   1      33.867  25.504  24.074  1.00  0.00     0.123 A 
ATOM     65  F   UNL A   1      34.565  24.659  23.305  1.00  0.00    -0.207 F 
BRANCH  61  66
ATOM     66  C   UNL A   1      30.587  27.309  23.871  1.00  0.00    -0.016 A 
ATOM     67  C   UNL A   1      29.422  26.602  24.194  1.00  0.00     0.012 A 
ATOM     68  C   UNL A   1      30.450  28.490  23.126  1.00  0.00     0.032 A 
ATOM     69  C   UNL A   1      28.160  27.046  23.798  1.00  0.00     0.041 A 
ATOM     70  C   UNL A   1      29.188  28.943  22.731  1.00  0.00     0.077 A 
ATOM     71  C   UNL A   1      28.050  28.219  23.070  1.00  0.00     0.141 A 
ATOM     72  Cl  UNL A   1      29.058  30.420  21.858  1.00  0.00    -0.081 Cl
ATOM     73  F   UNL A   1      26.828  28.647  22.719  1.00  0.00    -0.205 F 
ENDBRANCH  61  66
ENDBRANCH  57  59
ENDBRANCH  56  57
ENDBRANCH  55  56
ENDBRANCH   1  55
TORSDOF 12
ENDMDL
