MODEL 1
REMARK VINA RESULT:     -12.9      0.000      0.000
REMARK SMILES Cc1ccc(-c2cc(Cl)cc3c2O[C@H](C(F)(F)F)C(C(=O)OCCOC(=O)c2ccc(-c4c5nc(c(-c6ccccc6)c6ccc([nH]6)c(-c6ccccc6)c6nc(c(-c7ccccc7)c7ccc4[nH]7)C=C6)C=C5)cc2)=C3)cc1
REMARK SMILES IDX 24 1 23 2 22 3 20 4 21 5 19 6 6 7 7 8 12 9 8 10 11 11 13 12
REMARK SMILES IDX 9 13 10 14 76 15 14 16 5 17 1 18 2 19 3 20 78 21 4 22 77 23
REMARK SMILES IDX 15 24 16 25 17 26 18 27 25 28 26 29 27 30 28 31 29 32 75 33
REMARK SMILES IDX 30 34 74 35 31 36 32 37 33 38 68 39 34 40 73 41 67 42 69 43
REMARK SMILES IDX 35 44 72 45 66 46 65 47 36 49 58 50 43 51 57 52 44 53 47 54
REMARK SMILES IDX 56 55 70 56 45 57 46 58 55 60 71 61 48 62 37 63 38 64 42 65
REMARK SMILES IDX 39 66 41 67 40 68 59 69 60 70 64 71 61 72 63 73 62 74 49 75
REMARK SMILES IDX 50 76 54 77 51 78 53 79 52 80
REMARK H PARENT 69 48 47 59
REMARK Flexibility Score: inf
ROOT
ATOM      1  C   UNL A   1      36.620  23.978  26.166  1.00  0.00     0.275 C 
ENDROOT
BRANCH   1   2
ATOM      2  C   UNL A   1      35.538  24.182  25.025  1.00  0.00     0.275 C 
BRANCH   2   3
ATOM      3  O   UNL A   1      34.503  25.629  24.944  1.00  0.00    -0.459 OA
BRANCH   3   4
ATOM      4  C   UNL A   1      34.228  27.410  25.782  1.00  0.00     0.338 C 
ATOM      5  O   UNL A   1      33.955  27.673  27.001  1.00  0.00    -0.246 OA
BRANCH   4   6
ATOM      6  C   UNL A   1      33.934  28.688  24.878  1.00  0.00     0.087 C 
ATOM      7  C   UNL A   1      30.742  26.854  25.083  1.00  0.00     0.026 A 
ATOM      8  C   UNL A   1      29.730  27.144  24.139  1.00  0.00     0.033 A 
ATOM      9  C   UNL A   1      31.504  27.970  25.470  1.00  0.00     0.135 A 
ATOM     10  C   UNL A   1      29.554  28.433  23.600  1.00  0.00     0.042 A 
ATOM     11  C   UNL A   1      31.514  29.125  24.722  1.00  0.00     0.019 A 
ATOM     12  O   UNL A   1      32.344  28.119  26.531  1.00  0.00    -0.475 OA
ATOM     13  Cl  UNL A   1      28.397  28.675  22.347  1.00  0.00    -0.084 Cl
ATOM     14  C   UNL A   1      30.460  29.449  23.882  1.00  0.00     0.032 A 
ATOM     15  C   UNL A   1      32.905  29.476  24.435  1.00  0.00     0.027 C 
ATOM     16  C   UNL A   1      34.178  28.412  26.406  1.00  0.00     0.316 C 
BRANCH   7  17
ATOM     17  C   UNL A   1      31.143  25.412  25.286  1.00  0.00    -0.015 A 
ATOM     18  C   UNL A   1      32.510  21.233  25.450  1.00  0.00     0.044 C 
ATOM     19  C   UNL A   1      32.076  22.673  25.404  1.00  0.00    -0.051 A 
ATOM     20  C   UNL A   1      32.005  23.481  26.549  1.00  0.00     0.004 A 
ATOM     21  C   UNL A   1      31.656  23.226  24.204  1.00  0.00     0.004 A 
ATOM     22  C   UNL A   1      31.555  24.830  26.489  1.00  0.00     0.009 A 
ATOM     23  C   UNL A   1      31.190  24.548  24.164  1.00  0.00     0.009 A 
ENDBRANCH   7  17
BRANCH  16  24
ATOM     24  C   UNL A   1      35.658  29.413  27.700  1.00  0.00     0.430 C 
ATOM     25  F   UNL A   1      37.012  28.933  27.785  1.00  0.00    -0.167 F 
ATOM     26  F   UNL A   1      35.943  30.775  27.414  1.00  0.00    -0.167 F 
ATOM     27  F   UNL A   1      35.521  29.448  29.085  1.00  0.00    -0.167 F 
ENDBRANCH  16  24
ENDBRANCH   4   6
ENDBRANCH   3   4
ENDBRANCH   2   3
ENDBRANCH   1   2
BRANCH   1  28
ATOM     28  O   UNL A   1      37.855  24.776  26.305  1.00  0.00    -0.458 OA
BRANCH  28  29
ATOM     29  C   UNL A   1      39.084  24.438  26.765  1.00  0.00     0.338 C 
ATOM     30  O   UNL A   1      39.658  23.383  26.592  1.00  0.00    -0.246 OA
BRANCH  29  31
ATOM     31  C   UNL A   1      39.625  25.522  27.542  1.00  0.00     0.060 A 
ATOM     32  C   UNL A   1      41.050  26.792  26.923  1.00  0.00     0.016 A 
ATOM     33  C   UNL A   1      38.705  25.558  29.280  1.00  0.00     0.016 A 
ATOM     34  C   UNL A   1      41.228  28.411  28.076  1.00  0.00     0.010 A 
ATOM     35  C   UNL A   1      38.747  27.204  30.375  1.00  0.00     0.010 A 
ATOM     36  C   UNL A   1      39.998  28.539  29.651  1.00  0.00    -0.014 A 
BRANCH  36  37
ATOM     37  C   UNL A   1      40.047  29.510  30.790  1.00  0.00     0.031 A 
ATOM     38  C   UNL A   1      40.747  29.035  31.996  1.00  0.00     0.074 A 
ATOM     39  C   UNL A   1      39.921  30.841  30.464  1.00  0.00     0.049 A 
ATOM     40  N   UNL A   1      40.488  29.386  33.216  1.00  0.00    -0.248 NA
ATOM     41  C   UNL A   1      41.708  27.926  31.914  1.00  0.00     0.031 C 
ATOM     42  C   UNL A   1      40.918  31.908  30.701  1.00  0.00     0.029 A 
ATOM     43  N   UNL A   1      39.050  31.494  29.571  1.00  0.00    -0.354 N 
ATOM     44  C   UNL A   1      41.537  28.834  33.937  1.00  0.00     0.074 A 
ATOM     45  C   UNL A   1      41.925  27.663  33.201  1.00  0.00     0.031 C 
ATOM     46  C   UNL A   1      40.498  33.074  30.156  1.00  0.00     0.029 A 
ATOM     47  C   UNL A   1      39.135  32.896  29.702  1.00  0.00     0.049 A 
ATOM     48  H   UNL A   1      38.456  31.030  28.937  1.00  0.00     0.167 HD
ATOM     49  C   UNL A   1      42.420  29.643  34.596  1.00  0.00     0.031 A 
ATOM     50  C   UNL A   1      38.075  33.677  30.100  1.00  0.00     0.031 A 
ATOM     51  C   UNL A   1      42.135  31.049  34.333  1.00  0.00     0.049 A 
ATOM     52  C   UNL A   1      38.230  34.205  31.498  1.00  0.00     0.074 A 
ATOM     53  C   UNL A   1      42.780  32.019  33.586  1.00  0.00     0.029 A 
ATOM     54  N   UNL A   1      40.884  31.549  34.609  1.00  0.00    -0.354 N 
ATOM     55  N   UNL A   1      39.206  33.870  32.281  1.00  0.00    -0.248 NA
ATOM     56  C   UNL A   1      37.129  34.871  32.190  1.00  0.00     0.031 C 
ATOM     57  C   UNL A   1      41.921  33.153  33.521  1.00  0.00     0.029 A 
ATOM     58  C   UNL A   1      40.778  32.872  34.249  1.00  0.00     0.049 A 
ATOM     59  H   UNL A   1      40.155  31.025  35.014  1.00  0.00     0.167 HD
ATOM     60  C   UNL A   1      38.805  34.049  33.571  1.00  0.00     0.074 A 
ATOM     61  C   UNL A   1      37.492  34.668  33.464  1.00  0.00     0.031 C 
ATOM     62  C   UNL A   1      39.558  33.580  34.605  1.00  0.00     0.031 A 
BRANCH  49  63
ATOM     63  C   UNL A   1      43.732  29.228  35.235  1.00  0.00    -0.014 A 
ATOM     64  C   UNL A   1      44.866  29.147  34.403  1.00  0.00     0.009 A 
ATOM     65  C   UNL A   1      43.954  28.946  36.595  1.00  0.00     0.009 A 
ATOM     66  C   UNL A   1      46.128  28.783  34.884  1.00  0.00     0.001 A 
ATOM     67  C   UNL A   1      45.215  28.569  37.085  1.00  0.00     0.001 A 
ATOM     68  C   UNL A   1      46.303  28.490  36.228  1.00  0.00     0.000 A 
ENDBRANCH  49  63
BRANCH  50  69
ATOM     69  C   UNL A   1      36.752  33.082  29.784  1.00  0.00    -0.014 A 
ATOM     70  C   UNL A   1      36.056  32.366  30.759  1.00  0.00     0.009 A 
ATOM     71  C   UNL A   1      36.083  33.731  28.729  1.00  0.00     0.009 A 
ATOM     72  C   UNL A   1      34.690  32.543  30.830  1.00  0.00     0.001 A 
ATOM     73  C   UNL A   1      34.762  34.042  28.914  1.00  0.00     0.001 A 
ATOM     74  C   UNL A   1      34.099  33.471  29.987  1.00  0.00     0.000 A 
ENDBRANCH  50  69
BRANCH  62  75
ATOM     75  C   UNL A   1      39.166  33.694  36.053  1.00  0.00    -0.014 A 
ATOM     76  C   UNL A   1      38.221  32.857  36.648  1.00  0.00     0.009 A 
ATOM     77  C   UNL A   1      39.686  34.722  36.869  1.00  0.00     0.009 A 
ATOM     78  C   UNL A   1      37.927  32.934  38.010  1.00  0.00     0.001 A 
ATOM     79  C   UNL A   1      39.368  34.836  38.219  1.00  0.00     0.001 A 
ATOM     80  C   UNL A   1      38.508  33.920  38.798  1.00  0.00     0.000 A 
ENDBRANCH  62  75
ENDBRANCH  36  37
ENDBRANCH  29  31
ENDBRANCH  28  29
ENDBRANCH   1  28
TORSDOF 13
ENDMDL
MODEL 2
REMARK VINA RESULT:     -12.7      4.728      9.389
REMARK SMILES Cc1ccc(-c2cc(Cl)cc3c2O[C@H](C(F)(F)F)C(C(=O)OCCOC(=O)c2ccc(-c4c5nc(c(-c6ccccc6)c6ccc([nH]6)c(-c6ccccc6)c6nc(c(-c7ccccc7)c7ccc4[nH]7)C=C6)C=C5)cc2)=C3)cc1
REMARK SMILES IDX 24 1 23 2 22 3 20 4 21 5 19 6 6 7 7 8 12 9 8 10 11 11 13 12
REMARK SMILES IDX 9 13 10 14 76 15 14 16 5 17 1 18 2 19 3 20 78 21 4 22 77 23
REMARK SMILES IDX 15 24 16 25 17 26 18 27 25 28 26 29 27 30 28 31 29 32 75 33
REMARK SMILES IDX 30 34 74 35 31 36 32 37 33 38 68 39 34 40 73 41 67 42 69 43
REMARK SMILES IDX 35 44 72 45 66 46 65 47 36 49 58 50 43 51 57 52 44 53 47 54
REMARK SMILES IDX 56 55 70 56 45 57 46 58 55 60 71 61 48 62 37 63 38 64 42 65
REMARK SMILES IDX 39 66 41 67 40 68 59 69 60 70 64 71 61 72 63 73 62 74 49 75
REMARK SMILES IDX 50 76 54 77 51 78 53 79 52 80
REMARK H PARENT 69 48 47 59
REMARK Flexibility Score: inf
ROOT
ATOM      1  C   UNL A   1      34.500  28.379  26.418  1.00  0.00     0.275 C 
ENDROOT
BRANCH   1   2
ATOM      2  C   UNL A   1      33.433  27.212  26.299  1.00  0.00     0.275 C 
BRANCH   2   3
ATOM      3  O   UNL A   1      33.904  25.514  26.045  1.00  0.00    -0.459 OA
BRANCH   3   4
ATOM      4  C   UNL A   1      35.495  24.325  25.942  1.00  0.00     0.338 C 
ATOM      5  O   UNL A   1      36.481  24.399  25.135  1.00  0.00    -0.246 OA
BRANCH   4   6
ATOM      6  C   UNL A   1      35.475  22.893  26.637  1.00  0.00     0.087 C 
ATOM      7  C   UNL A   1      33.624  22.492  23.473  1.00  0.00     0.026 A 
ATOM      8  C   UNL A   1      32.786  21.365  23.315  1.00  0.00     0.033 A 
ATOM      9  C   UNL A   1      34.793  22.240  24.212  1.00  0.00     0.135 A 
ATOM     10  C   UNL A   1      33.083  20.120  23.903  1.00  0.00     0.042 A 
ATOM     11  C   UNL A   1      34.909  21.127  25.014  1.00  0.00     0.019 A 
ATOM     12  O   UNL A   1      35.927  22.986  24.320  1.00  0.00    -0.475 OA
ATOM     13  Cl  UNL A   1      31.941  18.836  23.787  1.00  0.00    -0.084 Cl
ATOM     14  C   UNL A   1      34.157  19.987  24.776  1.00  0.00     0.032 A 
ATOM     15  C   UNL A   1      35.303  21.564  26.354  1.00  0.00     0.027 C 
ATOM     16  C   UNL A   1      36.539  23.776  25.890  1.00  0.00     0.316 C 
BRANCH   7  17
ATOM     17  C   UNL A   1      33.048  23.860  23.193  1.00  0.00    -0.015 A 
ATOM     18  C   UNL A   1      31.117  27.791  22.768  1.00  0.00     0.044 C 
ATOM     19  C   UNL A   1      31.801  26.461  22.937  1.00  0.00    -0.051 A 
ATOM     20  C   UNL A   1      33.122  26.230  22.526  1.00  0.00     0.004 A 
ATOM     21  C   UNL A   1      31.094  25.386  23.453  1.00  0.00     0.004 A 
ATOM     22  C   UNL A   1      33.738  24.953  22.660  1.00  0.00     0.009 A 
ATOM     23  C   UNL A   1      31.705  24.127  23.556  1.00  0.00     0.009 A 
ENDBRANCH   7  17
BRANCH  16  24
ATOM     24  C   UNL A   1      38.536  24.341  26.640  1.00  0.00     0.430 C 
ATOM     25  F   UNL A   1      38.695  25.410  27.590  1.00  0.00    -0.167 F 
ATOM     26  F   UNL A   1      39.265  23.341  27.336  1.00  0.00    -0.167 F 
ATOM     27  F   UNL A   1      39.518  24.860  25.801  1.00  0.00    -0.167 F 
ENDBRANCH  16  24
ENDBRANCH   4   6
ENDBRANCH   3   4
ENDBRANCH   2   3
ENDBRANCH   1   2
BRANCH   1  28
ATOM     28  O   UNL A   1      35.413  28.568  27.563  1.00  0.00    -0.458 OA
BRANCH  28  29
ATOM     29  C   UNL A   1      35.901  29.696  28.133  1.00  0.00     0.338 C 
ATOM     30  O   UNL A   1      35.304  30.739  28.305  1.00  0.00    -0.246 OA
BRANCH  29  31
ATOM     31  C   UNL A   1      37.282  29.500  28.491  1.00  0.00     0.060 A 
ATOM     32  C   UNL A   1      37.960  29.177  30.352  1.00  0.00     0.016 A 
ATOM     33  C   UNL A   1      38.363  29.567  26.850  1.00  0.00     0.016 A 
ATOM     34  C   UNL A   1      39.843  28.516  30.407  1.00  0.00     0.010 A 
ATOM     35  C   UNL A   1      40.179  28.786  26.842  1.00  0.00     0.010 A 
ATOM     36  C   UNL A   1      40.770  28.276  28.649  1.00  0.00    -0.014 A 
BRANCH  36  37
ATOM     37  C   UNL A   1      42.221  28.008  28.394  1.00  0.00     0.031 A 
ATOM     38  C   UNL A   1      43.042  29.196  28.102  1.00  0.00     0.074 A 
ATOM     39  C   UNL A   1      42.732  26.850  28.934  1.00  0.00     0.049 A 
ATOM     40  N   UNL A   1      44.100  29.227  27.355  1.00  0.00    -0.248 NA
ATOM     41  C   UNL A   1      42.586  30.535  28.499  1.00  0.00     0.031 C 
ATOM     42  C   UNL A   1      43.820  26.743  29.930  1.00  0.00     0.029 A 
ATOM     43  N   UNL A   1      42.205  25.545  28.984  1.00  0.00    -0.354 N 
ATOM     44  C   UNL A   1      44.605  30.501  27.570  1.00  0.00     0.074 A 
ATOM     45  C   UNL A   1      43.461  31.316  27.868  1.00  0.00     0.031 C 
ATOM     46  C   UNL A   1      43.987  25.455  30.308  1.00  0.00     0.029 A 
ATOM     47  C   UNL A   1      43.162  24.622  29.459  1.00  0.00     0.049 A 
ATOM     48  H   UNL A   1      41.287  25.307  28.720  1.00  0.00     0.167 HD
ATOM     49  C   UNL A   1      45.829  30.666  28.158  1.00  0.00     0.031 A 
ATOM     50  C   UNL A   1      43.634  23.577  28.700  1.00  0.00     0.031 A 
ATOM     51  C   UNL A   1      46.387  29.383  28.568  1.00  0.00     0.049 A 
ATOM     52  C   UNL A   1      45.046  23.785  28.231  1.00  0.00     0.074 A 
ATOM     53  C   UNL A   1      46.579  28.787  29.802  1.00  0.00     0.029 A 
ATOM     54  N   UNL A   1      46.547  28.386  27.634  1.00  0.00    -0.354 N 
ATOM     55  N   UNL A   1      45.708  24.881  28.430  1.00  0.00    -0.248 NA
ATOM     56  C   UNL A   1      45.661  22.905  27.240  1.00  0.00     0.031 C 
ATOM     57  C   UNL A   1      46.967  27.437  29.572  1.00  0.00     0.029 A 
ATOM     58  C   UNL A   1      47.034  27.233  28.205  1.00  0.00     0.049 A 
ATOM     59  H   UNL A   1      46.341  28.485  26.677  1.00  0.00     0.167 HD
ATOM     60  C   UNL A   1      46.678  24.979  27.478  1.00  0.00     0.074 A 
ATOM     61  C   UNL A   1      46.602  23.722  26.748  1.00  0.00     0.031 C 
ATOM     62  C   UNL A   1      47.387  26.131  27.322  1.00  0.00     0.031 A 
BRANCH  49  63
ATOM     63  C   UNL A   1      46.426  31.965  28.665  1.00  0.00    -0.014 A 
ATOM     64  C   UNL A   1      46.125  32.350  29.986  1.00  0.00     0.009 A 
ATOM     65  C   UNL A   1      47.291  32.823  27.964  1.00  0.00     0.009 A 
ATOM     66  C   UNL A   1      46.626  33.523  30.562  1.00  0.00     0.001 A 
ATOM     67  C   UNL A   1      47.791  34.008  28.529  1.00  0.00     0.001 A 
ATOM     68  C   UNL A   1      47.459  34.356  29.830  1.00  0.00     0.000 A 
ENDBRANCH  49  63
BRANCH  50  69
ATOM     69  C   UNL A   1      42.676  23.121  27.660  1.00  0.00    -0.014 A 
ATOM     70  C   UNL A   1      42.780  23.603  26.354  1.00  0.00     0.009 A 
ATOM     71  C   UNL A   1      42.101  21.867  27.940  1.00  0.00     0.009 A 
ATOM     72  C   UNL A   1      42.568  22.710  25.325  1.00  0.00     0.001 A 
ATOM     73  C   UNL A   1      42.068  20.946  26.926  1.00  0.00     0.001 A 
ATOM     74  C   UNL A   1      42.341  21.379  25.640  1.00  0.00     0.000 A 
ENDBRANCH  50  69
BRANCH  62  75
ATOM     75  C   UNL A   1      48.440  26.338  26.268  1.00  0.00    -0.014 A 
ATOM     76  C   UNL A   1      48.133  26.513  24.918  1.00  0.00     0.009 A 
ATOM     77  C   UNL A   1      49.813  26.284  26.590  1.00  0.00     0.009 A 
ATOM     78  C   UNL A   1      49.121  26.776  23.969  1.00  0.00     0.001 A 
ATOM     79  C   UNL A   1      50.811  26.502  25.645  1.00  0.00     0.001 A 
ATOM     80  C   UNL A   1      50.461  26.778  24.335  1.00  0.00     0.000 A 
ENDBRANCH  62  75
ENDBRANCH  36  37
ENDBRANCH  29  31
ENDBRANCH  28  29
ENDBRANCH   1  28
TORSDOF 13
ENDMDL
MODEL 3
REMARK VINA RESULT:     -12.6      4.786      8.815
REMARK SMILES Cc1ccc(-c2cc(Cl)cc3c2O[C@H](C(F)(F)F)C(C(=O)OCCOC(=O)c2ccc(-c4c5nc(c(-c6ccccc6)c6ccc([nH]6)c(-c6ccccc6)c6nc(c(-c7ccccc7)c7ccc4[nH]7)C=C6)C=C5)cc2)=C3)cc1
REMARK SMILES IDX 24 1 23 2 22 3 20 4 21 5 19 6 6 7 7 8 12 9 8 10 11 11 13 12
REMARK SMILES IDX 9 13 10 14 76 15 14 16 5 17 1 18 2 19 3 20 78 21 4 22 77 23
REMARK SMILES IDX 15 24 16 25 17 26 18 27 25 28 26 29 27 30 28 31 29 32 75 33
REMARK SMILES IDX 30 34 74 35 31 36 32 37 33 38 68 39 34 40 73 41 67 42 69 43
REMARK SMILES IDX 35 44 72 45 66 46 65 47 36 49 58 50 43 51 57 52 44 53 47 54
REMARK SMILES IDX 56 55 70 56 45 57 46 58 55 60 71 61 48 62 37 63 38 64 42 65
REMARK SMILES IDX 39 66 41 67 40 68 59 69 60 70 64 71 61 72 63 73 62 74 49 75
REMARK SMILES IDX 50 76 54 77 51 78 53 79 52 80
REMARK H PARENT 69 48 47 59
REMARK Flexibility Score: inf
ROOT
ATOM      1  C   UNL A   1      36.365  23.728  26.043  1.00  0.00     0.275 C 
ENDROOT
BRANCH   1   2
ATOM      2  C   UNL A   1      35.535  24.201  24.778  1.00  0.00     0.275 C 
BRANCH   2   3
ATOM      3  O   UNL A   1      34.384  25.558  24.848  1.00  0.00    -0.459 OA
BRANCH   3   4
ATOM      4  C   UNL A   1      34.116  27.347  25.672  1.00  0.00     0.338 C 
ATOM      5  O   UNL A   1      33.835  27.619  26.887  1.00  0.00    -0.246 OA
BRANCH   4   6
ATOM      6  C   UNL A   1      33.839  28.621  24.758  1.00  0.00     0.087 C 
ATOM      7  C   UNL A   1      30.621  26.835  24.982  1.00  0.00     0.026 A 
ATOM      8  C   UNL A   1      29.613  27.131  24.037  1.00  0.00     0.033 A 
ATOM      9  C   UNL A   1      31.399  27.943  25.359  1.00  0.00     0.135 A 
ATOM     10  C   UNL A   1      29.455  28.418  23.486  1.00  0.00     0.042 A 
ATOM     11  C   UNL A   1      31.425  29.092  24.601  1.00  0.00     0.019 A 
ATOM     12  O   UNL A   1      32.243  28.089  26.418  1.00  0.00    -0.475 OA
ATOM     13  Cl  UNL A   1      28.299  28.666  22.233  1.00  0.00    -0.084 Cl
ATOM     14  C   UNL A   1      30.375  29.424  23.760  1.00  0.00     0.032 A 
ATOM     15  C   UNL A   1      32.821  29.420  24.310  1.00  0.00     0.027 C 
ATOM     16  C   UNL A   1      34.081  28.354  26.288  1.00  0.00     0.316 C 
BRANCH   7  17
ATOM     17  C   UNL A   1      31.002  25.389  25.196  1.00  0.00    -0.015 A 
ATOM     18  C   UNL A   1      32.316  21.195  25.397  1.00  0.00     0.044 C 
ATOM     19  C   UNL A   1      31.900  22.639  25.339  1.00  0.00    -0.051 A 
ATOM     20  C   UNL A   1      31.821  23.453  26.479  1.00  0.00     0.004 A 
ATOM     21  C   UNL A   1      31.505  23.192  24.130  1.00  0.00     0.004 A 
ATOM     22  C   UNL A   1      31.389  24.807  26.407  1.00  0.00     0.009 A 
ATOM     23  C   UNL A   1      31.056  24.520  24.078  1.00  0.00     0.009 A 
ENDBRANCH   7  17
BRANCH  16  24
ATOM     24  C   UNL A   1      35.576  29.345  27.573  1.00  0.00     0.430 C 
ATOM     25  F   UNL A   1      35.904  30.735  27.391  1.00  0.00    -0.167 F 
ATOM     26  F   UNL A   1      35.301  29.381  28.966  1.00  0.00    -0.167 F 
ATOM     27  F   UNL A   1      36.916  28.967  27.569  1.00  0.00    -0.167 F 
ENDBRANCH  16  24
ENDBRANCH   4   6
ENDBRANCH   3   4
ENDBRANCH   2   3
ENDBRANCH   1   2
BRANCH   1  28
ATOM     28  O   UNL A   1      37.821  23.913  26.209  1.00  0.00    -0.458 OA
BRANCH  28  29
ATOM     29  C   UNL A   1      38.827  23.009  26.288  1.00  0.00     0.338 C 
ATOM     30  O   UNL A   1      38.729  21.803  26.186  1.00  0.00    -0.246 OA
BRANCH  29  31
ATOM     31  C   UNL A   1      40.069  23.688  26.552  1.00  0.00     0.060 A 
ATOM     32  C   UNL A   1      40.460  25.604  26.098  1.00  0.00     0.016 A 
ATOM     33  C   UNL A   1      41.281  22.433  27.458  1.00  0.00     0.016 A 
ATOM     34  C   UNL A   1      42.092  26.317  27.000  1.00  0.00     0.010 A 
ATOM     35  C   UNL A   1      42.824  23.128  28.480  1.00  0.00     0.010 A 
ATOM     36  C   UNL A   1      43.087  25.057  28.196  1.00  0.00    -0.014 A 
BRANCH  36  37
ATOM     37  C   UNL A   1      44.437  25.242  28.819  1.00  0.00     0.031 A 
ATOM     38  C   UNL A   1      45.583  25.028  27.920  1.00  0.00     0.074 A 
ATOM     39  C   UNL A   1      44.489  26.047  29.934  1.00  0.00     0.049 A 
ATOM     40  N   UNL A   1      46.755  24.598  28.267  1.00  0.00    -0.248 NA
ATOM     41  C   UNL A   1      45.414  25.108  26.462  1.00  0.00     0.031 C 
ATOM     42  C   UNL A   1      45.253  27.304  30.081  1.00  0.00     0.029 A 
ATOM     43  N   UNL A   1      43.643  26.124  31.058  1.00  0.00    -0.354 N 
ATOM     44  C   UNL A   1      47.512  24.772  27.117  1.00  0.00     0.074 A 
ATOM     45  C   UNL A   1      46.584  24.639  26.030  1.00  0.00     0.031 C 
ATOM     46  C   UNL A   1      44.986  27.880  31.277  1.00  0.00     0.029 A 
ATOM     47  C   UNL A   1      44.190  26.956  32.057  1.00  0.00     0.049 A 
ATOM     48  H   UNL A   1      42.781  25.655  31.135  1.00  0.00     0.167 HD
ATOM     49  C   UNL A   1      48.568  25.641  27.113  1.00  0.00     0.031 A 
ATOM     50  C   UNL A   1      44.534  26.497  33.307  1.00  0.00     0.031 A 
ATOM     51  C   UNL A   1      48.662  26.352  28.383  1.00  0.00     0.049 A 
ATOM     52  C   UNL A   1      46.020  26.404  33.508  1.00  0.00     0.074 A 
ATOM     53  C   UNL A   1      48.403  27.659  28.755  1.00  0.00     0.029 A 
ATOM     54  N   UNL A   1      48.766  25.635  29.553  1.00  0.00    -0.354 N 
ATOM     55  N   UNL A   1      46.881  26.629  32.566  1.00  0.00    -0.248 NA
ATOM     56  C   UNL A   1      46.594  25.741  34.677  1.00  0.00     0.031 C 
ATOM     57  C   UNL A   1      48.467  27.722  30.176  1.00  0.00     0.029 A 
ATOM     58  C   UNL A   1      48.790  26.463  30.651  1.00  0.00     0.049 A 
ATOM     59  H   UNL A   1      48.818  24.653  29.598  1.00  0.00     0.167 HD
ATOM     60  C   UNL A   1      48.034  25.970  32.869  1.00  0.00     0.074 A 
ATOM     61  C   UNL A   1      47.803  25.419  34.196  1.00  0.00     0.031 C 
ATOM     62  C   UNL A   1      49.036  25.861  31.953  1.00  0.00     0.031 A 
BRANCH  49  63
ATOM     63  C   UNL A   1      49.351  26.115  25.904  1.00  0.00    -0.014 A 
ATOM     64  C   UNL A   1      50.749  25.945  25.924  1.00  0.00     0.009 A 
ATOM     65  C   UNL A   1      48.825  26.681  24.729  1.00  0.00     0.009 A 
ATOM     66  C   UNL A   1      51.571  26.337  24.862  1.00  0.00     0.001 A 
ATOM     67  C   UNL A   1      49.643  27.087  23.662  1.00  0.00     0.001 A 
ATOM     68  C   UNL A   1      51.017  26.912  23.729  1.00  0.00     0.000 A 
ENDBRANCH  49  63
BRANCH  50  69
ATOM     69  C   UNL A   1      43.756  25.307  33.735  1.00  0.00    -0.014 A 
ATOM     70  C   UNL A   1      44.140  24.032  33.317  1.00  0.00     0.009 A 
ATOM     71  C   UNL A   1      43.040  25.506  34.931  1.00  0.00     0.009 A 
ATOM     72  C   UNL A   1      44.055  23.006  34.234  1.00  0.00     0.001 A 
ATOM     73  C   UNL A   1      43.125  24.530  35.888  1.00  0.00     0.001 A 
ATOM     74  C   UNL A   1      43.669  23.308  35.530  1.00  0.00     0.000 A 
ENDBRANCH  50  69
BRANCH  62  75
ATOM     75  C   UNL A   1      50.319  25.113  32.189  1.00  0.00    -0.014 A 
ATOM     76  C   UNL A   1      50.354  23.819  32.711  1.00  0.00     0.009 A 
ATOM     77  C   UNL A   1      51.571  25.726  31.967  1.00  0.00     0.009 A 
ATOM     78  C   UNL A   1      51.551  23.118  32.854  1.00  0.00     0.001 A 
ATOM     79  C   UNL A   1      52.775  25.052  32.147  1.00  0.00     0.001 A 
ATOM     80  C   UNL A   1      52.763  23.732  32.564  1.00  0.00     0.000 A 
ENDBRANCH  62  75
ENDBRANCH  36  37
ENDBRANCH  29  31
ENDBRANCH  28  29
ENDBRANCH   1  28
TORSDOF 13
ENDMDL
