MODEL 1
REMARK VINA RESULT:     -12.3      0.000      0.000
REMARK SMILES COc1ccc(-c2ccc(/C=C3\SC(=S)N([C@H](Cc4ccccc4)C(=O)OCCOC(=O)c4ccc(-c5c6nc(c(-c7ccccc7)c7ccc([nH]7)c(-c7ccccc7)c7nc(c(-c8ccccc8)c8ccc5[nH]8)C=C7)C=C6)cc4)C3=O)o2)cc1
REMARK SMILES IDX 28 1 27 2 25 3 26 4 17 5 16 6 11 7 12 8 13 9 81 10 14 11
REMARK SMILES IDX 82 12 15 13 10 14 7 15 8 16 83 17 9 18 6 19 3 20 4 21 85 22
REMARK SMILES IDX 5 23 84 24 2 25 1 26 18 27 19 28 20 29 24 30 21 31 23 32
REMARK SMILES IDX 22 33 29 34 30 35 31 36 32 37 33 38 34 39 80 40 35 41 79 42
REMARK SMILES IDX 36 43 37 44 38 45 73 46 39 47 78 48 72 49 74 50 40 51 77 52
REMARK SMILES IDX 71 53 70 54 41 56 63 57 48 58 62 59 49 60 52 61 61 62 75 63
REMARK SMILES IDX 50 64 51 65 60 67 76 68 53 69 42 70 43 71 47 72 44 73 46 74
REMARK SMILES IDX 45 75 64 76 65 77 69 78 66 79 68 80 67 81 54 82 55 83 59 84
REMARK SMILES IDX 56 85 58 86 57 87
REMARK H PARENT 74 55 52 66
REMARK Flexibility Score: inf
ROOT
ATOM      1  C   UNL A   1      36.108  20.376  25.103  1.00  0.00     0.274 C 
ENDROOT
BRANCH   1   2
ATOM      2  O   UNL A   1      35.767  21.237  26.206  1.00  0.00    -0.461 OA
BRANCH   2   3
ATOM      3  C   UNL A   1      34.446  21.463  26.427  1.00  0.00     0.329 C 
ATOM      4  O   UNL A   1      33.905  21.430  27.528  1.00  0.00    -0.250 OA
BRANCH   3   5
ATOM      5  C   UNL A   1      33.650  21.730  25.135  1.00  0.00     0.206 C 
BRANCH   5   6
ATOM      6  N   UNL A   1      33.488  23.188  24.972  1.00  0.00    -0.278 N 
ATOM      7  C   UNL A   1      31.621  26.101  25.991  1.00  0.00     0.068 C 
ATOM      8  C   UNL A   1      32.454  25.269  25.355  1.00  0.00     0.084 C 
ATOM      9  S   UNL A   1      33.662  25.641  24.197  1.00  0.00    -0.054 SA
ATOM     10  C   UNL A   1      32.413  23.808  25.589  1.00  0.00     0.267 C 
ATOM     11  C   UNL A   1      34.306  24.004  24.216  1.00  0.00     0.149 C 
ATOM     12  O   UNL A   1      31.532  23.253  26.228  1.00  0.00    -0.268 OA
ATOM     13  S   UNL A   1      35.710  23.619  23.406  1.00  0.00    -0.052 S 
BRANCH   7  14
ATOM     14  C   UNL A   1      31.482  27.459  25.607  1.00  0.00     0.128 A 
ATOM     15  C   UNL A   1      30.787  29.284  24.560  1.00  0.00     0.134 A 
ATOM     16  C   UNL A   1      31.776  29.690  25.427  1.00  0.00     0.051 A 
ATOM     17  O   UNL A   1      30.597  27.936  24.664  1.00  0.00    -0.457 OA
ATOM     18  C   UNL A   1      32.217  28.532  26.093  1.00  0.00     0.051 A 
BRANCH  15  19
ATOM     19  C   UNL A   1      29.982  30.013  23.595  1.00  0.00     0.017 A 
ATOM     20  C   UNL A   1      28.227  31.345  21.837  1.00  0.00     0.118 A 
ATOM     21  C   UNL A   1      28.975  30.246  21.403  1.00  0.00     0.047 A 
ATOM     22  C   UNL A   1      28.368  31.786  23.151  1.00  0.00     0.047 A 
ATOM     23  C   UNL A   1      29.856  29.588  22.270  1.00  0.00     0.016 A 
ATOM     24  C   UNL A   1      29.236  31.120  24.023  1.00  0.00     0.016 A 
BRANCH  20  25
ATOM     25  O   UNL A   1      27.387  31.883  20.901  1.00  0.00    -0.497 OA
ATOM     26  C   UNL A   1      28.001  32.533  19.793  1.00  0.00     0.278 C 
ENDBRANCH  20  25
ENDBRANCH  15  19
ENDBRANCH   7  14
ENDBRANCH   5   6
BRANCH   5  27
ATOM     27  C   UNL A   1      32.353  20.905  24.957  1.00  0.00     0.073 C 
BRANCH  27  28
ATOM     28  C   UNL A   1      32.525  19.433  24.598  1.00  0.00    -0.045 A 
ATOM     29  C   UNL A   1      32.588  18.978  23.270  1.00  0.00     0.004 A 
ATOM     30  C   UNL A   1      32.752  18.493  25.614  1.00  0.00     0.004 A 
ATOM     31  C   UNL A   1      32.808  17.633  22.965  1.00  0.00     0.000 A 
ATOM     32  C   UNL A   1      32.985  17.146  25.310  1.00  0.00     0.000 A 
ATOM     33  C   UNL A   1      33.005  16.714  23.987  1.00  0.00     0.000 A 
ENDBRANCH  27  28
ENDBRANCH   5  27
ENDBRANCH   3   5
ENDBRANCH   2   3
ENDBRANCH   1   2
BRANCH   1  34
ATOM     34  C   UNL A   1      37.605  20.062  25.098  1.00  0.00     0.275 C 
BRANCH  34  35
ATOM     35  O   UNL A   1      38.378  21.241  25.392  1.00  0.00    -0.458 OA
BRANCH  35  36
ATOM     36  C   UNL A   1      39.420  21.033  26.228  1.00  0.00     0.338 C 
ATOM     37  O   UNL A   1      40.017  19.992  26.434  1.00  0.00    -0.246 OA
BRANCH  36  38
ATOM     38  C   UNL A   1      39.892  22.321  26.748  1.00  0.00     0.060 A 
ATOM     39  C   UNL A   1      39.297  23.469  26.230  1.00  0.00     0.016 A 
ATOM     40  C   UNL A   1      40.971  22.416  27.623  1.00  0.00     0.016 A 
ATOM     41  C   UNL A   1      39.795  24.726  26.540  1.00  0.00     0.010 A 
ATOM     42  C   UNL A   1      41.457  23.684  27.963  1.00  0.00     0.010 A 
ATOM     43  C   UNL A   1      40.888  24.844  27.405  1.00  0.00    -0.014 A 
BRANCH  43  44
ATOM     44  C   UNL A   1      41.454  26.187  27.673  1.00  0.00     0.031 A 
ATOM     45  C   UNL A   1      42.753  26.594  27.039  1.00  0.00     0.074 A 
ATOM     46  C   UNL A   1      40.776  27.057  28.442  1.00  0.00     0.049 A 
ATOM     47  N   UNL A   1      43.446  27.691  27.207  1.00  0.00    -0.248 NA
ATOM     48  C   UNL A   1      43.351  25.641  26.089  1.00  0.00     0.031 C 
ATOM     49  C   UNL A   1      39.474  26.804  29.059  1.00  0.00     0.029 A 
ATOM     50  N   UNL A   1      41.087  28.336  28.827  1.00  0.00    -0.354 N 
ATOM     51  C   UNL A   1      44.579  27.545  26.418  1.00  0.00     0.074 A 
ATOM     52  C   UNL A   1      44.484  26.253  25.773  1.00  0.00     0.031 C 
ATOM     53  C   UNL A   1      39.088  27.902  29.729  1.00  0.00     0.029 A 
ATOM     54  C   UNL A   1      40.139  28.909  29.636  1.00  0.00     0.049 A 
ATOM     55  H   UNL A   1      41.911  28.799  28.549  1.00  0.00     0.167 HD
ATOM     56  C   UNL A   1      45.608  28.410  26.250  1.00  0.00     0.031 A 
ATOM     57  C   UNL A   1      40.129  30.102  30.259  1.00  0.00     0.031 A 
ATOM     58  C   UNL A   1      45.693  29.701  26.881  1.00  0.00     0.049 A 
ATOM     59  C   UNL A   1      41.303  31.023  30.095  1.00  0.00     0.074 A 
ATOM     60  C   UNL A   1      46.697  30.649  26.775  1.00  0.00     0.029 A 
ATOM     61  N   UNL A   1      44.733  30.227  27.731  1.00  0.00    -0.354 N 
ATOM     62  N   UNL A   1      42.388  30.857  29.378  1.00  0.00    -0.248 NA
ATOM     63  C   UNL A   1      41.254  32.292  30.835  1.00  0.00     0.031 C 
ATOM     64  C   UNL A   1      46.360  31.734  27.593  1.00  0.00     0.029 A 
ATOM     65  C   UNL A   1      45.126  31.479  28.172  1.00  0.00     0.049 A 
ATOM     66  H   UNL A   1      43.896  29.776  27.984  1.00  0.00     0.167 HD
ATOM     67  C   UNL A   1      43.147  32.003  29.572  1.00  0.00     0.074 A 
ATOM     68  C   UNL A   1      42.389  32.864  30.457  1.00  0.00     0.031 C 
ATOM     69  C   UNL A   1      44.364  32.314  29.063  1.00  0.00     0.031 A 
BRANCH  56  70
ATOM     70  C   UNL A   1      46.750  27.957  25.387  1.00  0.00    -0.014 A 
ATOM     71  C   UNL A   1      47.893  27.357  25.936  1.00  0.00     0.009 A 
ATOM     72  C   UNL A   1      46.672  28.125  23.995  1.00  0.00     0.009 A 
ATOM     73  C   UNL A   1      48.951  26.966  25.111  1.00  0.00     0.001 A 
ATOM     74  C   UNL A   1      47.720  27.712  23.171  1.00  0.00     0.001 A 
ATOM     75  C   UNL A   1      48.862  27.142  23.729  1.00  0.00     0.000 A 
ENDBRANCH  56  70
BRANCH  57  76
ATOM     76  C   UNL A   1      38.979  30.473  31.120  1.00  0.00    -0.014 A 
ATOM     77  C   UNL A   1      37.880  31.163  30.588  1.00  0.00     0.009 A 
ATOM     78  C   UNL A   1      38.967  30.118  32.478  1.00  0.00     0.009 A 
ATOM     79  C   UNL A   1      36.796  31.498  31.402  1.00  0.00     0.001 A 
ATOM     80  C   UNL A   1      37.871  30.432  33.284  1.00  0.00     0.001 A 
ATOM     81  C   UNL A   1      36.789  31.127  32.747  1.00  0.00     0.000 A 
ENDBRANCH  57  76
BRANCH  69  82
ATOM     82  C   UNL A   1      44.936  33.648  29.442  1.00  0.00    -0.014 A 
ATOM     83  C   UNL A   1      45.764  33.787  30.566  1.00  0.00     0.009 A 
ATOM     84  C   UNL A   1      44.663  34.774  28.651  1.00  0.00     0.009 A 
ATOM     85  C   UNL A   1      46.281  35.038  30.909  1.00  0.00     0.001 A 
ATOM     86  C   UNL A   1      45.199  36.018  28.983  1.00  0.00     0.001 A 
ATOM     87  C   UNL A   1      46.001  36.151  30.117  1.00  0.00     0.000 A 
ENDBRANCH  69  82
ENDBRANCH  43  44
ENDBRANCH  36  38
ENDBRANCH  35  36
ENDBRANCH  34  35
ENDBRANCH   1  34
TORSDOF 17
ENDMDL
MODEL 2
REMARK VINA RESULT:     -12.1      2.750      3.763
REMARK SMILES COc1ccc(-c2ccc(/C=C3\SC(=S)N([C@H](Cc4ccccc4)C(=O)OCCOC(=O)c4ccc(-c5c6nc(c(-c7ccccc7)c7ccc([nH]7)c(-c7ccccc7)c7nc(c(-c8ccccc8)c8ccc5[nH]8)C=C7)C=C6)cc4)C3=O)o2)cc1
REMARK SMILES IDX 28 1 27 2 25 3 26 4 17 5 16 6 11 7 12 8 13 9 81 10 14 11
REMARK SMILES IDX 82 12 15 13 10 14 7 15 8 16 83 17 9 18 6 19 3 20 4 21 85 22
REMARK SMILES IDX 5 23 84 24 2 25 1 26 18 27 19 28 20 29 24 30 21 31 23 32
REMARK SMILES IDX 22 33 29 34 30 35 31 36 32 37 33 38 34 39 80 40 35 41 79 42
REMARK SMILES IDX 36 43 37 44 38 45 73 46 39 47 78 48 72 49 74 50 40 51 77 52
REMARK SMILES IDX 71 53 70 54 41 56 63 57 48 58 62 59 49 60 52 61 61 62 75 63
REMARK SMILES IDX 50 64 51 65 60 67 76 68 53 69 42 70 43 71 47 72 44 73 46 74
REMARK SMILES IDX 45 75 64 76 65 77 69 78 66 79 68 80 67 81 54 82 55 83 59 84
REMARK SMILES IDX 56 85 58 86 57 87
REMARK H PARENT 74 55 52 66
REMARK Flexibility Score: inf
ROOT
ATOM      1  C   UNL A   1      38.664  21.023  25.576  1.00  0.00     0.274 C 
ENDROOT
BRANCH   1   2
ATOM      2  O   UNL A   1      37.354  20.944  24.982  1.00  0.00    -0.461 OA
BRANCH   2   3
ATOM      3  C   UNL A   1      36.489  21.955  25.259  1.00  0.00     0.329 C 
ATOM      4  O   UNL A   1      36.798  23.011  25.801  1.00  0.00    -0.250 OA
BRANCH   3   5
ATOM      5  C   UNL A   1      35.035  21.637  24.862  1.00  0.00     0.206 C 
BRANCH   5   6
ATOM      6  N   UNL A   1      34.221  22.858  25.028  1.00  0.00    -0.278 N 
ATOM      7  C   UNL A   1      32.797  25.726  23.368  1.00  0.00     0.068 C 
ATOM      8  C   UNL A   1      33.206  24.853  24.296  1.00  0.00     0.084 C 
ATOM      9  S   UNL A   1      32.848  24.826  25.972  1.00  0.00    -0.054 SA
ATOM     10  C   UNL A   1      34.100  23.723  23.953  1.00  0.00     0.267 C 
ATOM     11  C   UNL A   1      33.586  23.243  26.191  1.00  0.00     0.149 C 
ATOM     12  O   UNL A   1      34.652  23.606  22.869  1.00  0.00    -0.268 OA
ATOM     13  S   UNL A   1      33.460  22.425  27.638  1.00  0.00    -0.052 S 
BRANCH   7  14
ATOM     14  C   UNL A   1      32.146  26.936  23.714  1.00  0.00     0.128 A 
ATOM     15  C   UNL A   1      31.695  28.870  24.697  1.00  0.00     0.134 A 
ATOM     16  C   UNL A   1      30.641  28.613  23.849  1.00  0.00     0.051 A 
ATOM     17  O   UNL A   1      32.614  27.863  24.620  1.00  0.00    -0.457 OA
ATOM     18  C   UNL A   1      30.928  27.387  23.224  1.00  0.00     0.051 A 
BRANCH  15  19
ATOM     19  C   UNL A   1      31.954  29.960  25.621  1.00  0.00     0.017 A 
ATOM     20  C   UNL A   1      32.502  32.213  27.224  1.00  0.00     0.118 A 
ATOM     21  C   UNL A   1      33.379  31.123  27.200  1.00  0.00     0.047 A 
ATOM     22  C   UNL A   1      31.343  32.170  26.454  1.00  0.00     0.047 A 
ATOM     23  C   UNL A   1      33.103  29.998  26.414  1.00  0.00     0.016 A 
ATOM     24  C   UNL A   1      31.075  31.053  25.655  1.00  0.00     0.016 A 
BRANCH  20  25
ATOM     25  O   UNL A   1      32.896  33.259  28.014  1.00  0.00    -0.497 OA
ATOM     26  C   UNL A   1      34.178  33.148  28.624  1.00  0.00     0.278 C 
ENDBRANCH  20  25
ENDBRANCH  15  19
ENDBRANCH   7  14
ENDBRANCH   5   6
BRANCH   5  27
ATOM     27  C   UNL A   1      34.427  20.359  25.487  1.00  0.00     0.073 C 
BRANCH  27  28
ATOM     28  C   UNL A   1      33.977  19.272  24.515  1.00  0.00    -0.045 A 
ATOM     29  C   UNL A   1      34.659  18.052  24.374  1.00  0.00     0.004 A 
ATOM     30  C   UNL A   1      32.773  19.425  23.812  1.00  0.00     0.004 A 
ATOM     31  C   UNL A   1      34.195  17.046  23.523  1.00  0.00     0.000 A 
ATOM     32  C   UNL A   1      32.298  18.412  22.968  1.00  0.00     0.000 A 
ATOM     33  C   UNL A   1      33.013  17.227  22.818  1.00  0.00     0.000 A 
ENDBRANCH  27  28
ENDBRANCH   5  27
ENDBRANCH   3   5
ENDBRANCH   2   3
ENDBRANCH   1   2
BRANCH   1  34
ATOM     34  C   UNL A   1      39.390  19.681  25.477  1.00  0.00     0.275 C 
BRANCH  34  35
ATOM     35  O   UNL A   1      40.430  19.584  26.468  1.00  0.00    -0.458 OA
BRANCH  35  36
ATOM     36  C   UNL A   1      41.676  19.814  25.996  1.00  0.00     0.338 C 
ATOM     37  O   UNL A   1      42.275  19.195  25.135  1.00  0.00    -0.246 OA
BRANCH  36  38
ATOM     38  C   UNL A   1      42.178  21.080  26.542  1.00  0.00     0.060 A 
ATOM     39  C   UNL A   1      41.934  21.328  27.891  1.00  0.00     0.016 A 
ATOM     40  C   UNL A   1      42.760  22.055  25.737  1.00  0.00     0.016 A 
ATOM     41  C   UNL A   1      42.224  22.566  28.446  1.00  0.00     0.010 A 
ATOM     42  C   UNL A   1      43.083  23.295  26.300  1.00  0.00     0.010 A 
ATOM     43  C   UNL A   1      42.795  23.565  27.652  1.00  0.00    -0.014 A 
BRANCH  43  44
ATOM     44  C   UNL A   1      43.035  24.905  28.238  1.00  0.00     0.031 A 
ATOM     45  C   UNL A   1      44.425  25.314  28.631  1.00  0.00     0.074 A 
ATOM     46  C   UNL A   1      42.013  25.769  28.369  1.00  0.00     0.049 A 
ATOM     47  N   UNL A   1      44.826  26.409  29.226  1.00  0.00    -0.248 NA
ATOM     48  C   UNL A   1      45.507  24.369  28.313  1.00  0.00     0.031 C 
ATOM     49  C   UNL A   1      40.631  25.514  27.962  1.00  0.00     0.029 A 
ATOM     50  N   UNL A   1      41.985  27.045  28.873  1.00  0.00    -0.354 N 
ATOM     51  C   UNL A   1      46.198  26.268  29.389  1.00  0.00     0.074 A 
ATOM     52  C   UNL A   1      46.561  24.981  28.834  1.00  0.00     0.031 C 
ATOM     53  C   UNL A   1      39.893  26.607  28.214  1.00  0.00     0.029 A 
ATOM     54  C   UNL A   1      40.736  27.613  28.851  1.00  0.00     0.049 A 
ATOM     55  H   UNL A   1      42.783  27.508  29.216  1.00  0.00     0.167 HD
ATOM     56  C   UNL A   1      47.074  27.132  29.955  1.00  0.00     0.031 A 
ATOM     57  C   UNL A   1      40.310  28.801  29.318  1.00  0.00     0.031 A 
ATOM     58  C   UNL A   1      46.713  28.417  30.492  1.00  0.00     0.049 A 
ATOM     59  C   UNL A   1      41.291  29.721  29.983  1.00  0.00     0.074 A 
ATOM     60  C   UNL A   1      47.529  29.364  31.087  1.00  0.00     0.029 A 
ATOM     61  N   UNL A   1      45.429  28.938  30.492  1.00  0.00    -0.354 N 
ATOM     62  N   UNL A   1      42.579  29.559  30.168  1.00  0.00    -0.248 NA
ATOM     63  C   UNL A   1      40.757  30.984  30.513  1.00  0.00     0.031 C 
ATOM     64  C   UNL A   1      46.729  30.444  31.482  1.00  0.00     0.029 A 
ATOM     65  C   UNL A   1      45.423  30.185  31.093  1.00  0.00     0.049 A 
ATOM     66  H   UNL A   1      44.636  28.486  30.121  1.00  0.00     0.167 HD
ATOM     67  C   UNL A   1      43.012  30.702  30.826  1.00  0.00     0.074 A 
ATOM     68  C   UNL A   1      41.854  31.557  30.990  1.00  0.00     0.031 C 
ATOM     69  C   UNL A   1      44.258  31.014  31.257  1.00  0.00     0.031 A 
BRANCH  56  70
ATOM     70  C   UNL A   1      48.503  26.684  30.066  1.00  0.00    -0.014 A 
ATOM     71  C   UNL A   1      49.456  27.017  29.092  1.00  0.00     0.009 A 
ATOM     72  C   UNL A   1      48.903  25.922  31.175  1.00  0.00     0.009 A 
ATOM     73  C   UNL A   1      50.773  26.567  29.209  1.00  0.00     0.001 A 
ATOM     74  C   UNL A   1      50.225  25.493  31.302  1.00  0.00     0.001 A 
ATOM     75  C   UNL A   1      51.157  25.808  30.315  1.00  0.00     0.000 A 
ENDBRANCH  56  70
BRANCH  57  76
ATOM     76  C   UNL A   1      38.876  29.166  29.199  1.00  0.00    -0.014 A 
ATOM     77  C   UNL A   1      37.997  28.972  30.274  1.00  0.00     0.009 A 
ATOM     78  C   UNL A   1      38.385  29.732  28.012  1.00  0.00     0.009 A 
ATOM     79  C   UNL A   1      36.651  29.329  30.158  1.00  0.00     0.001 A 
ATOM     80  C   UNL A   1      37.046  30.112  27.908  1.00  0.00     0.001 A 
ATOM     81  C   UNL A   1      36.179  29.905  28.978  1.00  0.00     0.000 A 
ENDBRANCH  57  76
BRANCH  69  82
ATOM     82  C   UNL A   1      44.428  32.344  31.931  1.00  0.00    -0.014 A 
ATOM     83  C   UNL A   1      44.725  33.498  31.191  1.00  0.00     0.009 A 
ATOM     84  C   UNL A   1      44.266  32.447  33.321  1.00  0.00     0.009 A 
ATOM     85  C   UNL A   1      44.888  34.726  31.835  1.00  0.00     0.001 A 
ATOM     86  C   UNL A   1      44.408  33.679  33.960  1.00  0.00     0.001 A 
ATOM     87  C   UNL A   1      44.727  34.816  33.218  1.00  0.00     0.000 A 
ENDBRANCH  69  82
ENDBRANCH  43  44
ENDBRANCH  36  38
ENDBRANCH  35  36
ENDBRANCH  34  35
ENDBRANCH   1  34
TORSDOF 17
ENDMDL
MODEL 3
REMARK VINA RESULT:     -12.0      1.753      2.795
REMARK SMILES COc1ccc(-c2ccc(/C=C3\SC(=S)N([C@H](Cc4ccccc4)C(=O)OCCOC(=O)c4ccc(-c5c6nc(c(-c7ccccc7)c7ccc([nH]7)c(-c7ccccc7)c7nc(c(-c8ccccc8)c8ccc5[nH]8)C=C7)C=C6)cc4)C3=O)o2)cc1
REMARK SMILES IDX 28 1 27 2 25 3 26 4 17 5 16 6 11 7 12 8 13 9 81 10 14 11
REMARK SMILES IDX 82 12 15 13 10 14 7 15 8 16 83 17 9 18 6 19 3 20 4 21 85 22
REMARK SMILES IDX 5 23 84 24 2 25 1 26 18 27 19 28 20 29 24 30 21 31 23 32
REMARK SMILES IDX 22 33 29 34 30 35 31 36 32 37 33 38 34 39 80 40 35 41 79 42
REMARK SMILES IDX 36 43 37 44 38 45 73 46 39 47 78 48 72 49 74 50 40 51 77 52
REMARK SMILES IDX 71 53 70 54 41 56 63 57 48 58 62 59 49 60 52 61 61 62 75 63
REMARK SMILES IDX 50 64 51 65 60 67 76 68 53 69 42 70 43 71 47 72 44 73 46 74
REMARK SMILES IDX 45 75 64 76 65 77 69 78 66 79 68 80 67 81 54 82 55 83 59 84
REMARK SMILES IDX 56 85 58 86 57 87
REMARK H PARENT 74 55 52 66
REMARK Flexibility Score: inf
ROOT
ATOM      1  C   UNL A   1      35.818  20.535  25.078  1.00  0.00     0.274 C 
ENDROOT
BRANCH   1   2
ATOM      2  O   UNL A   1      35.394  21.490  26.070  1.00  0.00    -0.461 OA
BRANCH   2   3
ATOM      3  C   UNL A   1      34.081  21.476  26.417  1.00  0.00     0.329 C 
ATOM      4  O   UNL A   1      33.656  21.220  27.540  1.00  0.00    -0.250 OA
BRANCH   3   5
ATOM      5  C   UNL A   1      33.136  21.775  25.238  1.00  0.00     0.206 C 
BRANCH   5   6
ATOM      6  N   UNL A   1      32.635  23.158  25.371  1.00  0.00    -0.278 N 
ATOM      7  C   UNL A   1      33.093  26.593  24.372  1.00  0.00     0.068 C 
ATOM      8  C   UNL A   1      32.674  25.481  24.987  1.00  0.00     0.084 C 
ATOM      9  S   UNL A   1      31.362  25.287  26.074  1.00  0.00    -0.054 SA
ATOM     10  C   UNL A   1      33.363  24.184  24.793  1.00  0.00     0.267 C 
ATOM     11  C   UNL A   1      31.502  23.533  26.065  1.00  0.00     0.149 C 
ATOM     12  O   UNL A   1      34.433  24.071  24.213  1.00  0.00    -0.268 OA
ATOM     13  S   UNL A   1      30.364  22.572  26.813  1.00  0.00    -0.052 S 
BRANCH   7  14
ATOM     14  C   UNL A   1      32.602  27.874  24.728  1.00  0.00     0.128 A 
ATOM     15  C   UNL A   1      32.409  29.849  25.713  1.00  0.00     0.134 A 
ATOM     16  C   UNL A   1      31.318  29.725  24.884  1.00  0.00     0.051 A 
ATOM     17  O   UNL A   1      33.196  28.736  25.624  1.00  0.00    -0.457 OA
ATOM     18  C   UNL A   1      31.441  28.472  24.256  1.00  0.00     0.051 A 
BRANCH  15  19
ATOM     19  C   UNL A   1      32.816  30.899  26.631  1.00  0.00     0.017 A 
ATOM     20  C   UNL A   1      33.644  33.075  28.221  1.00  0.00     0.118 A 
ATOM     21  C   UNL A   1      34.444  31.934  28.099  1.00  0.00     0.047 A 
ATOM     22  C   UNL A   1      32.421  33.121  27.556  1.00  0.00     0.047 A 
ATOM     23  C   UNL A   1      34.031  30.847  27.320  1.00  0.00     0.016 A 
ATOM     24  C   UNL A   1      32.015  32.042  26.764  1.00  0.00     0.016 A 
BRANCH  20  25
ATOM     25  O   UNL A   1      34.171  34.075  28.992  1.00  0.00    -0.497 OA
ATOM     26  C   UNL A   1      34.536  35.273  28.317  1.00  0.00     0.278 C 
ENDBRANCH  20  25
ENDBRANCH  15  19
ENDBRANCH   7  14
ENDBRANCH   5   6
BRANCH   5  27
ATOM     27  C   UNL A   1      32.049  20.712  24.954  1.00  0.00     0.073 C 
BRANCH  27  28
ATOM     28  C   UNL A   1      32.539  19.329  24.536  1.00  0.00    -0.045 A 
ATOM     29  C   UNL A   1      32.882  18.333  25.465  1.00  0.00     0.004 A 
ATOM     30  C   UNL A   1      32.541  18.976  23.179  1.00  0.00     0.004 A 
ATOM     31  C   UNL A   1      33.270  17.054  25.059  1.00  0.00     0.000 A 
ATOM     32  C   UNL A   1      32.916  17.689  22.770  1.00  0.00     0.000 A 
ATOM     33  C   UNL A   1      33.289  16.732  23.709  1.00  0.00     0.000 A 
ENDBRANCH  27  28
ENDBRANCH   5  27
ENDBRANCH   3   5
ENDBRANCH   2   3
ENDBRANCH   1   2
BRANCH   1  34
ATOM     34  C   UNL A   1      37.340  20.538  24.934  1.00  0.00     0.275 C 
BRANCH  34  35
ATOM     35  O   UNL A   1      37.916  21.682  25.594  1.00  0.00    -0.458 OA
BRANCH  35  36
ATOM     36  C   UNL A   1      39.113  21.447  26.179  1.00  0.00     0.338 C 
ATOM     37  O   UNL A   1      39.760  20.415  26.168  1.00  0.00    -0.246 OA
BRANCH  36  38
ATOM     38  C   UNL A   1      39.656  22.706  26.700  1.00  0.00     0.060 A 
ATOM     39  C   UNL A   1      39.124  23.885  26.186  1.00  0.00     0.016 A 
ATOM     40  C   UNL A   1      40.740  22.739  27.572  1.00  0.00     0.016 A 
ATOM     41  C   UNL A   1      39.692  25.112  26.496  1.00  0.00     0.010 A 
ATOM     42  C   UNL A   1      41.297  23.978  27.914  1.00  0.00     0.010 A 
ATOM     43  C   UNL A   1      40.791  25.169  27.360  1.00  0.00    -0.014 A 
BRANCH  43  44
ATOM     44  C   UNL A   1      41.432  26.477  27.628  1.00  0.00     0.031 A 
ATOM     45  C   UNL A   1      42.767  26.798  27.022  1.00  0.00     0.074 A 
ATOM     46  C   UNL A   1      40.789  27.395  28.373  1.00  0.00     0.049 A 
ATOM     47  N   UNL A   1      43.521  27.854  27.198  1.00  0.00    -0.248 NA
ATOM     48  C   UNL A   1      43.329  25.802  26.096  1.00  0.00     0.031 C 
ATOM     49  C   UNL A   1      39.459  27.228  28.960  1.00  0.00     0.029 A 
ATOM     50  N   UNL A   1      41.168  28.657  28.753  1.00  0.00    -0.354 N 
ATOM     51  C   UNL A   1      44.662  27.631  26.437  1.00  0.00     0.074 A 
ATOM     52  C   UNL A   1      44.504  26.341  25.803  1.00  0.00     0.031 C 
ATOM     53  C   UNL A   1      39.125  28.354  29.611  1.00  0.00     0.029 A 
ATOM     54  C   UNL A   1      40.237  29.295  29.534  1.00  0.00     0.049 A 
ATOM     55  H   UNL A   1      42.025  29.066  28.491  1.00  0.00     0.167 HD
ATOM     56  C   UNL A   1      45.745  28.431  26.287  1.00  0.00     0.031 A 
ATOM     57  C   UNL A   1      40.285  30.493  30.145  1.00  0.00     0.031 A 
ATOM     58  C   UNL A   1      45.893  29.721  26.908  1.00  0.00     0.049 A 
ATOM     59  C   UNL A   1      41.515  31.340  30.001  1.00  0.00     0.074 A 
ATOM     60  C   UNL A   1      46.954  30.605  26.817  1.00  0.00     0.029 A 
ATOM     61  N   UNL A   1      44.946  30.312  27.729  1.00  0.00    -0.354 N 
ATOM     62  N   UNL A   1      42.605  31.101  29.313  1.00  0.00    -0.248 NA
ATOM     63  C   UNL A   1      41.526  32.617  30.728  1.00  0.00     0.031 C 
ATOM     64  C   UNL A   1      46.664  31.718  27.617  1.00  0.00     0.029 A 
ATOM     65  C   UNL A   1      45.404  31.543  28.168  1.00  0.00     0.049 A 
ATOM     66  H   UNL A   1      44.077  29.916  27.966  1.00  0.00     0.167 HD
ATOM     67  C   UNL A   1      43.427  32.201  29.514  1.00  0.00     0.074 A 
ATOM     68  C   UNL A   1      42.702  33.116  30.372  1.00  0.00     0.031 C 
ATOM     69  C   UNL A   1      44.673  32.432  29.032  1.00  0.00     0.031 A 
BRANCH  56  70
ATOM     70  C   UNL A   1      46.878  27.900  25.456  1.00  0.00    -0.014 A 
ATOM     71  C   UNL A   1      47.946  27.197  26.032  1.00  0.00     0.009 A 
ATOM     72  C   UNL A   1      46.866  28.100  24.066  1.00  0.00     0.009 A 
ATOM     73  C   UNL A   1      48.998  26.735  25.238  1.00  0.00     0.001 A 
ATOM     74  C   UNL A   1      47.907  27.617  23.272  1.00  0.00     0.001 A 
ATOM     75  C   UNL A   1      48.976  26.943  23.859  1.00  0.00     0.000 A 
ENDBRANCH  56  70
BRANCH  57  76
ATOM     76  C   UNL A   1      39.139  30.942  30.974  1.00  0.00    -0.014 A 
ATOM     77  C   UNL A   1      38.068  31.640  30.397  1.00  0.00     0.009 A 
ATOM     78  C   UNL A   1      39.102  30.653  32.347  1.00  0.00     0.009 A 
ATOM     79  C   UNL A   1      36.988  32.049  31.182  1.00  0.00     0.001 A 
ATOM     80  C   UNL A   1      38.009  31.041  33.125  1.00  0.00     0.001 A 
ATOM     81  C   UNL A   1      36.956  31.743  32.543  1.00  0.00     0.000 A 
ENDBRANCH  57  76
BRANCH  69  82
ATOM     82  C   UNL A   1      45.316  33.734  29.412  1.00  0.00    -0.014 A 
ATOM     83  C   UNL A   1      45.133  34.886  28.634  1.00  0.00     0.009 A 
ATOM     84  C   UNL A   1      46.095  33.812  30.577  1.00  0.00     0.009 A 
ATOM     85  C   UNL A   1      45.745  36.087  28.998  1.00  0.00     0.001 A 
ATOM     86  C   UNL A   1      46.688  35.018  30.951  1.00  0.00     0.001 A 
ATOM     87  C   UNL A   1      46.520  36.152  30.157  1.00  0.00     0.000 A 
ENDBRANCH  69  82
ENDBRANCH  43  44
ENDBRANCH  36  38
ENDBRANCH  35  36
ENDBRANCH  34  35
ENDBRANCH   1  34
TORSDOF 17
ENDMDL
