MODEL 1
REMARK VINA RESULT:     -10.9      0.000      0.000
REMARK SMILES Nc1oc2ccc(F)cc2c(=O)c1[C@@H]1[NH2+][C@H](C(=O)OCCOC(=O)c2ccc(-c3c4nc(c(-c5ccccc5)c5ccc([nH]5)c(-c5ccccc5)c5nc(c(-c6ccccc6)c6ccc3[nH]6)C=C5)C=C4)cc2)CS1
REMARK SMILES IDX 20 1 19 2 17 3 18 4 16 5 14 6 15 7 74 8 73 11 13 12 2 13
REMARK SMILES IDX 3 14 4 15 11 16 5 17 10 18 12 19 6 20 9 21 7 22 8 23 1 24
REMARK SMILES IDX 21 27 22 28 23 29 24 30 25 31 26 32 72 33 27 34 71 35 28 36
REMARK SMILES IDX 29 37 30 38 65 39 31 40 70 41 64 42 66 43 32 44 69 45 63 46
REMARK SMILES IDX 62 47 33 49 55 50 40 51 54 52 41 53 44 54 53 55 67 56 42 57
REMARK SMILES IDX 43 58 52 60 68 61 45 62 34 63 35 64 39 65 36 66 38 67 37 68
REMARK SMILES IDX 56 69 57 70 61 71 58 72 60 73 59 74 46 75 47 76 51 77 48 78
REMARK SMILES IDX 50 79 49 80
REMARK H PARENT 15 9 15 10 1 25 1 26 66 48 44 59
REMARK Flexibility Score: inf
ROOT
ATOM      1  C   UNL A   1      32.510  30.081  25.707  1.00  0.00     0.274 C 
ENDROOT
BRANCH   1   2
ATOM      2  O   UNL A   1      32.116  28.943  24.917  1.00  0.00    -0.458 OA
BRANCH   2   3
ATOM      3  C   UNL A   1      32.421  28.935  23.594  1.00  0.00     0.365 C 
ATOM      4  O   UNL A   1      33.487  29.326  23.125  1.00  0.00    -0.245 OA
BRANCH   3   5
ATOM      5  C   UNL A   1      31.324  28.297  22.716  1.00  0.00     0.304 C 
ATOM      6  C   UNL A   1      31.338  25.892  22.839  1.00  0.00     0.283 C 
ATOM      7  N   UNL A   1      31.723  27.051  22.026  1.00  0.00    -0.319 N 
ATOM      8  S   UNL A   1      29.813  26.328  23.718  1.00  0.00    -0.087 SA
ATOM      9  H   UNL A   1      31.256  27.001  21.120  1.00  0.00     0.348 HD
ATOM     10  H   UNL A   1      32.734  27.048  21.890  1.00  0.00     0.348 HD
ATOM     11  C   UNL A   1      30.014  28.109  23.471  1.00  0.00     0.153 C 
BRANCH   6  12
ATOM     12  C   UNL A   1      32.463  25.401  23.718  1.00  0.00     0.128 A 
ATOM     13  C   UNL A   1      32.653  25.597  25.043  1.00  0.00     0.205 A 
ATOM     14  O   UNL A   1      33.817  25.260  25.711  1.00  0.00    -0.440 OA
ATOM     15  C   UNL A   1      34.745  24.482  25.087  1.00  0.00     0.140 A 
ATOM     16  C   UNL A   1      33.489  24.598  22.988  1.00  0.00     0.205 A 
ATOM     17  C   UNL A   1      35.832  24.058  25.853  1.00  0.00     0.051 A 
ATOM     18  C   UNL A   1      34.617  24.079  23.766  1.00  0.00     0.068 A 
ATOM     19  O   UNL A   1      33.397  24.323  21.797  1.00  0.00    -0.288 OA
ATOM     20  C   UNL A   1      36.755  23.172  25.305  1.00  0.00     0.043 A 
ATOM     21  C   UNL A   1      35.536  23.186  23.211  1.00  0.00     0.055 A 
ATOM     22  C   UNL A   1      36.588  22.730  23.995  1.00  0.00     0.124 A 
ATOM     23  F   UNL A   1      37.454  21.843  23.489  1.00  0.00    -0.207 F 
BRANCH  13  24
ATOM     24  N   UNL A   1      31.762  26.199  25.884  1.00  0.00    -0.369 N 
ATOM     25  H   UNL A   1      31.046  25.668  26.304  1.00  0.00     0.159 HD
ATOM     26  H   UNL A   1      31.834  27.162  26.071  1.00  0.00     0.159 HD
ENDBRANCH  13  24
ENDBRANCH   6  12
ENDBRANCH   3   5
ENDBRANCH   2   3
ENDBRANCH   1   2
BRANCH   1  27
ATOM     27  C   UNL A   1      32.595  29.669  27.176  1.00  0.00     0.275 C 
BRANCH  27  28
ATOM     28  O   UNL A   1      33.967  29.421  27.525  1.00  0.00    -0.458 OA
BRANCH  28  29
ATOM     29  C   UNL A   1      34.620  30.476  28.065  1.00  0.00     0.338 C 
ATOM     30  O   UNL A   1      34.168  31.553  28.412  1.00  0.00    -0.246 OA
BRANCH  29  31
ATOM     31  C   UNL A   1      35.983  30.031  28.367  1.00  0.00     0.060 A 
ATOM     32  C   UNL A   1      36.324  29.586  29.638  1.00  0.00     0.016 A 
ATOM     33  C   UNL A   1      36.930  30.076  27.342  1.00  0.00     0.016 A 
ATOM     34  C   UNL A   1      37.640  29.203  29.882  1.00  0.00     0.010 A 
ATOM     35  C   UNL A   1      38.240  29.686  27.577  1.00  0.00     0.010 A 
ATOM     36  C   UNL A   1      38.602  29.248  28.853  1.00  0.00    -0.014 A 
BRANCH  36  37
ATOM     37  C   UNL A   1      39.966  28.743  29.091  1.00  0.00     0.031 A 
ATOM     38  C   UNL A   1      40.340  27.337  28.738  1.00  0.00     0.074 A 
ATOM     39  C   UNL A   1      40.859  29.586  29.639  1.00  0.00     0.049 A 
ATOM     40  N   UNL A   1      41.523  26.781  28.758  1.00  0.00    -0.248 NA
ATOM     41  C   UNL A   1      39.255  26.434  28.324  1.00  0.00     0.031 C 
ATOM     42  C   UNL A   1      40.558  30.952  30.071  1.00  0.00     0.029 A 
ATOM     43  N   UNL A   1      42.194  29.437  29.899  1.00  0.00    -0.354 N 
ATOM     44  C   UNL A   1      41.330  25.474  28.334  1.00  0.00     0.074 A 
ATOM     45  C   UNL A   1      39.909  25.297  28.132  1.00  0.00     0.031 C 
ATOM     46  C   UNL A   1      41.692  31.541  30.475  1.00  0.00     0.029 A 
ATOM     47  C   UNL A   1      42.788  30.583  30.368  1.00  0.00     0.049 A 
ATOM     48  H   UNL A   1      42.682  28.591  29.764  1.00  0.00     0.167 HD
ATOM     49  C   UNL A   1      42.267  24.525  28.104  1.00  0.00     0.031 A 
ATOM     50  C   UNL A   1      44.076  30.842  30.656  1.00  0.00     0.031 A 
ATOM     51  C   UNL A   1      43.674  24.726  28.334  1.00  0.00     0.049 A 
ATOM     52  C   UNL A   1      45.094  29.764  30.418  1.00  0.00     0.074 A 
ATOM     53  C   UNL A   1      44.715  23.845  28.104  1.00  0.00     0.029 A 
ATOM     54  N   UNL A   1      44.234  25.885  28.853  1.00  0.00    -0.354 N 
ATOM     55  N   UNL A   1      44.915  28.558  29.931  1.00  0.00    -0.248 NA
ATOM     56  C   UNL A   1      46.488  30.080  30.749  1.00  0.00     0.031 C 
ATOM     57  C   UNL A   1      45.895  24.443  28.553  1.00  0.00     0.029 A 
ATOM     58  C   UNL A   1      45.604  25.729  28.980  1.00  0.00     0.049 A 
ATOM     59  H   UNL A   1      43.733  26.698  29.093  1.00  0.00     0.167 HD
ATOM     60  C   UNL A   1      46.173  27.978  29.879  1.00  0.00     0.074 A 
ATOM     61  C   UNL A   1      47.110  28.972  30.363  1.00  0.00     0.031 C 
ATOM     62  C   UNL A   1      46.519  26.732  29.471  1.00  0.00     0.031 A 
BRANCH  49  63
ATOM     63  C   UNL A   1      41.817  23.195  27.560  1.00  0.00    -0.014 A 
ATOM     64  C   UNL A   1      41.442  22.164  28.434  1.00  0.00     0.009 A 
ATOM     65  C   UNL A   1      41.866  22.927  26.182  1.00  0.00     0.009 A 
ATOM     66  C   UNL A   1      41.146  20.889  27.945  1.00  0.00     0.001 A 
ATOM     67  C   UNL A   1      41.536  21.661  25.692  1.00  0.00     0.001 A 
ATOM     68  C   UNL A   1      41.188  20.640  26.574  1.00  0.00     0.000 A 
ENDBRANCH  49  63
BRANCH  50  69
ATOM     69  C   UNL A   1      44.452  32.203  31.122  1.00  0.00    -0.014 A 
ATOM     70  C   UNL A   1      44.359  32.544  32.483  1.00  0.00     0.009 A 
ATOM     71  C   UNL A   1      44.806  33.199  30.200  1.00  0.00     0.009 A 
ATOM     72  C   UNL A   1      44.572  33.858  32.903  1.00  0.00     0.001 A 
ATOM     73  C   UNL A   1      45.054  34.505  30.628  1.00  0.00     0.001 A 
ATOM     74  C   UNL A   1      44.922  34.837  31.976  1.00  0.00     0.000 A 
ENDBRANCH  50  69
BRANCH  62  75
ATOM     75  C   UNL A   1      47.974  26.354  29.521  1.00  0.00    -0.014 A 
ATOM     76  C   UNL A   1      48.517  25.831  30.707  1.00  0.00     0.009 A 
ATOM     77  C   UNL A   1      48.833  26.635  28.448  1.00  0.00     0.009 A 
ATOM     78  C   UNL A   1      49.893  25.628  30.829  1.00  0.00     0.001 A 
ATOM     79  C   UNL A   1      50.203  26.394  28.558  1.00  0.00     0.001 A 
ATOM     80  C   UNL A   1      50.733  25.906  29.753  1.00  0.00     0.000 A 
ENDBRANCH  62  75
ENDBRANCH  36  37
ENDBRANCH  29  31
ENDBRANCH  28  29
ENDBRANCH  27  28
ENDBRANCH   1  27
TORSDOF 13
ENDMDL
MODEL 2
REMARK VINA RESULT:     -10.8      1.261      6.111
REMARK SMILES Nc1oc2ccc(F)cc2c(=O)c1[C@@H]1[NH2+][C@H](C(=O)OCCOC(=O)c2ccc(-c3c4nc(c(-c5ccccc5)c5ccc([nH]5)c(-c5ccccc5)c5nc(c(-c6ccccc6)c6ccc3[nH]6)C=C5)C=C4)cc2)CS1
REMARK SMILES IDX 20 1 19 2 17 3 18 4 16 5 14 6 15 7 74 8 73 11 13 12 2 13
REMARK SMILES IDX 3 14 4 15 11 16 5 17 10 18 12 19 6 20 9 21 7 22 8 23 1 24
REMARK SMILES IDX 21 27 22 28 23 29 24 30 25 31 26 32 72 33 27 34 71 35 28 36
REMARK SMILES IDX 29 37 30 38 65 39 31 40 70 41 64 42 66 43 32 44 69 45 63 46
REMARK SMILES IDX 62 47 33 49 55 50 40 51 54 52 41 53 44 54 53 55 67 56 42 57
REMARK SMILES IDX 43 58 52 60 68 61 45 62 34 63 35 64 39 65 36 66 38 67 37 68
REMARK SMILES IDX 56 69 57 70 61 71 58 72 60 73 59 74 46 75 47 76 51 77 48 78
REMARK SMILES IDX 50 79 49 80
REMARK H PARENT 15 9 15 10 1 25 1 26 66 48 44 59
REMARK Flexibility Score: inf
ROOT
ATOM      1  C   UNL A   1      33.268  29.490  25.366  1.00  0.00     0.274 C 
ENDROOT
BRANCH   1   2
ATOM      2  O   UNL A   1      32.199  29.223  24.437  1.00  0.00    -0.458 OA
BRANCH   2   3
ATOM      3  C   UNL A   1      32.517  28.817  23.181  1.00  0.00     0.365 C 
ATOM      4  O   UNL A   1      33.632  28.927  22.677  1.00  0.00    -0.245 OA
BRANCH   3   5
ATOM      5  C   UNL A   1      31.354  28.111  22.454  1.00  0.00     0.304 C 
ATOM      6  C   UNL A   1      31.325  25.737  22.866  1.00  0.00     0.283 C 
ATOM      7  N   UNL A   1      31.683  26.780  21.897  1.00  0.00    -0.319 N 
ATOM      8  S   UNL A   1      29.867  26.319  23.774  1.00  0.00    -0.087 SA
ATOM      9  H   UNL A   1      31.160  26.635  21.034  1.00  0.00     0.348 HD
ATOM     10  H   UNL A   1      32.683  26.732  21.703  1.00  0.00     0.348 HD
ATOM     11  C   UNL A   1      30.090  28.051  23.302  1.00  0.00     0.153 C 
BRANCH   6  12
ATOM     12  C   UNL A   1      32.492  25.323  23.730  1.00  0.00     0.128 A 
ATOM     13  C   UNL A   1      32.750  25.644  25.019  1.00  0.00     0.205 A 
ATOM     14  O   UNL A   1      33.946  25.363  25.656  1.00  0.00    -0.440 OA
ATOM     15  C   UNL A   1      34.838  24.521  25.064  1.00  0.00     0.140 A 
ATOM     16  C   UNL A   1      33.476  24.446  23.030  1.00  0.00     0.205 A 
ATOM     17  C   UNL A   1      35.960  24.163  25.812  1.00  0.00     0.051 A 
ATOM     18  C   UNL A   1      34.641  23.994  23.796  1.00  0.00     0.068 A 
ATOM     19  O   UNL A   1      33.322  24.059  21.877  1.00  0.00    -0.288 OA
ATOM     20  C   UNL A   1      36.851  23.221  25.305  1.00  0.00     0.043 A 
ATOM     21  C   UNL A   1      35.527  23.045  23.283  1.00  0.00     0.055 A 
ATOM     22  C   UNL A   1      36.616  22.657  24.054  1.00  0.00     0.124 A 
ATOM     23  F   UNL A   1      37.451  21.718  23.592  1.00  0.00    -0.207 F 
BRANCH  13  24
ATOM     24  N   UNL A   1      31.905  26.331  25.842  1.00  0.00    -0.369 N 
ATOM     25  H   UNL A   1      31.887  27.315  25.819  1.00  0.00     0.159 HD
ATOM     26  H   UNL A   1      31.313  25.843  26.459  1.00  0.00     0.159 HD
ENDBRANCH  13  24
ENDBRANCH   6  12
ENDBRANCH   3   5
ENDBRANCH   2   3
ENDBRANCH   1   2
BRANCH   1  27
ATOM     27  C   UNL A   1      32.676  29.945  26.699  1.00  0.00     0.275 C 
BRANCH  27  28
ATOM     28  O   UNL A   1      33.632  29.718  27.748  1.00  0.00    -0.458 OA
BRANCH  28  29
ATOM     29  C   UNL A   1      34.384  30.793  28.079  1.00  0.00     0.338 C 
ATOM     30  O   UNL A   1      34.024  31.939  28.283  1.00  0.00    -0.246 OA
BRANCH  29  31
ATOM     31  C   UNL A   1      35.735  30.303  28.360  1.00  0.00     0.060 A 
ATOM     32  C   UNL A   1      36.733  30.364  27.393  1.00  0.00     0.016 A 
ATOM     33  C   UNL A   1      35.991  29.767  29.623  1.00  0.00     0.016 A 
ATOM     34  C   UNL A   1      37.993  29.858  27.700  1.00  0.00     0.010 A 
ATOM     35  C   UNL A   1      37.247  29.271  29.936  1.00  0.00     0.010 A 
ATOM     36  C   UNL A   1      38.256  29.312  28.971  1.00  0.00    -0.014 A 
BRANCH  36  37
ATOM     37  C   UNL A   1      39.619  28.874  29.323  1.00  0.00     0.031 A 
ATOM     38  C   UNL A   1      40.490  29.705  30.212  1.00  0.00     0.074 A 
ATOM     39  C   UNL A   1      40.053  27.708  28.813  1.00  0.00     0.049 A 
ATOM     40  N   UNL A   1      41.655  29.401  30.723  1.00  0.00    -0.248 NA
ATOM     41  C   UNL A   1      40.007  31.049  30.565  1.00  0.00     0.031 C 
ATOM     42  C   UNL A   1      39.289  26.869  27.886  1.00  0.00     0.029 A 
ATOM     43  N   UNL A   1      41.214  27.013  29.018  1.00  0.00    -0.354 N 
ATOM     44  C   UNL A   1      42.031  30.503  31.478  1.00  0.00     0.074 A 
ATOM     45  C   UNL A   1      41.008  31.510  31.303  1.00  0.00     0.031 C 
ATOM     46  C   UNL A   1      39.971  25.738  27.660  1.00  0.00     0.029 A 
ATOM     47  C   UNL A   1      41.233  25.791  28.392  1.00  0.00     0.049 A 
ATOM     48  H   UNL A   1      41.961  27.355  29.560  1.00  0.00     0.167 HD
ATOM     49  C   UNL A   1      43.120  30.637  32.271  1.00  0.00     0.031 A 
ATOM     50  C   UNL A   1      42.154  24.810  28.423  1.00  0.00     0.031 A 
ATOM     51  C   UNL A   1      44.132  29.623  32.409  1.00  0.00     0.049 A 
ATOM     52  C   UNL A   1      43.367  24.994  29.289  1.00  0.00     0.074 A 
ATOM     53  C   UNL A   1      45.260  29.639  33.209  1.00  0.00     0.029 A 
ATOM     54  N   UNL A   1      44.143  28.416  31.723  1.00  0.00    -0.354 N 
ATOM     55  N   UNL A   1      43.672  26.003  30.072  1.00  0.00    -0.248 NA
ATOM     56  C   UNL A   1      44.352  23.907  29.294  1.00  0.00     0.031 C 
ATOM     57  C   UNL A   1      45.990  28.477  32.952  1.00  0.00     0.029 A 
ATOM     58  C   UNL A   1      45.275  27.693  32.060  1.00  0.00     0.049 A 
ATOM     59  H   UNL A   1      43.448  28.116  31.094  1.00  0.00     0.167 HD
ATOM     60  C   UNL A   1      44.873  25.665  30.677  1.00  0.00     0.074 A 
ATOM     61  C   UNL A   1      45.230  24.349  30.187  1.00  0.00     0.031 C 
ATOM     62  C   UNL A   1      45.614  26.385  31.556  1.00  0.00     0.031 A 
BRANCH  49  63
ATOM     63  C   UNL A   1      43.270  31.906  33.067  1.00  0.00    -0.014 A 
ATOM     64  C   UNL A   1      44.037  32.969  32.565  1.00  0.00     0.009 A 
ATOM     65  C   UNL A   1      42.740  32.010  34.363  1.00  0.00     0.009 A 
ATOM     66  C   UNL A   1      44.287  34.099  33.349  1.00  0.00     0.001 A 
ATOM     67  C   UNL A   1      42.963  33.155  35.133  1.00  0.00     0.001 A 
ATOM     68  C   UNL A   1      43.746  34.192  34.630  1.00  0.00     0.000 A 
ENDBRANCH  49  63
BRANCH  50  69
ATOM     69  C   UNL A   1      41.900  23.557  27.665  1.00  0.00    -0.014 A 
ATOM     70  C   UNL A   1      41.208  22.488  28.262  1.00  0.00     0.009 A 
ATOM     71  C   UNL A   1      42.436  23.380  26.381  1.00  0.00     0.009 A 
ATOM     72  C   UNL A   1      41.095  21.260  27.607  1.00  0.00     0.001 A 
ATOM     73  C   UNL A   1      42.289  22.161  25.714  1.00  0.00     0.001 A 
ATOM     74  C   UNL A   1      41.633  21.098  26.333  1.00  0.00     0.000 A 
ENDBRANCH  50  69
BRANCH  62  75
ATOM     75  C   UNL A   1      46.894  25.775  32.059  1.00  0.00    -0.014 A 
ATOM     76  C   UNL A   1      46.913  25.122  33.303  1.00  0.00     0.009 A 
ATOM     77  C   UNL A   1      48.103  25.960  31.371  1.00  0.00     0.009 A 
ATOM     78  C   UNL A   1      48.118  24.695  33.862  1.00  0.00     0.001 A 
ATOM     79  C   UNL A   1      49.303  25.497  31.915  1.00  0.00     0.001 A 
ATOM     80  C   UNL A   1      49.310  24.880  33.166  1.00  0.00     0.000 A 
ENDBRANCH  62  75
ENDBRANCH  36  37
ENDBRANCH  29  31
ENDBRANCH  28  29
ENDBRANCH  27  28
ENDBRANCH   1  27
TORSDOF 13
ENDMDL
MODEL 3
REMARK VINA RESULT:     -10.8      2.974      7.846
REMARK SMILES Nc1oc2ccc(F)cc2c(=O)c1[C@@H]1[NH2+][C@H](C(=O)OCCOC(=O)c2ccc(-c3c4nc(c(-c5ccccc5)c5ccc([nH]5)c(-c5ccccc5)c5nc(c(-c6ccccc6)c6ccc3[nH]6)C=C5)C=C4)cc2)CS1
REMARK SMILES IDX 20 1 19 2 17 3 18 4 16 5 14 6 15 7 74 8 73 11 13 12 2 13
REMARK SMILES IDX 3 14 4 15 11 16 5 17 10 18 12 19 6 20 9 21 7 22 8 23 1 24
REMARK SMILES IDX 21 27 22 28 23 29 24 30 25 31 26 32 72 33 27 34 71 35 28 36
REMARK SMILES IDX 29 37 30 38 65 39 31 40 70 41 64 42 66 43 32 44 69 45 63 46
REMARK SMILES IDX 62 47 33 49 55 50 40 51 54 52 41 53 44 54 53 55 67 56 42 57
REMARK SMILES IDX 43 58 52 60 68 61 45 62 34 63 35 64 39 65 36 66 38 67 37 68
REMARK SMILES IDX 56 69 57 70 61 71 58 72 60 73 59 74 46 75 47 76 51 77 48 78
REMARK SMILES IDX 50 79 49 80
REMARK H PARENT 15 9 15 10 1 25 1 26 66 48 44 59
REMARK Flexibility Score: inf
ROOT
ATOM      1  C   UNL A   1      36.389  21.398  25.783  1.00  0.00     0.274 C 
ENDROOT
BRANCH   1   2
ATOM      2  O   UNL A   1      35.048  21.335  25.261  1.00  0.00    -0.458 OA
BRANCH   2   3
ATOM      3  C   UNL A   1      34.012  21.282  26.136  1.00  0.00     0.365 C 
ATOM      4  O   UNL A   1      34.091  21.584  27.324  1.00  0.00    -0.245 OA
BRANCH   3   5
ATOM      5  C   UNL A   1      32.674  20.882  25.479  1.00  0.00     0.304 C 
ATOM      6  C   UNL A   1      31.469  22.786  24.629  1.00  0.00     0.283 C 
ATOM      7  N   UNL A   1      31.554  21.817  25.727  1.00  0.00    -0.319 N 
ATOM      8  S   UNL A   1      31.999  21.940  23.115  1.00  0.00    -0.087 SA
ATOM      9  H   UNL A   1      30.681  21.292  25.785  1.00  0.00     0.348 HD
ATOM     10  H   UNL A   1      31.713  22.312  26.604  1.00  0.00     0.348 HD
ATOM     11  C   UNL A   1      32.823  20.589  23.992  1.00  0.00     0.153 C 
BRANCH   6  12
ATOM     12  C   UNL A   1      32.202  24.071  24.932  1.00  0.00     0.128 A 
ATOM     13  C   UNL A   1      33.419  24.475  24.502  1.00  0.00     0.205 A 
ATOM     14  O   UNL A   1      34.076  25.590  24.992  1.00  0.00    -0.440 OA
ATOM     15  C   UNL A   1      33.399  26.476  25.775  1.00  0.00     0.140 A 
ATOM     16  C   UNL A   1      31.451  24.991  25.836  1.00  0.00     0.205 A 
ATOM     17  C   UNL A   1      34.068  27.649  26.125  1.00  0.00     0.051 A 
ATOM     18  C   UNL A   1      32.090  26.265  26.182  1.00  0.00     0.068 A 
ATOM     19  O   UNL A   1      30.325  24.746  26.253  1.00  0.00    -0.288 OA
ATOM     20  C   UNL A   1      33.391  28.641  26.830  1.00  0.00     0.043 A 
ATOM     21  C   UNL A   1      31.403  27.257  26.885  1.00  0.00     0.055 A 
ATOM     22  C   UNL A   1      32.060  28.443  27.187  1.00  0.00     0.124 A 
ATOM     23  F   UNL A   1      31.402  29.419  27.825  1.00  0.00    -0.207 F 
BRANCH  13  24
ATOM     24  N   UNL A   1      34.185  23.820  23.581  1.00  0.00    -0.369 N 
ATOM     25  H   UNL A   1      33.966  23.884  22.623  1.00  0.00     0.159 HD
ATOM     26  H   UNL A   1      34.957  23.284  23.874  1.00  0.00     0.159 HD
ENDBRANCH  13  24
ENDBRANCH   6  12
ENDBRANCH   3   5
ENDBRANCH   2   3
ENDBRANCH   1   2
BRANCH   1  27
ATOM     27  C   UNL A   1      37.248  22.265  24.864  1.00  0.00     0.275 C 
BRANCH  27  28
ATOM     28  O   UNL A   1      37.785  23.368  25.613  1.00  0.00    -0.458 OA
BRANCH  28  29
ATOM     29  C   UNL A   1      38.960  23.120  26.235  1.00  0.00     0.338 C 
ATOM     30  O   UNL A   1      39.643  22.112  26.193  1.00  0.00    -0.246 OA
BRANCH  29  31
ATOM     31  C   UNL A   1      39.403  24.379  26.837  1.00  0.00     0.060 A 
ATOM     32  C   UNL A   1      40.165  25.289  26.113  1.00  0.00     0.016 A 
ATOM     33  C   UNL A   1      39.046  24.635  28.163  1.00  0.00     0.016 A 
ATOM     34  C   UNL A   1      40.587  26.457  26.740  1.00  0.00     0.010 A 
ATOM     35  C   UNL A   1      39.456  25.803  28.789  1.00  0.00     0.010 A 
ATOM     36  C   UNL A   1      40.233  26.720  28.078  1.00  0.00    -0.014 A 
BRANCH  36  37
ATOM     37  C   UNL A   1      40.596  28.006  28.702  1.00  0.00     0.031 A 
ATOM     38  C   UNL A   1      39.599  29.117  28.814  1.00  0.00     0.074 A 
ATOM     39  C   UNL A   1      41.852  28.147  29.160  1.00  0.00     0.049 A 
ATOM     40  N   UNL A   1      39.715  30.253  29.450  1.00  0.00    -0.248 NA
ATOM     41  C   UNL A   1      38.314  28.943  28.118  1.00  0.00     0.031 C 
ATOM     42  C   UNL A   1      42.903  27.136  29.032  1.00  0.00     0.029 A 
ATOM     43  N   UNL A   1      42.449  29.170  29.846  1.00  0.00    -0.354 N 
ATOM     44  C   UNL A   1      38.512  30.917  29.255  1.00  0.00     0.074 A 
ATOM     45  C   UNL A   1      37.707  30.092  28.382  1.00  0.00     0.031 C 
ATOM     46  C   UNL A   1      43.995  27.559  29.683  1.00  0.00     0.029 A 
ATOM     47  C   UNL A   1      43.734  28.883  30.238  1.00  0.00     0.049 A 
ATOM     48  H   UNL A   1      42.003  30.027  30.039  1.00  0.00     0.167 HD
ATOM     49  C   UNL A   1      38.115  32.095  29.788  1.00  0.00     0.031 A 
ATOM     50  C   UNL A   1      44.597  29.597  30.984  1.00  0.00     0.031 A 
ATOM     51  C   UNL A   1      38.948  32.905  30.638  1.00  0.00     0.049 A 
ATOM     52  C   UNL A   1      44.141  30.914  31.543  1.00  0.00     0.074 A 
ATOM     53  C   UNL A   1      38.636  34.099  31.261  1.00  0.00     0.029 A 
ATOM     54  N   UNL A   1      40.261  32.605  30.977  1.00  0.00    -0.354 N 
ATOM     55  N   UNL A   1      42.969  31.495  31.427  1.00  0.00    -0.248 NA
ATOM     56  C   UNL A   1      45.111  31.668  32.346  1.00  0.00     0.031 C 
ATOM     57  C   UNL A   1      39.781  34.560  31.914  1.00  0.00     0.029 A 
ATOM     58  C   UNL A   1      40.782  33.610  31.775  1.00  0.00     0.049 A 
ATOM     59  H   UNL A   1      40.748  31.798  30.695  1.00  0.00     0.167 HD
ATOM     60  C   UNL A   1      43.054  32.671  32.156  1.00  0.00     0.074 A 
ATOM     61  C   UNL A   1      44.384  32.711  32.729  1.00  0.00     0.031 C 
ATOM     62  C   UNL A   1      42.113  33.632  32.331  1.00  0.00     0.031 A 
BRANCH  49  63
ATOM     63  C   UNL A   1      36.718  32.576  29.495  1.00  0.00    -0.014 A 
ATOM     64  C   UNL A   1      36.459  33.334  28.342  1.00  0.00     0.009 A 
ATOM     65  C   UNL A   1      35.677  32.369  30.414  1.00  0.00     0.009 A 
ATOM     66  C   UNL A   1      35.196  33.891  28.127  1.00  0.00     0.001 A 
ATOM     67  C   UNL A   1      34.405  32.898  30.180  1.00  0.00     0.001 A 
ATOM     68  C   UNL A   1      34.169  33.669  29.043  1.00  0.00     0.000 A 
ENDBRANCH  49  63
BRANCH  50  69
ATOM     69  C   UNL A   1      45.933  29.023  31.289  1.00  0.00    -0.014 A 
ATOM     70  C   UNL A   1      46.118  28.197  32.413  1.00  0.00     0.009 A 
ATOM     71  C   UNL A   1      47.054  29.378  30.523  1.00  0.00     0.009 A 
ATOM     72  C   UNL A   1      47.396  27.776  32.784  1.00  0.00     0.001 A 
ATOM     73  C   UNL A   1      48.327  28.925  30.876  1.00  0.00     0.001 A 
ATOM     74  C   UNL A   1      48.499  28.137  32.014  1.00  0.00     0.000 A 
ENDBRANCH  50  69
BRANCH  62  75
ATOM     75  C   UNL A   1      42.473  34.822  33.179  1.00  0.00    -0.014 A 
ATOM     76  C   UNL A   1      42.014  34.897  34.505  1.00  0.00     0.009 A 
ATOM     77  C   UNL A   1      43.150  35.922  32.631  1.00  0.00     0.009 A 
ATOM     78  C   UNL A   1      42.196  36.060  35.254  1.00  0.00     0.001 A 
ATOM     79  C   UNL A   1      43.365  37.070  33.397  1.00  0.00     0.001 A 
ATOM     80  C   UNL A   1      42.875  37.143  34.700  1.00  0.00     0.000 A 
ENDBRANCH  62  75
ENDBRANCH  36  37
ENDBRANCH  29  31
ENDBRANCH  28  29
ENDBRANCH  27  28
ENDBRANCH   1  27
TORSDOF 13
ENDMDL
