MODEL 1
REMARK VINA RESULT:     -11.2      0.000      0.000
REMARK SMILES Cc1ccn2c([C@H]3C[C@@H]3C(=O)OCCOC(=O)c3ccc(-c4c5nc(c(-c6ccccc6)c6ccc([nH]6)c(-c6ccccc6)c6nc(c(-c7ccccc7)c7ccc4[nH]7)C=C6)C=C5)cc3)nnc2c1
REMARK SMILES IDX 14 1 13 2 12 3 10 4 11 5 9 6 7 7 8 8 6 9 1 10 2 11 3 12
REMARK SMILES IDX 69 13 4 14 68 15 5 16 67 17 66 18 15 19 16 20 17 21 18 22
REMARK SMILES IDX 19 23 65 24 20 25 64 26 21 27 22 28 23 29 58 30 24 31 63 32
REMARK SMILES IDX 57 33 59 34 25 35 62 36 56 37 55 38 26 40 48 41 33 42 47 43
REMARK SMILES IDX 34 44 37 45 46 46 60 47 35 48 36 49 45 51 61 52 38 53 27 54
REMARK SMILES IDX 28 55 32 56 29 57 31 58 30 59 49 60 50 61 54 62 51 63 53 64
REMARK SMILES IDX 52 65 39 66 40 67 44 68 41 69 43 70 42 71
REMARK H PARENT 59 39 37 50
REMARK Flexibility Score: inf
ROOT
ATOM      1  C   UNL A   1      34.472  32.626  28.296  1.00  0.00     0.275 C 
ENDROOT
BRANCH   1   2
ATOM      2  C   UNL A   1      33.865  33.982  27.923  1.00  0.00     0.274 C 
BRANCH   2   3
ATOM      3  O   UNL A   1      32.875  34.341  28.907  1.00  0.00    -0.462 OA
BRANCH   3   4
ATOM      4  C   UNL A   1      32.812  35.645  29.259  1.00  0.00     0.309 C 
ATOM      5  O   UNL A   1      32.110  36.506  28.731  1.00  0.00    -0.252 OA
BRANCH   4   6
ATOM      6  C   UNL A   1      33.655  35.969  30.423  1.00  0.00     0.110 C 
ATOM      7  C   UNL A   1      33.258  35.573  31.815  1.00  0.00     0.073 C 
ATOM      8  C   UNL A   1      33.318  37.030  31.427  1.00  0.00     0.028 C 
BRANCH   7   9
ATOM      9  C   UNL A   1      34.330  35.063  32.762  1.00  0.00     0.141 A 
ATOM     10  C   UNL A   1      37.324  30.380  32.867  1.00  0.00     0.044 C 
ATOM     11  C   UNL A   1      36.515  31.638  32.866  1.00  0.00    -0.046 A 
ATOM     12  C   UNL A   1      35.405  31.669  31.912  1.00  0.00     0.022 A 
ATOM     13  C   UNL A   1      36.766  32.690  33.680  1.00  0.00     0.053 A 
ATOM     14  C   UNL A   1      34.672  32.784  31.802  1.00  0.00     0.095 A 
ATOM     15  C   UNL A   1      35.929  33.838  33.619  1.00  0.00     0.161 A 
ATOM     16  N   UNL A   1      34.956  33.855  32.637  1.00  0.00    -0.286 N 
ATOM     17  N   UNL A   1      35.818  34.925  34.355  1.00  0.00    -0.130 NA
ATOM     18  N   UNL A   1      34.769  35.671  33.845  1.00  0.00    -0.134 NA
ENDBRANCH   7   9
ENDBRANCH   4   6
ENDBRANCH   3   4
ENDBRANCH   2   3
ENDBRANCH   1   2
BRANCH   1  19
ATOM     19  O   UNL A   1      35.824  32.582  27.813  1.00  0.00    -0.458 OA
BRANCH  19  20
ATOM     20  C   UNL A   1      36.776  33.077  28.645  1.00  0.00     0.338 C 
ATOM     21  O   UNL A   1      36.832  34.202  29.108  1.00  0.00    -0.246 OA
BRANCH  20  22
ATOM     22  C   UNL A   1      37.528  31.916  29.179  1.00  0.00     0.060 A 
ATOM     23  C   UNL A   1      38.742  32.090  29.852  1.00  0.00     0.016 A 
ATOM     24  C   UNL A   1      37.135  30.646  28.740  1.00  0.00     0.016 A 
ATOM     25  C   UNL A   1      39.640  31.031  29.920  1.00  0.00     0.010 A 
ATOM     26  C   UNL A   1      38.040  29.590  28.808  1.00  0.00     0.010 A 
ATOM     27  C   UNL A   1      39.322  29.806  29.323  1.00  0.00    -0.014 A 
BRANCH  27  28
ATOM     28  C   UNL A   1      40.281  28.710  29.445  1.00  0.00     0.031 A 
ATOM     29  C   UNL A   1      40.651  28.450  30.854  1.00  0.00     0.074 A 
ATOM     30  C   UNL A   1      40.781  27.920  28.469  1.00  0.00     0.049 A 
ATOM     31  N   UNL A   1      41.799  28.668  31.404  1.00  0.00    -0.248 NA
ATOM     32  C   UNL A   1      39.591  28.046  31.787  1.00  0.00     0.031 C 
ATOM     33  C   UNL A   1      40.406  27.834  27.064  1.00  0.00     0.029 A 
ATOM     34  N   UNL A   1      41.706  26.919  28.586  1.00  0.00    -0.354 N 
ATOM     35  C   UNL A   1      41.654  28.293  32.731  1.00  0.00     0.074 A 
ATOM     36  C   UNL A   1      40.247  28.078  32.946  1.00  0.00     0.031 C 
ATOM     37  C   UNL A   1      40.872  26.678  26.533  1.00  0.00     0.029 A 
ATOM     38  C   UNL A   1      41.750  26.054  27.499  1.00  0.00     0.049 A 
ATOM     39  H   UNL A   1      42.292  26.821  29.372  1.00  0.00     0.167 HD
ATOM     40  C   UNL A   1      42.725  27.988  33.509  1.00  0.00     0.031 A 
ATOM     41  C   UNL A   1      42.458  24.902  27.397  1.00  0.00     0.031 A 
ATOM     42  C   UNL A   1      43.961  28.446  32.932  1.00  0.00     0.049 A 
ATOM     43  C   UNL A   1      43.568  24.980  28.365  1.00  0.00     0.074 A 
ATOM     44  C   UNL A   1      44.490  29.681  32.618  1.00  0.00     0.029 A 
ATOM     45  N   UNL A   1      44.707  27.522  32.242  1.00  0.00    -0.354 N 
ATOM     46  N   UNL A   1      44.568  25.805  28.255  1.00  0.00    -0.248 NA
ATOM     47  C   UNL A   1      43.384  24.392  29.681  1.00  0.00     0.031 C 
ATOM     48  C   UNL A   1      45.241  29.474  31.425  1.00  0.00     0.029 A 
ATOM     49  C   UNL A   1      45.170  28.118  31.098  1.00  0.00     0.049 A 
ATOM     50  H   UNL A   1      44.879  26.594  32.521  1.00  0.00     0.167 HD
ATOM     51  C   UNL A   1      44.846  26.189  29.556  1.00  0.00     0.074 A 
ATOM     52  C   UNL A   1      44.187  25.188  30.391  1.00  0.00     0.031 C 
ATOM     53  C   UNL A   1      45.340  27.431  29.831  1.00  0.00     0.031 A 
BRANCH  40  54
ATOM     54  C   UNL A   1      42.672  26.965  34.611  1.00  0.00    -0.014 A 
ATOM     55  C   UNL A   1      42.043  27.192  35.850  1.00  0.00     0.009 A 
ATOM     56  C   UNL A   1      43.045  25.641  34.327  1.00  0.00     0.009 A 
ATOM     57  C   UNL A   1      41.808  26.166  36.767  1.00  0.00     0.001 A 
ATOM     58  C   UNL A   1      42.769  24.600  35.223  1.00  0.00     0.001 A 
ATOM     59  C   UNL A   1      42.152  24.864  36.442  1.00  0.00     0.000 A 
ENDBRANCH  40  54
BRANCH  41  60
ATOM     60  C   UNL A   1      42.072  23.622  26.764  1.00  0.00    -0.014 A 
ATOM     61  C   UNL A   1      40.794  23.084  27.002  1.00  0.00     0.009 A 
ATOM     62  C   UNL A   1      43.045  22.778  26.202  1.00  0.00     0.009 A 
ATOM     63  C   UNL A   1      40.519  21.735  26.749  1.00  0.00     0.001 A 
ATOM     64  C   UNL A   1      42.767  21.428  25.945  1.00  0.00     0.001 A 
ATOM     65  C   UNL A   1      41.511  20.903  26.237  1.00  0.00     0.000 A 
ENDBRANCH  41  60
BRANCH  53  66
ATOM     66  C   UNL A   1      45.844  28.273  28.679  1.00  0.00    -0.014 A 
ATOM     67  C   UNL A   1      44.901  28.949  27.889  1.00  0.00     0.009 A 
ATOM     68  C   UNL A   1      47.183  28.265  28.248  1.00  0.00     0.009 A 
ATOM     69  C   UNL A   1      45.275  29.578  26.698  1.00  0.00     0.001 A 
ATOM     70  C   UNL A   1      47.563  28.919  27.070  1.00  0.00     0.001 A 
ATOM     71  C   UNL A   1      46.606  29.564  26.290  1.00  0.00     0.000 A 
ENDBRANCH  53  66
ENDBRANCH  27  28
ENDBRANCH  20  22
ENDBRANCH  19  20
ENDBRANCH   1  19
TORSDOF 12
ENDMDL
MODEL 2
REMARK VINA RESULT:     -10.8      1.747      2.433
REMARK SMILES Cc1ccn2c([C@H]3C[C@@H]3C(=O)OCCOC(=O)c3ccc(-c4c5nc(c(-c6ccccc6)c6ccc([nH]6)c(-c6ccccc6)c6nc(c(-c7ccccc7)c7ccc4[nH]7)C=C6)C=C5)cc3)nnc2c1
REMARK SMILES IDX 14 1 13 2 12 3 10 4 11 5 9 6 7 7 8 8 6 9 1 10 2 11 3 12
REMARK SMILES IDX 69 13 4 14 68 15 5 16 67 17 66 18 15 19 16 20 17 21 18 22
REMARK SMILES IDX 19 23 65 24 20 25 64 26 21 27 22 28 23 29 58 30 24 31 63 32
REMARK SMILES IDX 57 33 59 34 25 35 62 36 56 37 55 38 26 40 48 41 33 42 47 43
REMARK SMILES IDX 34 44 37 45 46 46 60 47 35 48 36 49 45 51 61 52 38 53 27 54
REMARK SMILES IDX 28 55 32 56 29 57 31 58 30 59 49 60 50 61 54 62 51 63 53 64
REMARK SMILES IDX 52 65 39 66 40 67 44 68 41 69 43 70 42 71
REMARK H PARENT 59 39 37 50
REMARK Flexibility Score: inf
ROOT
ATOM      1  C   UNL A   1      34.311  34.458  28.040  1.00  0.00     0.275 C 
ENDROOT
BRANCH   1   2
ATOM      2  C   UNL A   1      33.834  35.434  29.120  1.00  0.00     0.274 C 
BRANCH   2   3
ATOM      3  O   UNL A   1      33.409  34.687  30.276  1.00  0.00    -0.462 OA
BRANCH   3   4
ATOM      4  C   UNL A   1      33.735  35.197  31.485  1.00  0.00     0.309 C 
ATOM      5  O   UNL A   1      33.682  36.382  31.811  1.00  0.00    -0.252 OA
BRANCH   4   6
ATOM      6  C   UNL A   1      34.135  34.164  32.457  1.00  0.00     0.110 C 
ATOM      7  C   UNL A   1      35.563  33.730  32.601  1.00  0.00     0.073 C 
ATOM      8  C   UNL A   1      34.527  32.768  32.077  1.00  0.00     0.028 C 
BRANCH   7   9
ATOM      9  C   UNL A   1      36.110  33.470  33.994  1.00  0.00     0.141 A 
ATOM     10  C   UNL A   1      40.809  31.112  35.800  1.00  0.00     0.044 C 
ATOM     11  C   UNL A   1      39.531  31.733  35.334  1.00  0.00    -0.046 A 
ATOM     12  C   UNL A   1      39.253  31.596  33.903  1.00  0.00     0.022 A 
ATOM     13  C   UNL A   1      38.671  32.381  36.154  1.00  0.00     0.053 A 
ATOM     14  C   UNL A   1      38.161  32.180  33.393  1.00  0.00     0.095 A 
ATOM     15  C   UNL A   1      37.469  32.924  35.620  1.00  0.00     0.161 A 
ATOM     16  N   UNL A   1      37.301  32.851  34.250  1.00  0.00    -0.286 N 
ATOM     17  N   UNL A   1      36.393  33.459  36.160  1.00  0.00    -0.130 NA
ATOM     18  N   UNL A   1      35.512  33.752  35.133  1.00  0.00    -0.134 NA
ENDBRANCH   7   9
ENDBRANCH   4   6
ENDBRANCH   3   4
ENDBRANCH   2   3
ENDBRANCH   1   2
BRANCH   1  19
ATOM     19  O   UNL A   1      35.173  33.485  28.650  1.00  0.00    -0.458 OA
BRANCH  19  20
ATOM     20  C   UNL A   1      34.847  32.183  28.450  1.00  0.00     0.338 C 
ATOM     21  O   UNL A   1      33.966  31.751  27.727  1.00  0.00    -0.246 OA
BRANCH  20  22
ATOM     22  C   UNL A   1      35.971  31.372  28.974  1.00  0.00     0.060 A 
ATOM     23  C   UNL A   1      37.117  31.979  29.498  1.00  0.00     0.016 A 
ATOM     24  C   UNL A   1      35.968  30.006  28.668  1.00  0.00     0.016 A 
ATOM     25  C   UNL A   1      38.308  31.264  29.539  1.00  0.00     0.010 A 
ATOM     26  C   UNL A   1      37.164  29.295  28.708  1.00  0.00     0.010 A 
ATOM     27  C   UNL A   1      38.349  29.948  29.063  1.00  0.00    -0.014 A 
BRANCH  27  28
ATOM     28  C   UNL A   1      39.614  29.221  29.153  1.00  0.00     0.031 A 
ATOM     29  C   UNL A   1      39.948  28.858  30.549  1.00  0.00     0.074 A 
ATOM     30  C   UNL A   1      40.422  28.817  28.150  1.00  0.00     0.049 A 
ATOM     31  N   UNL A   1      40.909  29.342  31.263  1.00  0.00    -0.248 NA
ATOM     32  C   UNL A   1      39.026  27.977  31.277  1.00  0.00     0.031 C 
ATOM     33  C   UNL A   1      40.202  28.856  26.709  1.00  0.00     0.029 A 
ATOM     34  N   UNL A   1      41.624  28.169  28.243  1.00  0.00    -0.354 N 
ATOM     35  C   UNL A   1      40.806  28.719  32.498  1.00  0.00     0.074 A 
ATOM     36  C   UNL A   1      39.546  28.022  32.502  1.00  0.00     0.031 C 
ATOM     37  C   UNL A   1      41.072  28.024  26.088  1.00  0.00     0.029 A 
ATOM     38  C   UNL A   1      42.039  27.565  27.062  1.00  0.00     0.049 A 
ATOM     39  H   UNL A   1      42.149  28.134  29.076  1.00  0.00     0.167 HD
ATOM     40  C   UNL A   1      41.858  28.651  33.355  1.00  0.00     0.031 A 
ATOM     41  C   UNL A   1      43.104  26.743  26.892  1.00  0.00     0.031 A 
ATOM     42  C   UNL A   1      42.900  29.579  33.006  1.00  0.00     0.049 A 
ATOM     43  C   UNL A   1      44.048  27.012  27.994  1.00  0.00     0.074 A 
ATOM     44  C   UNL A   1      42.996  30.953  32.933  1.00  0.00     0.029 A 
ATOM     45  N   UNL A   1      43.965  29.082  32.295  1.00  0.00    -0.354 N 
ATOM     46  N   UNL A   1      44.710  28.125  28.124  1.00  0.00    -0.248 NA
ATOM     47  C   UNL A   1      43.981  26.180  29.183  1.00  0.00     0.031 C 
ATOM     48  C   UNL A   1      43.857  31.211  31.827  1.00  0.00     0.029 A 
ATOM     49  C   UNL A   1      44.277  29.984  31.310  1.00  0.00     0.049 A 
ATOM     50  H   UNL A   1      44.424  28.229  32.463  1.00  0.00     0.167 HD
ATOM     51  C   UNL A   1      44.745  28.348  29.490  1.00  0.00     0.074 A 
ATOM     52  C   UNL A   1      44.410  27.060  30.091  1.00  0.00     0.031 C 
ATOM     53  C   UNL A   1      44.763  29.618  29.993  1.00  0.00     0.031 A 
BRANCH  40  54
ATOM     54  C   UNL A   1      42.079  27.494  34.290  1.00  0.00    -0.014 A 
ATOM     55  C   UNL A   1      42.823  26.349  33.944  1.00  0.00     0.009 A 
ATOM     56  C   UNL A   1      41.747  27.642  35.646  1.00  0.00     0.009 A 
ATOM     57  C   UNL A   1      43.205  25.394  34.887  1.00  0.00     0.001 A 
ATOM     58  C   UNL A   1      42.169  26.712  36.604  1.00  0.00     0.001 A 
ATOM     59  C   UNL A   1      42.896  25.588  36.224  1.00  0.00     0.000 A 
ENDBRANCH  40  54
BRANCH  41  60
ATOM     60  C   UNL A   1      43.225  25.535  26.047  1.00  0.00    -0.014 A 
ATOM     61  C   UNL A   1      42.298  24.488  26.189  1.00  0.00     0.009 A 
ATOM     62  C   UNL A   1      44.414  25.269  25.345  1.00  0.00     0.009 A 
ATOM     63  C   UNL A   1      42.577  23.204  25.705  1.00  0.00     0.001 A 
ATOM     64  C   UNL A   1      44.690  23.984  24.857  1.00  0.00     0.001 A 
ATOM     65  C   UNL A   1      43.781  22.948  25.055  1.00  0.00     0.000 A 
ENDBRANCH  41  60
BRANCH  53  66
ATOM     66  C   UNL A   1      45.030  30.763  29.039  1.00  0.00    -0.014 A 
ATOM     67  C   UNL A   1      43.985  31.186  28.203  1.00  0.00     0.009 A 
ATOM     68  C   UNL A   1      46.312  31.296  28.818  1.00  0.00     0.009 A 
ATOM     69  C   UNL A   1      44.214  32.096  27.167  1.00  0.00     0.001 A 
ATOM     70  C   UNL A   1      46.536  32.228  27.797  1.00  0.00     0.001 A 
ATOM     71  C   UNL A   1      45.489  32.617  26.965  1.00  0.00     0.000 A 
ENDBRANCH  53  66
ENDBRANCH  27  28
ENDBRANCH  20  22
ENDBRANCH  19  20
ENDBRANCH   1  19
TORSDOF 12
ENDMDL
MODEL 3
REMARK VINA RESULT:     -10.8      3.365      7.348
REMARK SMILES Cc1ccn2c([C@H]3C[C@@H]3C(=O)OCCOC(=O)c3ccc(-c4c5nc(c(-c6ccccc6)c6ccc([nH]6)c(-c6ccccc6)c6nc(c(-c7ccccc7)c7ccc4[nH]7)C=C6)C=C5)cc3)nnc2c1
REMARK SMILES IDX 14 1 13 2 12 3 10 4 11 5 9 6 7 7 8 8 6 9 1 10 2 11 3 12
REMARK SMILES IDX 69 13 4 14 68 15 5 16 67 17 66 18 15 19 16 20 17 21 18 22
REMARK SMILES IDX 19 23 65 24 20 25 64 26 21 27 22 28 23 29 58 30 24 31 63 32
REMARK SMILES IDX 57 33 59 34 25 35 62 36 56 37 55 38 26 40 48 41 33 42 47 43
REMARK SMILES IDX 34 44 37 45 46 46 60 47 35 48 36 49 45 51 61 52 38 53 27 54
REMARK SMILES IDX 28 55 32 56 29 57 31 58 30 59 49 60 50 61 54 62 51 63 53 64
REMARK SMILES IDX 52 65 39 66 40 67 44 68 41 69 43 70 42 71
REMARK H PARENT 59 39 37 50
REMARK Flexibility Score: inf
ROOT
ATOM      1  C   UNL A   1      32.932  36.233  32.191  1.00  0.00     0.275 C 
ENDROOT
BRANCH   1   2
ATOM      2  C   UNL A   1      34.241  36.348  32.977  1.00  0.00     0.274 C 
BRANCH   2   3
ATOM      3  O   UNL A   1      34.559  35.066  33.552  1.00  0.00    -0.462 OA
BRANCH   3   4
ATOM      4  C   UNL A   1      35.859  34.692  33.523  1.00  0.00     0.309 C 
ATOM      5  O   UNL A   1      36.759  35.243  32.893  1.00  0.00    -0.252 OA
BRANCH   4   6
ATOM      6  C   UNL A   1      36.146  33.540  34.396  1.00  0.00     0.110 C 
ATOM      7  C   UNL A   1      37.529  33.265  34.907  1.00  0.00     0.073 C 
ATOM      8  C   UNL A   1      36.872  32.310  33.941  1.00  0.00     0.028 C 
BRANCH   7   9
ATOM      9  C   UNL A   1      37.699  32.796  36.340  1.00  0.00     0.141 A 
ATOM     10  C   UNL A   1      39.760  35.260  40.877  1.00  0.00     0.044 C 
ATOM     11  C   UNL A   1      39.219  34.574  39.664  1.00  0.00    -0.046 A 
ATOM     12  C   UNL A   1      39.436  35.276  38.398  1.00  0.00     0.022 A 
ATOM     13  C   UNL A   1      38.571  33.387  39.702  1.00  0.00     0.053 A 
ATOM     14  C   UNL A   1      38.925  34.761  37.272  1.00  0.00     0.095 A 
ATOM     15  C   UNL A   1      38.107  32.802  38.491  1.00  0.00     0.161 A 
ATOM     16  N   UNL A   1      38.252  33.549  37.337  1.00  0.00    -0.286 N 
ATOM     17  N   UNL A   1      37.594  31.628  38.184  1.00  0.00    -0.130 NA
ATOM     18  N   UNL A   1      37.389  31.606  36.815  1.00  0.00    -0.134 NA
ENDBRANCH   7   9
ENDBRANCH   4   6
ENDBRANCH   3   4
ENDBRANCH   2   3
ENDBRANCH   1   2
BRANCH   1  19
ATOM     19  O   UNL A   1      32.908  34.961  31.525  1.00  0.00    -0.458 OA
BRANCH  19  20
ATOM     20  C   UNL A   1      33.060  34.985  30.176  1.00  0.00     0.338 C 
ATOM     21  O   UNL A   1      32.561  35.778  29.397  1.00  0.00    -0.246 OA
BRANCH  20  22
ATOM     22  C   UNL A   1      34.215  34.113  29.857  1.00  0.00     0.060 A 
ATOM     23  C   UNL A   1      34.553  33.032  30.679  1.00  0.00     0.016 A 
ATOM     24  C   UNL A   1      35.111  34.572  28.884  1.00  0.00     0.016 A 
ATOM     25  C   UNL A   1      35.851  32.536  30.652  1.00  0.00     0.010 A 
ATOM     26  C   UNL A   1      36.410  34.074  28.864  1.00  0.00     0.010 A 
ATOM     27  C   UNL A   1      36.802  33.116  29.804  1.00  0.00    -0.014 A 
BRANCH  27  28
ATOM     28  C   UNL A   1      38.147  32.544  29.784  1.00  0.00     0.031 A 
ATOM     29  C   UNL A   1      38.146  31.138  29.322  1.00  0.00     0.074 A 
ATOM     30  C   UNL A   1      39.321  33.151  30.064  1.00  0.00     0.049 A 
ATOM     31  N   UNL A   1      38.402  30.091  30.034  1.00  0.00    -0.248 NA
ATOM     32  C   UNL A   1      37.662  30.853  27.965  1.00  0.00     0.031 C 
ATOM     33  C   UNL A   1      39.599  34.559  30.318  1.00  0.00     0.029 A 
ATOM     34  N   UNL A   1      40.573  32.600  30.079  1.00  0.00    -0.354 N 
ATOM     35  C   UNL A   1      38.253  29.011  29.177  1.00  0.00     0.074 A 
ATOM     36  C   UNL A   1      37.643  29.522  27.976  1.00  0.00     0.031 C 
ATOM     37  C   UNL A   1      40.924  34.799  30.180  1.00  0.00     0.029 A 
ATOM     38  C   UNL A   1      41.606  33.529  30.040  1.00  0.00     0.049 A 
ATOM     39  H   UNL A   1      40.729  31.628  30.115  1.00  0.00     0.167 HD
ATOM     40  C   UNL A   1      38.828  27.808  29.434  1.00  0.00     0.031 A 
ATOM     41  C   UNL A   1      42.931  33.277  29.901  1.00  0.00     0.031 A 
ATOM     42  C   UNL A   1      39.257  27.697  30.804  1.00  0.00     0.049 A 
ATOM     43  C   UNL A   1      43.161  31.886  30.335  1.00  0.00     0.074 A 
ATOM     44  C   UNL A   1      38.618  27.700  32.027  1.00  0.00     0.029 A 
ATOM     45  N   UNL A   1      40.584  27.934  31.063  1.00  0.00    -0.354 N 
ATOM     46  N   UNL A   1      43.039  31.482  31.566  1.00  0.00    -0.248 NA
ATOM     47  C   UNL A   1      43.168  30.838  29.330  1.00  0.00     0.031 C 
ATOM     48  C   UNL A   1      39.512  28.367  32.914  1.00  0.00     0.029 A 
ATOM     49  C   UNL A   1      40.666  28.696  32.200  1.00  0.00     0.049 A 
ATOM     50  H   UNL A   1      41.344  27.614  30.527  1.00  0.00     0.167 HD
ATOM     51  C   UNL A   1      42.500  30.211  31.461  1.00  0.00     0.074 A 
ATOM     52  C   UNL A   1      42.734  29.818  30.074  1.00  0.00     0.031 C 
ATOM     53  C   UNL A   1      41.669  29.719  32.426  1.00  0.00     0.031 A 
BRANCH  40  54
ATOM     54  C   UNL A   1      39.315  26.884  28.352  1.00  0.00    -0.014 A 
ATOM     55  C   UNL A   1      40.216  27.279  27.344  1.00  0.00     0.009 A 
ATOM     56  C   UNL A   1      39.067  25.507  28.471  1.00  0.00     0.009 A 
ATOM     57  C   UNL A   1      40.827  26.361  26.488  1.00  0.00     0.001 A 
ATOM     58  C   UNL A   1      39.714  24.578  27.646  1.00  0.00     0.001 A 
ATOM     59  C   UNL A   1      40.592  25.006  26.655  1.00  0.00     0.000 A 
ENDBRANCH  40  54
BRANCH  41  60
ATOM     60  C   UNL A   1      43.948  34.028  29.133  1.00  0.00    -0.014 A 
ATOM     61  C   UNL A   1      43.689  34.390  27.800  1.00  0.00     0.009 A 
ATOM     62  C   UNL A   1      45.277  34.103  29.588  1.00  0.00     0.009 A 
ATOM     63  C   UNL A   1      44.727  34.752  26.934  1.00  0.00     0.001 A 
ATOM     64  C   UNL A   1      46.315  34.469  28.720  1.00  0.00     0.001 A 
ATOM     65  C   UNL A   1      46.042  34.774  27.389  1.00  0.00     0.000 A 
ENDBRANCH  41  60
BRANCH  53  66
ATOM     66  C   UNL A   1      41.575  30.466  33.740  1.00  0.00    -0.014 A 
ATOM     67  C   UNL A   1      40.875  31.682  33.762  1.00  0.00     0.009 A 
ATOM     68  C   UNL A   1      42.304  30.101  34.886  1.00  0.00     0.009 A 
ATOM     69  C   UNL A   1      40.916  32.518  34.881  1.00  0.00     0.001 A 
ATOM     70  C   UNL A   1      42.323  30.925  36.018  1.00  0.00     0.001 A 
ATOM     71  C   UNL A   1      41.639  32.138  36.009  1.00  0.00     0.000 A 
ENDBRANCH  53  66
ENDBRANCH  27  28
ENDBRANCH  20  22
ENDBRANCH  19  20
ENDBRANCH   1  19
TORSDOF 12
ENDMDL
