MODEL 1
REMARK VINA RESULT:      -9.5      0.000      0.000
REMARK SMILES CC(=O)Oc1ccccc1SCCCCCC(=O)OCCOC(=O)c1ccc(-c2c3nc(c(-c4ccccc4)c4ccc([nH]4)c(-c4ccccc4)c4nc(c(-c5ccccc5)c5ccc2[nH]5)C=C4)C=C3)cc1
REMARK SMILES IDX 16 1 15 2 14 3 13 4 12 5 11 6 10 7 5 8 6 9 7 10 9 11 8 12
REMARK SMILES IDX 4 13 2 14 1 15 3 16 17 17 18 18 19 19 20 20 21 21 22 22
REMARK SMILES IDX 23 23 24 24 25 25 26 26 72 27 27 28 71 29 28 30 29 31 30 32
REMARK SMILES IDX 65 33 31 34 70 35 64 36 66 37 32 38 69 39 63 40 62 41 33 43
REMARK SMILES IDX 55 44 40 45 54 46 41 47 44 48 53 49 67 50 42 51 43 52 52 54
REMARK SMILES IDX 68 55 45 56 34 57 35 58 39 59 36 60 38 61 37 62 56 63 57 64
REMARK SMILES IDX 61 65 58 66 60 67 59 68 46 69 47 70 51 71 48 72 50 73 49 74
REMARK H PARENT 66 42 44 53
REMARK Flexibility Score: inf
ROOT
ATOM      1  C   UNL A   1      39.546  21.204  25.689  1.00  0.00     0.123 C 
ENDROOT
BRANCH   1   2
ATOM      2  C   UNL A   1      38.213  20.480  25.396  1.00  0.00     0.012 C 
BRANCH   2   3
ATOM      3  C   UNL A   1      37.028  21.293  24.826  1.00  0.00     0.001 C 
BRANCH   3   4
ATOM      4  C   UNL A   1      36.823  22.804  25.049  1.00  0.00     0.011 C 
BRANCH   4   5
ATOM      5  C   UNL A   1      35.819  23.495  26.006  1.00  0.00     0.075 C 
BRANCH   5   6
ATOM      6  S   UNL A   1      34.272  22.831  26.756  1.00  0.00    -0.122 SA
BRANCH   6   7
ATOM      7  C   UNL A   1      33.494  21.774  25.558  1.00  0.00     0.050 A 
ATOM      8  C   UNL A   1      32.938  22.125  24.317  1.00  0.00     0.144 A 
ATOM      9  C   UNL A   1      32.516  21.128  23.422  1.00  0.00     0.048 A 
ATOM     10  C   UNL A   1      32.531  19.785  23.809  1.00  0.00     0.004 A 
ATOM     11  C   UNL A   1      33.363  20.436  25.971  1.00  0.00     0.019 A 
ATOM     12  C   UNL A   1      32.886  19.448  25.110  1.00  0.00     0.001 A 
BRANCH   8  13
ATOM     13  O   UNL A   1      32.611  23.462  23.990  1.00  0.00    -0.426 OA
BRANCH  13  14
ATOM     14  C   UNL A   1      31.324  23.771  24.308  1.00  0.00     0.308 C 
ATOM     15  C   UNL A   1      30.580  24.586  23.322  1.00  0.00     0.139 C 
ATOM     16  O   UNL A   1      30.756  23.417  25.330  1.00  0.00    -0.252 OA
ENDBRANCH  13  14
ENDBRANCH   8  13
ENDBRANCH   6   7
ENDBRANCH   5   6
ENDBRANCH   4   5
ENDBRANCH   3   4
ENDBRANCH   2   3
ENDBRANCH   1   2
BRANCH   1  17
ATOM     17  C   UNL A   1      40.529  20.372  26.460  1.00  0.00     0.305 C 
ATOM     18  O   UNL A   1      40.660  20.421  27.676  1.00  0.00    -0.252 OA
BRANCH  17  19
ATOM     19  O   UNL A   1      41.270  19.617  25.614  1.00  0.00    -0.462 OA
BRANCH  19  20
ATOM     20  C   UNL A   1      42.623  19.398  26.035  1.00  0.00     0.274 C 
BRANCH  20  21
ATOM     21  C   UNL A   1      43.542  20.418  25.349  1.00  0.00     0.275 C 
BRANCH  21  22
ATOM     22  O   UNL A   1      43.470  21.681  26.044  1.00  0.00    -0.458 OA
BRANCH  22  23
ATOM     23  C   UNL A   1      43.144  22.762  25.300  1.00  0.00     0.338 C 
ATOM     24  O   UNL A   1      43.167  22.866  24.086  1.00  0.00    -0.246 OA
BRANCH  23  25
ATOM     25  C   UNL A   1      42.825  23.891  26.189  1.00  0.00     0.060 A 
ATOM     26  C   UNL A   1      43.382  25.157  25.992  1.00  0.00     0.016 A 
ATOM     27  C   UNL A   1      42.007  23.641  27.290  1.00  0.00     0.016 A 
ATOM     28  C   UNL A   1      43.140  26.174  26.923  1.00  0.00     0.010 A 
ATOM     29  C   UNL A   1      41.714  24.675  28.178  1.00  0.00     0.010 A 
ATOM     30  C   UNL A   1      42.289  25.948  28.015  1.00  0.00    -0.014 A 
BRANCH  30  31
ATOM     31  C   UNL A   1      41.966  27.010  29.008  1.00  0.00     0.031 A 
ATOM     32  C   UNL A   1      42.732  27.073  30.304  1.00  0.00     0.074 A 
ATOM     33  C   UNL A   1      40.922  27.836  28.799  1.00  0.00     0.049 A 
ATOM     34  N   UNL A   1      42.439  27.703  31.412  1.00  0.00    -0.248 NA
ATOM     35  C   UNL A   1      43.986  26.302  30.366  1.00  0.00     0.031 C 
ATOM     36  C   UNL A   1      40.121  27.905  27.574  1.00  0.00     0.029 A 
ATOM     37  N   UNL A   1      40.329  28.755  29.633  1.00  0.00    -0.354 N 
ATOM     38  C   UNL A   1      43.435  27.358  32.319  1.00  0.00     0.074 A 
ATOM     39  C   UNL A   1      44.344  26.467  31.633  1.00  0.00     0.031 C 
ATOM     40  C   UNL A   1      39.138  28.804  27.739  1.00  0.00     0.029 A 
ATOM     41  C   UNL A   1      39.185  29.311  29.105  1.00  0.00     0.049 A 
ATOM     42  H   UNL A   1      40.685  28.992  30.519  1.00  0.00     0.167 HD
ATOM     43  C   UNL A   1      43.565  27.743  33.610  1.00  0.00     0.031 A 
ATOM     44  C   UNL A   1      38.244  30.088  29.675  1.00  0.00     0.031 A 
ATOM     45  C   UNL A   1      42.665  28.651  34.271  1.00  0.00     0.049 A 
ATOM     46  C   UNL A   1      38.387  30.455  31.128  1.00  0.00     0.074 A 
ATOM     47  C   UNL A   1      42.734  29.142  35.563  1.00  0.00     0.029 A 
ATOM     48  N   UNL A   1      41.533  29.202  33.691  1.00  0.00    -0.354 N 
ATOM     49  N   UNL A   1      39.339  30.137  31.971  1.00  0.00    -0.248 NA
ATOM     50  C   UNL A   1      37.323  31.284  31.710  1.00  0.00     0.031 C 
ATOM     51  C   UNL A   1      41.607  29.937  35.787  1.00  0.00     0.029 A 
ATOM     52  C   UNL A   1      40.879  30.003  34.609  1.00  0.00     0.049 A 
ATOM     53  H   UNL A   1      41.240  29.046  32.764  1.00  0.00     0.167 HD
ATOM     54  C   UNL A   1      39.009  30.759  33.168  1.00  0.00     0.074 A 
ATOM     55  C   UNL A   1      37.777  31.482  32.940  1.00  0.00     0.031 C 
ATOM     56  C   UNL A   1      39.668  30.736  34.351  1.00  0.00     0.031 A 
BRANCH  43  57
ATOM     57  C   UNL A   1      44.688  27.156  34.422  1.00  0.00    -0.014 A 
ATOM     58  C   UNL A   1      44.544  25.947  35.119  1.00  0.00     0.009 A 
ATOM     59  C   UNL A   1      45.943  27.788  34.414  1.00  0.00     0.009 A 
ATOM     60  C   UNL A   1      45.629  25.395  35.807  1.00  0.00     0.001 A 
ATOM     61  C   UNL A   1      47.032  27.221  35.078  1.00  0.00     0.001 A 
ATOM     62  C   UNL A   1      46.872  26.027  35.779  1.00  0.00     0.000 A 
ENDBRANCH  43  57
BRANCH  44  63
ATOM     63  C   UNL A   1      37.045  30.519  28.903  1.00  0.00    -0.014 A 
ATOM     64  C   UNL A   1      36.879  31.861  28.528  1.00  0.00     0.009 A 
ATOM     65  C   UNL A   1      36.035  29.599  28.576  1.00  0.00     0.009 A 
ATOM     66  C   UNL A   1      35.711  32.280  27.885  1.00  0.00     0.001 A 
ATOM     67  C   UNL A   1      34.887  30.012  27.898  1.00  0.00     0.001 A 
ATOM     68  C   UNL A   1      34.718  31.355  27.567  1.00  0.00     0.000 A 
ENDBRANCH  44  63
BRANCH  56  69
ATOM     69  C   UNL A   1      39.118  31.575  35.469  1.00  0.00    -0.014 A 
ATOM     70  C   UNL A   1      38.187  31.061  36.384  1.00  0.00     0.009 A 
ATOM     71  C   UNL A   1      39.598  32.882  35.645  1.00  0.00     0.009 A 
ATOM     72  C   UNL A   1      37.731  31.851  37.441  1.00  0.00     0.001 A 
ATOM     73  C   UNL A   1      39.166  33.657  36.720  1.00  0.00     0.001 A 
ATOM     74  C   UNL A   1      38.227  33.144  37.613  1.00  0.00     0.000 A 
ENDBRANCH  56  69
ENDBRANCH  30  31
ENDBRANCH  23  25
ENDBRANCH  22  23
ENDBRANCH  21  22
ENDBRANCH  20  21
ENDBRANCH  19  20
ENDBRANCH  17  19
ENDBRANCH   1  17
TORSDOF 19
ENDMDL
MODEL 2
REMARK VINA RESULT:      -9.3      4.685      6.778
REMARK SMILES CC(=O)Oc1ccccc1SCCCCCC(=O)OCCOC(=O)c1ccc(-c2c3nc(c(-c4ccccc4)c4ccc([nH]4)c(-c4ccccc4)c4nc(c(-c5ccccc5)c5ccc2[nH]5)C=C4)C=C3)cc1
REMARK SMILES IDX 16 1 15 2 14 3 13 4 12 5 11 6 10 7 5 8 6 9 7 10 9 11 8 12
REMARK SMILES IDX 4 13 2 14 1 15 3 16 17 17 18 18 19 19 20 20 21 21 22 22
REMARK SMILES IDX 23 23 24 24 25 25 26 26 72 27 27 28 71 29 28 30 29 31 30 32
REMARK SMILES IDX 65 33 31 34 70 35 64 36 66 37 32 38 69 39 63 40 62 41 33 43
REMARK SMILES IDX 55 44 40 45 54 46 41 47 44 48 53 49 67 50 42 51 43 52 52 54
REMARK SMILES IDX 68 55 45 56 34 57 35 58 39 59 36 60 38 61 37 62 56 63 57 64
REMARK SMILES IDX 61 65 58 66 60 67 59 68 46 69 47 70 51 71 48 72 50 73 49 74
REMARK H PARENT 66 42 44 53
REMARK Flexibility Score: inf
ROOT
ATOM      1  C   UNL A   1      40.351  22.278  26.441  1.00  0.00     0.123 C 
ENDROOT
BRANCH   1   2
ATOM      2  C   UNL A   1      39.189  21.462  25.834  1.00  0.00     0.012 C 
BRANCH   2   3
ATOM      3  C   UNL A   1      37.917  22.206  25.362  1.00  0.00     0.001 C 
BRANCH   3   4
ATOM      4  C   UNL A   1      36.484  21.839  25.793  1.00  0.00     0.011 C 
BRANCH   4   5
ATOM      5  C   UNL A   1      35.186  22.654  25.569  1.00  0.00     0.075 C 
BRANCH   5   6
ATOM      6  S   UNL A   1      34.861  24.032  24.389  1.00  0.00    -0.122 SA
BRANCH   6   7
ATOM      7  C   UNL A   1      33.716  25.152  25.159  1.00  0.00     0.050 A 
ATOM      8  C   UNL A   1      32.512  24.851  25.815  1.00  0.00     0.144 A 
ATOM      9  C   UNL A   1      31.817  25.852  26.515  1.00  0.00     0.048 A 
ATOM     10  C   UNL A   1      32.252  27.180  26.458  1.00  0.00     0.004 A 
ATOM     11  C   UNL A   1      34.046  26.510  25.001  1.00  0.00     0.019 A 
ATOM     12  C   UNL A   1      33.325  27.517  25.641  1.00  0.00     0.001 A 
BRANCH   8  13
ATOM     13  O   UNL A   1      31.857  23.607  25.656  1.00  0.00    -0.426 OA
BRANCH  13  14
ATOM     14  C   UNL A   1      31.404  23.107  26.838  1.00  0.00     0.308 C 
ATOM     15  C   UNL A   1      29.938  22.948  26.966  1.00  0.00     0.139 C 
ATOM     16  O   UNL A   1      32.117  22.779  27.774  1.00  0.00    -0.252 OA
ENDBRANCH  13  14
ENDBRANCH   8  13
ENDBRANCH   6   7
ENDBRANCH   5   6
ENDBRANCH   4   5
ENDBRANCH   3   4
ENDBRANCH   2   3
ENDBRANCH   1   2
BRANCH   1  17
ATOM     17  C   UNL A   1      41.625  21.498  26.588  1.00  0.00     0.305 C 
ATOM     18  O   UNL A   1      42.540  21.816  27.337  1.00  0.00    -0.252 OA
BRANCH  17  19
ATOM     19  O   UNL A   1      41.628  20.440  25.742  1.00  0.00    -0.462 OA
BRANCH  19  20
ATOM     20  C   UNL A   1      41.890  19.175  26.363  1.00  0.00     0.274 C 
BRANCH  20  21
ATOM     21  C   UNL A   1      43.154  18.558  25.749  1.00  0.00     0.275 C 
BRANCH  21  22
ATOM     22  O   UNL A   1      43.463  19.219  24.504  1.00  0.00    -0.458 OA
BRANCH  22  23
ATOM     23  C   UNL A   1      44.756  19.559  24.305  1.00  0.00     0.338 C 
ATOM     24  O   UNL A   1      45.675  18.832  23.969  1.00  0.00    -0.246 OA
BRANCH  23  25
ATOM     25  C   UNL A   1      44.949  20.977  24.651  1.00  0.00     0.060 A 
ATOM     26  C   UNL A   1      45.634  21.362  25.806  1.00  0.00     0.016 A 
ATOM     27  C   UNL A   1      44.355  21.933  23.829  1.00  0.00     0.016 A 
ATOM     28  C   UNL A   1      45.700  22.716  26.155  1.00  0.00     0.010 A 
ATOM     29  C   UNL A   1      44.480  23.285  24.145  1.00  0.00     0.010 A 
ATOM     30  C   UNL A   1      45.139  23.692  25.318  1.00  0.00    -0.014 A 
BRANCH  30  31
ATOM     31  C   UNL A   1      45.220  25.147  25.625  1.00  0.00     0.031 A 
ATOM     32  C   UNL A   1      46.556  25.841  25.580  1.00  0.00     0.074 A 
ATOM     33  C   UNL A   1      44.127  25.811  26.049  1.00  0.00     0.049 A 
ATOM     34  N   UNL A   1      46.909  26.998  26.080  1.00  0.00    -0.248 NA
ATOM     35  C   UNL A   1      47.649  25.126  24.898  1.00  0.00     0.031 C 
ATOM     36  C   UNL A   1      42.768  25.269  26.104  1.00  0.00     0.029 A 
ATOM     37  N   UNL A   1      43.994  27.084  26.555  1.00  0.00    -0.354 N 
ATOM     38  C   UNL A   1      48.271  27.120  25.830  1.00  0.00     0.074 A 
ATOM     39  C   UNL A   1      48.683  25.925  25.128  1.00  0.00     0.031 C 
ATOM     40  C   UNL A   1      41.944  26.192  26.624  1.00  0.00     0.029 A 
ATOM     41  C   UNL A   1      42.727  27.356  27.017  1.00  0.00     0.049 A 
ATOM     42  H   UNL A   1      44.732  27.735  26.583  1.00  0.00     0.167 HD
ATOM     43  C   UNL A   1      49.100  28.135  26.169  1.00  0.00     0.031 A 
ATOM     44  C   UNL A   1      42.260  28.396  27.735  1.00  0.00     0.031 A 
ATOM     45  C   UNL A   1      48.669  29.330  26.846  1.00  0.00     0.049 A 
ATOM     46  C   UNL A   1      43.217  29.484  28.145  1.00  0.00     0.074 A 
ATOM     47  C   UNL A   1      49.420  30.440  27.194  1.00  0.00     0.029 A 
ATOM     48  N   UNL A   1      47.374  29.570  27.276  1.00  0.00    -0.354 N 
ATOM     49  N   UNL A   1      44.498  29.598  27.889  1.00  0.00    -0.248 NA
ATOM     50  C   UNL A   1      42.665  30.585  28.947  1.00  0.00     0.031 C 
ATOM     51  C   UNL A   1      48.593  31.321  27.895  1.00  0.00     0.029 A 
ATOM     52  C   UNL A   1      47.311  30.795  27.914  1.00  0.00     0.049 A 
ATOM     53  H   UNL A   1      46.612  28.959  27.146  1.00  0.00     0.167 HD
ATOM     54  C   UNL A   1      44.894  30.799  28.463  1.00  0.00     0.074 A 
ATOM     55  C   UNL A   1      43.717  31.383  29.070  1.00  0.00     0.031 C 
ATOM     56  C   UNL A   1      46.122  31.369  28.486  1.00  0.00     0.031 A 
BRANCH  43  57
ATOM     57  C   UNL A   1      50.566  27.994  25.865  1.00  0.00    -0.014 A 
ATOM     58  C   UNL A   1      51.116  28.429  24.650  1.00  0.00     0.009 A 
ATOM     59  C   UNL A   1      51.427  27.491  26.856  1.00  0.00     0.009 A 
ATOM     60  C   UNL A   1      52.494  28.346  24.428  1.00  0.00     0.001 A 
ATOM     61  C   UNL A   1      52.806  27.435  26.643  1.00  0.00     0.001 A 
ATOM     62  C   UNL A   1      53.337  27.858  25.426  1.00  0.00     0.000 A 
ENDBRANCH  43  57
BRANCH  44  63
ATOM     63  C   UNL A   1      40.839  28.437  28.177  1.00  0.00    -0.014 A 
ATOM     64  C   UNL A   1      39.868  29.102  27.412  1.00  0.00     0.009 A 
ATOM     65  C   UNL A   1      40.450  27.851  29.394  1.00  0.00     0.009 A 
ATOM     66  C   UNL A   1      38.554  29.217  27.874  1.00  0.00     0.001 A 
ATOM     67  C   UNL A   1      39.128  27.933  29.835  1.00  0.00     0.001 A 
ATOM     68  C   UNL A   1      38.185  28.630  29.083  1.00  0.00     0.000 A 
ENDBRANCH  44  63
BRANCH  56  69
ATOM     69  C   UNL A   1      46.246  32.726  29.118  1.00  0.00    -0.014 A 
ATOM     70  C   UNL A   1      46.022  33.902  28.385  1.00  0.00     0.009 A 
ATOM     71  C   UNL A   1      46.524  32.820  30.491  1.00  0.00     0.009 A 
ATOM     72  C   UNL A   1      46.099  35.146  29.014  1.00  0.00     0.001 A 
ATOM     73  C   UNL A   1      46.566  34.062  31.122  1.00  0.00     0.001 A 
ATOM     74  C   UNL A   1      46.361  35.225  30.382  1.00  0.00     0.000 A 
ENDBRANCH  56  69
ENDBRANCH  30  31
ENDBRANCH  23  25
ENDBRANCH  22  23
ENDBRANCH  21  22
ENDBRANCH  20  21
ENDBRANCH  19  20
ENDBRANCH  17  19
ENDBRANCH   1  17
TORSDOF 19
ENDMDL
MODEL 3
REMARK VINA RESULT:      -8.7      1.370      2.241
REMARK SMILES CC(=O)Oc1ccccc1SCCCCCC(=O)OCCOC(=O)c1ccc(-c2c3nc(c(-c4ccccc4)c4ccc([nH]4)c(-c4ccccc4)c4nc(c(-c5ccccc5)c5ccc2[nH]5)C=C4)C=C3)cc1
REMARK SMILES IDX 16 1 15 2 14 3 13 4 12 5 11 6 10 7 5 8 6 9 7 10 9 11 8 12
REMARK SMILES IDX 4 13 2 14 1 15 3 16 17 17 18 18 19 19 20 20 21 21 22 22
REMARK SMILES IDX 23 23 24 24 25 25 26 26 72 27 27 28 71 29 28 30 29 31 30 32
REMARK SMILES IDX 65 33 31 34 70 35 64 36 66 37 32 38 69 39 63 40 62 41 33 43
REMARK SMILES IDX 55 44 40 45 54 46 41 47 44 48 53 49 67 50 42 51 43 52 52 54
REMARK SMILES IDX 68 55 45 56 34 57 35 58 39 59 36 60 38 61 37 62 56 63 57 64
REMARK SMILES IDX 61 65 58 66 60 67 59 68 46 69 47 70 51 71 48 72 50 73 49 74
REMARK H PARENT 66 42 44 53
REMARK Flexibility Score: inf
ROOT
ATOM      1  C   UNL A   1      39.530  22.108  26.488  1.00  0.00     0.123 C 
ENDROOT
BRANCH   1   2
ATOM      2  C   UNL A   1      38.275  21.751  25.662  1.00  0.00     0.012 C 
BRANCH   2   3
ATOM      3  C   UNL A   1      37.069  22.719  25.676  1.00  0.00     0.001 C 
BRANCH   3   4
ATOM      4  C   UNL A   1      36.198  23.042  24.446  1.00  0.00     0.011 C 
BRANCH   4   5
ATOM      5  C   UNL A   1      34.816  23.741  24.418  1.00  0.00     0.075 C 
BRANCH   5   6
ATOM      6  S   UNL A   1      34.337  25.409  25.038  1.00  0.00    -0.122 SA
BRANCH   6   7
ATOM      7  C   UNL A   1      32.772  25.834  24.310  1.00  0.00     0.050 A 
ATOM      8  C   UNL A   1      31.494  25.753  24.883  1.00  0.00     0.144 A 
ATOM      9  C   UNL A   1      30.382  26.295  24.216  1.00  0.00     0.048 A 
ATOM     10  C   UNL A   1      30.521  26.806  22.922  1.00  0.00     0.004 A 
ATOM     11  C   UNL A   1      32.854  26.220  22.959  1.00  0.00     0.019 A 
ATOM     12  C   UNL A   1      31.742  26.702  22.268  1.00  0.00     0.001 A 
BRANCH   8  13
ATOM     13  O   UNL A   1      31.235  24.981  26.039  1.00  0.00    -0.426 OA
BRANCH  13  14
ATOM     14  C   UNL A   1      30.869  23.705  25.737  1.00  0.00     0.308 C 
ATOM     15  C   UNL A   1      30.156  22.956  26.796  1.00  0.00     0.139 C 
ATOM     16  O   UNL A   1      31.079  23.156  24.666  1.00  0.00    -0.252 OA
ENDBRANCH  13  14
ENDBRANCH   8  13
ENDBRANCH   6   7
ENDBRANCH   5   6
ENDBRANCH   4   5
ENDBRANCH   3   4
ENDBRANCH   2   3
ENDBRANCH   1   2
BRANCH   1  17
ATOM     17  C   UNL A   1      40.512  20.979  26.613  1.00  0.00     0.305 C 
ATOM     18  O   UNL A   1      40.472  20.131  27.495  1.00  0.00    -0.252 OA
BRANCH  17  19
ATOM     19  O   UNL A   1      41.463  21.076  25.652  1.00  0.00    -0.462 OA
BRANCH  19  20
ATOM     20  C   UNL A   1      42.602  20.228  25.848  1.00  0.00     0.274 C 
BRANCH  20  21
ATOM     21  C   UNL A   1      43.883  21.020  25.554  1.00  0.00     0.275 C 
BRANCH  21  22
ATOM     22  O   UNL A   1      43.848  22.281  26.256  1.00  0.00    -0.458 OA
BRANCH  22  23
ATOM     23  C   UNL A   1      43.562  23.376  25.518  1.00  0.00     0.338 C 
ATOM     24  O   UNL A   1      43.674  23.512  24.312  1.00  0.00    -0.246 OA
BRANCH  23  25
ATOM     25  C   UNL A   1      43.161  24.477  26.408  1.00  0.00     0.060 A 
ATOM     26  C   UNL A   1      43.657  25.773  26.240  1.00  0.00     0.016 A 
ATOM     27  C   UNL A   1      42.327  24.174  27.483  1.00  0.00     0.016 A 
ATOM     28  C   UNL A   1      43.338  26.765  27.174  1.00  0.00     0.010 A 
ATOM     29  C   UNL A   1      41.957  25.181  28.373  1.00  0.00     0.010 A 
ATOM     30  C   UNL A   1      42.470  26.484  28.239  1.00  0.00    -0.014 A 
BRANCH  30  31
ATOM     31  C   UNL A   1      42.066  27.516  29.232  1.00  0.00     0.031 A 
ATOM     32  C   UNL A   1      42.812  27.625  30.536  1.00  0.00     0.074 A 
ATOM     33  C   UNL A   1      40.970  28.271  29.016  1.00  0.00     0.049 A 
ATOM     34  N   UNL A   1      42.467  28.229  31.644  1.00  0.00    -0.248 NA
ATOM     35  C   UNL A   1      44.115  26.941  30.609  1.00  0.00     0.031 C 
ATOM     36  C   UNL A   1      40.178  28.291  27.784  1.00  0.00     0.029 A 
ATOM     37  N   UNL A   1      40.307  29.144  29.848  1.00  0.00    -0.354 N 
ATOM     38  C   UNL A   1      43.474  27.948  32.560  1.00  0.00     0.074 A 
ATOM     39  C   UNL A   1      44.449  27.124  31.880  1.00  0.00     0.031 C 
ATOM     40  C   UNL A   1      39.134  29.120  27.942  1.00  0.00     0.029 A 
ATOM     41  C   UNL A   1      39.133  29.622  29.310  1.00  0.00     0.049 A 
ATOM     42  H   UNL A   1      40.638  29.400  30.738  1.00  0.00     0.167 HD
ATOM     43  C   UNL A   1      43.565  28.335  33.854  1.00  0.00     0.031 A 
ATOM     44  C   UNL A   1      38.135  30.330  29.874  1.00  0.00     0.031 A 
ATOM     45  C   UNL A   1      42.599  29.176  34.509  1.00  0.00     0.049 A 
ATOM     46  C   UNL A   1      38.239  30.700  31.330  1.00  0.00     0.074 A 
ATOM     47  C   UNL A   1      42.621  29.665  35.804  1.00  0.00     0.029 A 
ATOM     48  N   UNL A   1      41.438  29.652  33.920  1.00  0.00    -0.354 N 
ATOM     49  N   UNL A   1      39.202  30.443  32.181  1.00  0.00    -0.248 NA
ATOM     50  C   UNL A   1      37.115  31.452  31.905  1.00  0.00     0.031 C 
ATOM     51  C   UNL A   1      41.441  30.380  36.019  1.00  0.00     0.029 A 
ATOM     52  C   UNL A   1      40.722  30.402  34.835  1.00  0.00     0.049 A 
ATOM     53  H   UNL A   1      41.165  29.481  32.989  1.00  0.00     0.167 HD
ATOM     54  C   UNL A   1      38.819  31.036  33.378  1.00  0.00     0.074 A 
ATOM     55  C   UNL A   1      37.542  31.674  33.140  1.00  0.00     0.031 C 
ATOM     56  C   UNL A   1      39.466  31.052  34.567  1.00  0.00     0.031 A 
BRANCH  43  57
ATOM     57  C   UNL A   1      44.717  27.823  34.675  1.00  0.00    -0.014 A 
ATOM     58  C   UNL A   1      45.917  28.540  34.795  1.00  0.00     0.009 A 
ATOM     59  C   UNL A   1      44.560  26.636  35.412  1.00  0.00     0.009 A 
ATOM     60  C   UNL A   1      46.942  28.069  35.621  1.00  0.00     0.001 A 
ATOM     61  C   UNL A   1      45.574  26.183  36.258  1.00  0.00     0.001 A 
ATOM     62  C   UNL A   1      46.766  26.897  36.358  1.00  0.00     0.000 A 
ENDBRANCH  43  57
BRANCH  44  63
ATOM     63  C   UNL A   1      36.918  30.683  29.092  1.00  0.00    -0.014 A 
ATOM     64  C   UNL A   1      35.975  29.702  28.752  1.00  0.00     0.009 A 
ATOM     65  C   UNL A   1      36.715  31.997  28.639  1.00  0.00     0.009 A 
ATOM     66  C   UNL A   1      34.881  30.017  27.941  1.00  0.00     0.001 A 
ATOM     67  C   UNL A   1      35.601  32.319  27.862  1.00  0.00     0.001 A 
ATOM     68  C   UNL A   1      34.694  31.326  27.499  1.00  0.00     0.000 A 
ENDBRANCH  44  63
BRANCH  56  69
ATOM     69  C   UNL A   1      38.849  31.846  35.683  1.00  0.00    -0.014 A 
ATOM     70  C   UNL A   1      38.828  33.249  35.663  1.00  0.00     0.009 A 
ATOM     71  C   UNL A   1      38.215  31.168  36.737  1.00  0.00     0.009 A 
ATOM     72  C   UNL A   1      38.204  33.956  36.693  1.00  0.00     0.001 A 
ATOM     73  C   UNL A   1      37.564  31.877  37.745  1.00  0.00     0.001 A 
ATOM     74  C   UNL A   1      37.565  33.270  37.727  1.00  0.00     0.000 A 
ENDBRANCH  56  69
ENDBRANCH  30  31
ENDBRANCH  23  25
ENDBRANCH  22  23
ENDBRANCH  21  22
ENDBRANCH  20  21
ENDBRANCH  19  20
ENDBRANCH  17  19
ENDBRANCH   1  17
TORSDOF 19
ENDMDL
