MODEL 1
REMARK VINA RESULT:     -10.6      0.000      0.000
REMARK SMILES NC(=O)CC[N@@H+]1[C@@H](C(=O)OCCOC(=O)c2ccc(-c3c4nc(c(-c5ccccc5)c5ccc([nH]5)c(-c5ccccc5)c5nc(c(-c6ccccc6)c6ccc3[nH]6)C=C5)C=C4)cc2)CC[C@@H]2CCCC[C@H]21
REMARK SMILES IDX 11 1 10 2 8 3 9 4 7 5 6 6 71 7 64 9 66 10 70 11 65 12 67 13
REMARK SMILES IDX 69 14 68 15 5 16 4 17 2 18 1 19 3 22 12 23 13 24 14 25 15 26
REMARK SMILES IDX 16 27 17 28 63 29 18 30 62 31 19 32 20 33 21 34 56 35 22 36
REMARK SMILES IDX 61 37 55 38 57 39 23 40 60 41 54 42 53 43 24 45 46 46 31 47
REMARK SMILES IDX 45 48 32 49 35 50 44 51 58 52 33 53 34 54 43 56 59 57 36 58
REMARK SMILES IDX 25 59 26 60 30 61 27 62 29 63 28 64 47 65 48 66 52 67 49 68
REMARK SMILES IDX 51 69 50 70 37 71 38 72 42 73 39 74 41 75 40 76
REMARK H PARENT 6 8 1 20 1 21 57 44 35 55
REMARK Flexibility Score: inf
ROOT
ATOM      1  C   UNL A   1      38.683  21.274  25.727  1.00  0.00     0.274 C 
ENDROOT
BRANCH   1   2
ATOM      2  O   UNL A   1      37.242  21.250  25.750  1.00  0.00    -0.458 OA
BRANCH   2   3
ATOM      3  C   UNL A   1      36.633  22.070  24.851  1.00  0.00     0.365 C 
ATOM      4  O   UNL A   1      36.995  22.192  23.683  1.00  0.00    -0.245 OA
BRANCH   3   5
ATOM      5  C   UNL A   1      35.410  22.829  25.419  1.00  0.00     0.295 C 
ATOM      6  N   UNL A   1      34.095  22.114  25.243  1.00  0.00    -0.320 N 
ATOM      7  C   UNL A   1      33.015  22.878  25.946  1.00  0.00     0.187 C 
ATOM      8  H   UNL A   1      33.868  22.062  24.249  1.00  0.00     0.349 HD
ATOM      9  C   UNL A   1      35.349  24.258  24.867  1.00  0.00     0.078 C 
ATOM     10  C   UNL A   1      32.939  24.357  25.476  1.00  0.00     0.048 C 
ATOM     11  C   UNL A   1      31.613  22.251  25.749  1.00  0.00     0.065 C 
ATOM     12  C   UNL A   1      34.288  25.062  25.597  1.00  0.00     0.016 C 
ATOM     13  C   UNL A   1      31.877  25.136  26.266  1.00  0.00     0.010 C 
ATOM     14  C   UNL A   1      30.539  23.019  26.522  1.00  0.00     0.006 C 
ATOM     15  C   UNL A   1      30.503  24.492  26.139  1.00  0.00     0.001 C 
BRANCH   6  16
ATOM     16  C   UNL A   1      34.186  20.720  25.763  1.00  0.00     0.273 C 
BRANCH  16  17
ATOM     17  C   UNL A   1      33.863  19.665  24.704  1.00  0.00     0.161 C 
BRANCH  17  18
ATOM     18  C   UNL A   1      32.885  18.606  25.162  1.00  0.00     0.223 C 
ATOM     19  N   UNL A   1      32.903  18.353  26.501  1.00  0.00    -0.369 N 
ATOM     20  H   UNL A   1      32.296  17.678  26.883  1.00  0.00     0.159 HD
ATOM     21  H   UNL A   1      33.521  18.847  27.087  1.00  0.00     0.159 HD
ATOM     22  O   UNL A   1      32.150  17.981  24.407  1.00  0.00    -0.275 OA
ENDBRANCH  17  18
ENDBRANCH  16  17
ENDBRANCH   6  16
ENDBRANCH   3   5
ENDBRANCH   2   3
ENDBRANCH   1   2
BRANCH   1  23
ATOM     23  C   UNL A   1      39.298  19.893  25.459  1.00  0.00     0.275 C 
BRANCH  23  24
ATOM     24  O   UNL A   1      40.260  19.514  26.461  1.00  0.00    -0.458 OA
BRANCH  24  25
ATOM     25  C   UNL A   1      41.554  19.675  26.102  1.00  0.00     0.338 C 
ATOM     26  O   UNL A   1      42.221  18.933  25.400  1.00  0.00    -0.246 OA
BRANCH  25  27
ATOM     27  C   UNL A   1      42.045  20.992  26.538  1.00  0.00     0.060 A 
ATOM     28  C   UNL A   1      41.869  21.330  27.883  1.00  0.00     0.016 A 
ATOM     29  C   UNL A   1      42.586  21.915  25.644  1.00  0.00     0.016 A 
ATOM     30  C   UNL A   1      42.241  22.583  28.353  1.00  0.00     0.010 A 
ATOM     31  C   UNL A   1      42.936  23.188  26.108  1.00  0.00     0.010 A 
ATOM     32  C   UNL A   1      42.754  23.529  27.461  1.00  0.00    -0.014 A 
BRANCH  32  33
ATOM     33  C   UNL A   1      42.990  24.909  27.937  1.00  0.00     0.031 A 
ATOM     34  C   UNL A   1      44.391  25.343  28.252  1.00  0.00     0.074 A 
ATOM     35  C   UNL A   1      41.969  25.778  28.034  1.00  0.00     0.049 A 
ATOM     36  N   UNL A   1      44.814  26.477  28.748  1.00  0.00    -0.248 NA
ATOM     37  C   UNL A   1      45.459  24.372  27.964  1.00  0.00     0.031 C 
ATOM     38  C   UNL A   1      40.579  25.493  27.677  1.00  0.00     0.029 A 
ATOM     39  N   UNL A   1      41.949  27.080  28.462  1.00  0.00    -0.354 N 
ATOM     40  C   UNL A   1      46.193  26.347  28.856  1.00  0.00     0.074 A 
ATOM     41  C   UNL A   1      46.536  25.025  28.375  1.00  0.00     0.031 C 
ATOM     42  C   UNL A   1      39.839  26.590  27.907  1.00  0.00     0.029 A 
ATOM     43  C   UNL A   1      40.693  27.634  28.468  1.00  0.00     0.049 A 
ATOM     44  H   UNL A   1      42.757  27.570  28.738  1.00  0.00     0.167 HD
ATOM     45  C   UNL A   1      47.090  27.247  29.320  1.00  0.00     0.031 A 
ATOM     46  C   UNL A   1      40.278  28.837  28.907  1.00  0.00     0.031 A 
ATOM     47  C   UNL A   1      46.744  28.558  29.801  1.00  0.00     0.049 A 
ATOM     48  C   UNL A   1      41.283  29.791  29.489  1.00  0.00     0.074 A 
ATOM     49  C   UNL A   1      47.577  29.542  30.305  1.00  0.00     0.029 A 
ATOM     50  N   UNL A   1      45.454  29.065  29.835  1.00  0.00    -0.354 N 
ATOM     51  N   UNL A   1      42.581  29.649  29.613  1.00  0.00    -0.248 NA
ATOM     52  C   UNL A   1      40.765  31.070  29.996  1.00  0.00     0.031 C 
ATOM     53  C   UNL A   1      46.783  30.631  30.682  1.00  0.00     0.029 A 
ATOM     54  C   UNL A   1      45.465  30.342  30.368  1.00  0.00     0.049 A 
ATOM     55  H   UNL A   1      44.651  28.589  29.525  1.00  0.00     0.167 HD
ATOM     56  C   UNL A   1      43.036  30.823  30.198  1.00  0.00     0.074 A 
ATOM     57  C   UNL A   1      41.879  31.675  30.387  1.00  0.00     0.031 C 
ATOM     58  C   UNL A   1      44.299  31.168  30.549  1.00  0.00     0.031 A 
BRANCH  45  59
ATOM     59  C   UNL A   1      48.527  26.816  29.378  1.00  0.00    -0.014 A 
ATOM     60  C   UNL A   1      49.418  27.096  28.331  1.00  0.00     0.009 A 
ATOM     61  C   UNL A   1      48.995  26.127  30.508  1.00  0.00     0.009 A 
ATOM     62  C   UNL A   1      50.745  26.665  28.402  1.00  0.00     0.001 A 
ATOM     63  C   UNL A   1      50.328  25.718  30.585  1.00  0.00     0.001 A 
ATOM     64  C   UNL A   1      51.199  25.980  29.528  1.00  0.00     0.000 A 
ENDBRANCH  45  59
BRANCH  46  65
ATOM     65  C   UNL A   1      38.835  29.188  28.855  1.00  0.00    -0.014 A 
ATOM     66  C   UNL A   1      38.267  29.712  27.685  1.00  0.00     0.009 A 
ATOM     67  C   UNL A   1      38.022  29.004  29.984  1.00  0.00     0.009 A 
ATOM     68  C   UNL A   1      36.914  30.060  27.653  1.00  0.00     0.001 A 
ATOM     69  C   UNL A   1      36.664  29.328  29.940  1.00  0.00     0.001 A 
ATOM     70  C   UNL A   1      36.113  29.863  28.779  1.00  0.00     0.000 A 
ENDBRANCH  46  65
BRANCH  58  71
ATOM     71  C   UNL A   1      44.493  32.532  31.145  1.00  0.00    -0.014 A 
ATOM     72  C   UNL A   1      44.452  32.728  32.534  1.00  0.00     0.009 A 
ATOM     73  C   UNL A   1      44.758  33.625  30.307  1.00  0.00     0.009 A 
ATOM     74  C   UNL A   1      44.644  34.003  33.070  1.00  0.00     0.001 A 
ATOM     75  C   UNL A   1      44.973  34.893  30.848  1.00  0.00     0.001 A 
ATOM     76  C   UNL A   1      44.908  35.082  32.227  1.00  0.00     0.000 A 
ENDBRANCH  58  71
ENDBRANCH  32  33
ENDBRANCH  25  27
ENDBRANCH  24  25
ENDBRANCH  23  24
ENDBRANCH   1  23
TORSDOF 14
ENDMDL
MODEL 2
REMARK VINA RESULT:     -10.4      2.558      7.534
REMARK SMILES NC(=O)CC[N@@H+]1[C@@H](C(=O)OCCOC(=O)c2ccc(-c3c4nc(c(-c5ccccc5)c5ccc([nH]5)c(-c5ccccc5)c5nc(c(-c6ccccc6)c6ccc3[nH]6)C=C5)C=C4)cc2)CC[C@@H]2CCCC[C@H]21
REMARK SMILES IDX 11 1 10 2 8 3 9 4 7 5 6 6 71 7 64 9 66 10 70 11 65 12 67 13
REMARK SMILES IDX 69 14 68 15 5 16 4 17 2 18 1 19 3 22 12 23 13 24 14 25 15 26
REMARK SMILES IDX 16 27 17 28 63 29 18 30 62 31 19 32 20 33 21 34 56 35 22 36
REMARK SMILES IDX 61 37 55 38 57 39 23 40 60 41 54 42 53 43 24 45 46 46 31 47
REMARK SMILES IDX 45 48 32 49 35 50 44 51 58 52 33 53 34 54 43 56 59 57 36 58
REMARK SMILES IDX 25 59 26 60 30 61 27 62 29 63 28 64 47 65 48 66 52 67 49 68
REMARK SMILES IDX 51 69 50 70 37 71 38 72 42 73 39 74 41 75 40 76
REMARK H PARENT 6 8 1 20 1 21 57 44 35 55
REMARK Flexibility Score: inf
ROOT
ATOM      1  C   UNL A   1      31.909  27.801  26.827  1.00  0.00     0.274 C 
ENDROOT
BRANCH   1   2
ATOM      2  O   UNL A   1      31.151  27.711  25.604  1.00  0.00    -0.458 OA
BRANCH   2   3
ATOM      3  C   UNL A   1      31.045  26.460  25.078  1.00  0.00     0.365 C 
ATOM      4  O   UNL A   1      30.243  26.155  24.198  1.00  0.00    -0.245 OA
BRANCH   3   5
ATOM      5  C   UNL A   1      32.050  25.442  25.667  1.00  0.00     0.295 C 
ATOM      6  N   UNL A   1      33.156  25.041  24.724  1.00  0.00    -0.320 N 
ATOM      7  C   UNL A   1      34.133  24.164  25.447  1.00  0.00     0.187 C 
ATOM      8  H   UNL A   1      32.762  24.520  23.941  1.00  0.00     0.349 HD
ATOM      9  C   UNL A   1      31.322  24.216  26.228  1.00  0.00     0.078 C 
ATOM     10  C   UNL A   1      33.447  22.930  26.095  1.00  0.00     0.048 C 
ATOM     11  C   UNL A   1      35.264  23.643  24.526  1.00  0.00     0.065 C 
ATOM     12  C   UNL A   1      32.286  23.335  27.001  1.00  0.00     0.016 C 
ATOM     13  C   UNL A   1      34.456  22.091  26.893  1.00  0.00     0.010 C 
ATOM     14  C   UNL A   1      36.275  22.797  25.303  1.00  0.00     0.006 C 
ATOM     15  C   UNL A   1      35.613  21.627  26.017  1.00  0.00     0.001 C 
BRANCH   6  16
ATOM     16  C   UNL A   1      33.833  26.250  24.172  1.00  0.00     0.273 C 
BRANCH  16  17
ATOM     17  C   UNL A   1      33.594  26.436  22.673  1.00  0.00     0.161 C 
BRANCH  17  18
ATOM     18  C   UNL A   1      32.951  25.247  21.995  1.00  0.00     0.223 C 
ATOM     19  N   UNL A   1      31.636  25.414  21.677  1.00  0.00    -0.369 N 
ATOM     20  H   UNL A   1      31.142  24.688  21.232  1.00  0.00     0.159 HD
ATOM     21  H   UNL A   1      31.182  26.260  21.890  1.00  0.00     0.159 HD
ATOM     22  O   UNL A   1      33.530  24.190  21.772  1.00  0.00    -0.275 OA
ENDBRANCH  17  18
ENDBRANCH  16  17
ENDBRANCH   6  16
ENDBRANCH   3   5
ENDBRANCH   2   3
ENDBRANCH   1   2
BRANCH   1  23
ATOM     23  C   UNL A   1      32.619  29.153  26.988  1.00  0.00     0.275 C 
BRANCH  23  24
ATOM     24  O   UNL A   1      33.980  29.010  27.437  1.00  0.00    -0.458 OA
BRANCH  24  25
ATOM     25  C   UNL A   1      34.556  30.147  27.889  1.00  0.00     0.338 C 
ATOM     26  O   UNL A   1      34.014  31.225  28.071  1.00  0.00    -0.246 OA
BRANCH  25  27
ATOM     27  C   UNL A   1      35.941  29.885  28.312  1.00  0.00     0.060 A 
ATOM     28  C   UNL A   1      36.945  30.032  27.350  1.00  0.00     0.016 A 
ATOM     29  C   UNL A   1      36.250  29.422  29.590  1.00  0.00     0.016 A 
ATOM     30  C   UNL A   1      38.267  29.731  27.656  1.00  0.00     0.010 A 
ATOM     31  C   UNL A   1      37.576  29.093  29.893  1.00  0.00     0.010 A 
ATOM     32  C   UNL A   1      38.586  29.235  28.923  1.00  0.00    -0.014 A 
BRANCH  32  33
ATOM     33  C   UNL A   1      39.963  28.764  29.182  1.00  0.00     0.031 A 
ATOM     34  C   UNL A   1      40.920  29.667  29.905  1.00  0.00     0.074 A 
ATOM     35  C   UNL A   1      40.336  27.524  28.822  1.00  0.00     0.049 A 
ATOM     36  N   UNL A   1      42.187  29.485  30.172  1.00  0.00    -0.248 NA
ATOM     37  C   UNL A   1      40.373  30.942  30.398  1.00  0.00     0.031 C 
ATOM     38  C   UNL A   1      39.468  26.531  28.189  1.00  0.00     0.029 A 
ATOM     39  N   UNL A   1      41.545  26.890  28.943  1.00  0.00    -0.354 N 
ATOM     40  C   UNL A   1      42.596  30.632  30.841  1.00  0.00     0.074 A 
ATOM     41  C   UNL A   1      41.445  31.503  30.938  1.00  0.00     0.031 C 
ATOM     42  C   UNL A   1      40.178  25.411  27.971  1.00  0.00     0.029 A 
ATOM     43  C   UNL A   1      41.556  25.627  28.408  1.00  0.00     0.049 A 
ATOM     44  H   UNL A   1      42.330  27.301  29.373  1.00  0.00     0.167 HD
ATOM     45  C   UNL A   1      43.824  30.931  31.324  1.00  0.00     0.031 A 
ATOM     46  C   UNL A   1      42.572  24.756  28.258  1.00  0.00     0.031 A 
ATOM     47  C   UNL A   1      44.966  30.064  31.221  1.00  0.00     0.049 A 
ATOM     48  C   UNL A   1      43.944  25.144  28.735  1.00  0.00     0.074 A 
ATOM     49  C   UNL A   1      46.259  30.280  31.666  1.00  0.00     0.029 A 
ATOM     50  N   UNL A   1      44.949  28.811  30.629  1.00  0.00    -0.354 N 
ATOM     51  N   UNL A   1      44.328  26.241  29.341  1.00  0.00    -0.248 NA
ATOM     52  C   UNL A   1      45.023  24.173  28.502  1.00  0.00     0.031 C 
ATOM     53  C   UNL A   1      47.033  29.171  31.306  1.00  0.00     0.029 A 
ATOM     54  C   UNL A   1      46.212  28.248  30.680  1.00  0.00     0.049 A 
ATOM     55  H   UNL A   1      44.155  28.384  30.231  1.00  0.00     0.167 HD
ATOM     56  C   UNL A   1      45.688  26.088  29.575  1.00  0.00     0.074 A 
ATOM     57  C   UNL A   1      46.059  24.784  29.062  1.00  0.00     0.031 C 
ATOM     58  C   UNL A   1      46.555  26.950  30.160  1.00  0.00     0.031 A 
BRANCH  45  59
ATOM     59  C   UNL A   1      44.000  32.281  31.959  1.00  0.00    -0.014 A 
ATOM     60  C   UNL A   1      44.357  33.405  31.199  1.00  0.00     0.009 A 
ATOM     61  C   UNL A   1      43.793  32.427  33.339  1.00  0.00     0.009 A 
ATOM     62  C   UNL A   1      44.534  34.645  31.818  1.00  0.00     0.001 A 
ATOM     63  C   UNL A   1      43.948  33.672  33.950  1.00  0.00     0.001 A 
ATOM     64  C   UNL A   1      44.327  34.778  33.191  1.00  0.00     0.000 A 
ENDBRANCH  45  59
BRANCH  46  65
ATOM     65  C   UNL A   1      42.338  23.452  27.587  1.00  0.00    -0.014 A 
ATOM     66  C   UNL A   1      42.572  23.301  26.213  1.00  0.00     0.009 A 
ATOM     67  C   UNL A   1      41.874  22.351  28.323  1.00  0.00     0.009 A 
ATOM     68  C   UNL A   1      42.328  22.076  25.585  1.00  0.00     0.001 A 
ATOM     69  C   UNL A   1      41.656  21.121  27.699  1.00  0.00     0.001 A 
ATOM     70  C   UNL A   1      41.875  20.986  26.330  1.00  0.00     0.000 A 
ENDBRANCH  46  65
BRANCH  58  71
ATOM     71  C   UNL A   1      47.979  26.494  30.300  1.00  0.00    -0.014 A 
ATOM     72  C   UNL A   1      48.412  25.812  31.447  1.00  0.00     0.009 A 
ATOM     73  C   UNL A   1      48.887  26.719  29.254  1.00  0.00     0.009 A 
ATOM     74  C   UNL A   1      49.738  25.387  31.555  1.00  0.00     0.001 A 
ATOM     75  C   UNL A   1      50.205  26.274  29.355  1.00  0.00     0.001 A 
ATOM     76  C   UNL A   1      50.631  25.616  30.507  1.00  0.00     0.000 A 
ENDBRANCH  58  71
ENDBRANCH  32  33
ENDBRANCH  25  27
ENDBRANCH  24  25
ENDBRANCH  23  24
ENDBRANCH   1  23
TORSDOF 14
ENDMDL
MODEL 3
REMARK VINA RESULT:     -10.4      3.015      7.558
REMARK SMILES NC(=O)CC[N@@H+]1[C@@H](C(=O)OCCOC(=O)c2ccc(-c3c4nc(c(-c5ccccc5)c5ccc([nH]5)c(-c5ccccc5)c5nc(c(-c6ccccc6)c6ccc3[nH]6)C=C5)C=C4)cc2)CC[C@@H]2CCCC[C@H]21
REMARK SMILES IDX 11 1 10 2 8 3 9 4 7 5 6 6 71 7 64 9 66 10 70 11 65 12 67 13
REMARK SMILES IDX 69 14 68 15 5 16 4 17 2 18 1 19 3 22 12 23 13 24 14 25 15 26
REMARK SMILES IDX 16 27 17 28 63 29 18 30 62 31 19 32 20 33 21 34 56 35 22 36
REMARK SMILES IDX 61 37 55 38 57 39 23 40 60 41 54 42 53 43 24 45 46 46 31 47
REMARK SMILES IDX 45 48 32 49 35 50 44 51 58 52 33 53 34 54 43 56 59 57 36 58
REMARK SMILES IDX 25 59 26 60 30 61 27 62 29 63 28 64 47 65 48 66 52 67 49 68
REMARK SMILES IDX 51 69 50 70 37 71 38 72 42 73 39 74 41 75 40 76
REMARK H PARENT 6 8 1 20 1 21 57 44 35 55
REMARK Flexibility Score: inf
ROOT
ATOM      1  C   UNL A   1      31.773  28.703  26.132  1.00  0.00     0.274 C 
ENDROOT
BRANCH   1   2
ATOM      2  O   UNL A   1      32.060  27.974  24.922  1.00  0.00    -0.458 OA
BRANCH   2   3
ATOM      3  C   UNL A   1      31.427  26.775  24.801  1.00  0.00     0.365 C 
ATOM      4  O   UNL A   1      30.214  26.628  24.925  1.00  0.00    -0.245 OA
BRANCH   3   5
ATOM      5  C   UNL A   1      32.371  25.596  24.465  1.00  0.00     0.295 C 
ATOM      6  N   UNL A   1      33.077  25.003  25.657  1.00  0.00    -0.320 N 
ATOM      7  C   UNL A   1      33.851  23.794  25.227  1.00  0.00     0.187 C 
ATOM      8  H   UNL A   1      33.726  25.689  26.042  1.00  0.00     0.349 HD
ATOM      9  C   UNL A   1      33.363  25.986  23.364  1.00  0.00     0.078 C 
ATOM     10  C   UNL A   1      34.835  24.108  24.066  1.00  0.00     0.048 C 
ATOM     11  C   UNL A   1      34.671  23.167  26.381  1.00  0.00     0.065 C 
ATOM     12  C   UNL A   1      34.127  24.766  22.884  1.00  0.00     0.016 C 
ATOM     13  C   UNL A   1      35.558  22.837  23.594  1.00  0.00     0.010 C 
ATOM     14  C   UNL A   1      35.406  21.904  25.926  1.00  0.00     0.006 C 
ATOM     15  C   UNL A   1      36.315  22.169  24.734  1.00  0.00     0.001 C 
BRANCH   6  16
ATOM     16  C   UNL A   1      32.095  24.655  26.724  1.00  0.00     0.273 C 
BRANCH  16  17
ATOM     17  C   UNL A   1      31.193  23.479  26.345  1.00  0.00     0.161 C 
BRANCH  17  18
ATOM     18  C   UNL A   1      29.823  23.517  26.983  1.00  0.00     0.223 C 
ATOM     19  N   UNL A   1      29.108  24.650  26.733  1.00  0.00    -0.369 N 
ATOM     20  H   UNL A   1      28.205  24.756  27.110  1.00  0.00     0.159 HD
ATOM     21  H   UNL A   1      29.494  25.363  26.174  1.00  0.00     0.159 HD
ATOM     22  O   UNL A   1      29.378  22.631  27.703  1.00  0.00    -0.275 OA
ENDBRANCH  17  18
ENDBRANCH  16  17
ENDBRANCH   6  16
ENDBRANCH   3   5
ENDBRANCH   2   3
ENDBRANCH   1   2
BRANCH   1  23
ATOM     23  C   UNL A   1      32.893  28.588  27.175  1.00  0.00     0.275 C 
BRANCH  23  24
ATOM     24  O   UNL A   1      34.087  29.291  26.781  1.00  0.00    -0.458 OA
BRANCH  24  25
ATOM     25  C   UNL A   1      34.482  30.268  27.628  1.00  0.00     0.338 C 
ATOM     26  O   UNL A   1      33.808  31.192  28.053  1.00  0.00    -0.246 OA
BRANCH  25  27
ATOM     27  C   UNL A   1      35.836  29.989  28.135  1.00  0.00     0.060 A 
ATOM     28  C   UNL A   1      36.896  30.104  27.231  1.00  0.00     0.016 A 
ATOM     29  C   UNL A   1      36.063  29.541  29.436  1.00  0.00     0.016 A 
ATOM     30  C   UNL A   1      38.192  29.786  27.616  1.00  0.00     0.010 A 
ATOM     31  C   UNL A   1      37.363  29.194  29.819  1.00  0.00     0.010 A 
ATOM     32  C   UNL A   1      38.429  29.304  28.907  1.00  0.00    -0.014 A 
BRANCH  32  33
ATOM     33  C   UNL A   1      39.781  28.814  29.252  1.00  0.00     0.031 A 
ATOM     34  C   UNL A   1      40.687  29.686  30.072  1.00  0.00     0.074 A 
ATOM     35  C   UNL A   1      40.171  27.583  28.881  1.00  0.00     0.049 A 
ATOM     36  N   UNL A   1      41.929  29.485  30.426  1.00  0.00    -0.248 NA
ATOM     37  C   UNL A   1      40.112  30.949  30.563  1.00  0.00     0.031 C 
ATOM     38  C   UNL A   1      39.347  26.617  28.155  1.00  0.00     0.029 A 
ATOM     39  N   UNL A   1      41.365  26.935  29.071  1.00  0.00    -0.354 N 
ATOM     40  C   UNL A   1      42.294  30.607  31.159  1.00  0.00     0.074 A 
ATOM     41  C   UNL A   1      41.144  31.484  31.199  1.00  0.00     0.031 C 
ATOM     42  C   UNL A   1      40.065  25.499  27.954  1.00  0.00     0.029 A 
ATOM     43  C   UNL A   1      41.408  25.689  28.498  1.00  0.00     0.049 A 
ATOM     44  H   UNL A   1      42.118  27.326  29.571  1.00  0.00     0.167 HD
ATOM     45  C   UNL A   1      43.485  30.881  31.741  1.00  0.00     0.031 A 
ATOM     46  C   UNL A   1      42.427  24.815  28.396  1.00  0.00     0.031 A 
ATOM     47  C   UNL A   1      44.627  30.008  31.695  1.00  0.00     0.049 A 
ATOM     48  C   UNL A   1      43.762  25.176  28.985  1.00  0.00     0.074 A 
ATOM     49  C   UNL A   1      45.884  30.199  32.241  1.00  0.00     0.029 A 
ATOM     50  N   UNL A   1      44.646  28.774  31.064  1.00  0.00    -0.354 N 
ATOM     51  N   UNL A   1      44.107  26.251  29.652  1.00  0.00    -0.248 NA
ATOM     52  C   UNL A   1      44.850  24.205  28.802  1.00  0.00     0.031 C 
ATOM     53  C   UNL A   1      46.676  29.096  31.904  1.00  0.00     0.029 A 
ATOM     54  C   UNL A   1      45.898  28.199  31.190  1.00  0.00     0.049 A 
ATOM     55  H   UNL A   1      43.881  28.367  30.595  1.00  0.00     0.167 HD
ATOM     56  C   UNL A   1      45.445  26.080  29.981  1.00  0.00     0.074 A 
ATOM     57  C   UNL A   1      45.844  24.790  29.456  1.00  0.00     0.031 C 
ATOM     58  C   UNL A   1      46.272  26.915  30.656  1.00  0.00     0.031 A 
BRANCH  45  59
ATOM     59  C   UNL A   1      43.622  32.208  32.430  1.00  0.00    -0.014 A 
ATOM     60  C   UNL A   1      43.386  32.346  33.806  1.00  0.00     0.009 A 
ATOM     61  C   UNL A   1      44.004  33.336  31.686  1.00  0.00     0.009 A 
ATOM     62  C   UNL A   1      43.501  33.596  34.418  1.00  0.00     0.001 A 
ATOM     63  C   UNL A   1      44.139  34.579  32.306  1.00  0.00     0.001 A 
ATOM     64  C   UNL A   1      43.879  34.710  33.669  1.00  0.00     0.000 A 
ENDBRANCH  45  59
BRANCH  46  65
ATOM     65  C   UNL A   1      42.236  23.534  27.669  1.00  0.00    -0.014 A 
ATOM     66  C   UNL A   1      41.732  22.404  28.328  1.00  0.00     0.009 A 
ATOM     67  C   UNL A   1      42.564  23.438  26.308  1.00  0.00     0.009 A 
ATOM     68  C   UNL A   1      41.577  21.197  27.642  1.00  0.00     0.001 A 
ATOM     69  C   UNL A   1      42.383  22.238  25.618  1.00  0.00     0.001 A 
ATOM     70  C   UNL A   1      41.898  21.116  26.286  1.00  0.00     0.000 A 
ENDBRANCH  46  65
BRANCH  58  71
ATOM     71  C   UNL A   1      47.678  26.444  30.886  1.00  0.00    -0.014 A 
ATOM     72  C   UNL A   1      48.691  26.701  29.951  1.00  0.00     0.009 A 
ATOM     73  C   UNL A   1      47.998  25.767  32.073  1.00  0.00     0.009 A 
ATOM     74  C   UNL A   1      49.996  26.263  30.187  1.00  0.00     0.001 A 
ATOM     75  C   UNL A   1      49.307  25.351  32.317  1.00  0.00     0.001 A 
ATOM     76  C   UNL A   1      50.302  25.592  31.371  1.00  0.00     0.000 A 
ENDBRANCH  58  71
ENDBRANCH  32  33
ENDBRANCH  25  27
ENDBRANCH  24  25
ENDBRANCH  23  24
ENDBRANCH   1  23
TORSDOF 14
ENDMDL
