MODEL 1
REMARK VINA RESULT:     -11.9      0.000      0.000
REMARK SMILES CCc1sc(NC(=O)[C@H]2CC(C)=C(C)C[C@H]2C(=O)OCCOC(=O)c2ccc(-c3c4nc(c(-c5ccccc5)c5ccc([nH]5)c(-c5ccccc5)c5nc(c(-c6ccccc6)c6ccc3[nH]6)C=C5)C=C4)cc2)nc1-c1ccccc1
REMARK SMILES IDX 20 1 19 2 17 3 18 4 16 5 9 6 10 7 11 8 15 9 12 10 13 11
REMARK SMILES IDX 14 12 7 13 6 14 8 16 5 17 3 18 4 19 74 20 73 21 2 22 1 23
REMARK SMILES IDX 75 24 76 25 80 26 77 27 79 28 78 29 21 30 22 31 23 32 24 33
REMARK SMILES IDX 25 34 26 35 72 36 27 37 71 38 28 39 29 40 30 41 65 42 31 43
REMARK SMILES IDX 70 44 64 45 66 46 32 47 69 48 63 49 62 50 33 52 55 53 40 54
REMARK SMILES IDX 54 55 41 56 44 57 53 58 67 59 42 60 43 61 52 63 68 64 45 65
REMARK SMILES IDX 34 66 35 67 39 68 36 69 38 70 37 71 56 72 57 73 61 74 58 75
REMARK SMILES IDX 60 76 59 77 46 78 47 79 51 80 48 81 50 82 49 83
REMARK H PARENT 6 15 66 51 44 62
REMARK Flexibility Score: inf
ROOT
ATOM      1  C   UNL A   1      33.810  27.746  26.318  1.00  0.00     0.274 C 
ENDROOT
BRANCH   1   2
ATOM      2  O   UNL A   1      33.324  27.923  24.970  1.00  0.00    -0.462 OA
BRANCH   2   3
ATOM      3  C   UNL A   1      33.188  26.820  24.213  1.00  0.00     0.310 C 
ATOM      4  O   UNL A   1      34.117  26.079  23.904  1.00  0.00    -0.252 OA
BRANCH   3   5
ATOM      5  C   UNL A   1      31.794  26.626  23.636  1.00  0.00     0.116 C 
ATOM      6  C   UNL A   1      30.639  26.034  24.474  1.00  0.00     0.097 C 
ATOM      7  C   UNL A   1      29.211  26.447  24.076  1.00  0.00     0.045 C 
ATOM      8  C   UNL A   1      29.047  27.736  23.302  1.00  0.00    -0.074 C 
ATOM      9  C   UNL A   1      31.494  27.860  22.779  1.00  0.00     0.046 C 
ATOM     10  C   UNL A   1      27.637  28.273  23.316  1.00  0.00     0.039 C 
ATOM     11  C   UNL A   1      30.082  28.366  22.713  1.00  0.00    -0.073 C 
ATOM     12  C   UNL A   1      29.951  29.654  21.939  1.00  0.00     0.039 C 
BRANCH   6  13
ATOM     13  C   UNL A   1      30.776  25.696  25.973  1.00  0.00     0.230 C 
ATOM     14  N   UNL A   1      31.348  24.603  26.528  1.00  0.00    -0.302 N 
ATOM     15  H   UNL A   1      31.080  24.449  27.463  1.00  0.00     0.172 HD
ATOM     16  O   UNL A   1      30.287  26.515  26.770  1.00  0.00    -0.274 OA
BRANCH  14  17
ATOM     17  C   UNL A   1      32.222  23.668  26.052  1.00  0.00     0.190 A 
ATOM     18  C   UNL A   1      33.252  21.706  25.091  1.00  0.00     0.034 A 
ATOM     19  S   UNL A   1      31.674  22.334  25.179  1.00  0.00    -0.101 S 
ATOM     20  C   UNL A   1      34.126  22.642  25.618  1.00  0.00     0.087 A 
ATOM     21  N   UNL A   1      33.529  23.781  26.147  1.00  0.00    -0.220 NA
BRANCH  18  22
ATOM     22  C   UNL A   1      33.478  20.341  24.526  1.00  0.00     0.046 C 
ATOM     23  C   UNL A   1      32.936  19.261  25.453  1.00  0.00     0.010 C 
ENDBRANCH  18  22
BRANCH  20  24
ATOM     24  C   UNL A   1      35.556  22.413  25.673  1.00  0.00     0.001 A 
ATOM     25  C   UNL A   1      36.420  23.460  26.016  1.00  0.00     0.010 A 
ATOM     26  C   UNL A   1      36.087  21.184  25.270  1.00  0.00     0.010 A 
ATOM     27  C   UNL A   1      37.802  23.290  25.916  1.00  0.00     0.001 A 
ATOM     28  C   UNL A   1      37.470  21.015  25.172  1.00  0.00     0.001 A 
ATOM     29  C   UNL A   1      38.325  22.072  25.486  1.00  0.00     0.000 A 
ENDBRANCH  20  24
ENDBRANCH  14  17
ENDBRANCH   6  13
ENDBRANCH   3   5
ENDBRANCH   2   3
ENDBRANCH   1   2
BRANCH   1  30
ATOM     30  C   UNL A   1      33.421  28.918  27.214  1.00  0.00     0.275 C 
BRANCH  30  31
ATOM     31  O   UNL A   1      34.225  30.064  26.889  1.00  0.00    -0.458 OA
BRANCH  31  32
ATOM     32  C   UNL A   1      34.720  30.747  27.946  1.00  0.00     0.338 C 
ATOM     33  O   UNL A   1      34.172  31.625  28.584  1.00  0.00    -0.246 OA
BRANCH  32  34
ATOM     34  C   UNL A   1      36.052  30.207  28.256  1.00  0.00     0.060 A 
ATOM     35  C   UNL A   1      36.303  29.691  29.529  1.00  0.00     0.016 A 
ATOM     36  C   UNL A   1      37.058  30.245  27.294  1.00  0.00     0.016 A 
ATOM     37  C   UNL A   1      37.559  29.185  29.846  1.00  0.00     0.010 A 
ATOM     38  C   UNL A   1      38.319  29.733  27.609  1.00  0.00     0.010 A 
ATOM     39  C   UNL A   1      38.574  29.200  28.885  1.00  0.00    -0.014 A 
BRANCH  39  40
ATOM     40  C   UNL A   1      39.920  28.685  29.218  1.00  0.00     0.031 A 
ATOM     41  C   UNL A   1      40.897  29.573  29.928  1.00  0.00     0.074 A 
ATOM     42  C   UNL A   1      40.260  27.432  28.869  1.00  0.00     0.049 A 
ATOM     43  N   UNL A   1      42.166  29.374  30.171  1.00  0.00    -0.248 NA
ATOM     44  C   UNL A   1      40.377  30.856  30.425  1.00  0.00     0.031 C 
ATOM     45  C   UNL A   1      39.371  26.459  28.232  1.00  0.00     0.029 A 
ATOM     46  N   UNL A   1      41.452  26.767  28.993  1.00  0.00    -0.354 N 
ATOM     47  C   UNL A   1      42.607  30.521  30.819  1.00  0.00     0.074 A 
ATOM     48  C   UNL A   1      41.470  31.410  30.928  1.00  0.00     0.031 C 
ATOM     49  C   UNL A   1      40.050  25.321  28.018  1.00  0.00     0.029 A 
ATOM     50  C   UNL A   1      41.433  25.507  28.449  1.00  0.00     0.049 A 
ATOM     51  H   UNL A   1      42.245  27.155  29.430  1.00  0.00     0.167 HD
ATOM     52  C   UNL A   1      43.850  30.805  31.271  1.00  0.00     0.031 A 
ATOM     53  C   UNL A   1      42.428  24.618  28.280  1.00  0.00     0.031 A 
ATOM     54  C   UNL A   1      44.974  29.914  31.152  1.00  0.00     0.049 A 
ATOM     55  C   UNL A   1      43.814  24.981  28.732  1.00  0.00     0.074 A 
ATOM     56  C   UNL A   1      46.279  30.106  31.571  1.00  0.00     0.029 A 
ATOM     57  N   UNL A   1      44.921  28.656  30.571  1.00  0.00    -0.354 N 
ATOM     58  N   UNL A   1      44.229  26.081  29.314  1.00  0.00    -0.248 NA
ATOM     59  C   UNL A   1      44.868  23.986  28.497  1.00  0.00     0.031 C 
ATOM     60  C   UNL A   1      47.025  28.979  31.207  1.00  0.00     0.029 A 
ATOM     61  C   UNL A   1      46.172  28.066  30.604  1.00  0.00     0.049 A 
ATOM     62  H   UNL A   1      44.112  28.243  30.190  1.00  0.00     0.167 HD
ATOM     63  C   UNL A   1      45.589  25.904  29.531  1.00  0.00     0.074 A 
ATOM     64  C   UNL A   1      45.924  24.585  29.030  1.00  0.00     0.031 C 
ATOM     65  C   UNL A   1      46.481  26.755  30.094  1.00  0.00     0.031 A 
BRANCH  52  66
ATOM     66  C   UNL A   1      44.065  32.158  31.886  1.00  0.00    -0.014 A 
ATOM     67  C   UNL A   1      44.430  33.268  31.109  1.00  0.00     0.009 A 
ATOM     68  C   UNL A   1      43.887  32.326  33.269  1.00  0.00     0.009 A 
ATOM     69  C   UNL A   1      44.647  34.510  31.711  1.00  0.00     0.001 A 
ATOM     70  C   UNL A   1      44.082  33.573  33.864  1.00  0.00     0.001 A 
ATOM     71  C   UNL A   1      44.470  34.663  33.085  1.00  0.00     0.000 A 
ENDBRANCH  52  66
BRANCH  53  72
ATOM     72  C   UNL A   1      42.153  23.316  27.621  1.00  0.00    -0.014 A 
ATOM     73  C   UNL A   1      41.568  22.263  28.340  1.00  0.00     0.009 A 
ATOM     74  C   UNL A   1      42.456  23.127  26.263  1.00  0.00     0.009 A 
ATOM     75  C   UNL A   1      41.304  21.042  27.714  1.00  0.00     0.001 A 
ATOM     76  C   UNL A   1      42.167  21.915  25.634  1.00  0.00     0.001 A 
ATOM     77  C   UNL A   1      41.597  20.871  26.361  1.00  0.00     0.000 A 
ENDBRANCH  53  72
BRANCH  65  78
ATOM     78  C   UNL A   1      47.894  26.266  30.224  1.00  0.00    -0.014 A 
ATOM     79  C   UNL A   1      48.795  26.357  29.153  1.00  0.00     0.009 A 
ATOM     80  C   UNL A   1      48.333  25.734  31.445  1.00  0.00     0.009 A 
ATOM     81  C   UNL A   1      50.105  25.894  29.295  1.00  0.00     0.001 A 
ATOM     82  C   UNL A   1      49.649  25.293  31.591  1.00  0.00     0.001 A 
ATOM     83  C   UNL A   1      50.530  25.366  30.514  1.00  0.00     0.000 A 
ENDBRANCH  65  78
ENDBRANCH  39  40
ENDBRANCH  32  34
ENDBRANCH  31  32
ENDBRANCH  30  31
ENDBRANCH   1  30
TORSDOF 15
ENDMDL
MODEL 2
REMARK VINA RESULT:     -11.6      2.451      8.030
REMARK SMILES CCc1sc(NC(=O)[C@H]2CC(C)=C(C)C[C@H]2C(=O)OCCOC(=O)c2ccc(-c3c4nc(c(-c5ccccc5)c5ccc([nH]5)c(-c5ccccc5)c5nc(c(-c6ccccc6)c6ccc3[nH]6)C=C5)C=C4)cc2)nc1-c1ccccc1
REMARK SMILES IDX 20 1 19 2 17 3 18 4 16 5 9 6 10 7 11 8 15 9 12 10 13 11
REMARK SMILES IDX 14 12 7 13 6 14 8 16 5 17 3 18 4 19 74 20 73 21 2 22 1 23
REMARK SMILES IDX 75 24 76 25 80 26 77 27 79 28 78 29 21 30 22 31 23 32 24 33
REMARK SMILES IDX 25 34 26 35 72 36 27 37 71 38 28 39 29 40 30 41 65 42 31 43
REMARK SMILES IDX 70 44 64 45 66 46 32 47 69 48 63 49 62 50 33 52 55 53 40 54
REMARK SMILES IDX 54 55 41 56 44 57 53 58 67 59 42 60 43 61 52 63 68 64 45 65
REMARK SMILES IDX 34 66 35 67 39 68 36 69 38 70 37 71 56 72 57 73 61 74 58 75
REMARK SMILES IDX 60 76 59 77 46 78 47 79 51 80 48 81 50 82 49 83
REMARK H PARENT 6 15 66 51 44 62
REMARK Flexibility Score: inf
ROOT
ATOM      1  C   UNL A   1      35.947  24.093  25.421  1.00  0.00     0.274 C 
ENDROOT
BRANCH   1   2
ATOM      2  O   UNL A   1      34.950  23.160  25.887  1.00  0.00    -0.462 OA
BRANCH   2   3
ATOM      3  C   UNL A   1      33.672  23.578  25.902  1.00  0.00     0.310 C 
ATOM      4  O   UNL A   1      33.254  24.485  26.614  1.00  0.00    -0.252 OA
BRANCH   3   5
ATOM      5  C   UNL A   1      32.730  22.735  25.055  1.00  0.00     0.116 C 
ATOM      6  C   UNL A   1      32.694  22.848  23.515  1.00  0.00     0.097 C 
ATOM      7  C   UNL A   1      32.235  21.602  22.739  1.00  0.00     0.045 C 
ATOM      8  C   UNL A   1      32.359  20.264  23.431  1.00  0.00    -0.074 C 
ATOM      9  C   UNL A   1      32.720  21.331  25.668  1.00  0.00     0.046 C 
ATOM     10  C   UNL A   1      32.289  19.087  22.488  1.00  0.00     0.039 C 
ATOM     11  C   UNL A   1      32.572  20.148  24.756  1.00  0.00    -0.073 C 
ATOM     12  C   UNL A   1      32.705  18.828  25.474  1.00  0.00     0.039 C 
BRANCH   6  13
ATOM     13  C   UNL A   1      33.672  23.734  22.715  1.00  0.00     0.230 C 
ATOM     14  N   UNL A   1      33.593  25.066  22.493  1.00  0.00    -0.302 N 
ATOM     15  H   UNL A   1      34.146  25.373  21.738  1.00  0.00     0.172 HD
ATOM     16  O   UNL A   1      34.640  23.155  22.193  1.00  0.00    -0.274 OA
BRANCH  14  17
ATOM     17  C   UNL A   1      32.900  26.071  23.104  1.00  0.00     0.190 A 
ATOM     18  C   UNL A   1      31.288  27.763  23.716  1.00  0.00     0.034 A 
ATOM     19  S   UNL A   1      31.338  26.472  22.610  1.00  0.00    -0.101 S 
ATOM     20  C   UNL A   1      32.427  27.712  24.501  1.00  0.00     0.087 A 
ATOM     21  N   UNL A   1      33.339  26.720  24.161  1.00  0.00    -0.220 NA
BRANCH  18  22
ATOM     22  C   UNL A   1      30.136  28.715  23.693  1.00  0.00     0.046 C 
ATOM     23  C   UNL A   1      30.062  29.465  22.370  1.00  0.00     0.010 C 
ENDBRANCH  18  22
BRANCH  20  24
ATOM     24  C   UNL A   1      32.676  28.672  25.558  1.00  0.00     0.001 A 
ATOM     25  C   UNL A   1      31.873  29.813  25.671  1.00  0.00     0.010 A 
ATOM     26  C   UNL A   1      33.787  28.524  26.394  1.00  0.00     0.010 A 
ATOM     27  C   UNL A   1      32.204  30.816  26.584  1.00  0.00     0.001 A 
ATOM     28  C   UNL A   1      34.116  29.528  27.307  1.00  0.00     0.001 A 
ATOM     29  C   UNL A   1      33.329  30.677  27.394  1.00  0.00     0.000 A 
ENDBRANCH  20  24
ENDBRANCH  14  17
ENDBRANCH   6  13
ENDBRANCH   3   5
ENDBRANCH   2   3
ENDBRANCH   1   2
BRANCH   1  30
ATOM     30  C   UNL A   1      37.252  23.388  25.061  1.00  0.00     0.275 C 
BRANCH  30  31
ATOM     31  O   UNL A   1      37.847  22.836  26.247  1.00  0.00    -0.458 OA
BRANCH  31  32
ATOM     32  C   UNL A   1      39.193  22.948  26.330  1.00  0.00     0.338 C 
ATOM     33  O   UNL A   1      40.029  22.160  25.935  1.00  0.00    -0.246 OA
BRANCH  32  34
ATOM     34  C   UNL A   1      39.506  24.247  26.946  1.00  0.00     0.060 A 
ATOM     35  C   UNL A   1      40.228  25.194  26.217  1.00  0.00     0.016 A 
ATOM     36  C   UNL A   1      39.111  24.508  28.256  1.00  0.00     0.016 A 
ATOM     37  C   UNL A   1      40.544  26.424  26.784  1.00  0.00     0.010 A 
ATOM     38  C   UNL A   1      39.423  25.745  28.826  1.00  0.00     0.010 A 
ATOM     39  C   UNL A   1      40.139  26.708  28.092  1.00  0.00    -0.014 A 
BRANCH  39  40
ATOM     40  C   UNL A   1      40.488  28.004  28.713  1.00  0.00     0.031 A 
ATOM     41  C   UNL A   1      41.852  28.198  29.304  1.00  0.00     0.074 A 
ATOM     42  C   UNL A   1      39.576  28.990  28.755  1.00  0.00     0.049 A 
ATOM     43  N   UNL A   1      42.304  29.189  30.026  1.00  0.00    -0.248 NA
ATOM     44  C   UNL A   1      42.834  27.132  29.051  1.00  0.00     0.031 C 
ATOM     45  C   UNL A   1      38.240  28.936  28.158  1.00  0.00     0.029 A 
ATOM     46  N   UNL A   1      39.633  30.230  29.338  1.00  0.00    -0.354 N 
ATOM     47  C   UNL A   1      43.614  28.852  30.344  1.00  0.00     0.074 A 
ATOM     48  C   UNL A   1      43.881  27.565  29.738  1.00  0.00     0.031 C 
ATOM     49  C   UNL A   1      37.602  30.091  28.409  1.00  0.00     0.029 A 
ATOM     50  C   UNL A   1      38.462  30.938  29.230  1.00  0.00     0.049 A 
ATOM     51  H   UNL A   1      40.436  30.579  29.789  1.00  0.00     0.167 HD
ATOM     52  C   UNL A   1      44.505  29.552  31.083  1.00  0.00     0.031 A 
ATOM     53  C   UNL A   1      38.108  32.119  29.767  1.00  0.00     0.031 A 
ATOM     54  C   UNL A   1      44.227  30.830  31.685  1.00  0.00     0.049 A 
ATOM     55  C   UNL A   1      39.092  32.848  30.637  1.00  0.00     0.074 A 
ATOM     56  C   UNL A   1      45.057  31.622  32.458  1.00  0.00     0.029 A 
ATOM     57  N   UNL A   1      43.019  31.503  31.575  1.00  0.00    -0.354 N 
ATOM     58  N   UNL A   1      40.317  32.507  30.960  1.00  0.00    -0.248 NA
ATOM     59  C   UNL A   1      38.643  34.119  31.222  1.00  0.00     0.031 C 
ATOM     60  C   UNL A   1      44.337  32.757  32.849  1.00  0.00     0.029 A 
ATOM     61  C   UNL A   1      43.074  32.693  32.279  1.00  0.00     0.049 A 
ATOM     62  H   UNL A   1      42.237  31.181  31.070  1.00  0.00     0.167 HD
ATOM     63  C   UNL A   1      40.792  33.528  31.772  1.00  0.00     0.074 A 
ATOM     64  C   UNL A   1      39.727  34.507  31.879  1.00  0.00     0.031 C 
ATOM     65  C   UNL A   1      42.000  33.647  32.375  1.00  0.00     0.031 A 
BRANCH  52  66
ATOM     66  C   UNL A   1      45.846  28.919  31.323  1.00  0.00    -0.014 A 
ATOM     67  C   UNL A   1      46.079  28.091  32.432  1.00  0.00     0.009 A 
ATOM     68  C   UNL A   1      46.892  29.149  30.415  1.00  0.00     0.009 A 
ATOM     69  C   UNL A   1      47.342  27.535  32.645  1.00  0.00     0.001 A 
ATOM     70  C   UNL A   1      48.147  28.572  30.617  1.00  0.00     0.001 A 
ATOM     71  C   UNL A   1      48.374  27.773  31.737  1.00  0.00     0.000 A 
ENDBRANCH  52  66
BRANCH  53  72
ATOM     72  C   UNL A   1      36.747  32.664  29.526  1.00  0.00    -0.014 A 
ATOM     73  C   UNL A   1      35.728  32.480  30.471  1.00  0.00     0.009 A 
ATOM     74  C   UNL A   1      36.469  33.389  28.357  1.00  0.00     0.009 A 
ATOM     75  C   UNL A   1      34.452  33.000  30.243  1.00  0.00     0.001 A 
ATOM     76  C   UNL A   1      35.200  33.930  28.144  1.00  0.00     0.001 A 
ATOM     77  C   UNL A   1      34.190  33.731  29.085  1.00  0.00     0.000 A 
ENDBRANCH  53  72
BRANCH  65  78
ATOM     78  C   UNL A   1      42.239  34.894  33.174  1.00  0.00    -0.014 A 
ATOM     79  C   UNL A   1      41.746  35.025  34.481  1.00  0.00     0.009 A 
ATOM     80  C   UNL A   1      42.992  35.940  32.619  1.00  0.00     0.009 A 
ATOM     81  C   UNL A   1      41.977  36.196  35.206  1.00  0.00     0.001 A 
ATOM     82  C   UNL A   1      43.241  37.099  33.354  1.00  0.00     0.001 A 
ATOM     83  C   UNL A   1      42.726  37.229  34.643  1.00  0.00     0.000 A 
ENDBRANCH  65  78
ENDBRANCH  39  40
ENDBRANCH  32  34
ENDBRANCH  31  32
ENDBRANCH  30  31
ENDBRANCH   1  30
TORSDOF 15
ENDMDL
MODEL 3
REMARK VINA RESULT:     -11.6      1.253      2.255
REMARK SMILES CCc1sc(NC(=O)[C@H]2CC(C)=C(C)C[C@H]2C(=O)OCCOC(=O)c2ccc(-c3c4nc(c(-c5ccccc5)c5ccc([nH]5)c(-c5ccccc5)c5nc(c(-c6ccccc6)c6ccc3[nH]6)C=C5)C=C4)cc2)nc1-c1ccccc1
REMARK SMILES IDX 20 1 19 2 17 3 18 4 16 5 9 6 10 7 11 8 15 9 12 10 13 11
REMARK SMILES IDX 14 12 7 13 6 14 8 16 5 17 3 18 4 19 74 20 73 21 2 22 1 23
REMARK SMILES IDX 75 24 76 25 80 26 77 27 79 28 78 29 21 30 22 31 23 32 24 33
REMARK SMILES IDX 25 34 26 35 72 36 27 37 71 38 28 39 29 40 30 41 65 42 31 43
REMARK SMILES IDX 70 44 64 45 66 46 32 47 69 48 63 49 62 50 33 52 55 53 40 54
REMARK SMILES IDX 54 55 41 56 44 57 53 58 67 59 42 60 43 61 52 63 68 64 45 65
REMARK SMILES IDX 34 66 35 67 39 68 36 69 38 70 37 71 56 72 57 73 61 74 58 75
REMARK SMILES IDX 60 76 59 77 46 78 47 79 51 80 48 81 50 82 49 83
REMARK H PARENT 6 15 66 51 44 62
REMARK Flexibility Score: inf
ROOT
ATOM      1  C   UNL A   1      33.614  29.424  25.499  1.00  0.00     0.274 C 
ENDROOT
BRANCH   1   2
ATOM      2  O   UNL A   1      32.557  29.237  24.534  1.00  0.00    -0.462 OA
BRANCH   2   3
ATOM      3  C   UNL A   1      32.670  28.197  23.688  1.00  0.00     0.310 C 
ATOM      4  O   UNL A   1      33.719  27.864  23.145  1.00  0.00    -0.252 OA
BRANCH   3   5
ATOM      5  C   UNL A   1      31.348  27.533  23.336  1.00  0.00     0.116 C 
ATOM      6  C   UNL A   1      30.628  26.578  24.313  1.00  0.00     0.097 C 
ATOM      7  C   UNL A   1      29.099  26.470  24.177  1.00  0.00     0.045 C 
ATOM      8  C   UNL A   1      28.374  27.622  23.519  1.00  0.00    -0.074 C 
ATOM      9  C   UNL A   1      30.501  28.586  22.614  1.00  0.00     0.046 C 
ATOM     10  C   UNL A   1      26.890  27.638  23.794  1.00  0.00     0.039 C 
ATOM     11  C   UNL A   1      29.013  28.571  22.809  1.00  0.00    -0.073 C 
ATOM     12  C   UNL A   1      28.318  29.734  22.145  1.00  0.00     0.039 C 
BRANCH   6  13
ATOM     13  C   UNL A   1      31.130  26.308  25.747  1.00  0.00     0.230 C 
ATOM     14  N   UNL A   1      31.888  25.275  26.180  1.00  0.00    -0.302 N 
ATOM     15  H   UNL A   1      31.854  25.142  27.155  1.00  0.00     0.172 HD
ATOM     16  O   UNL A   1      30.782  27.126  26.616  1.00  0.00    -0.274 OA
BRANCH  14  17
ATOM     17  C   UNL A   1      32.692  24.378  25.537  1.00  0.00     0.190 A 
ATOM     18  C   UNL A   1      34.442  23.295  24.272  1.00  0.00     0.034 A 
ATOM     19  S   UNL A   1      34.207  24.835  24.954  1.00  0.00    -0.101 S 
ATOM     20  C   UNL A   1      33.395  22.478  24.663  1.00  0.00     0.087 A 
ATOM     21  N   UNL A   1      32.404  23.101  25.414  1.00  0.00    -0.220 NA
BRANCH  18  22
ATOM     22  C   UNL A   1      35.629  23.043  23.399  1.00  0.00     0.046 C 
ATOM     23  C   UNL A   1      36.860  22.696  24.224  1.00  0.00     0.010 C 
ENDBRANCH  18  22
BRANCH  20  24
ATOM     24  C   UNL A   1      33.311  21.089  24.259  1.00  0.00     0.001 A 
ATOM     25  C   UNL A   1      32.366  20.693  23.306  1.00  0.00     0.010 A 
ATOM     26  C   UNL A   1      34.090  20.122  24.903  1.00  0.00     0.010 A 
ATOM     27  C   UNL A   1      32.173  19.338  23.030  1.00  0.00     0.001 A 
ATOM     28  C   UNL A   1      33.896  18.767  24.625  1.00  0.00     0.001 A 
ATOM     29  C   UNL A   1      32.931  18.377  23.697  1.00  0.00     0.000 A 
ENDBRANCH  20  24
ENDBRANCH  14  17
ENDBRANCH   6  13
ENDBRANCH   3   5
ENDBRANCH   2   3
ENDBRANCH   1   2
BRANCH   1  30
ATOM     30  C   UNL A   1      33.114  30.148  26.746  1.00  0.00     0.275 C 
BRANCH  30  31
ATOM     31  O   UNL A   1      33.907  29.762  27.881  1.00  0.00    -0.458 OA
BRANCH  31  32
ATOM     32  C   UNL A   1      34.704  30.728  28.391  1.00  0.00     0.338 C 
ATOM     33  O   UNL A   1      34.379  31.839  28.760  1.00  0.00    -0.246 OA
BRANCH  32  34
ATOM     34  C   UNL A   1      36.069  30.191  28.488  1.00  0.00     0.060 A 
ATOM     35  C   UNL A   1      36.529  29.705  29.714  1.00  0.00     0.016 A 
ATOM     36  C   UNL A   1      36.901  30.200  27.371  1.00  0.00     0.016 A 
ATOM     37  C   UNL A   1      37.820  29.203  29.830  1.00  0.00     0.010 A 
ATOM     38  C   UNL A   1      38.197  29.691  27.484  1.00  0.00     0.010 A 
ATOM     39  C   UNL A   1      38.661  29.189  28.713  1.00  0.00    -0.014 A 
BRANCH  39  40
ATOM     40  C   UNL A   1      40.043  28.677  28.830  1.00  0.00     0.031 A 
ATOM     41  C   UNL A   1      41.148  29.611  29.222  1.00  0.00     0.074 A 
ATOM     42  C   UNL A   1      40.300  27.383  28.569  1.00  0.00     0.049 A 
ATOM     43  N   UNL A   1      42.439  29.405  29.230  1.00  0.00    -0.248 NA
ATOM     44  C   UNL A   1      40.745  30.956  29.660  1.00  0.00     0.031 C 
ATOM     45  C   UNL A   1      39.296  26.370  28.239  1.00  0.00     0.029 A 
ATOM     46  N   UNL A   1      41.489  26.703  28.530  1.00  0.00    -0.354 N 
ATOM     47  C   UNL A   1      43.007  30.605  29.639  1.00  0.00     0.074 A 
ATOM     48  C   UNL A   1      41.919  31.533  29.868  1.00  0.00     0.031 C 
ATOM     49  C   UNL A   1      39.913  25.196  28.028  1.00  0.00     0.029 A 
ATOM     50  C   UNL A   1      41.355  25.390  28.151  1.00  0.00     0.049 A 
ATOM     51  H   UNL A   1      42.356  27.114  28.753  1.00  0.00     0.167 HD
ATOM     52  C   UNL A   1      44.317  30.903  29.799  1.00  0.00     0.031 A 
ATOM     53  C   UNL A   1      42.291  24.460  27.893  1.00  0.00     0.031 A 
ATOM     54  C   UNL A   1      45.390  29.972  29.565  1.00  0.00     0.049 A 
ATOM     55  C   UNL A   1      43.741  24.832  28.016  1.00  0.00     0.074 A 
ATOM     56  C   UNL A   1      46.753  30.173  29.691  1.00  0.00     0.029 A 
ATOM     57  N   UNL A   1      45.214  28.658  29.156  1.00  0.00    -0.354 N 
ATOM     58  N   UNL A   1      44.271  25.978  28.372  1.00  0.00    -0.248 NA
ATOM     59  C   UNL A   1      44.722  23.787  27.694  1.00  0.00     0.031 C 
ATOM     60  C   UNL A   1      47.404  28.991  29.319  1.00  0.00     0.029 A 
ATOM     61  C   UNL A   1      46.443  28.040  29.009  1.00  0.00     0.049 A 
ATOM     62  H   UNL A   1      44.343  28.229  28.994  1.00  0.00     0.167 HD
ATOM     63  C   UNL A   1      45.645  25.788  28.333  1.00  0.00     0.074 A 
ATOM     64  C   UNL A   1      45.866  24.412  27.933  1.00  0.00     0.031 C 
ATOM     65  C   UNL A   1      46.637  26.672  28.605  1.00  0.00     0.031 A 
BRANCH  52  66
ATOM     66  C   UNL A   1      44.657  32.310  30.197  1.00  0.00    -0.014 A 
ATOM     67  C   UNL A   1      44.786  32.681  31.545  1.00  0.00     0.009 A 
ATOM     68  C   UNL A   1      44.864  33.280  29.203  1.00  0.00     0.009 A 
ATOM     69  C   UNL A   1      45.078  34.003  31.888  1.00  0.00     0.001 A 
ATOM     70  C   UNL A   1      45.180  34.595  29.549  1.00  0.00     0.001 A 
ATOM     71  C   UNL A   1      45.278  34.957  30.892  1.00  0.00     0.000 A 
ENDBRANCH  52  66
BRANCH  53  72
ATOM     72  C   UNL A   1      41.883  23.099  27.459  1.00  0.00    -0.014 A 
ATOM     73  C   UNL A   1      41.827  22.774  26.095  1.00  0.00     0.009 A 
ATOM     74  C   UNL A   1      41.566  22.115  28.407  1.00  0.00     0.009 A 
ATOM     75  C   UNL A   1      41.450  21.491  25.691  1.00  0.00     0.001 A 
ATOM     76  C   UNL A   1      41.215  20.826  28.001  1.00  0.00     0.001 A 
ATOM     77  C   UNL A   1      41.151  20.516  26.643  1.00  0.00     0.000 A 
ENDBRANCH  53  72
BRANCH  65  78
ATOM     78  C   UNL A   1      48.044  26.161  28.508  1.00  0.00    -0.014 A 
ATOM     79  C   UNL A   1      48.730  25.702  29.642  1.00  0.00     0.009 A 
ATOM     80  C   UNL A   1      48.681  26.115  27.258  1.00  0.00     0.009 A 
ATOM     81  C   UNL A   1      50.041  25.233  29.530  1.00  0.00     0.001 A 
ATOM     82  C   UNL A   1      49.982  25.625  27.145  1.00  0.00     0.001 A 
ATOM     83  C   UNL A   1      50.663  25.193  28.282  1.00  0.00     0.000 A 
ENDBRANCH  65  78
ENDBRANCH  39  40
ENDBRANCH  32  34
ENDBRANCH  31  32
ENDBRANCH  30  31
ENDBRANCH   1  30
TORSDOF 15
ENDMDL
