MODEL 1
REMARK VINA RESULT:     -11.0      0.000      0.000
REMARK SMILES O=C(OCCOC(=O)c1cc(/C=C/c2cc(O)cc(O)c2)ccc1O)c1ccc(-c2c3nc(c(-c4ccccc4)c4ccc([nH]4)c(-c4ccccc4)c4nc(c(-c5ccccc5)c5ccc2[nH]5)C=C4)C=C3)cc1
REMARK SMILES IDX 5 1 4 2 3 3 2 4 1 5 26 6 27 7 73 8 28 9 72 10 29 11 30 12
REMARK SMILES IDX 31 13 66 14 32 15 71 16 65 17 67 18 33 19 70 20 64 21 63 22
REMARK SMILES IDX 34 24 56 25 41 26 55 27 42 28 45 29 54 30 68 31 43 32 44 33
REMARK SMILES IDX 53 35 69 36 46 37 35 38 36 39 40 40 37 41 39 42 38 43 57 44
REMARK SMILES IDX 58 45 62 46 59 47 61 48 60 49 47 50 48 51 52 52 49 53 51 54
REMARK SMILES IDX 50 55 6 56 7 57 8 58 9 59 10 60 24 61 11 62 23 63 22 64
REMARK SMILES IDX 25 65 12 67 13 68 14 69 15 70 21 71 16 72 19 73 18 74 17 75
REMARK SMILES IDX 20 77
REMARK H PARENT 67 23 45 34 25 66 17 76 20 78
REMARK Flexibility Score: inf
ROOT
ATOM      1  C   UNL A   1      31.603  31.477  26.876  1.00  0.00     0.275 C 
ENDROOT
BRANCH   1   2
ATOM      2  C   UNL A   1      31.969  32.930  26.571  1.00  0.00     0.275 C 
BRANCH   2   3
ATOM      3  O   UNL A   1      32.153  33.757  27.735  1.00  0.00    -0.458 OA
BRANCH   3   4
ATOM      4  C   UNL A   1      33.282  34.244  28.296  1.00  0.00     0.338 C 
ATOM      5  O   UNL A   1      33.423  35.465  28.374  1.00  0.00    -0.246 OA
BRANCH   4   6
ATOM      6  C   UNL A   1      34.440  33.400  28.731  1.00  0.00     0.060 A 
ATOM      7  C   UNL A   1      34.376  32.097  29.225  1.00  0.00     0.016 A 
ATOM      8  C   UNL A   1      35.707  34.014  28.669  1.00  0.00     0.016 A 
ATOM      9  C   UNL A   1      35.536  31.412  29.602  1.00  0.00     0.010 A 
ATOM     10  C   UNL A   1      36.872  33.332  29.027  1.00  0.00     0.010 A 
ATOM     11  C   UNL A   1      36.786  32.028  29.517  1.00  0.00    -0.014 A 
BRANCH  11  12
ATOM     12  C   UNL A   1      37.962  31.360  30.111  1.00  0.00     0.031 A 
ATOM     13  C   UNL A   1      38.281  31.629  31.551  1.00  0.00     0.074 A 
ATOM     14  C   UNL A   1      38.683  30.473  29.403  1.00  0.00     0.049 A 
ATOM     15  N   UNL A   1      39.163  31.050  32.323  1.00  0.00    -0.248 NA
ATOM     16  C   UNL A   1      37.481  32.669  32.219  1.00  0.00     0.031 C 
ATOM     17  C   UNL A   1      38.422  30.091  28.017  1.00  0.00     0.029 A 
ATOM     18  N   UNL A   1      39.774  29.724  29.756  1.00  0.00    -0.354 N 
ATOM     19  C   UNL A   1      39.000  31.631  33.572  1.00  0.00     0.074 A 
ATOM     20  C   UNL A   1      37.981  32.649  33.444  1.00  0.00     0.031 C 
ATOM     21  C   UNL A   1      39.340  29.191  27.627  1.00  0.00     0.029 A 
ATOM     22  C   UNL A   1      40.242  28.922  28.744  1.00  0.00     0.049 A 
ATOM     23  H   UNL A   1      40.184  29.756  30.651  1.00  0.00     0.167 HD
ATOM     24  C   UNL A   1      39.624  31.326  34.732  1.00  0.00     0.031 A 
ATOM     25  C   UNL A   1      41.271  28.055  28.731  1.00  0.00     0.031 A 
ATOM     26  C   UNL A   1      40.667  30.347  34.845  1.00  0.00     0.049 A 
ATOM     27  C   UNL A   1      42.027  27.810  30.008  1.00  0.00     0.074 A 
ATOM     28  C   UNL A   1      41.382  29.967  35.966  1.00  0.00     0.029 A 
ATOM     29  N   UNL A   1      41.155  29.602  33.781  1.00  0.00    -0.354 N 
ATOM     30  N   UNL A   1      41.820  28.323  31.198  1.00  0.00    -0.248 NA
ATOM     31  C   UNL A   1      43.129  26.842  29.950  1.00  0.00     0.031 C 
ATOM     32  C   UNL A   1      42.337  29.023  35.570  1.00  0.00     0.029 A 
ATOM     33  C   UNL A   1      42.181  28.781  34.212  1.00  0.00     0.049 A 
ATOM     34  H   UNL A   1      40.820  29.651  32.856  1.00  0.00     0.167 HD
ATOM     35  C   UNL A   1      42.734  27.703  32.041  1.00  0.00     0.074 A 
ATOM     36  C   UNL A   1      43.497  26.781  31.222  1.00  0.00     0.031 C 
ATOM     37  C   UNL A   1      42.917  27.869  33.374  1.00  0.00     0.031 A 
BRANCH  24  38
ATOM     38  C   UNL A   1      39.198  32.102  35.945  1.00  0.00    -0.014 A 
ATOM     39  C   UNL A   1      38.152  31.644  36.765  1.00  0.00     0.009 A 
ATOM     40  C   UNL A   1      39.807  33.330  36.240  1.00  0.00     0.009 A 
ATOM     41  C   UNL A   1      37.694  32.425  37.828  1.00  0.00     0.001 A 
ATOM     42  C   UNL A   1      39.363  34.098  37.317  1.00  0.00     0.001 A 
ATOM     43  C   UNL A   1      38.299  33.652  38.102  1.00  0.00     0.000 A 
ENDBRANCH  24  38
BRANCH  25  44
ATOM     44  C   UNL A   1      41.616  27.320  27.486  1.00  0.00    -0.014 A 
ATOM     45  C   UNL A   1      42.518  27.861  26.559  1.00  0.00     0.009 A 
ATOM     46  C   UNL A   1      41.032  26.071  27.215  1.00  0.00     0.009 A 
ATOM     47  C   UNL A   1      42.809  27.179  25.373  1.00  0.00     0.001 A 
ATOM     48  C   UNL A   1      41.342  25.382  26.040  1.00  0.00     0.001 A 
ATOM     49  C   UNL A   1      42.225  25.940  25.117  1.00  0.00     0.000 A 
ENDBRANCH  25  44
BRANCH  37  50
ATOM     50  C   UNL A   1      43.947  27.000  34.034  1.00  0.00    -0.014 A 
ATOM     51  C   UNL A   1      43.622  25.727  34.526  1.00  0.00     0.009 A 
ATOM     52  C   UNL A   1      45.273  27.451  34.123  1.00  0.00     0.009 A 
ATOM     53  C   UNL A   1      44.604  24.934  35.124  1.00  0.00     0.001 A 
ATOM     54  C   UNL A   1      46.256  26.646  34.697  1.00  0.00     0.001 A 
ATOM     55  C   UNL A   1      45.919  25.392  35.205  1.00  0.00     0.000 A 
ENDBRANCH  37  50
ENDBRANCH  11  12
ENDBRANCH   4   6
ENDBRANCH   3   4
ENDBRANCH   2   3
ENDBRANCH   1   2
BRANCH   1  56
ATOM     56  O   UNL A   1      32.409  30.542  26.149  1.00  0.00    -0.458 OA
BRANCH  56  57
ATOM     57  C   UNL A   1      32.158  29.234  26.414  1.00  0.00     0.342 C 
ATOM     58  O   UNL A   1      31.705  28.771  27.449  1.00  0.00    -0.246 OA
BRANCH  57  59
ATOM     59  C   UNL A   1      32.324  28.435  25.188  1.00  0.00     0.102 A 
ATOM     60  C   UNL A   1      33.142  27.298  25.275  1.00  0.00     0.027 A 
ATOM     61  C   UNL A   1      31.707  28.762  23.981  1.00  0.00     0.130 A 
ATOM     62  C   UNL A   1      33.285  26.434  24.182  1.00  0.00    -0.025 A 
ATOM     63  C   UNL A   1      31.885  27.940  22.869  1.00  0.00     0.048 A 
ATOM     64  C   UNL A   1      32.657  26.777  22.976  1.00  0.00     0.012 A 
BRANCH  61  65
ATOM     65  O   UNL A   1      30.941  29.888  23.876  1.00  0.00    -0.507 OA
ATOM     66  H   UNL A   1      30.765  30.407  24.636  1.00  0.00     0.293 HD
ENDBRANCH  61  65
BRANCH  62  67
ATOM     67  C   UNL A   1      34.083  25.197  24.236  1.00  0.00     0.009 C 
ATOM     68  C   UNL A   1      34.874  24.828  25.259  1.00  0.00     0.009 C 
BRANCH  68  69
ATOM     69  C   UNL A   1      35.669  23.590  25.263  1.00  0.00    -0.018 A 
ATOM     70  C   UNL A   1      37.055  23.608  25.484  1.00  0.00     0.054 A 
ATOM     71  C   UNL A   1      35.018  22.356  25.121  1.00  0.00     0.054 A 
ATOM     72  C   UNL A   1      37.768  22.412  25.533  1.00  0.00     0.119 A 
ATOM     73  C   UNL A   1      35.753  21.171  25.174  1.00  0.00     0.119 A 
ATOM     74  C   UNL A   1      37.127  21.192  25.375  1.00  0.00     0.092 A 
BRANCH  72  75
ATOM     75  O   UNL A   1      39.116  22.403  25.751  1.00  0.00    -0.508 OA
ATOM     76  H   UNL A   1      39.546  23.175  26.063  1.00  0.00     0.293 HD
ENDBRANCH  72  75
BRANCH  73  77
ATOM     77  O   UNL A   1      35.150  19.954  25.038  1.00  0.00    -0.508 OA
ATOM     78  H   UNL A   1      34.697  19.572  25.764  1.00  0.00     0.293 HD
ENDBRANCH  73  77
ENDBRANCH  68  69
ENDBRANCH  62  67
ENDBRANCH  57  59
ENDBRANCH  56  57
ENDBRANCH   1  56
TORSDOF 16
ENDMDL
MODEL 2
REMARK VINA RESULT:     -11.0      3.517      7.272
REMARK SMILES O=C(OCCOC(=O)c1cc(/C=C/c2cc(O)cc(O)c2)ccc1O)c1ccc(-c2c3nc(c(-c4ccccc4)c4ccc([nH]4)c(-c4ccccc4)c4nc(c(-c5ccccc5)c5ccc2[nH]5)C=C4)C=C3)cc1
REMARK SMILES IDX 5 1 4 2 3 3 2 4 1 5 26 6 27 7 73 8 28 9 72 10 29 11 30 12
REMARK SMILES IDX 31 13 66 14 32 15 71 16 65 17 67 18 33 19 70 20 64 21 63 22
REMARK SMILES IDX 34 24 56 25 41 26 55 27 42 28 45 29 54 30 68 31 43 32 44 33
REMARK SMILES IDX 53 35 69 36 46 37 35 38 36 39 40 40 37 41 39 42 38 43 57 44
REMARK SMILES IDX 58 45 62 46 59 47 61 48 60 49 47 50 48 51 52 52 49 53 51 54
REMARK SMILES IDX 50 55 6 56 7 57 8 58 9 59 10 60 24 61 11 62 23 63 22 64
REMARK SMILES IDX 25 65 12 67 13 68 14 69 15 70 21 71 16 72 19 73 18 74 17 75
REMARK SMILES IDX 20 77
REMARK H PARENT 67 23 45 34 25 66 17 76 20 78
REMARK Flexibility Score: inf
ROOT
ATOM      1  C   UNL A   1      34.309  34.654  27.778  1.00  0.00     0.275 C 
ENDROOT
BRANCH   1   2
ATOM      2  C   UNL A   1      34.537  33.281  28.410  1.00  0.00     0.275 C 
BRANCH   2   3
ATOM      3  O   UNL A   1      34.241  32.168  27.546  1.00  0.00    -0.458 OA
BRANCH   3   4
ATOM      4  C   UNL A   1      34.393  30.840  27.743  1.00  0.00     0.338 C 
ATOM      5  O   UNL A   1      33.407  30.110  27.624  1.00  0.00    -0.246 OA
BRANCH   4   6
ATOM      6  C   UNL A   1      35.660  30.195  28.211  1.00  0.00     0.060 A 
ATOM      7  C   UNL A   1      35.891  29.641  29.470  1.00  0.00     0.016 A 
ATOM      8  C   UNL A   1      36.727  30.194  27.291  1.00  0.00     0.016 A 
ATOM      9  C   UNL A   1      37.126  29.066  29.789  1.00  0.00     0.010 A 
ATOM     10  C   UNL A   1      37.958  29.606  27.594  1.00  0.00     0.010 A 
ATOM     11  C   UNL A   1      38.168  29.056  28.859  1.00  0.00    -0.014 A 
BRANCH  11  12
ATOM     12  C   UNL A   1      39.515  28.631  29.290  1.00  0.00     0.031 A 
ATOM     13  C   UNL A   1      40.242  29.478  30.291  1.00  0.00     0.074 A 
ATOM     14  C   UNL A   1      40.046  27.474  28.854  1.00  0.00     0.049 A 
ATOM     15  N   UNL A   1      41.359  29.230  30.924  1.00  0.00    -0.248 NA
ATOM     16  C   UNL A   1      39.613  30.760  30.650  1.00  0.00     0.031 C 
ATOM     17  C   UNL A   1      39.398  26.547  27.931  1.00  0.00     0.029 A 
ATOM     18  N   UNL A   1      41.245  26.877  29.143  1.00  0.00    -0.354 N 
ATOM     19  C   UNL A   1      41.547  30.308  31.777  1.00  0.00     0.074 A 
ATOM     20  C   UNL A   1      40.466  31.240  31.539  1.00  0.00     0.031 C 
ATOM     21  C   UNL A   1      40.215  25.502  27.710  1.00  0.00     0.029 A 
ATOM     22  C   UNL A   1      41.435  25.683  28.492  1.00  0.00     0.049 A 
ATOM     23  H   UNL A   1      41.907  27.267  29.759  1.00  0.00     0.167 HD
ATOM     24  C   UNL A   1      42.520  30.495  32.698  1.00  0.00     0.031 A 
ATOM     25  C   UNL A   1      42.471  24.825  28.542  1.00  0.00     0.031 A 
ATOM     26  C   UNL A   1      43.615  29.591  32.898  1.00  0.00     0.049 A 
ATOM     27  C   UNL A   1      43.599  25.108  29.495  1.00  0.00     0.074 A 
ATOM     28  C   UNL A   1      44.667  29.687  33.791  1.00  0.00     0.029 A 
ATOM     29  N   UNL A   1      43.805  28.424  32.173  1.00  0.00    -0.354 N 
ATOM     30  N   UNL A   1      43.733  26.101  30.341  1.00  0.00    -0.248 NA
ATOM     31  C   UNL A   1      44.698  24.134  29.527  1.00  0.00     0.031 C 
ATOM     32  C   UNL A   1      45.520  28.598  33.572  1.00  0.00     0.029 A 
ATOM     33  C   UNL A   1      44.971  27.801  32.578  1.00  0.00     0.049 A 
ATOM     34  H   UNL A   1      43.198  28.088  31.473  1.00  0.00     0.167 HD
ATOM     35  C   UNL A   1      44.905  25.847  31.042  1.00  0.00     0.074 A 
ATOM     36  C   UNL A   1      45.444  24.608  30.516  1.00  0.00     0.031 C 
ATOM     37  C   UNL A   1      45.477  26.564  32.040  1.00  0.00     0.031 A 
BRANCH  24  38
ATOM     38  C   UNL A   1      42.432  31.751  33.516  1.00  0.00    -0.014 A 
ATOM     39  C   UNL A   1      41.687  31.787  34.707  1.00  0.00     0.009 A 
ATOM     40  C   UNL A   1      43.052  32.925  33.065  1.00  0.00     0.009 A 
ATOM     41  C   UNL A   1      41.526  32.986  35.404  1.00  0.00     0.001 A 
ATOM     42  C   UNL A   1      42.909  34.117  33.777  1.00  0.00     0.001 A 
ATOM     43  C   UNL A   1      42.136  34.150  34.937  1.00  0.00     0.000 A 
ENDBRANCH  24  38
BRANCH  25  44
ATOM     44  C   UNL A   1      42.467  23.598  27.704  1.00  0.00    -0.014 A 
ATOM     45  C   UNL A   1      41.958  22.389  28.201  1.00  0.00     0.009 A 
ATOM     46  C   UNL A   1      42.986  23.629  26.399  1.00  0.00     0.009 A 
ATOM     47  C   UNL A   1      41.991  21.231  27.419  1.00  0.00     0.001 A 
ATOM     48  C   UNL A   1      42.997  22.475  25.612  1.00  0.00     0.001 A 
ATOM     49  C   UNL A   1      42.507  21.275  26.125  1.00  0.00     0.000 A 
ENDBRANCH  25  44
BRANCH  37  50
ATOM     50  C   UNL A   1      46.722  25.997  32.658  1.00  0.00    -0.014 A 
ATOM     51  C   UNL A   1      47.995  26.335  32.177  1.00  0.00     0.009 A 
ATOM     52  C   UNL A   1      46.612  25.145  33.769  1.00  0.00     0.009 A 
ATOM     53  C   UNL A   1      49.137  25.803  32.780  1.00  0.00     0.001 A 
ATOM     54  C   UNL A   1      47.755  24.638  34.385  1.00  0.00     0.001 A 
ATOM     55  C   UNL A   1      49.016  24.960  33.885  1.00  0.00     0.000 A 
ENDBRANCH  37  50
ENDBRANCH  11  12
ENDBRANCH   4   6
ENDBRANCH   3   4
ENDBRANCH   2   3
ENDBRANCH   1   2
BRANCH   1  56
ATOM     56  O   UNL A   1      34.463  35.725  28.716  1.00  0.00    -0.458 OA
BRANCH  56  57
ATOM     57  C   UNL A   1      33.352  36.028  29.436  1.00  0.00     0.342 C 
ATOM     58  O   UNL A   1      32.201  36.051  29.030  1.00  0.00    -0.246 OA
BRANCH  57  59
ATOM     59  C   UNL A   1      33.697  36.141  30.864  1.00  0.00     0.102 A 
ATOM     60  C   UNL A   1      34.275  35.015  31.470  1.00  0.00     0.027 A 
ATOM     61  C   UNL A   1      33.476  37.300  31.607  1.00  0.00     0.130 A 
ATOM     62  C   UNL A   1      34.713  35.063  32.799  1.00  0.00    -0.025 A 
ATOM     63  C   UNL A   1      33.858  37.343  32.948  1.00  0.00     0.048 A 
ATOM     64  C   UNL A   1      34.484  36.237  33.532  1.00  0.00     0.012 A 
BRANCH  61  65
ATOM     65  O   UNL A   1      32.878  38.388  31.037  1.00  0.00    -0.507 OA
ATOM     66  H   UNL A   1      32.777  38.432  30.107  1.00  0.00     0.293 HD
ENDBRANCH  61  65
BRANCH  62  67
ATOM     67  C   UNL A   1      35.378  33.932  33.466  1.00  0.00     0.009 C 
ATOM     68  C   UNL A   1      36.540  34.001  34.138  1.00  0.00     0.009 C 
BRANCH  68  69
ATOM     69  C   UNL A   1      37.180  32.839  34.775  1.00  0.00    -0.018 A 
ATOM     70  C   UNL A   1      37.513  31.690  34.040  1.00  0.00     0.054 A 
ATOM     71  C   UNL A   1      37.536  32.908  36.130  1.00  0.00     0.054 A 
ATOM     72  C   UNL A   1      38.165  30.629  34.665  1.00  0.00     0.119 A 
ATOM     73  C   UNL A   1      38.188  31.833  36.734  1.00  0.00     0.119 A 
ATOM     74  C   UNL A   1      38.501  30.690  36.009  1.00  0.00     0.092 A 
BRANCH  72  75
ATOM     75  O   UNL A   1      38.504  29.502  33.971  1.00  0.00    -0.508 OA
ATOM     76  H   UNL A   1      38.756  28.726  34.433  1.00  0.00     0.293 HD
ENDBRANCH  72  75
BRANCH  73  77
ATOM     77  O   UNL A   1      38.547  31.868  38.050  1.00  0.00    -0.508 OA
ATOM     78  H   UNL A   1      37.959  31.545  38.705  1.00  0.00     0.293 HD
ENDBRANCH  73  77
ENDBRANCH  68  69
ENDBRANCH  62  67
ENDBRANCH  57  59
ENDBRANCH  56  57
ENDBRANCH   1  56
TORSDOF 16
ENDMDL
MODEL 3
REMARK VINA RESULT:     -11.0      4.159      9.638
REMARK SMILES O=C(OCCOC(=O)c1cc(/C=C/c2cc(O)cc(O)c2)ccc1O)c1ccc(-c2c3nc(c(-c4ccccc4)c4ccc([nH]4)c(-c4ccccc4)c4nc(c(-c5ccccc5)c5ccc2[nH]5)C=C4)C=C3)cc1
REMARK SMILES IDX 5 1 4 2 3 3 2 4 1 5 26 6 27 7 73 8 28 9 72 10 29 11 30 12
REMARK SMILES IDX 31 13 66 14 32 15 71 16 65 17 67 18 33 19 70 20 64 21 63 22
REMARK SMILES IDX 34 24 56 25 41 26 55 27 42 28 45 29 54 30 68 31 43 32 44 33
REMARK SMILES IDX 53 35 69 36 46 37 35 38 36 39 40 40 37 41 39 42 38 43 57 44
REMARK SMILES IDX 58 45 62 46 59 47 61 48 60 49 47 50 48 51 52 52 49 53 51 54
REMARK SMILES IDX 50 55 6 56 7 57 8 58 9 59 10 60 24 61 11 62 23 63 22 64
REMARK SMILES IDX 25 65 12 67 13 68 14 69 15 70 21 71 16 72 19 73 18 74 17 75
REMARK SMILES IDX 20 77
REMARK H PARENT 67 23 45 34 25 66 17 76 20 78
REMARK Flexibility Score: inf
ROOT
ATOM      1  C   UNL A   1      37.978  21.456  25.280  1.00  0.00     0.275 C 
ENDROOT
BRANCH   1   2
ATOM      2  C   UNL A   1      38.283  20.000  25.634  1.00  0.00     0.275 C 
BRANCH   2   3
ATOM      3  O   UNL A   1      39.593  19.551  25.244  1.00  0.00    -0.458 OA
BRANCH   3   4
ATOM      4  C   UNL A   1      40.784  19.667  25.874  1.00  0.00     0.338 C 
ATOM      5  O   UNL A   1      41.502  18.670  25.965  1.00  0.00    -0.246 OA
BRANCH   4   6
ATOM      6  C   UNL A   1      41.251  20.904  26.577  1.00  0.00     0.060 A 
ATOM      7  C   UNL A   1      41.126  21.179  27.938  1.00  0.00     0.016 A 
ATOM      8  C   UNL A   1      41.834  21.893  25.760  1.00  0.00     0.016 A 
ATOM      9  C   UNL A   1      41.604  22.379  28.477  1.00  0.00     0.010 A 
ATOM     10  C   UNL A   1      42.330  23.086  26.292  1.00  0.00     0.010 A 
ATOM     11  C   UNL A   1      42.196  23.342  27.657  1.00  0.00    -0.014 A 
BRANCH  11  12
ATOM     12  C   UNL A   1      42.503  24.675  28.215  1.00  0.00     0.031 A 
ATOM     13  C   UNL A   1      43.931  24.999  28.539  1.00  0.00     0.074 A 
ATOM     14  C   UNL A   1      41.540  25.602  28.357  1.00  0.00     0.049 A 
ATOM     15  N   UNL A   1      44.457  26.142  28.892  1.00  0.00    -0.248 NA
ATOM     16  C   UNL A   1      44.900  23.896  28.420  1.00  0.00     0.031 C 
ATOM     17  C   UNL A   1      40.133  25.413  28.013  1.00  0.00     0.029 A 
ATOM     18  N   UNL A   1      41.602  26.892  28.814  1.00  0.00    -0.354 N 
ATOM     19  C   UNL A   1      45.819  25.903  29.006  1.00  0.00     0.074 A 
ATOM     20  C   UNL A   1      46.033  24.496  28.745  1.00  0.00     0.031 C 
ATOM     21  C   UNL A   1      39.456  26.540  28.290  1.00  0.00     0.029 A 
ATOM     22  C   UNL A   1      40.388  27.535  28.813  1.00  0.00     0.049 A 
ATOM     23  H   UNL A   1      42.437  27.318  29.113  1.00  0.00     0.167 HD
ATOM     24  C   UNL A   1      46.810  26.782  29.276  1.00  0.00     0.031 A 
ATOM     25  C   UNL A   1      40.074  28.792  29.176  1.00  0.00     0.031 A 
ATOM     26  C   UNL A   1      46.589  28.167  29.580  1.00  0.00     0.049 A 
ATOM     27  C   UNL A   1      41.181  29.726  29.582  1.00  0.00     0.074 A 
ATOM     28  C   UNL A   1      47.516  29.146  29.886  1.00  0.00     0.029 A 
ATOM     29  N   UNL A   1      45.337  28.763  29.631  1.00  0.00    -0.354 N 
ATOM     30  N   UNL A   1      42.473  29.502  29.624  1.00  0.00    -0.248 NA
ATOM     31  C   UNL A   1      40.791  31.093  29.951  1.00  0.00     0.031 C 
ATOM     32  C   UNL A   1      46.819  30.327  30.169  1.00  0.00     0.029 A 
ATOM     33  C   UNL A   1      45.463  30.092  29.990  1.00  0.00     0.049 A 
ATOM     34  H   UNL A   1      44.486  28.307  29.441  1.00  0.00     0.167 HD
ATOM     35  C   UNL A   1      43.056  30.712  29.977  1.00  0.00     0.074 A 
ATOM     36  C   UNL A   1      41.973  31.663  30.141  1.00  0.00     0.031 C 
ATOM     37  C   UNL A   1      44.367  31.016  30.137  1.00  0.00     0.031 A 
BRANCH  24  38
ATOM     38  C   UNL A   1      48.207  26.233  29.284  1.00  0.00    -0.014 A 
ATOM     39  C   UNL A   1      48.797  25.772  30.474  1.00  0.00     0.009 A 
ATOM     40  C   UNL A   1      48.964  26.228  28.104  1.00  0.00     0.009 A 
ATOM     41  C   UNL A   1      50.131  25.362  30.490  1.00  0.00     0.001 A 
ATOM     42  C   UNL A   1      50.291  25.796  28.117  1.00  0.00     0.001 A 
ATOM     43  C   UNL A   1      50.878  25.376  29.311  1.00  0.00     0.000 A 
ENDBRANCH  24  38
BRANCH  25  44
ATOM     44  C   UNL A   1      38.663  29.255  29.126  1.00  0.00    -0.014 A 
ATOM     45  C   UNL A   1      37.813  29.091  30.229  1.00  0.00     0.009 A 
ATOM     46  C   UNL A   1      38.155  29.858  27.963  1.00  0.00     0.009 A 
ATOM     47  C   UNL A   1      36.477  29.497  30.161  1.00  0.00     0.001 A 
ATOM     48  C   UNL A   1      36.826  30.283  27.906  1.00  0.00     0.001 A 
ATOM     49  C   UNL A   1      35.986  30.095  29.003  1.00  0.00     0.000 A 
ENDBRANCH  25  44
BRANCH  37  50
ATOM     50  C   UNL A   1      44.702  32.443  30.458  1.00  0.00    -0.014 A 
ATOM     51  C   UNL A   1      44.829  32.884  31.783  1.00  0.00     0.009 A 
ATOM     52  C   UNL A   1      44.936  33.347  29.410  1.00  0.00     0.009 A 
ATOM     53  C   UNL A   1      45.154  34.215  32.052  1.00  0.00     0.001 A 
ATOM     54  C   UNL A   1      45.286  34.669  29.682  1.00  0.00     0.001 A 
ATOM     55  C   UNL A   1      45.387  35.104  31.003  1.00  0.00     0.000 A 
ENDBRANCH  37  50
ENDBRANCH  11  12
ENDBRANCH   4   6
ENDBRANCH   3   4
ENDBRANCH   2   3
ENDBRANCH   1   2
BRANCH   1  56
ATOM     56  O   UNL A   1      36.597  21.789  25.458  1.00  0.00    -0.458 OA
BRANCH  56  57
ATOM     57  C   UNL A   1      36.350  23.088  25.771  1.00  0.00     0.342 C 
ATOM     58  O   UNL A   1      37.147  24.012  25.737  1.00  0.00    -0.246 OA
BRANCH  57  59
ATOM     59  C   UNL A   1      34.905  23.287  25.976  1.00  0.00     0.102 A 
ATOM     60  C   UNL A   1      34.296  24.321  25.249  1.00  0.00     0.027 A 
ATOM     61  C   UNL A   1      34.148  22.499  26.842  1.00  0.00     0.130 A 
ATOM     62  C   UNL A   1      32.912  24.524  25.317  1.00  0.00    -0.025 A 
ATOM     63  C   UNL A   1      32.777  22.727  26.961  1.00  0.00     0.048 A 
ATOM     64  C   UNL A   1      32.164  23.723  26.192  1.00  0.00     0.012 A 
BRANCH  61  65
ATOM     65  O   UNL A   1      34.738  21.517  27.584  1.00  0.00    -0.507 OA
ATOM     66  H   UNL A   1      35.412  21.735  28.198  1.00  0.00     0.293 HD
ENDBRANCH  61  65
BRANCH  62  67
ATOM     67  C   UNL A   1      32.213  25.555  24.531  1.00  0.00     0.009 C 
ATOM     68  C   UNL A   1      30.950  25.966  24.739  1.00  0.00     0.009 C 
BRANCH  68  69
ATOM     69  C   UNL A   1      30.284  26.989  23.916  1.00  0.00    -0.018 A 
ATOM     70  C   UNL A   1      28.885  27.073  23.839  1.00  0.00     0.054 A 
ATOM     71  C   UNL A   1      31.062  27.951  23.255  1.00  0.00     0.054 A 
ATOM     72  C   UNL A   1      28.288  28.086  23.092  1.00  0.00     0.119 A 
ATOM     73  C   UNL A   1      30.442  28.956  22.512  1.00  0.00     0.119 A 
ATOM     74  C   UNL A   1      29.058  29.027  22.423  1.00  0.00     0.092 A 
BRANCH  72  75
ATOM     75  O   UNL A   1      26.930  28.192  23.004  1.00  0.00    -0.508 OA
ATOM     76  H   UNL A   1      26.527  28.383  22.180  1.00  0.00     0.293 HD
ENDBRANCH  72  75
BRANCH  73  77
ATOM     77  O   UNL A   1      31.170  29.907  21.856  1.00  0.00    -0.508 OA
ATOM     78  H   UNL A   1      31.980  29.675  21.445  1.00  0.00     0.293 HD
ENDBRANCH  73  77
ENDBRANCH  68  69
ENDBRANCH  62  67
ENDBRANCH  57  59
ENDBRANCH  56  57
ENDBRANCH   1  56
TORSDOF 16
ENDMDL
