MODEL 1
REMARK VINA RESULT:     -11.3      0.000      0.000
REMARK SMILES O=C(OCCOC(=O)[C@@H]1CCCC[C@@H]1c1nc(C2CCCCC2)no1)c1ccc(-c2c3nc(c(-c4ccccc4)c4ccc([nH]4)c(-c4ccccc4)c4nc(c(-c5ccccc5)c5ccc2[nH]5)C=C4)C=C3)cc1
REMARK SMILES IDX 4 1 3 2 2 3 1 4 26 5 27 6 73 7 28 8 72 9 29 10 30 11 31 12
REMARK SMILES IDX 66 13 32 14 71 15 65 16 67 17 33 18 70 19 64 20 63 21 34 23
REMARK SMILES IDX 56 24 41 25 55 26 42 27 45 28 54 29 68 30 43 31 44 32 53 34
REMARK SMILES IDX 69 35 46 36 35 37 36 38 40 39 37 40 39 41 38 42 57 43 58 44
REMARK SMILES IDX 62 45 59 46 61 47 60 48 47 49 48 50 52 51 49 52 51 53 50 54
REMARK SMILES IDX 5 55 6 56 7 57 8 58 9 59 10 60 14 61 11 62 13 63 12 64 15 65
REMARK SMILES IDX 16 66 25 67 17 68 24 69 18 70 19 71 23 72 20 73 22 74 21 75
REMARK H PARENT 67 22 45 33
REMARK Flexibility Score: inf
ROOT
ATOM      1  C   UNL A   1      32.658  30.073  26.451  1.00  0.00     0.275 C 
ENDROOT
BRANCH   1   2
ATOM      2  O   UNL A   1      33.040  31.125  27.383  1.00  0.00    -0.458 OA
BRANCH   2   3
ATOM      3  C   UNL A   1      34.181  31.442  28.051  1.00  0.00     0.338 C 
ATOM      4  O   UNL A   1      34.301  32.592  28.479  1.00  0.00    -0.246 OA
BRANCH   3   5
ATOM      5  C   UNL A   1      35.382  30.553  28.195  1.00  0.00     0.060 A 
ATOM      6  C   UNL A   1      36.299  30.281  27.201  1.00  0.00     0.016 A 
ATOM      7  C   UNL A   1      35.628  29.936  29.445  1.00  0.00     0.016 A 
ATOM      8  C   UNL A   1      37.511  29.627  27.524  1.00  0.00     0.010 A 
ATOM      9  C   UNL A   1      36.871  29.305  29.754  1.00  0.00     0.010 A 
ATOM     10  C   UNL A   1      37.920  29.281  28.831  1.00  0.00    -0.014 A 
BRANCH  10  11
ATOM     11  C   UNL A   1      39.326  28.699  29.106  1.00  0.00     0.031 A 
ATOM     12  C   UNL A   1      40.131  29.500  30.077  1.00  0.00     0.074 A 
ATOM     13  C   UNL A   1      39.920  27.529  28.696  1.00  0.00     0.049 A 
ATOM     14  N   UNL A   1      41.209  29.161  30.730  1.00  0.00    -0.248 NA
ATOM     15  C   UNL A   1      39.612  30.840  30.388  1.00  0.00     0.031 C 
ATOM     16  C   UNL A   1      39.327  26.494  27.889  1.00  0.00     0.029 A 
ATOM     17  N   UNL A   1      41.158  26.930  28.956  1.00  0.00    -0.354 N 
ATOM     18  C   UNL A   1      41.465  30.223  31.573  1.00  0.00     0.074 A 
ATOM     19  C   UNL A   1      40.450  31.226  31.330  1.00  0.00     0.031 C 
ATOM     20  C   UNL A   1      40.093  25.421  27.711  1.00  0.00     0.029 A 
ATOM     21  C   UNL A   1      41.323  25.657  28.403  1.00  0.00     0.049 A 
ATOM     22  H   UNL A   1      41.859  27.371  29.488  1.00  0.00     0.167 HD
ATOM     23  C   UNL A   1      42.464  30.368  32.468  1.00  0.00     0.031 A 
ATOM     24  C   UNL A   1      42.282  24.709  28.438  1.00  0.00     0.031 A 
ATOM     25  C   UNL A   1      43.574  29.471  32.606  1.00  0.00     0.049 A 
ATOM     26  C   UNL A   1      43.459  24.975  29.301  1.00  0.00     0.074 A 
ATOM     27  C   UNL A   1      44.697  29.624  33.397  1.00  0.00     0.029 A 
ATOM     28  N   UNL A   1      43.735  28.288  31.898  1.00  0.00    -0.354 N 
ATOM     29  N   UNL A   1      43.635  25.973  30.126  1.00  0.00    -0.248 NA
ATOM     30  C   UNL A   1      44.549  23.994  29.272  1.00  0.00     0.031 C 
ATOM     31  C   UNL A   1      45.576  28.576  33.108  1.00  0.00     0.029 A 
ATOM     32  C   UNL A   1      44.966  27.726  32.201  1.00  0.00     0.049 A 
ATOM     33  H   UNL A   1      43.076  27.905  31.276  1.00  0.00     0.167 HD
ATOM     34  C   UNL A   1      44.845  25.730  30.740  1.00  0.00     0.074 A 
ATOM     35  C   UNL A   1      45.347  24.474  30.214  1.00  0.00     0.031 C 
ATOM     36  C   UNL A   1      45.473  26.491  31.663  1.00  0.00     0.031 A 
BRANCH  23  37
ATOM     37  C   UNL A   1      42.418  31.642  33.250  1.00  0.00    -0.014 A 
ATOM     38  C   UNL A   1      43.103  32.785  32.804  1.00  0.00     0.009 A 
ATOM     39  C   UNL A   1      41.817  31.644  34.516  1.00  0.00     0.009 A 
ATOM     40  C   UNL A   1      43.232  33.892  33.642  1.00  0.00     0.001 A 
ATOM     41  C   UNL A   1      41.926  32.762  35.338  1.00  0.00     0.001 A 
ATOM     42  C   UNL A   1      42.646  33.878  34.909  1.00  0.00     0.000 A 
ENDBRANCH  23  37
BRANCH  24  43
ATOM     43  C   UNL A   1      42.173  23.417  27.671  1.00  0.00    -0.014 A 
ATOM     44  C   UNL A   1      41.588  22.270  28.238  1.00  0.00     0.009 A 
ATOM     45  C   UNL A   1      42.697  23.310  26.369  1.00  0.00     0.009 A 
ATOM     46  C   UNL A   1      41.566  21.052  27.543  1.00  0.00     0.001 A 
ATOM     47  C   UNL A   1      42.645  22.100  25.664  1.00  0.00     0.001 A 
ATOM     48  C   UNL A   1      42.093  20.968  26.257  1.00  0.00     0.000 A 
ENDBRANCH  24  43
BRANCH  36  49
ATOM     49  C   UNL A   1      46.773  25.964  32.182  1.00  0.00    -0.014 A 
ATOM     50  C   UNL A   1      47.986  26.235  31.531  1.00  0.00     0.009 A 
ATOM     51  C   UNL A   1      46.776  25.188  33.349  1.00  0.00     0.009 A 
ATOM     52  C   UNL A   1      49.177  25.703  32.022  1.00  0.00     0.001 A 
ATOM     53  C   UNL A   1      47.972  24.690  33.859  1.00  0.00     0.001 A 
ATOM     54  C   UNL A   1      49.169  24.939  33.188  1.00  0.00     0.000 A 
ENDBRANCH  36  49
ENDBRANCH  10  11
ENDBRANCH   3   5
ENDBRANCH   2   3
ENDBRANCH   1   2
BRANCH   1  55
ATOM     55  C   UNL A   1      32.088  28.830  27.137  1.00  0.00     0.274 C 
BRANCH  55  56
ATOM     56  O   UNL A   1      32.475  27.691  26.383  1.00  0.00    -0.462 OA
BRANCH  56  57
ATOM     57  C   UNL A   1      31.594  26.664  26.249  1.00  0.00     0.309 C 
ATOM     58  O   UNL A   1      30.584  26.499  26.902  1.00  0.00    -0.252 OA
BRANCH  57  59
ATOM     59  C   UNL A   1      31.974  25.841  25.039  1.00  0.00     0.111 C 
ATOM     60  C   UNL A   1      33.219  26.279  24.266  1.00  0.00     0.016 C 
ATOM     61  C   UNL A   1      30.798  25.565  24.105  1.00  0.00     0.093 C 
ATOM     62  C   UNL A   1      33.679  25.185  23.288  1.00  0.00     0.001 C 
ATOM     63  C   UNL A   1      31.298  24.446  23.138  1.00  0.00     0.014 C 
ATOM     64  C   UNL A   1      32.563  24.760  22.353  1.00  0.00     0.001 C 
BRANCH  61  65
ATOM     65  C   UNL A   1      29.928  26.773  23.625  1.00  0.00     0.230 A 
ATOM     66  N   UNL A   1      30.331  27.886  23.025  1.00  0.00    -0.196 NA
ATOM     67  O   UNL A   1      28.572  26.790  23.806  1.00  0.00    -0.339 OA
ATOM     68  C   UNL A   1      29.215  28.684  22.920  1.00  0.00     0.175 A 
ATOM     69  N   UNL A   1      28.104  28.045  23.329  1.00  0.00    -0.062 NA
BRANCH  68  70
ATOM     70  C   UNL A   1      29.230  30.156  22.430  1.00  0.00     0.061 C 
ATOM     71  C   UNL A   1      28.278  30.402  21.235  1.00  0.00     0.012 C 
ATOM     72  C   UNL A   1      28.875  31.205  23.509  1.00  0.00     0.012 C 
ATOM     73  C   UNL A   1      28.232  31.859  20.744  1.00  0.00     0.001 C 
ATOM     74  C   UNL A   1      28.885  32.660  23.025  1.00  0.00     0.001 C 
ATOM     75  C   UNL A   1      27.917  32.846  21.863  1.00  0.00     0.000 C 
ENDBRANCH  68  70
ENDBRANCH  61  65
ENDBRANCH  57  59
ENDBRANCH  56  57
ENDBRANCH  55  56
ENDBRANCH   1  55
TORSDOF 13
ENDMDL
MODEL 2
REMARK VINA RESULT:     -11.3      4.757      9.166
REMARK SMILES O=C(OCCOC(=O)[C@@H]1CCCC[C@@H]1c1nc(C2CCCCC2)no1)c1ccc(-c2c3nc(c(-c4ccccc4)c4ccc([nH]4)c(-c4ccccc4)c4nc(c(-c5ccccc5)c5ccc2[nH]5)C=C4)C=C3)cc1
REMARK SMILES IDX 4 1 3 2 2 3 1 4 26 5 27 6 73 7 28 8 72 9 29 10 30 11 31 12
REMARK SMILES IDX 66 13 32 14 71 15 65 16 67 17 33 18 70 19 64 20 63 21 34 23
REMARK SMILES IDX 56 24 41 25 55 26 42 27 45 28 54 29 68 30 43 31 44 32 53 34
REMARK SMILES IDX 69 35 46 36 35 37 36 38 40 39 37 40 39 41 38 42 57 43 58 44
REMARK SMILES IDX 62 45 59 46 61 47 60 48 47 49 48 50 52 51 49 52 51 53 50 54
REMARK SMILES IDX 5 55 6 56 7 57 8 58 9 59 10 60 14 61 11 62 13 63 12 64 15 65
REMARK SMILES IDX 16 66 25 67 17 68 24 69 18 70 19 71 23 72 20 73 22 74 21 75
REMARK H PARENT 67 22 45 33
REMARK Flexibility Score: inf
ROOT
ATOM      1  C   UNL A   1      37.396  21.500  24.338  1.00  0.00     0.275 C 
ENDROOT
BRANCH   1   2
ATOM      2  O   UNL A   1      38.175  20.800  25.350  1.00  0.00    -0.458 OA
BRANCH   2   3
ATOM      3  C   UNL A   1      39.352  21.041  25.987  1.00  0.00     0.338 C 
ATOM      4  O   UNL A   1      40.176  20.127  26.046  1.00  0.00    -0.246 OA
BRANCH   3   5
ATOM      5  C   UNL A   1      39.687  22.286  26.757  1.00  0.00     0.060 A 
ATOM      6  C   UNL A   1      40.689  22.399  27.697  1.00  0.00     0.016 A 
ATOM      7  C   UNL A   1      38.935  23.461  26.514  1.00  0.00     0.016 A 
ATOM      8  C   UNL A   1      41.060  23.678  28.176  1.00  0.00     0.010 A 
ATOM      9  C   UNL A   1      39.347  24.743  26.987  1.00  0.00     0.010 A 
ATOM     10  C   UNL A   1      40.534  24.902  27.708  1.00  0.00    -0.014 A 
BRANCH  10  11
ATOM     11  C   UNL A   1      41.103  26.257  28.185  1.00  0.00     0.031 A 
ATOM     12  C   UNL A   1      42.464  26.562  27.649  1.00  0.00     0.074 A 
ATOM     13  C   UNL A   1      40.539  27.269  28.926  1.00  0.00     0.049 A 
ATOM     14  N   UNL A   1      43.102  27.701  27.619  1.00  0.00    -0.248 NA
ATOM     15  C   UNL A   1      43.170  25.438  27.016  1.00  0.00     0.031 C 
ATOM     16  C   UNL A   1      39.195  27.319  29.439  1.00  0.00     0.029 A 
ATOM     17  N   UNL A   1      40.984  28.530  29.338  1.00  0.00    -0.354 N 
ATOM     18  C   UNL A   1      44.259  27.444  26.912  1.00  0.00     0.074 A 
ATOM     19  C   UNL A   1      44.250  26.041  26.557  1.00  0.00     0.031 C 
ATOM     20  C   UNL A   1      38.875  28.456  30.050  1.00  0.00     0.029 A 
ATOM     21  C   UNL A   1      40.030  29.299  30.009  1.00  0.00     0.049 A 
ATOM     22  H   UNL A   1      41.900  28.851  29.168  1.00  0.00     0.167 HD
ATOM     23  C   UNL A   1      45.257  28.293  26.591  1.00  0.00     0.031 A 
ATOM     24  C   UNL A   1      39.984  30.550  30.515  1.00  0.00     0.031 A 
ATOM     25  C   UNL A   1      45.374  29.638  27.075  1.00  0.00     0.049 A 
ATOM     26  C   UNL A   1      41.174  31.408  30.297  1.00  0.00     0.074 A 
ATOM     27  C   UNL A   1      46.428  30.514  26.903  1.00  0.00     0.029 A 
ATOM     28  N   UNL A   1      44.437  30.281  27.872  1.00  0.00    -0.354 N 
ATOM     29  N   UNL A   1      42.229  31.141  29.574  1.00  0.00    -0.248 NA
ATOM     30  C   UNL A   1      41.171  32.734  30.924  1.00  0.00     0.031 C 
ATOM     31  C   UNL A   1      46.169  31.659  27.663  1.00  0.00     0.029 A 
ATOM     32  C   UNL A   1      44.916  31.530  28.240  1.00  0.00     0.049 A 
ATOM     33  H   UNL A   1      43.566  29.909  28.136  1.00  0.00     0.167 HD
ATOM     34  C   UNL A   1      43.008  32.276  29.631  1.00  0.00     0.074 A 
ATOM     35  C   UNL A   1      42.291  33.246  30.438  1.00  0.00     0.031 C 
ATOM     36  C   UNL A   1      44.214  32.484  29.057  1.00  0.00     0.031 A 
BRANCH  23  37
ATOM     37  C   UNL A   1      46.353  27.684  25.777  1.00  0.00    -0.014 A 
ATOM     38  C   UNL A   1      47.405  26.985  26.392  1.00  0.00     0.009 A 
ATOM     39  C   UNL A   1      46.411  27.951  24.402  1.00  0.00     0.009 A 
ATOM     40  C   UNL A   1      48.524  26.612  25.649  1.00  0.00     0.001 A 
ATOM     41  C   UNL A   1      47.519  27.553  23.659  1.00  0.00     0.001 A 
ATOM     42  C   UNL A   1      48.581  26.899  24.285  1.00  0.00     0.000 A 
ENDBRANCH  23  37
BRANCH  24  43
ATOM     43  C   UNL A   1      38.780  31.084  31.245  1.00  0.00    -0.014 A 
ATOM     44  C   UNL A   1      37.782  31.821  30.581  1.00  0.00     0.009 A 
ATOM     45  C   UNL A   1      38.641  30.896  32.633  1.00  0.00     0.009 A 
ATOM     46  C   UNL A   1      36.707  32.382  31.287  1.00  0.00     0.001 A 
ATOM     47  C   UNL A   1      37.549  31.430  33.331  1.00  0.00     0.001 A 
ATOM     48  C   UNL A   1      36.591  32.185  32.660  1.00  0.00     0.000 A 
ENDBRANCH  24  43
BRANCH  36  49
ATOM     49  C   UNL A   1      44.822  33.834  29.266  1.00  0.00    -0.014 A 
ATOM     50  C   UNL A   1      44.641  34.872  28.340  1.00  0.00     0.009 A 
ATOM     51  C   UNL A   1      45.584  34.066  30.420  1.00  0.00     0.009 A 
ATOM     52  C   UNL A   1      45.247  36.110  28.548  1.00  0.00     0.001 A 
ATOM     53  C   UNL A   1      46.157  35.315  30.644  1.00  0.00     0.001 A 
ATOM     54  C   UNL A   1      45.997  36.331  29.703  1.00  0.00     0.000 A 
ENDBRANCH  36  49
ENDBRANCH  10  11
ENDBRANCH   3   5
ENDBRANCH   2   3
ENDBRANCH   1   2
BRANCH   1  55
ATOM     55  C   UNL A   1      35.889  21.463  24.598  1.00  0.00     0.274 C 
BRANCH  55  56
ATOM     56  O   UNL A   1      35.476  22.764  24.992  1.00  0.00    -0.462 OA
BRANCH  56  57
ATOM     57  C   UNL A   1      34.702  23.491  24.142  1.00  0.00     0.309 C 
ATOM     58  O   UNL A   1      34.955  23.739  22.981  1.00  0.00    -0.252 OA
BRANCH  57  59
ATOM     59  C   UNL A   1      33.384  23.801  24.817  1.00  0.00     0.111 C 
ATOM     60  C   UNL A   1      33.274  23.473  26.307  1.00  0.00     0.016 C 
ATOM     61  C   UNL A   1      32.174  23.295  24.035  1.00  0.00     0.093 C 
ATOM     62  C   UNL A   1      32.036  24.137  26.931  1.00  0.00     0.001 C 
ATOM     63  C   UNL A   1      30.943  23.997  24.689  1.00  0.00     0.014 C 
ATOM     64  C   UNL A   1      30.766  23.775  26.185  1.00  0.00     0.001 C 
BRANCH  61  65
ATOM     65  C   UNL A   1      32.153  21.798  23.582  1.00  0.00     0.230 A 
ATOM     66  N   UNL A   1      32.233  20.711  24.337  1.00  0.00    -0.196 NA
ATOM     67  O   UNL A   1      32.052  21.456  22.260  1.00  0.00    -0.339 OA
ATOM     68  C   UNL A   1      32.296  19.648  23.466  1.00  0.00     0.175 A 
ATOM     69  N   UNL A   1      32.134  20.039  22.189  1.00  0.00    -0.062 NA
BRANCH  68  70
ATOM     70  C   UNL A   1      32.563  18.179  23.889  1.00  0.00     0.061 C 
ATOM     71  C   UNL A   1      33.921  17.643  23.376  1.00  0.00     0.012 C 
ATOM     72  C   UNL A   1      32.529  17.925  25.414  1.00  0.00     0.012 C 
ATOM     73  C   UNL A   1      34.244  16.203  23.808  1.00  0.00     0.001 C 
ATOM     74  C   UNL A   1      32.797  16.475  25.834  1.00  0.00     0.001 C 
ATOM     75  C   UNL A   1      34.154  16.008  25.319  1.00  0.00     0.000 C 
ENDBRANCH  68  70
ENDBRANCH  61  65
ENDBRANCH  57  59
ENDBRANCH  56  57
ENDBRANCH  55  56
ENDBRANCH   1  55
TORSDOF 13
ENDMDL
MODEL 3
REMARK VINA RESULT:     -11.3      1.806      4.196
REMARK SMILES O=C(OCCOC(=O)[C@@H]1CCCC[C@@H]1c1nc(C2CCCCC2)no1)c1ccc(-c2c3nc(c(-c4ccccc4)c4ccc([nH]4)c(-c4ccccc4)c4nc(c(-c5ccccc5)c5ccc2[nH]5)C=C4)C=C3)cc1
REMARK SMILES IDX 4 1 3 2 2 3 1 4 26 5 27 6 73 7 28 8 72 9 29 10 30 11 31 12
REMARK SMILES IDX 66 13 32 14 71 15 65 16 67 17 33 18 70 19 64 20 63 21 34 23
REMARK SMILES IDX 56 24 41 25 55 26 42 27 45 28 54 29 68 30 43 31 44 32 53 34
REMARK SMILES IDX 69 35 46 36 35 37 36 38 40 39 37 40 39 41 38 42 57 43 58 44
REMARK SMILES IDX 62 45 59 46 61 47 60 48 47 49 48 50 52 51 49 52 51 53 50 54
REMARK SMILES IDX 5 55 6 56 7 57 8 58 9 59 10 60 14 61 11 62 13 63 12 64 15 65
REMARK SMILES IDX 16 66 25 67 17 68 24 69 18 70 19 71 23 72 20 73 22 74 21 75
REMARK H PARENT 67 22 45 33
REMARK Flexibility Score: inf
ROOT
ATOM      1  C   UNL A   1      32.787  30.275  26.655  1.00  0.00     0.275 C 
ENDROOT
BRANCH   1   2
ATOM      2  O   UNL A   1      33.201  31.246  27.659  1.00  0.00    -0.458 OA
BRANCH   2   3
ATOM      3  C   UNL A   1      34.384  31.567  28.248  1.00  0.00     0.338 C 
ATOM      4  O   UNL A   1      34.549  32.730  28.619  1.00  0.00    -0.246 OA
BRANCH   3   5
ATOM      5  C   UNL A   1      35.575  30.660  28.361  1.00  0.00     0.060 A 
ATOM      6  C   UNL A   1      36.492  30.415  27.360  1.00  0.00     0.016 A 
ATOM      7  C   UNL A   1      35.810  29.993  29.588  1.00  0.00     0.016 A 
ATOM      8  C   UNL A   1      37.696  29.735  27.662  1.00  0.00     0.010 A 
ATOM      9  C   UNL A   1      37.045  29.337  29.877  1.00  0.00     0.010 A 
ATOM     10  C   UNL A   1      38.097  29.336  28.956  1.00  0.00    -0.014 A 
BRANCH  10  11
ATOM     11  C   UNL A   1      39.495  28.729  29.213  1.00  0.00     0.031 A 
ATOM     12  C   UNL A   1      40.325  29.512  30.178  1.00  0.00     0.074 A 
ATOM     13  C   UNL A   1      40.064  27.550  28.792  1.00  0.00     0.049 A 
ATOM     14  N   UNL A   1      41.405  29.152  30.817  1.00  0.00    -0.248 NA
ATOM     15  C   UNL A   1      39.833  30.860  30.499  1.00  0.00     0.031 C 
ATOM     16  C   UNL A   1      39.444  26.529  27.989  1.00  0.00     0.029 A 
ATOM     17  N   UNL A   1      41.294  26.929  29.036  1.00  0.00    -0.354 N 
ATOM     18  C   UNL A   1      41.689  30.207  31.661  1.00  0.00     0.074 A 
ATOM     19  C   UNL A   1      40.689  31.228  31.433  1.00  0.00     0.031 C 
ATOM     20  C   UNL A   1      40.189  25.443  27.798  1.00  0.00     0.029 A 
ATOM     21  C   UNL A   1      41.430  25.655  28.477  1.00  0.00     0.049 A 
ATOM     22  H   UNL A   1      42.009  27.356  29.562  1.00  0.00     0.167 HD
ATOM     23  C   UNL A   1      42.701  30.331  32.544  1.00  0.00     0.031 A 
ATOM     24  C   UNL A   1      42.373  24.690  28.498  1.00  0.00     0.031 A 
ATOM     25  C   UNL A   1      43.796  29.414  32.667  1.00  0.00     0.049 A 
ATOM     26  C   UNL A   1      43.565  24.933  29.348  1.00  0.00     0.074 A 
ATOM     27  C   UNL A   1      44.930  29.545  33.445  1.00  0.00     0.029 A 
ATOM     28  N   UNL A   1      43.928  28.231  31.953  1.00  0.00    -0.354 N 
ATOM     29  N   UNL A   1      43.767  25.924  30.174  1.00  0.00    -0.248 NA
ATOM     30  C   UNL A   1      44.637  23.932  29.303  1.00  0.00     0.031 C 
ATOM     31  C   UNL A   1      45.788  28.482  33.143  1.00  0.00     0.029 A 
ATOM     32  C   UNL A   1      45.152  27.646  32.240  1.00  0.00     0.049 A 
ATOM     33  H   UNL A   1      43.255  27.862  31.337  1.00  0.00     0.167 HD
ATOM     34  C   UNL A   1      44.979  25.659  30.774  1.00  0.00     0.074 A 
ATOM     35  C   UNL A   1      45.454  24.396  30.238  1.00  0.00     0.031 C 
ATOM     36  C   UNL A   1      45.632  26.405  31.693  1.00  0.00     0.031 A 
BRANCH  23  37
ATOM     37  C   UNL A   1      42.686  31.603  33.331  1.00  0.00    -0.014 A 
ATOM     38  C   UNL A   1      43.389  32.734  32.883  1.00  0.00     0.009 A 
ATOM     39  C   UNL A   1      42.096  31.612  34.602  1.00  0.00     0.009 A 
ATOM     40  C   UNL A   1      43.546  33.836  33.724  1.00  0.00     0.001 A 
ATOM     41  C   UNL A   1      42.233  32.725  35.428  1.00  0.00     0.001 A 
ATOM     42  C   UNL A   1      42.971  33.828  34.996  1.00  0.00     0.000 A 
ENDBRANCH  23  37
BRANCH  24  43
ATOM     43  C   UNL A   1      42.233  23.404  27.728  1.00  0.00    -0.014 A 
ATOM     44  C   UNL A   1      42.675  23.290  26.397  1.00  0.00     0.009 A 
ATOM     45  C   UNL A   1      41.610  22.284  28.309  1.00  0.00     0.009 A 
ATOM     46  C   UNL A   1      42.465  22.112  25.664  1.00  0.00     0.001 A 
ATOM     47  C   UNL A   1      41.431  21.096  27.586  1.00  0.00     0.001 A 
ATOM     48  C   UNL A   1      41.845  21.017  26.259  1.00  0.00     0.000 A 
ENDBRANCH  24  43
BRANCH  36  49
ATOM     49  C   UNL A   1      46.928  25.853  32.194  1.00  0.00    -0.014 A 
ATOM     50  C   UNL A   1      48.134  26.082  31.515  1.00  0.00     0.009 A 
ATOM     51  C   UNL A   1      46.935  25.098  33.375  1.00  0.00     0.009 A 
ATOM     52  C   UNL A   1      49.321  25.528  31.991  1.00  0.00     0.001 A 
ATOM     53  C   UNL A   1      48.128  24.578  33.869  1.00  0.00     0.001 A 
ATOM     54  C   UNL A   1      49.317  24.784  33.171  1.00  0.00     0.000 A 
ENDBRANCH  36  49
ENDBRANCH  10  11
ENDBRANCH   3   5
ENDBRANCH   2   3
ENDBRANCH   1   2
BRANCH   1  55
ATOM     55  C   UNL A   1      31.738  29.285  27.163  1.00  0.00     0.274 C 
BRANCH  55  56
ATOM     56  O   UNL A   1      32.298  27.980  27.107  1.00  0.00    -0.462 OA
BRANCH  56  57
ATOM     57  C   UNL A   1      31.607  26.998  26.470  1.00  0.00     0.309 C 
ATOM     58  O   UNL A   1      31.074  26.042  26.997  1.00  0.00    -0.252 OA
BRANCH  57  59
ATOM     59  C   UNL A   1      31.454  27.366  25.012  1.00  0.00     0.111 C 
ATOM     60  C   UNL A   1      30.177  26.902  24.309  1.00  0.00     0.016 C 
ATOM     61  C   UNL A   1      32.698  27.062  24.180  1.00  0.00     0.093 C 
ATOM     62  C   UNL A   1      29.993  27.618  22.962  1.00  0.00     0.001 C 
ATOM     63  C   UNL A   1      32.480  27.812  22.828  1.00  0.00     0.014 C 
ATOM     64  C   UNL A   1      31.209  27.459  22.069  1.00  0.00     0.001 C 
BRANCH  61  65
ATOM     65  C   UNL A   1      33.317  25.628  24.262  1.00  0.00     0.230 A 
ATOM     66  N   UNL A   1      34.208  25.168  25.131  1.00  0.00    -0.196 NA
ATOM     67  O   UNL A   1      32.972  24.652  23.367  1.00  0.00    -0.339 OA
ATOM     68  C   UNL A   1      34.523  23.895  24.712  1.00  0.00     0.175 A 
ATOM     69  N   UNL A   1      33.760  23.508  23.674  1.00  0.00    -0.062 NA
BRANCH  68  70
ATOM     70  C   UNL A   1      35.648  23.021  25.326  1.00  0.00     0.061 C 
ATOM     71  C   UNL A   1      35.861  21.691  24.563  1.00  0.00     0.012 C 
ATOM     72  C   UNL A   1      37.030  23.710  25.420  1.00  0.00     0.012 C 
ATOM     73  C   UNL A   1      36.996  20.813  25.114  1.00  0.00     0.001 C 
ATOM     74  C   UNL A   1      38.144  22.845  26.023  1.00  0.00     0.001 C 
ATOM     75  C   UNL A   1      38.321  21.562  25.220  1.00  0.00     0.000 C 
ENDBRANCH  68  70
ENDBRANCH  61  65
ENDBRANCH  57  59
ENDBRANCH  56  57
ENDBRANCH  55  56
ENDBRANCH   1  55
TORSDOF 13
ENDMDL
