MODEL 1
REMARK VINA RESULT:     -11.4      0.000      0.000
REMARK SMILES CC[C@@H](Oc1ccccc1/C=C1/SC(Nc2ccc(F)cc2)=[NH+]C1=O)C(=O)OCCOC(=O)c1ccc(-c2c3nc(c(-c4ccccc4)c4ccc([nH]4)c(-c4ccccc4)c4nc(c(-c5ccccc5)c5ccc2[nH]5)C=C4)C=C3)cc1
REMARK SMILES IDX 29 1 28 2 26 3 27 4 3 5 2 6 1 7 4 8 5 9 6 10 10 11 7 12 9 13
REMARK SMILES IDX 8 14 11 15 12 16 13 17 24 18 14 19 23 20 25 21 15 22 16 25
REMARK SMILES IDX 17 26 22 27 18 28 21 29 19 30 20 31 30 32 31 33 32 34 33 35
REMARK SMILES IDX 34 36 35 37 81 38 36 39 80 40 37 41 38 42 39 43 74 44 40 45
REMARK SMILES IDX 79 46 73 47 75 48 41 49 78 50 72 51 71 52 42 54 64 55 49 56
REMARK SMILES IDX 63 57 50 58 53 59 62 60 76 61 51 62 52 63 61 65 77 66 54 67
REMARK SMILES IDX 43 68 44 69 48 70 45 71 47 72 46 73 65 74 66 75 70 76 67 77
REMARK SMILES IDX 69 78 68 79 55 80 56 81 60 82 57 83 59 84 58 85
REMARK H PARENT 23 23 15 24 75 53 53 64
REMARK Flexibility Score: inf
ROOT
ATOM      1  C   UNL A   1      32.534  29.328  24.376  1.00  0.00     0.274 C 
ENDROOT
BRANCH   1   2
ATOM      2  O   UNL A   1      32.178  27.934  24.329  1.00  0.00    -0.459 OA
BRANCH   2   3
ATOM      3  C   UNL A   1      33.195  27.049  24.539  1.00  0.00     0.347 C 
ATOM      4  O   UNL A   1      34.029  27.131  25.435  1.00  0.00    -0.248 OA
BRANCH   3   5
ATOM      5  C   UNL A   1      33.142  25.880  23.557  1.00  0.00     0.282 C 
BRANCH   5   6
ATOM      6  C   UNL A   1      33.262  26.396  22.112  1.00  0.00     0.054 C 
ATOM      7  C   UNL A   1      32.898  25.355  21.062  1.00  0.00     0.008 C 
ENDBRANCH   5   6
BRANCH   5   8
ATOM      8  O   UNL A   1      34.251  25.045  23.903  1.00  0.00    -0.478 OA
BRANCH   8   9
ATOM      9  C   UNL A   1      33.900  23.900  24.569  1.00  0.00     0.127 A 
ATOM     10  C   UNL A   1      32.689  23.276  24.266  1.00  0.00     0.047 A 
ATOM     11  C   UNL A   1      34.730  23.419  25.602  1.00  0.00     0.018 A 
ATOM     12  C   UNL A   1      32.323  22.120  24.949  1.00  0.00     0.004 A 
ATOM     13  C   UNL A   1      34.358  22.245  26.264  1.00  0.00     0.012 A 
ATOM     14  C   UNL A   1      33.159  21.601  25.939  1.00  0.00     0.001 A 
BRANCH  11  15
ATOM     15  C   UNL A   1      36.049  24.018  25.874  1.00  0.00     0.036 C 
ATOM     16  C   UNL A   1      37.225  23.383  25.764  1.00  0.00     0.110 C 
ATOM     17  S   UNL A   1      38.658  23.912  26.578  1.00  0.00     0.006 SA
ATOM     18  C   UNL A   1      37.492  22.055  25.127  1.00  0.00     0.346 C 
ATOM     19  C   UNL A   1      39.341  22.316  26.349  1.00  0.00     0.322 C 
ATOM     20  N   UNL A   1      38.667  21.514  25.594  1.00  0.00    -0.199 N 
ATOM     21  O   UNL A   1      36.797  21.554  24.263  1.00  0.00    -0.240 OA
ATOM     22  N   UNL A   1      40.525  22.042  26.969  1.00  0.00    -0.235 N 
ATOM     23  H   UNL A   1      38.965  20.602  25.374  1.00  0.00     0.316 HD
ATOM     24  H   UNL A   1      40.717  22.481  27.830  1.00  0.00     0.313 HD
BRANCH  22  25
ATOM     25  C   UNL A   1      41.483  21.165  26.438  1.00  0.00     0.125 A 
ATOM     26  C   UNL A   1      42.646  21.652  25.832  1.00  0.00     0.055 A 
ATOM     27  C   UNL A   1      41.322  19.774  26.569  1.00  0.00     0.055 A 
ATOM     28  C   UNL A   1      43.627  20.763  25.376  1.00  0.00     0.043 A 
ATOM     29  C   UNL A   1      42.287  18.888  26.098  1.00  0.00     0.043 A 
ATOM     30  C   UNL A   1      43.435  19.392  25.511  1.00  0.00     0.123 A 
ATOM     31  F   UNL A   1      44.375  18.545  25.074  1.00  0.00    -0.207 F 
ENDBRANCH  22  25
ENDBRANCH  11  15
ENDBRANCH   8   9
ENDBRANCH   5   8
ENDBRANCH   3   5
ENDBRANCH   2   3
ENDBRANCH   1   2
BRANCH   1  32
ATOM     32  C   UNL A   1      31.635  30.063  25.370  1.00  0.00     0.275 C 
BRANCH  32  33
ATOM     33  O   UNL A   1      32.261  30.081  26.667  1.00  0.00    -0.458 OA
BRANCH  33  34
ATOM     34  C   UNL A   1      32.789  31.263  27.054  1.00  0.00     0.338 C 
ATOM     35  O   UNL A   1      32.272  32.366  27.002  1.00  0.00    -0.246 OA
BRANCH  34  36
ATOM     36  C   UNL A   1      34.131  31.038  27.616  1.00  0.00     0.060 A 
ATOM     37  C   UNL A   1      34.569  29.738  27.875  1.00  0.00     0.016 A 
ATOM     38  C   UNL A   1      34.904  32.129  28.005  1.00  0.00     0.016 A 
ATOM     39  C   UNL A   1      35.742  29.520  28.589  1.00  0.00     0.010 A 
ATOM     40  C   UNL A   1      36.128  31.908  28.642  1.00  0.00     0.010 A 
ATOM     41  C   UNL A   1      36.542  30.603  28.966  1.00  0.00    -0.014 A 
BRANCH  41  42
ATOM     42  C   UNL A   1      37.803  30.375  29.711  1.00  0.00     0.031 A 
ATOM     43  C   UNL A   1      38.927  29.613  29.067  1.00  0.00     0.074 A 
ATOM     44  C   UNL A   1      37.936  30.843  30.966  1.00  0.00     0.049 A 
ATOM     45  N   UNL A   1      40.037  29.171  29.601  1.00  0.00    -0.248 NA
ATOM     46  C   UNL A   1      38.780  29.300  27.637  1.00  0.00     0.031 C 
ATOM     47  C   UNL A   1      36.942  31.644  31.684  1.00  0.00     0.029 A 
ATOM     48  N   UNL A   1      38.964  30.706  31.863  1.00  0.00    -0.354 N 
ATOM     49  C   UNL A   1      40.700  28.494  28.586  1.00  0.00     0.074 A 
ATOM     50  C   UNL A   1      39.865  28.574  27.407  1.00  0.00     0.031 C 
ATOM     51  C   UNL A   1      37.413  31.935  32.907  1.00  0.00     0.029 A 
ATOM     52  C   UNL A   1      38.703  31.281  33.083  1.00  0.00     0.049 A 
ATOM     53  H   UNL A   1      39.806  30.239  31.655  1.00  0.00     0.167 HD
ATOM     54  C   UNL A   1      41.896  27.860  28.635  1.00  0.00     0.031 A 
ATOM     55  C   UNL A   1      39.404  31.248  34.232  1.00  0.00     0.031 A 
ATOM     56  C   UNL A   1      42.728  27.793  29.806  1.00  0.00     0.049 A 
ATOM     57  C   UNL A   1      40.694  30.482  34.280  1.00  0.00     0.074 A 
ATOM     58  C   UNL A   1      43.960  27.180  29.957  1.00  0.00     0.029 A 
ATOM     59  N   UNL A   1      42.413  28.363  31.030  1.00  0.00    -0.354 N 
ATOM     60  N   UNL A   1      41.298  29.823  33.320  1.00  0.00    -0.248 NA
ATOM     61  C   UNL A   1      41.395  30.449  35.570  1.00  0.00     0.031 C 
ATOM     62  C   UNL A   1      44.368  27.342  31.285  1.00  0.00     0.029 A 
ATOM     63  C   UNL A   1      43.416  28.101  31.946  1.00  0.00     0.049 A 
ATOM     64  H   UNL A   1      41.596  28.879  31.219  1.00  0.00     0.167 HD
ATOM     65  C   UNL A   1      42.459  29.314  33.886  1.00  0.00     0.074 A 
ATOM     66  C   UNL A   1      42.482  29.756  35.266  1.00  0.00     0.031 C 
ATOM     67  C   UNL A   1      43.420  28.549  33.314  1.00  0.00     0.031 A 
BRANCH  54  68
ATOM     68  C   UNL A   1      42.353  27.150  27.392  1.00  0.00    -0.014 A 
ATOM     69  C   UNL A   1      43.280  27.731  26.513  1.00  0.00     0.009 A 
ATOM     70  C   UNL A   1      41.866  25.863  27.110  1.00  0.00     0.009 A 
ATOM     71  C   UNL A   1      43.684  27.052  25.360  1.00  0.00     0.001 A 
ATOM     72  C   UNL A   1      42.292  25.176  25.972  1.00  0.00     0.001 A 
ATOM     73  C   UNL A   1      43.194  25.775  25.094  1.00  0.00     0.000 A 
ENDBRANCH  54  68
BRANCH  55  74
ATOM     74  C   UNL A   1      38.874  31.925  35.443  1.00  0.00    -0.014 A 
ATOM     75  C   UNL A   1      38.153  31.206  36.408  1.00  0.00     0.009 A 
ATOM     76  C   UNL A   1      39.089  33.299  35.642  1.00  0.00     0.009 A 
ATOM     77  C   UNL A   1      37.642  31.852  37.535  1.00  0.00     0.001 A 
ATOM     78  C   UNL A   1      38.603  33.935  36.785  1.00  0.00     0.001 A 
ATOM     79  C   UNL A   1      37.872  33.213  37.726  1.00  0.00     0.000 A 
ENDBRANCH  55  74
BRANCH  67  80
ATOM     80  C   UNL A   1      44.594  28.175  34.173  1.00  0.00    -0.014 A 
ATOM     81  C   UNL A   1      44.606  26.983  34.912  1.00  0.00     0.009 A 
ATOM     82  C   UNL A   1      45.716  29.016  34.217  1.00  0.00     0.009 A 
ATOM     83  C   UNL A   1      45.707  26.656  35.704  1.00  0.00     0.001 A 
ATOM     84  C   UNL A   1      46.828  28.673  34.989  1.00  0.00     0.001 A 
ATOM     85  C   UNL A   1      46.819  27.499  35.739  1.00  0.00     0.000 A 
ENDBRANCH  67  80
ENDBRANCH  41  42
ENDBRANCH  34  36
ENDBRANCH  33  34
ENDBRANCH  32  33
ENDBRANCH   1  32
TORSDOF 16
ENDMDL
MODEL 2
REMARK VINA RESULT:     -11.4      4.173      9.931
REMARK SMILES CC[C@@H](Oc1ccccc1/C=C1/SC(Nc2ccc(F)cc2)=[NH+]C1=O)C(=O)OCCOC(=O)c1ccc(-c2c3nc(c(-c4ccccc4)c4ccc([nH]4)c(-c4ccccc4)c4nc(c(-c5ccccc5)c5ccc2[nH]5)C=C4)C=C3)cc1
REMARK SMILES IDX 29 1 28 2 26 3 27 4 3 5 2 6 1 7 4 8 5 9 6 10 10 11 7 12 9 13
REMARK SMILES IDX 8 14 11 15 12 16 13 17 24 18 14 19 23 20 25 21 15 22 16 25
REMARK SMILES IDX 17 26 22 27 18 28 21 29 19 30 20 31 30 32 31 33 32 34 33 35
REMARK SMILES IDX 34 36 35 37 81 38 36 39 80 40 37 41 38 42 39 43 74 44 40 45
REMARK SMILES IDX 79 46 73 47 75 48 41 49 78 50 72 51 71 52 42 54 64 55 49 56
REMARK SMILES IDX 63 57 50 58 53 59 62 60 76 61 51 62 52 63 61 65 77 66 54 67
REMARK SMILES IDX 43 68 44 69 48 70 45 71 47 72 46 73 65 74 66 75 70 76 67 77
REMARK SMILES IDX 69 78 68 79 55 80 56 81 60 82 57 83 59 84 58 85
REMARK H PARENT 23 23 15 24 75 53 53 64
REMARK Flexibility Score: inf
ROOT
ATOM      1  C   UNL A   1      34.556  21.167  25.905  1.00  0.00     0.274 C 
ENDROOT
BRANCH   1   2
ATOM      2  O   UNL A   1      33.954  22.271  25.204  1.00  0.00    -0.459 OA
BRANCH   2   3
ATOM      3  C   UNL A   1      33.905  23.455  25.880  1.00  0.00     0.347 C 
ATOM      4  O   UNL A   1      34.873  24.030  26.366  1.00  0.00    -0.248 OA
BRANCH   3   5
ATOM      5  C   UNL A   1      32.492  24.035  25.908  1.00  0.00     0.282 C 
BRANCH   5   6
ATOM      6  C   UNL A   1      31.654  23.337  26.994  1.00  0.00     0.054 C 
ATOM      7  C   UNL A   1      30.294  22.862  26.502  1.00  0.00     0.008 C 
ENDBRANCH   5   6
BRANCH   5   8
ATOM      8  O   UNL A   1      32.660  25.427  26.197  1.00  0.00    -0.478 OA
BRANCH   8   9
ATOM      9  C   UNL A   1      32.409  26.251  25.131  1.00  0.00     0.127 A 
ATOM     10  C   UNL A   1      31.446  25.880  24.191  1.00  0.00     0.047 A 
ATOM     11  C   UNL A   1      33.181  27.418  24.962  1.00  0.00     0.018 A 
ATOM     12  C   UNL A   1      31.196  26.709  23.100  1.00  0.00     0.004 A 
ATOM     13  C   UNL A   1      32.903  28.249  23.873  1.00  0.00     0.012 A 
ATOM     14  C   UNL A   1      31.916  27.894  22.947  1.00  0.00     0.001 A 
BRANCH  11  15
ATOM     15  C   UNL A   1      34.139  27.864  25.990  1.00  0.00     0.036 C 
ATOM     16  C   UNL A   1      34.016  28.972  26.735  1.00  0.00     0.110 C 
ATOM     17  S   UNL A   1      35.360  29.736  27.513  1.00  0.00     0.006 SA
ATOM     18  C   UNL A   1      32.811  29.848  26.878  1.00  0.00     0.346 C 
ATOM     19  C   UNL A   1      34.410  31.201  27.649  1.00  0.00     0.322 C 
ATOM     20  N   UNL A   1      33.165  31.102  27.319  1.00  0.00    -0.199 N 
ATOM     21  O   UNL A   1      31.666  29.481  26.693  1.00  0.00    -0.240 OA
ATOM     22  N   UNL A   1      35.044  32.323  28.095  1.00  0.00    -0.235 N 
ATOM     23  H   UNL A   1      32.530  31.851  27.380  1.00  0.00     0.316 HD
ATOM     24  H   UNL A   1      35.999  32.439  27.884  1.00  0.00     0.313 HD
BRANCH  22  25
ATOM     25  C   UNL A   1      34.399  33.322  28.841  1.00  0.00     0.125 A 
ATOM     26  C   UNL A   1      34.561  33.400  30.228  1.00  0.00     0.055 A 
ATOM     27  C   UNL A   1      33.631  34.306  28.195  1.00  0.00     0.055 A 
ATOM     28  C   UNL A   1      33.972  34.447  30.947  1.00  0.00     0.043 A 
ATOM     29  C   UNL A   1      33.028  35.337  28.911  1.00  0.00     0.043 A 
ATOM     30  C   UNL A   1      33.210  35.401  30.282  1.00  0.00     0.123 A 
ATOM     31  F   UNL A   1      32.649  36.401  30.972  1.00  0.00    -0.207 F 
ENDBRANCH  22  25
ENDBRANCH  11  15
ENDBRANCH   8   9
ENDBRANCH   5   8
ENDBRANCH   3   5
ENDBRANCH   2   3
ENDBRANCH   1   2
BRANCH   1  32
ATOM     32  C   UNL A   1      35.791  20.680  25.149  1.00  0.00     0.275 C 
BRANCH  32  33
ATOM     33  O   UNL A   1      36.798  21.710  25.153  1.00  0.00    -0.458 OA
BRANCH  33  34
ATOM     34  C   UNL A   1      38.046  21.317  25.487  1.00  0.00     0.338 C 
ATOM     35  O   UNL A   1      38.555  20.222  25.320  1.00  0.00    -0.246 OA
BRANCH  34  36
ATOM     36  C   UNL A   1      38.775  22.453  26.075  1.00  0.00     0.060 A 
ATOM     37  C   UNL A   1      38.280  23.750  25.930  1.00  0.00     0.016 A 
ATOM     38  C   UNL A   1      40.020  22.239  26.662  1.00  0.00     0.016 A 
ATOM     39  C   UNL A   1      39.054  24.844  26.299  1.00  0.00     0.010 A 
ATOM     40  C   UNL A   1      40.759  23.335  27.117  1.00  0.00     0.010 A 
ATOM     41  C   UNL A   1      40.295  24.647  26.912  1.00  0.00    -0.014 A 
BRANCH  41  42
ATOM     42  C   UNL A   1      41.115  25.811  27.325  1.00  0.00     0.031 A 
ATOM     43  C   UNL A   1      40.569  26.800  28.314  1.00  0.00     0.074 A 
ATOM     44  C   UNL A   1      42.346  25.983  26.806  1.00  0.00     0.049 A 
ATOM     45  N   UNL A   1      41.057  27.959  28.679  1.00  0.00    -0.248 NA
ATOM     46  C   UNL A   1      39.304  26.445  28.976  1.00  0.00     0.031 C 
ATOM     47  C   UNL A   1      43.014  25.067  25.879  1.00  0.00     0.029 A 
ATOM     48  N   UNL A   1      43.252  26.997  26.982  1.00  0.00    -0.354 N 
ATOM     49  C   UNL A   1      40.140  28.488  29.579  1.00  0.00     0.074 A 
ATOM     50  C   UNL A   1      39.062  27.529  29.698  1.00  0.00     0.031 C 
ATOM     51  C   UNL A   1      44.226  25.555  25.576  1.00  0.00     0.029 A 
ATOM     52  C   UNL A   1      44.389  26.849  26.226  1.00  0.00     0.049 A 
ATOM     53  H   UNL A   1      43.103  27.757  27.590  1.00  0.00     0.167 HD
ATOM     54  C   UNL A   1      40.192  29.667  30.242  1.00  0.00     0.031 A 
ATOM     55  C   UNL A   1      45.429  27.683  26.040  1.00  0.00     0.031 A 
ATOM     56  C   UNL A   1      41.272  30.611  30.129  1.00  0.00     0.049 A 
ATOM     57  C   UNL A   1      45.432  29.014  26.734  1.00  0.00     0.074 A 
ATOM     58  C   UNL A   1      41.423  31.832  30.764  1.00  0.00     0.029 A 
ATOM     59  N   UNL A   1      42.390  30.436  29.329  1.00  0.00    -0.354 N 
ATOM     60  N   UNL A   1      44.546  29.515  27.561  1.00  0.00    -0.248 NA
ATOM     61  C   UNL A   1      46.573  29.898  26.463  1.00  0.00     0.031 C 
ATOM     62  C   UNL A   1      42.611  32.415  30.312  1.00  0.00     0.029 A 
ATOM     63  C   UNL A   1      43.226  31.533  29.438  1.00  0.00     0.049 A 
ATOM     64  H   UNL A   1      42.565  29.647  28.766  1.00  0.00     0.167 HD
ATOM     65  C   UNL A   1      45.033  30.763  27.925  1.00  0.00     0.074 A 
ATOM     66  C   UNL A   1      46.300  30.935  27.241  1.00  0.00     0.031 C 
ATOM     67  C   UNL A   1      44.481  31.686  28.750  1.00  0.00     0.031 A 
BRANCH  54  68
ATOM     68  C   UNL A   1      39.023  30.020  31.117  1.00  0.00    -0.014 A 
ATOM     69  C   UNL A   1      37.925  30.739  30.621  1.00  0.00     0.009 A 
ATOM     70  C   UNL A   1      39.009  29.601  32.458  1.00  0.00     0.009 A 
ATOM     71  C   UNL A   1      36.853  31.060  31.458  1.00  0.00     0.001 A 
ATOM     72  C   UNL A   1      37.925  29.899  33.284  1.00  0.00     0.001 A 
ATOM     73  C   UNL A   1      36.852  30.636  32.786  1.00  0.00     0.000 A 
ENDBRANCH  54  68
BRANCH  55  74
ATOM     74  C   UNL A   1      46.532  27.300  25.121  1.00  0.00    -0.014 A 
ATOM     75  C   UNL A   1      46.691  27.948  23.886  1.00  0.00     0.009 A 
ATOM     76  C   UNL A   1      47.434  26.284  25.476  1.00  0.00     0.009 A 
ATOM     77  C   UNL A   1      47.719  27.571  23.019  1.00  0.00     0.001 A 
ATOM     78  C   UNL A   1      48.478  25.931  24.620  1.00  0.00     0.001 A 
ATOM     79  C   UNL A   1      48.614  26.568  23.388  1.00  0.00     0.000 A 
ENDBRANCH  55  74
BRANCH  67  80
ATOM     80  C   UNL A   1      45.265  32.945  28.986  1.00  0.00    -0.014 A 
ATOM     81  C   UNL A   1      46.032  33.118  30.148  1.00  0.00     0.009 A 
ATOM     82  C   UNL A   1      45.259  33.957  28.014  1.00  0.00     0.009 A 
ATOM     83  C   UNL A   1      46.752  34.297  30.346  1.00  0.00     0.001 A 
ATOM     84  C   UNL A   1      46.002  35.123  28.203  1.00  0.00     0.001 A 
ATOM     85  C   UNL A   1      46.740  35.296  29.373  1.00  0.00     0.000 A 
ENDBRANCH  67  80
ENDBRANCH  41  42
ENDBRANCH  34  36
ENDBRANCH  33  34
ENDBRANCH  32  33
ENDBRANCH   1  32
TORSDOF 16
ENDMDL
MODEL 3
REMARK VINA RESULT:     -11.1      3.034      4.402
REMARK SMILES CC[C@@H](Oc1ccccc1/C=C1/SC(Nc2ccc(F)cc2)=[NH+]C1=O)C(=O)OCCOC(=O)c1ccc(-c2c3nc(c(-c4ccccc4)c4ccc([nH]4)c(-c4ccccc4)c4nc(c(-c5ccccc5)c5ccc2[nH]5)C=C4)C=C3)cc1
REMARK SMILES IDX 29 1 28 2 26 3 27 4 3 5 2 6 1 7 4 8 5 9 6 10 10 11 7 12 9 13
REMARK SMILES IDX 8 14 11 15 12 16 13 17 24 18 14 19 23 20 25 21 15 22 16 25
REMARK SMILES IDX 17 26 22 27 18 28 21 29 19 30 20 31 30 32 31 33 32 34 33 35
REMARK SMILES IDX 34 36 35 37 81 38 36 39 80 40 37 41 38 42 39 43 74 44 40 45
REMARK SMILES IDX 79 46 73 47 75 48 41 49 78 50 72 51 71 52 42 54 64 55 49 56
REMARK SMILES IDX 63 57 50 58 53 59 62 60 76 61 51 62 52 63 61 65 77 66 54 67
REMARK SMILES IDX 43 68 44 69 48 70 45 71 47 72 46 73 65 74 66 75 70 76 67 77
REMARK SMILES IDX 69 78 68 79 55 80 56 81 60 82 57 83 59 84 58 85
REMARK H PARENT 23 23 15 24 75 53 53 64
REMARK Flexibility Score: inf
ROOT
ATOM      1  C   UNL A   1      33.276  31.222  27.159  1.00  0.00     0.274 C 
ENDROOT
BRANCH   1   2
ATOM      2  O   UNL A   1      32.565  30.365  26.247  1.00  0.00    -0.459 OA
BRANCH   2   3
ATOM      3  C   UNL A   1      33.103  29.128  26.043  1.00  0.00     0.347 C 
ATOM      4  O   UNL A   1      33.642  28.442  26.905  1.00  0.00    -0.248 OA
BRANCH   3   5
ATOM      5  C   UNL A   1      32.897  28.649  24.607  1.00  0.00     0.282 C 
BRANCH   5   6
ATOM      6  C   UNL A   1      34.202  28.802  23.805  1.00  0.00     0.054 C 
ATOM      7  C   UNL A   1      34.031  28.557  22.312  1.00  0.00     0.008 C 
ENDBRANCH   5   6
BRANCH   5   8
ATOM      8  O   UNL A   1      32.514  27.275  24.718  1.00  0.00    -0.478 OA
BRANCH   8   9
ATOM      9  C   UNL A   1      31.199  27.037  24.419  1.00  0.00     0.127 A 
ATOM     10  C   UNL A   1      30.537  27.879  23.523  1.00  0.00     0.047 A 
ATOM     11  C   UNL A   1      30.516  25.996  25.080  1.00  0.00     0.018 A 
ATOM     12  C   UNL A   1      29.197  27.648  23.225  1.00  0.00     0.004 A 
ATOM     13  C   UNL A   1      29.176  25.765  24.755  1.00  0.00     0.012 A 
ATOM     14  C   UNL A   1      28.521  26.589  23.833  1.00  0.00     0.001 A 
BRANCH  11  15
ATOM     15  C   UNL A   1      31.222  25.049  25.962  1.00  0.00     0.036 C 
ATOM     16  C   UNL A   1      31.743  23.875  25.578  1.00  0.00     0.110 C 
ATOM     17  S   UNL A   1      32.070  22.585  26.685  1.00  0.00     0.006 SA
ATOM     18  C   UNL A   1      31.949  23.379  24.181  1.00  0.00     0.346 C 
ATOM     19  C   UNL A   1      32.102  21.473  25.332  1.00  0.00     0.322 C 
ATOM     20  N   UNL A   1      32.055  22.008  24.158  1.00  0.00    -0.199 N 
ATOM     21  O   UNL A   1      32.073  24.097  23.207  1.00  0.00    -0.240 OA
ATOM     22  N   UNL A   1      32.182  20.141  25.615  1.00  0.00    -0.235 N 
ATOM     23  H   UNL A   1      32.092  21.484  23.325  1.00  0.00     0.316 HD
ATOM     24  H   UNL A   1      31.765  19.810  26.444  1.00  0.00     0.313 HD
BRANCH  22  25
ATOM     25  C   UNL A   1      32.830  19.219  24.779  1.00  0.00     0.125 A 
ATOM     26  C   UNL A   1      34.136  18.796  25.051  1.00  0.00     0.055 A 
ATOM     27  C   UNL A   1      32.149  18.648  23.689  1.00  0.00     0.055 A 
ATOM     28  C   UNL A   1      34.740  17.819  24.250  1.00  0.00     0.043 A 
ATOM     29  C   UNL A   1      32.756  17.691  22.880  1.00  0.00     0.043 A 
ATOM     30  C   UNL A   1      34.045  17.280  23.173  1.00  0.00     0.123 A 
ATOM     31  F   UNL A   1      34.626  16.346  22.410  1.00  0.00    -0.207 F 
ENDBRANCH  22  25
ENDBRANCH  11  15
ENDBRANCH   8   9
ENDBRANCH   5   8
ENDBRANCH   3   5
ENDBRANCH   2   3
ENDBRANCH   1   2
BRANCH   1  32
ATOM     32  C   UNL A   1      32.419  32.438  27.509  1.00  0.00     0.275 C 
BRANCH  32  33
ATOM     33  O   UNL A   1      33.251  33.612  27.580  1.00  0.00    -0.458 OA
BRANCH  33  34
ATOM     34  C   UNL A   1      33.331  34.209  28.788  1.00  0.00     0.338 C 
ATOM     35  O   UNL A   1      32.543  34.996  29.287  1.00  0.00    -0.246 OA
BRANCH  34  36
ATOM     36  C   UNL A   1      34.536  33.737  29.489  1.00  0.00     0.060 A 
ATOM     37  C   UNL A   1      35.795  34.197  29.098  1.00  0.00     0.016 A 
ATOM     38  C   UNL A   1      34.423  32.738  30.452  1.00  0.00     0.016 A 
ATOM     39  C   UNL A   1      36.947  33.612  29.608  1.00  0.00     0.010 A 
ATOM     40  C   UNL A   1      35.581  32.213  31.032  1.00  0.00     0.010 A 
ATOM     41  C   UNL A   1      36.852  32.624  30.594  1.00  0.00    -0.014 A 
BRANCH  41  42
ATOM     42  C   UNL A   1      38.079  32.010  31.155  1.00  0.00     0.031 A 
ATOM     43  C   UNL A   1      38.806  30.946  30.384  1.00  0.00     0.074 A 
ATOM     44  C   UNL A   1      38.536  32.403  32.360  1.00  0.00     0.049 A 
ATOM     45  N   UNL A   1      39.794  30.178  30.766  1.00  0.00    -0.248 NA
ATOM     46  C   UNL A   1      38.358  30.708  29.002  1.00  0.00     0.031 C 
ATOM     47  C   UNL A   1      37.955  33.464  33.185  1.00  0.00     0.029 A 
ATOM     48  N   UNL A   1      39.595  31.946  33.102  1.00  0.00    -0.354 N 
ATOM     49  C   UNL A   1      40.058  29.339  29.690  1.00  0.00     0.074 A 
ATOM     50  C   UNL A   1      39.120  29.685  28.643  1.00  0.00     0.031 C 
ATOM     51  C   UNL A   1      38.670  33.584  34.314  1.00  0.00     0.029 A 
ATOM     52  C   UNL A   1      39.709  32.561  34.325  1.00  0.00     0.049 A 
ATOM     53  H   UNL A   1      40.212  31.245  32.790  1.00  0.00     0.167 HD
ATOM     54  C   UNL A   1      40.995  28.367  29.588  1.00  0.00     0.031 A 
ATOM     55  C   UNL A   1      40.529  32.303  35.360  1.00  0.00     0.031 A 
ATOM     56  C   UNL A   1      41.932  28.036  30.628  1.00  0.00     0.049 A 
ATOM     57  C   UNL A   1      41.515  31.176  35.247  1.00  0.00     0.074 A 
ATOM     58  C   UNL A   1      42.926  27.071  30.620  1.00  0.00     0.029 A 
ATOM     59  N   UNL A   1      41.994  28.663  31.862  1.00  0.00    -0.354 N 
ATOM     60  N   UNL A   1      41.737  30.372  34.235  1.00  0.00    -0.248 NA
ATOM     61  C   UNL A   1      42.357  30.916  36.422  1.00  0.00     0.031 C 
ATOM     62  C   UNL A   1      43.559  27.086  31.867  1.00  0.00     0.029 A 
ATOM     63  C   UNL A   1      42.995  28.095  32.631  1.00  0.00     0.049 A 
ATOM     64  H   UNL A   1      41.413  29.404  32.149  1.00  0.00     0.167 HD
ATOM     65  C   UNL A   1      42.758  29.525  34.644  1.00  0.00     0.074 A 
ATOM     66  C   UNL A   1      43.121  29.924  35.989  1.00  0.00     0.031 C 
ATOM     67  C   UNL A   1      43.341  28.506  33.967  1.00  0.00     0.031 A 
BRANCH  54  68
ATOM     68  C   UNL A   1      41.021  27.563  28.318  1.00  0.00    -0.014 A 
ATOM     69  C   UNL A   1      40.445  26.286  28.246  1.00  0.00     0.009 A 
ATOM     70  C   UNL A   1      41.611  28.108  27.166  1.00  0.00     0.009 A 
ATOM     71  C   UNL A   1      40.489  25.557  27.054  1.00  0.00     0.001 A 
ATOM     72  C   UNL A   1      41.629  27.389  25.970  1.00  0.00     0.001 A 
ATOM     73  C   UNL A   1      41.077  26.110  25.918  1.00  0.00     0.000 A 
ENDBRANCH  54  68
BRANCH  55  74
ATOM     74  C   UNL A   1      40.420  33.099  36.609  1.00  0.00    -0.014 A 
ATOM     75  C   UNL A   1      39.624  32.652  37.674  1.00  0.00     0.009 A 
ATOM     76  C   UNL A   1      41.116  34.311  36.744  1.00  0.00     0.009 A 
ATOM     77  C   UNL A   1      39.511  33.414  38.840  1.00  0.00     0.001 A 
ATOM     78  C   UNL A   1      41.026  35.054  37.922  1.00  0.00     0.001 A 
ATOM     79  C   UNL A   1      40.216  34.610  38.965  1.00  0.00     0.000 A 
ENDBRANCH  55  74
BRANCH  67  80
ATOM     80  C   UNL A   1      44.459  27.780  34.659  1.00  0.00    -0.014 A 
ATOM     81  C   UNL A   1      45.801  28.029  34.333  1.00  0.00     0.009 A 
ATOM     82  C   UNL A   1      44.162  26.857  35.673  1.00  0.00     0.009 A 
ATOM     83  C   UNL A   1      46.823  27.342  34.989  1.00  0.00     0.001 A 
ATOM     84  C   UNL A   1      45.188  26.191  36.346  1.00  0.00     0.001 A 
ATOM     85  C   UNL A   1      46.517  26.427  35.998  1.00  0.00     0.000 A 
ENDBRANCH  67  80
ENDBRANCH  41  42
ENDBRANCH  34  36
ENDBRANCH  33  34
ENDBRANCH  32  33
ENDBRANCH   1  32
TORSDOF 16
ENDMDL
