MODEL 1
REMARK VINA RESULT:      -9.8      0.000      0.000
REMARK SMILES Cc1cc2c(c(C)c1Cl)C=C(C(=O)OCCOC(=O)c1ccc(-c3c4nc(c(-c5ccccc5)c5ccc([nH]5)c(-c5ccccc5)c5nc(c(-c6ccccc6)c6ccc3[nH]6)C=C5)C=C4)cc1)[C@@H](C(F)(F)F)O2
REMARK SMILES IDX 16 1 15 2 14 3 12 4 13 5 11 6 1 7 2 8 3 9 8 10 4 11 6 12
REMARK SMILES IDX 9 13 5 14 73 15 7 16 10 17 68 18 69 19 70 20 71 21 72 22
REMARK SMILES IDX 17 23 18 24 19 25 20 26 21 27 67 28 22 29 66 30 23 31 24 32
REMARK SMILES IDX 25 33 60 34 26 35 65 36 59 37 61 38 27 39 64 40 58 41 57 42
REMARK SMILES IDX 28 44 50 45 35 46 49 47 36 48 39 49 48 50 62 51 37 52 38 53
REMARK SMILES IDX 47 55 63 56 40 57 29 58 30 59 34 60 31 61 33 62 32 63 51 64
REMARK SMILES IDX 52 65 56 66 53 67 55 68 54 69 41 70 42 71 46 72 43 73 45 74
REMARK SMILES IDX 44 75
REMARK H PARENT 61 43 39 54
REMARK Flexibility Score: inf
ROOT
ATOM      1  C   UNL A   1      41.071  19.905  26.130  1.00  0.00     0.275 C 
ENDROOT
BRANCH   1   2
ATOM      2  C   UNL A   1      42.486  20.020  26.696  1.00  0.00     0.275 C 
BRANCH   2   3
ATOM      3  O   UNL A   1      43.389  20.615  25.739  1.00  0.00    -0.459 OA
BRANCH   3   4
ATOM      4  C   UNL A   1      43.316  21.960  25.622  1.00  0.00     0.338 C 
ATOM      5  O   UNL A   1      42.451  22.597  25.038  1.00  0.00    -0.246 OA
BRANCH   4   6
ATOM      6  C   UNL A   1      44.446  22.604  26.318  1.00  0.00     0.087 C 
ATOM      7  C   UNL A   1      48.533  26.370  29.678  1.00  0.00     0.046 C 
ATOM      8  C   UNL A   1      47.379  25.557  29.159  1.00  0.00    -0.028 A 
ATOM      9  C   UNL A   1      47.568  24.758  28.023  1.00  0.00     0.052 A 
ATOM     10  C   UNL A   1      46.120  25.558  29.790  1.00  0.00     0.047 A 
ATOM     11  C   UNL A   1      46.522  24.005  27.494  1.00  0.00     0.128 A 
ATOM     12  C   UNL A   1      45.044  24.804  29.267  1.00  0.00    -0.021 A 
ATOM     13  Cl  UNL A   1      45.920  26.507  31.234  1.00  0.00    -0.084 Cl
ATOM     14  C   UNL A   1      45.259  24.030  28.095  1.00  0.00     0.022 A 
ATOM     15  O   UNL A   1      46.841  23.257  26.394  1.00  0.00    -0.475 OA
ATOM     16  C   UNL A   1      43.691  24.801  29.938  1.00  0.00     0.047 C 
ATOM     17  C   UNL A   1      44.194  23.262  27.456  1.00  0.00     0.027 C 
ATOM     18  C   UNL A   1      45.783  22.610  25.643  1.00  0.00     0.316 C 
BRANCH  18  19
ATOM     19  C   UNL A   1      45.702  23.246  24.245  1.00  0.00     0.430 C 
ATOM     20  F   UNL A   1      45.182  22.386  23.339  1.00  0.00    -0.167 F 
ATOM     21  F   UNL A   1      44.903  24.340  24.241  1.00  0.00    -0.167 F 
ATOM     22  F   UNL A   1      46.916  23.632  23.790  1.00  0.00    -0.167 F 
ENDBRANCH  18  19
ENDBRANCH   4   6
ENDBRANCH   3   4
ENDBRANCH   2   3
ENDBRANCH   1   2
BRANCH   1  23
ATOM     23  O   UNL A   1      40.146  20.629  26.963  1.00  0.00    -0.458 OA
BRANCH  23  24
ATOM     24  C   UNL A   1      39.413  21.568  26.324  1.00  0.00     0.338 C 
ATOM     25  O   UNL A   1      38.639  21.401  25.396  1.00  0.00    -0.246 OA
BRANCH  24  26
ATOM     26  C   UNL A   1      39.590  22.883  26.961  1.00  0.00     0.060 A 
ATOM     27  C   UNL A   1      38.924  23.980  26.430  1.00  0.00     0.016 A 
ATOM     28  C   UNL A   1      40.595  23.071  27.906  1.00  0.00     0.016 A 
ATOM     29  C   UNL A   1      39.395  25.264  26.689  1.00  0.00     0.010 A 
ATOM     30  C   UNL A   1      40.966  24.372  28.270  1.00  0.00     0.010 A 
ATOM     31  C   UNL A   1      40.433  25.490  27.602  1.00  0.00    -0.014 A 
BRANCH  31  32
ATOM     32  C   UNL A   1      41.031  26.852  27.792  1.00  0.00     0.031 A 
ATOM     33  C   UNL A   1      42.366  27.183  27.156  1.00  0.00     0.074 A 
ATOM     34  C   UNL A   1      40.402  27.824  28.484  1.00  0.00     0.049 A 
ATOM     35  N   UNL A   1      43.202  28.151  27.436  1.00  0.00    -0.248 NA
ATOM     36  C   UNL A   1      42.824  26.299  26.071  1.00  0.00     0.031 C 
ATOM     37  C   UNL A   1      39.062  27.741  29.069  1.00  0.00     0.029 A 
ATOM     38  N   UNL A   1      40.816  29.097  28.806  1.00  0.00    -0.354 N 
ATOM     39  C   UNL A   1      44.317  27.939  26.630  1.00  0.00     0.074 A 
ATOM     40  C   UNL A   1      44.048  26.756  25.842  1.00  0.00     0.031 C 
ATOM     41  C   UNL A   1      38.741  28.921  29.616  1.00  0.00     0.029 A 
ATOM     42  C   UNL A   1      39.904  29.796  29.561  1.00  0.00     0.049 A 
ATOM     43  H   UNL A   1      41.681  29.470  28.523  1.00  0.00     0.167 HD
ATOM     44  C   UNL A   1      45.462  28.661  26.557  1.00  0.00     0.031 A 
ATOM     45  C   UNL A   1      40.004  30.971  30.213  1.00  0.00     0.031 A 
ATOM     46  C   UNL A   1      45.699  29.880  27.288  1.00  0.00     0.049 A 
ATOM     47  C   UNL A   1      41.312  31.706  30.204  1.00  0.00     0.074 A 
ATOM     48  C   UNL A   1      46.831  30.677  27.294  1.00  0.00     0.029 A 
ATOM     49  N   UNL A   1      44.773  30.496  28.115  1.00  0.00    -0.354 N 
ATOM     50  N   UNL A   1      42.417  31.420  29.559  1.00  0.00    -0.248 NA
ATOM     51  C   UNL A   1      41.396  32.908  31.044  1.00  0.00     0.031 C 
ATOM     52  C   UNL A   1      46.609  31.749  28.165  1.00  0.00     0.029 A 
ATOM     53  C   UNL A   1      45.316  31.651  28.652  1.00  0.00     0.049 A 
ATOM     54  H   UNL A   1      43.865  30.161  28.294  1.00  0.00     0.167 HD
ATOM     55  C   UNL A   1      43.326  32.409  29.914  1.00  0.00     0.074 A 
ATOM     56  C   UNL A   1      42.633  33.319  30.802  1.00  0.00     0.031 C 
ATOM     57  C   UNL A   1      44.623  32.542  29.546  1.00  0.00     0.031 A 
BRANCH  44  58
ATOM     58  C   UNL A   1      46.578  28.132  25.695  1.00  0.00    -0.014 A 
ATOM     59  C   UNL A   1      47.747  27.584  26.245  1.00  0.00     0.009 A 
ATOM     60  C   UNL A   1      46.419  28.122  24.299  1.00  0.00     0.009 A 
ATOM     61  C   UNL A   1      48.741  27.061  25.414  1.00  0.00     0.001 A 
ATOM     62  C   UNL A   1      47.399  27.571  23.472  1.00  0.00     0.001 A 
ATOM     63  C   UNL A   1      48.564  27.047  24.031  1.00  0.00     0.000 A 
ENDBRANCH  44  58
BRANCH  45  64
ATOM     64  C   UNL A   1      38.855  31.472  31.014  1.00  0.00    -0.014 A 
ATOM     65  C   UNL A   1      38.692  31.077  32.350  1.00  0.00     0.009 A 
ATOM     66  C   UNL A   1      37.923  32.360  30.452  1.00  0.00     0.009 A 
ATOM     67  C   UNL A   1      37.618  31.560  33.103  1.00  0.00     0.001 A 
ATOM     68  C   UNL A   1      36.874  32.871  31.217  1.00  0.00     0.001 A 
ATOM     69  C   UNL A   1      36.719  32.466  32.541  1.00  0.00     0.000 A 
ENDBRANCH  45  64
BRANCH  57  70
ATOM     70  C   UNL A   1      45.371  33.724  30.095  1.00  0.00    -0.014 A 
ATOM     71  C   UNL A   1      45.368  34.958  29.427  1.00  0.00     0.009 A 
ATOM     72  C   UNL A   1      46.073  33.607  31.305  1.00  0.00     0.009 A 
ATOM     73  C   UNL A   1      46.085  36.040  29.939  1.00  0.00     0.001 A 
ATOM     74  C   UNL A   1      46.763  34.700  31.831  1.00  0.00     0.001 A 
ATOM     75  C   UNL A   1      46.779  35.911  31.142  1.00  0.00     0.000 A 
ENDBRANCH  57  70
ENDBRANCH  31  32
ENDBRANCH  24  26
ENDBRANCH  23  24
ENDBRANCH   1  23
TORSDOF 12
ENDMDL
MODEL 2
REMARK VINA RESULT:      -9.7      5.708      9.169
REMARK SMILES Cc1cc2c(c(C)c1Cl)C=C(C(=O)OCCOC(=O)c1ccc(-c3c4nc(c(-c5ccccc5)c5ccc([nH]5)c(-c5ccccc5)c5nc(c(-c6ccccc6)c6ccc3[nH]6)C=C5)C=C4)cc1)[C@@H](C(F)(F)F)O2
REMARK SMILES IDX 16 1 15 2 14 3 12 4 13 5 11 6 1 7 2 8 3 9 8 10 4 11 6 12
REMARK SMILES IDX 9 13 5 14 73 15 7 16 10 17 68 18 69 19 70 20 71 21 72 22
REMARK SMILES IDX 17 23 18 24 19 25 20 26 21 27 67 28 22 29 66 30 23 31 24 32
REMARK SMILES IDX 25 33 60 34 26 35 65 36 59 37 61 38 27 39 64 40 58 41 57 42
REMARK SMILES IDX 28 44 50 45 35 46 49 47 36 48 39 49 48 50 62 51 37 52 38 53
REMARK SMILES IDX 47 55 63 56 40 57 29 58 30 59 34 60 31 61 33 62 32 63 51 64
REMARK SMILES IDX 52 65 56 66 53 67 55 68 54 69 41 70 42 71 46 72 43 73 45 74
REMARK SMILES IDX 44 75
REMARK H PARENT 61 43 39 54
REMARK Flexibility Score: inf
ROOT
ATOM      1  C   UNL A   1      31.763  30.058  25.749  1.00  0.00     0.275 C 
ENDROOT
BRANCH   1   2
ATOM      2  C   UNL A   1      31.432  28.606  25.405  1.00  0.00     0.275 C 
BRANCH   2   3
ATOM      3  O   UNL A   1      32.541  27.728  25.702  1.00  0.00    -0.459 OA
BRANCH   3   4
ATOM      4  C   UNL A   1      33.133  27.150  24.632  1.00  0.00     0.338 C 
ATOM      5  O   UNL A   1      33.605  27.722  23.661  1.00  0.00    -0.246 OA
BRANCH   4   6
ATOM      6  C   UNL A   1      33.155  25.683  24.782  1.00  0.00     0.087 C 
ATOM      7  C   UNL A   1      34.338  19.298  24.693  1.00  0.00     0.046 C 
ATOM      8  C   UNL A   1      34.395  20.799  24.773  1.00  0.00    -0.028 A 
ATOM      9  C   UNL A   1      33.197  21.524  24.774  1.00  0.00     0.052 A 
ATOM     10  C   UNL A   1      35.615  21.496  24.869  1.00  0.00     0.047 A 
ATOM     11  C   UNL A   1      33.201  22.916  24.826  1.00  0.00     0.128 A 
ATOM     12  C   UNL A   1      35.642  22.909  24.919  1.00  0.00    -0.021 A 
ATOM     13  Cl  UNL A   1      37.090  20.577  24.930  1.00  0.00    -0.084 Cl
ATOM     14  C   UNL A   1      34.411  23.617  24.884  1.00  0.00     0.022 A 
ATOM     15  O   UNL A   1      31.966  23.503  24.836  1.00  0.00    -0.475 OA
ATOM     16  C   UNL A   1      36.946  23.664  25.020  1.00  0.00     0.047 C 
ATOM     17  C   UNL A   1      34.345  25.076  24.880  1.00  0.00     0.027 C 
ATOM     18  C   UNL A   1      31.860  24.940  24.672  1.00  0.00     0.316 C 
BRANCH  18  19
ATOM     19  C   UNL A   1      31.153  25.240  23.340  1.00  0.00     0.430 C 
ATOM     20  F   UNL A   1      32.037  25.336  22.320  1.00  0.00    -0.167 F 
ATOM     21  F   UNL A   1      30.284  24.256  23.005  1.00  0.00    -0.167 F 
ATOM     22  F   UNL A   1      30.454  26.398  23.383  1.00  0.00    -0.167 F 
ENDBRANCH  18  19
ENDBRANCH   4   6
ENDBRANCH   3   4
ENDBRANCH   2   3
ENDBRANCH   1   2
BRANCH   1  23
ATOM     23  O   UNL A   1      32.423  30.123  27.027  1.00  0.00    -0.458 OA
BRANCH  23  24
ATOM     24  C   UNL A   1      33.097  31.270  27.266  1.00  0.00     0.338 C 
ATOM     25  O   UNL A   1      32.637  32.396  27.363  1.00  0.00    -0.246 OA
BRANCH  24  26
ATOM     26  C   UNL A   1      34.523  30.993  27.501  1.00  0.00     0.060 A 
ATOM     27  C   UNL A   1      34.934  29.675  27.656  1.00  0.00     0.016 A 
ATOM     28  C   UNL A   1      35.394  32.033  27.818  1.00  0.00     0.016 A 
ATOM     29  C   UNL A   1      36.130  29.398  28.312  1.00  0.00     0.010 A 
ATOM     30  C   UNL A   1      36.657  31.740  28.346  1.00  0.00     0.010 A 
ATOM     31  C   UNL A   1      37.012  30.421  28.684  1.00  0.00    -0.014 A 
BRANCH  31  32
ATOM     32  C   UNL A   1      38.238  30.144  29.502  1.00  0.00     0.031 A 
ATOM     33  C   UNL A   1      39.388  29.368  28.894  1.00  0.00     0.074 A 
ATOM     34  C   UNL A   1      38.379  30.600  30.764  1.00  0.00     0.049 A 
ATOM     35  N   UNL A   1      40.380  28.751  29.488  1.00  0.00    -0.248 NA
ATOM     36  C   UNL A   1      39.417  29.259  27.426  1.00  0.00     0.031 C 
ATOM     37  C   UNL A   1      37.440  31.464  31.482  1.00  0.00     0.029 A 
ATOM     38  N   UNL A   1      39.393  30.400  31.673  1.00  0.00    -0.354 N 
ATOM     39  C   UNL A   1      41.093  28.113  28.478  1.00  0.00     0.074 A 
ATOM     40  C   UNL A   1      40.426  28.421  27.232  1.00  0.00     0.031 C 
ATOM     41  C   UNL A   1      37.946  31.770  32.684  1.00  0.00     0.029 A 
ATOM     42  C   UNL A   1      39.169  31.004  32.888  1.00  0.00     0.049 A 
ATOM     43  H   UNL A   1      40.201  29.875  31.473  1.00  0.00     0.167 HD
ATOM     44  C   UNL A   1      42.199  27.334  28.581  1.00  0.00     0.031 A 
ATOM     45  C   UNL A   1      39.814  30.900  34.065  1.00  0.00     0.031 A 
ATOM     46  C   UNL A   1      42.904  27.087  29.812  1.00  0.00     0.049 A 
ATOM     47  C   UNL A   1      40.974  29.956  34.185  1.00  0.00     0.074 A 
ATOM     48  C   UNL A   1      44.025  26.302  30.023  1.00  0.00     0.029 A 
ATOM     49  N   UNL A   1      42.576  27.651  31.034  1.00  0.00    -0.354 N 
ATOM     50  N   UNL A   1      41.552  29.234  33.257  1.00  0.00    -0.248 NA
ATOM     51  C   UNL A   1      41.548  29.787  35.528  1.00  0.00     0.031 C 
ATOM     52  C   UNL A   1      44.345  26.351  31.384  1.00  0.00     0.029 A 
ATOM     53  C   UNL A   1      43.461  27.215  32.007  1.00  0.00     0.049 A 
ATOM     54  H   UNL A   1      41.826  28.269  31.189  1.00  0.00     0.167 HD
ATOM     55  C   UNL A   1      42.559  28.527  33.902  1.00  0.00     0.074 A 
ATOM     56  C   UNL A   1      42.534  28.934  35.292  1.00  0.00     0.031 C 
ATOM     57  C   UNL A   1      43.418  27.613  33.390  1.00  0.00     0.031 A 
BRANCH  44  58
ATOM     58  C   UNL A   1      42.695  26.643  27.337  1.00  0.00    -0.014 A 
ATOM     59  C   UNL A   1      43.719  27.183  26.545  1.00  0.00     0.009 A 
ATOM     60  C   UNL A   1      42.166  25.387  26.995  1.00  0.00     0.009 A 
ATOM     61  C   UNL A   1      44.184  26.490  25.424  1.00  0.00     0.001 A 
ATOM     62  C   UNL A   1      42.653  24.683  25.893  1.00  0.00     0.001 A 
ATOM     63  C   UNL A   1      43.658  25.240  25.103  1.00  0.00     0.000 A 
ENDBRANCH  44  58
BRANCH  45  64
ATOM     64  C   UNL A   1      39.308  31.640  35.253  1.00  0.00    -0.014 A 
ATOM     65  C   UNL A   1      38.321  31.078  36.076  1.00  0.00     0.009 A 
ATOM     66  C   UNL A   1      39.822  32.907  35.580  1.00  0.00     0.009 A 
ATOM     67  C   UNL A   1      37.859  31.772  37.198  1.00  0.00     0.001 A 
ATOM     68  C   UNL A   1      39.387  33.579  36.722  1.00  0.00     0.001 A 
ATOM     69  C   UNL A   1      38.400  33.014  37.527  1.00  0.00     0.000 A 
ENDBRANCH  45  64
BRANCH  57  70
ATOM     70  C   UNL A   1      44.410  27.002  34.339  1.00  0.00    -0.014 A 
ATOM     71  C   UNL A   1      44.125  25.806  35.016  1.00  0.00     0.009 A 
ATOM     72  C   UNL A   1      45.653  27.621  34.545  1.00  0.00     0.009 A 
ATOM     73  C   UNL A   1      45.049  25.263  35.910  1.00  0.00     0.001 A 
ATOM     74  C   UNL A   1      46.588  27.059  35.415  1.00  0.00     0.001 A 
ATOM     75  C   UNL A   1      46.280  25.888  36.106  1.00  0.00     0.000 A 
ENDBRANCH  57  70
ENDBRANCH  31  32
ENDBRANCH  24  26
ENDBRANCH  23  24
ENDBRANCH   1  23
TORSDOF 12
ENDMDL
MODEL 3
REMARK VINA RESULT:      -9.7      0.919      6.064
REMARK SMILES Cc1cc2c(c(C)c1Cl)C=C(C(=O)OCCOC(=O)c1ccc(-c3c4nc(c(-c5ccccc5)c5ccc([nH]5)c(-c5ccccc5)c5nc(c(-c6ccccc6)c6ccc3[nH]6)C=C5)C=C4)cc1)[C@@H](C(F)(F)F)O2
REMARK SMILES IDX 16 1 15 2 14 3 12 4 13 5 11 6 1 7 2 8 3 9 8 10 4 11 6 12
REMARK SMILES IDX 9 13 5 14 73 15 7 16 10 17 68 18 69 19 70 20 71 21 72 22
REMARK SMILES IDX 17 23 18 24 19 25 20 26 21 27 67 28 22 29 66 30 23 31 24 32
REMARK SMILES IDX 25 33 60 34 26 35 65 36 59 37 61 38 27 39 64 40 58 41 57 42
REMARK SMILES IDX 28 44 50 45 35 46 49 47 36 48 39 49 48 50 62 51 37 52 38 53
REMARK SMILES IDX 47 55 63 56 40 57 29 58 30 59 34 60 31 61 33 62 32 63 51 64
REMARK SMILES IDX 52 65 56 66 53 67 55 68 54 69 41 70 42 71 46 72 43 73 45 74
REMARK SMILES IDX 44 75
REMARK H PARENT 61 43 39 54
REMARK Flexibility Score: inf
ROOT
ATOM      1  C   UNL A   1      40.004  19.795  25.896  1.00  0.00     0.275 C 
ENDROOT
BRANCH   1   2
ATOM      2  C   UNL A   1      41.449  19.576  26.341  1.00  0.00     0.275 C 
BRANCH   2   3
ATOM      3  O   UNL A   1      42.198  20.812  26.328  1.00  0.00    -0.459 OA
BRANCH   3   4
ATOM      4  C   UNL A   1      43.385  20.772  25.682  1.00  0.00     0.338 C 
ATOM      5  O   UNL A   1      43.666  20.081  24.713  1.00  0.00    -0.246 OA
BRANCH   4   6
ATOM      6  C   UNL A   1      44.344  21.705  26.301  1.00  0.00     0.087 C 
ATOM      7  C   UNL A   1      47.489  26.382  29.528  1.00  0.00     0.046 C 
ATOM      8  C   UNL A   1      46.586  25.270  29.068  1.00  0.00    -0.028 A 
ATOM      9  C   UNL A   1      46.844  24.652  27.837  1.00  0.00     0.052 A 
ATOM     10  C   UNL A   1      45.502  24.817  29.845  1.00  0.00     0.047 A 
ATOM     11  C   UNL A   1      46.023  23.633  27.361  1.00  0.00     0.128 A 
ATOM     12  C   UNL A   1      44.654  23.787  29.378  1.00  0.00    -0.021 A 
ATOM     13  Cl  UNL A   1      45.233  25.554  31.397  1.00  0.00    -0.084 Cl
ATOM     14  C   UNL A   1      44.923  23.203  28.111  1.00  0.00     0.022 A 
ATOM     15  O   UNL A   1      46.392  23.103  26.155  1.00  0.00    -0.475 OA
ATOM     16  C   UNL A   1      43.489  23.296  30.204  1.00  0.00     0.047 C 
ATOM     17  C   UNL A   1      44.072  22.170  27.527  1.00  0.00     0.027 C 
ATOM     18  C   UNL A   1      45.492  22.194  25.472  1.00  0.00     0.316 C 
BRANCH  18  19
ATOM     19  C   UNL A   1      45.004  22.855  24.173  1.00  0.00     0.430 C 
ATOM     20  F   UNL A   1      43.764  23.375  24.317  1.00  0.00    -0.167 F 
ATOM     21  F   UNL A   1      45.811  23.879  23.802  1.00  0.00    -0.167 F 
ATOM     22  F   UNL A   1      44.962  21.982  23.141  1.00  0.00    -0.167 F 
ENDBRANCH  18  19
ENDBRANCH   4   6
ENDBRANCH   3   4
ENDBRANCH   2   3
ENDBRANCH   1   2
BRANCH   1  23
ATOM     23  O   UNL A   1      39.837  21.138  25.406  1.00  0.00    -0.458 OA
BRANCH  23  24
ATOM     24  C   UNL A   1      38.757  21.794  25.886  1.00  0.00     0.338 C 
ATOM     25  O   UNL A   1      37.586  21.469  25.784  1.00  0.00    -0.246 OA
BRANCH  24  26
ATOM     26  C   UNL A   1      39.171  22.967  26.672  1.00  0.00     0.060 A 
ATOM     27  C   UNL A   1      38.675  24.217  26.325  1.00  0.00     0.016 A 
ATOM     28  C   UNL A   1      40.230  22.866  27.571  1.00  0.00     0.016 A 
ATOM     29  C   UNL A   1      39.359  25.364  26.716  1.00  0.00     0.010 A 
ATOM     30  C   UNL A   1      40.824  24.031  28.073  1.00  0.00     0.010 A 
ATOM     31  C   UNL A   1      40.456  25.299  27.585  1.00  0.00    -0.014 A 
BRANCH  31  32
ATOM     32  C   UNL A   1      41.276  26.511  27.909  1.00  0.00     0.031 A 
ATOM     33  C   UNL A   1      40.759  27.525  28.909  1.00  0.00     0.074 A 
ATOM     34  C   UNL A   1      42.495  26.721  27.369  1.00  0.00     0.049 A 
ATOM     35  N   UNL A   1      41.130  28.766  29.101  1.00  0.00    -0.248 NA
ATOM     36  C   UNL A   1      39.670  27.087  29.799  1.00  0.00     0.031 C 
ATOM     37  C   UNL A   1      43.216  25.806  26.482  1.00  0.00     0.029 A 
ATOM     38  N   UNL A   1      43.355  27.786  27.503  1.00  0.00    -0.354 N 
ATOM     39  C   UNL A   1      40.266  29.279  30.064  1.00  0.00     0.074 A 
ATOM     40  C   UNL A   1      39.356  28.214  30.424  1.00  0.00     0.031 C 
ATOM     41  C   UNL A   1      44.425  26.315  26.206  1.00  0.00     0.029 A 
ATOM     42  C   UNL A   1      44.508  27.658  26.765  1.00  0.00     0.049 A 
ATOM     43  H   UNL A   1      43.164  28.566  28.072  1.00  0.00     0.167 HD
ATOM     44  C   UNL A   1      40.230  30.527  30.595  1.00  0.00     0.031 A 
ATOM     45  C   UNL A   1      45.491  28.537  26.489  1.00  0.00     0.031 A 
ATOM     46  C   UNL A   1      41.182  31.564  30.290  1.00  0.00     0.049 A 
ATOM     47  C   UNL A   1      45.382  29.942  27.002  1.00  0.00     0.074 A 
ATOM     48  C   UNL A   1      41.223  32.864  30.764  1.00  0.00     0.029 A 
ATOM     49  N   UNL A   1      42.280  31.408  29.460  1.00  0.00    -0.354 N 
ATOM     50  N   UNL A   1      44.478  30.467  27.793  1.00  0.00    -0.248 NA
ATOM     51  C   UNL A   1      46.415  30.887  26.554  1.00  0.00     0.031 C 
ATOM     52  C   UNL A   1      42.318  33.510  30.180  1.00  0.00     0.029 A 
ATOM     53  C   UNL A   1      42.993  32.593  29.392  1.00  0.00     0.049 A 
ATOM     54  H   UNL A   1      42.518  30.577  28.987  1.00  0.00     0.167 HD
ATOM     55  C   UNL A   1      44.833  31.802  27.938  1.00  0.00     0.074 A 
ATOM     56  C   UNL A   1      46.055  31.997  27.183  1.00  0.00     0.031 C 
ATOM     57  C   UNL A   1      44.198  32.781  28.625  1.00  0.00     0.031 A 
BRANCH  44  58
ATOM     58  C   UNL A   1      39.097  30.866  31.527  1.00  0.00    -0.014 A 
ATOM     59  C   UNL A   1      39.190  30.673  32.913  1.00  0.00     0.009 A 
ATOM     60  C   UNL A   1      37.934  31.458  31.003  1.00  0.00     0.009 A 
ATOM     61  C   UNL A   1      38.134  31.043  33.750  1.00  0.00     0.001 A 
ATOM     62  C   UNL A   1      36.893  31.855  31.844  1.00  0.00     0.001 A 
ATOM     63  C   UNL A   1      36.991  31.640  33.217  1.00  0.00     0.000 A 
ENDBRANCH  44  58
BRANCH  45  64
ATOM     64  C   UNL A   1      46.613  28.136  25.598  1.00  0.00    -0.014 A 
ATOM     65  C   UNL A   1      47.840  27.724  26.140  1.00  0.00     0.009 A 
ATOM     66  C   UNL A   1      46.460  28.148  24.202  1.00  0.00     0.009 A 
ATOM     67  C   UNL A   1      48.887  27.335  25.300  1.00  0.00     0.001 A 
ATOM     68  C   UNL A   1      47.494  27.723  23.367  1.00  0.00     0.001 A 
ATOM     69  C   UNL A   1      48.709  27.323  23.917  1.00  0.00     0.000 A 
ENDBRANCH  45  64
BRANCH  57  70
ATOM     70  C   UNL A   1      44.821  34.148  28.602  1.00  0.00    -0.014 A 
ATOM     71  C   UNL A   1      45.780  34.524  29.555  1.00  0.00     0.009 A 
ATOM     72  C   UNL A   1      44.458  35.065  27.603  1.00  0.00     0.009 A 
ATOM     73  C   UNL A   1      46.334  35.805  29.533  1.00  0.00     0.001 A 
ATOM     74  C   UNL A   1      45.037  36.334  27.564  1.00  0.00     0.001 A 
ATOM     75  C   UNL A   1      45.964  36.707  28.535  1.00  0.00     0.000 A 
ENDBRANCH  57  70
ENDBRANCH  31  32
ENDBRANCH  24  26
ENDBRANCH  23  24
ENDBRANCH   1  23
TORSDOF 12
ENDMDL
