MODEL 1
REMARK VINA RESULT:     -11.5      0.000      0.000
REMARK SMILES CCn1nc(C(=O)OCCOC(=O)c2ccc(-c3c4nc(c(-c5ccccc5)c5ccc([nH]5)c(-c5ccccc5)c5nc(c(-c6ccccc6)c6ccc3[nH]6)C=C5)C=C4)cc2)c2c1CC[C@H]([NH2+]Cc1nn(CC)c3ccccc13)C2
REMARK SMILES IDX 9 1 8 2 6 3 7 4 5 5 3 6 4 7 63 8 62 9 64 10 80 11 65 12
REMARK SMILES IDX 66 13 2 14 1 15 67 16 68 19 69 20 70 21 79 22 71 23 74 24
REMARK SMILES IDX 78 25 75 26 77 27 76 28 72 29 73 30 10 31 11 32 12 33 13 34
REMARK SMILES IDX 14 35 15 36 61 37 16 38 60 39 17 40 18 41 19 42 54 43 20 44
REMARK SMILES IDX 59 45 53 46 55 47 21 48 58 49 52 50 51 51 22 53 44 54 29 55
REMARK SMILES IDX 43 56 30 57 33 58 42 59 56 60 31 61 32 62 41 64 57 65 34 66
REMARK SMILES IDX 23 67 24 68 28 69 25 70 27 71 26 72 45 73 46 74 50 75 47 76
REMARK SMILES IDX 49 77 48 78 35 79 36 80 40 81 37 82 39 83 38 84
REMARK H PARENT 67 17 67 18 55 52 33 63
REMARK Flexibility Score: inf
ROOT
ATOM      1  C   UNL A   1      38.041  19.389  25.334  1.00  0.00     0.275 C 
ENDROOT
BRANCH   1   2
ATOM      2  O   UNL A   1      37.365  20.484  24.698  1.00  0.00    -0.457 OA
BRANCH   2   3
ATOM      3  C   UNL A   1      36.431  21.271  25.318  1.00  0.00     0.359 C 
ATOM      4  O   UNL A   1      36.676  22.150  26.131  1.00  0.00    -0.244 OA
BRANCH   3   5
ATOM      5  C   UNL A   1      35.094  20.786  24.964  1.00  0.00     0.174 A 
ATOM      6  N   UNL A   1      33.411  19.629  24.330  1.00  0.00    -0.269 N 
ATOM      7  N   UNL A   1      34.658  19.522  24.880  1.00  0.00    -0.165 NA
ATOM      8  C   UNL A   1      33.057  20.932  24.068  1.00  0.00     0.043 A 
ATOM      9  C   UNL A   1      34.105  21.675  24.514  1.00  0.00     0.014 A 
ATOM     10  C   UNL A   1      31.895  21.550  23.379  1.00  0.00     0.062 C 
ATOM     11  C   UNL A   1      34.308  23.104  24.304  1.00  0.00     0.105 C 
ATOM     12  C   UNL A   1      32.340  22.893  22.681  1.00  0.00     0.072 C 
ATOM     13  C   UNL A   1      33.258  23.852  23.518  1.00  0.00     0.187 C 
BRANCH   6  14
ATOM     14  C   UNL A   1      32.660  18.412  24.068  1.00  0.00     0.141 C 
ATOM     15  C   UNL A   1      32.900  17.817  22.682  1.00  0.00     0.029 C 
ENDBRANCH   6  14
BRANCH  13  16
ATOM     16  N   UNL A   1      33.940  24.905  22.692  1.00  0.00    -0.338 N 
ATOM     17  H   UNL A   1      34.485  24.432  21.970  1.00  0.00     0.346 HD
ATOM     18  H   UNL A   1      34.503  25.449  23.345  1.00  0.00     0.346 HD
BRANCH  16  19
ATOM     19  C   UNL A   1      33.032  25.889  22.013  1.00  0.00     0.320 C 
BRANCH  19  20
ATOM     20  C   UNL A   1      32.279  26.870  22.942  1.00  0.00     0.124 A 
ATOM     21  N   UNL A   1      31.127  27.484  22.589  1.00  0.00    -0.171 NA
ATOM     22  C   UNL A   1      32.723  27.352  24.226  1.00  0.00     0.029 A 
ATOM     23  N   UNL A   1      30.902  28.385  23.584  1.00  0.00    -0.265 N 
ATOM     24  C   UNL A   1      31.711  28.194  24.678  1.00  0.00     0.069 A 
ATOM     25  C   UNL A   1      33.882  27.233  25.027  1.00  0.00     0.012 A 
ATOM     26  C   UNL A   1      31.704  28.773  25.956  1.00  0.00     0.028 A 
ATOM     27  C   UNL A   1      33.949  27.927  26.248  1.00  0.00     0.001 A 
ATOM     28  C   UNL A   1      32.860  28.651  26.723  1.00  0.00     0.002 A 
BRANCH  23  29
ATOM     29  C   UNL A   1      29.974  29.498  23.394  1.00  0.00     0.141 C 
ATOM     30  C   UNL A   1      28.563  29.145  22.895  1.00  0.00     0.029 C 
ENDBRANCH  23  29
ENDBRANCH  19  20
ENDBRANCH  16  19
ENDBRANCH  13  16
ENDBRANCH   3   5
ENDBRANCH   2   3
ENDBRANCH   1   2
BRANCH   1  31
ATOM     31  C   UNL A   1      39.554  19.507  25.284  1.00  0.00     0.275 C 
BRANCH  31  32
ATOM     32  O   UNL A   1      39.943  20.199  26.452  1.00  0.00    -0.458 OA
BRANCH  32  33
ATOM     33  C   UNL A   1      40.431  21.426  26.145  1.00  0.00     0.338 C 
ATOM     34  O   UNL A   1      39.767  22.434  25.941  1.00  0.00    -0.246 OA
BRANCH  33  35
ATOM     35  C   UNL A   1      41.932  21.369  26.185  1.00  0.00     0.060 A 
ATOM     36  C   UNL A   1      42.317  21.015  27.469  1.00  0.00     0.016 A 
ATOM     37  C   UNL A   1      42.492  22.475  25.547  1.00  0.00     0.016 A 
ATOM     38  C   UNL A   1      42.532  22.079  28.299  1.00  0.00     0.010 A 
ATOM     39  C   UNL A   1      42.649  23.567  26.349  1.00  0.00     0.010 A 
ATOM     40  C   UNL A   1      42.548  23.358  27.722  1.00  0.00    -0.014 A 
BRANCH  40  41
ATOM     41  C   UNL A   1      42.611  24.469  28.624  1.00  0.00     0.031 A 
ATOM     42  C   UNL A   1      41.557  25.442  28.330  1.00  0.00     0.074 A 
ATOM     43  C   UNL A   1      43.475  24.572  29.641  1.00  0.00     0.049 A 
ATOM     44  N   UNL A   1      41.687  26.584  27.746  1.00  0.00    -0.248 NA
ATOM     45  C   UNL A   1      40.172  24.976  28.498  1.00  0.00     0.031 C 
ATOM     46  C   UNL A   1      44.327  23.554  30.251  1.00  0.00     0.029 A 
ATOM     47  N   UNL A   1      43.661  25.659  30.426  1.00  0.00    -0.354 N 
ATOM     48  C   UNL A   1      40.393  27.060  27.618  1.00  0.00     0.074 A 
ATOM     49  C   UNL A   1      39.511  25.952  27.884  1.00  0.00     0.031 C 
ATOM     50  C   UNL A   1      44.747  24.012  31.455  1.00  0.00     0.029 A 
ATOM     51  C   UNL A   1      44.302  25.390  31.618  1.00  0.00     0.049 A 
ATOM     52  H   UNL A   1      43.367  26.562  30.169  1.00  0.00     0.167 HD
ATOM     53  C   UNL A   1      40.127  28.389  27.579  1.00  0.00     0.031 A 
ATOM     54  C   UNL A   1      44.340  26.228  32.679  1.00  0.00     0.031 A 
ATOM     55  C   UNL A   1      41.300  29.170  27.291  1.00  0.00     0.049 A 
ATOM     56  C   UNL A   1      43.980  27.591  32.202  1.00  0.00     0.074 A 
ATOM     57  C   UNL A   1      42.179  29.241  26.227  1.00  0.00     0.029 A 
ATOM     58  N   UNL A   1      41.943  29.755  28.356  1.00  0.00    -0.354 N 
ATOM     59  N   UNL A   1      44.731  28.303  31.411  1.00  0.00    -0.248 NA
ATOM     60  C   UNL A   1      42.580  27.994  32.249  1.00  0.00     0.031 C 
ATOM     61  C   UNL A   1      43.459  29.462  26.815  1.00  0.00     0.029 A 
ATOM     62  C   UNL A   1      43.289  29.540  28.200  1.00  0.00     0.049 A 
ATOM     63  H   UNL A   1      41.515  30.242  29.097  1.00  0.00     0.167 HD
ATOM     64  C   UNL A   1      43.848  28.959  30.562  1.00  0.00     0.074 A 
ATOM     65  C   UNL A   1      42.540  28.817  31.196  1.00  0.00     0.031 C 
ATOM     66  C   UNL A   1      44.212  29.310  29.292  1.00  0.00     0.031 A 
BRANCH  53  67
ATOM     67  C   UNL A   1      38.891  28.959  28.213  1.00  0.00    -0.014 A 
ATOM     68  C   UNL A   1      38.678  28.752  29.582  1.00  0.00     0.009 A 
ATOM     69  C   UNL A   1      37.809  29.478  27.470  1.00  0.00     0.009 A 
ATOM     70  C   UNL A   1      37.433  29.013  30.163  1.00  0.00     0.001 A 
ATOM     71  C   UNL A   1      36.583  29.788  28.055  1.00  0.00     0.001 A 
ATOM     72  C   UNL A   1      36.387  29.530  29.400  1.00  0.00     0.000 A 
ENDBRANCH  53  67
BRANCH  54  73
ATOM     73  C   UNL A   1      44.323  25.855  34.106  1.00  0.00    -0.014 A 
ATOM     74  C   UNL A   1      43.255  25.125  34.644  1.00  0.00     0.009 A 
ATOM     75  C   UNL A   1      45.482  26.005  34.891  1.00  0.00     0.009 A 
ATOM     76  C   UNL A   1      43.355  24.543  35.915  1.00  0.00     0.001 A 
ATOM     77  C   UNL A   1      45.581  25.430  36.160  1.00  0.00     0.001 A 
ATOM     78  C   UNL A   1      44.521  24.686  36.666  1.00  0.00     0.000 A 
ENDBRANCH  54  73
BRANCH  66  79
ATOM     79  C   UNL A   1      45.671  29.174  28.922  1.00  0.00    -0.014 A 
ATOM     80  C   UNL A   1      46.587  30.234  29.046  1.00  0.00     0.009 A 
ATOM     81  C   UNL A   1      46.165  27.905  28.585  1.00  0.00     0.009 A 
ATOM     82  C   UNL A   1      47.951  30.036  28.803  1.00  0.00     0.001 A 
ATOM     83  C   UNL A   1      47.529  27.703  28.364  1.00  0.00     0.001 A 
ATOM     84  C   UNL A   1      48.421  28.769  28.466  1.00  0.00     0.000 A 
ENDBRANCH  66  79
ENDBRANCH  40  41
ENDBRANCH  33  35
ENDBRANCH  32  33
ENDBRANCH  31  32
ENDBRANCH   1  31
TORSDOF 16
ENDMDL
MODEL 2
REMARK VINA RESULT:     -11.4      3.689      8.913
REMARK SMILES CCn1nc(C(=O)OCCOC(=O)c2ccc(-c3c4nc(c(-c5ccccc5)c5ccc([nH]5)c(-c5ccccc5)c5nc(c(-c6ccccc6)c6ccc3[nH]6)C=C5)C=C4)cc2)c2c1CC[C@H]([NH2+]Cc1nn(CC)c3ccccc13)C2
REMARK SMILES IDX 9 1 8 2 6 3 7 4 5 5 3 6 4 7 63 8 62 9 64 10 80 11 65 12
REMARK SMILES IDX 66 13 2 14 1 15 67 16 68 19 69 20 70 21 79 22 71 23 74 24
REMARK SMILES IDX 78 25 75 26 77 27 76 28 72 29 73 30 10 31 11 32 12 33 13 34
REMARK SMILES IDX 14 35 15 36 61 37 16 38 60 39 17 40 18 41 19 42 54 43 20 44
REMARK SMILES IDX 59 45 53 46 55 47 21 48 58 49 52 50 51 51 22 53 44 54 29 55
REMARK SMILES IDX 43 56 30 57 33 58 42 59 56 60 31 61 32 62 41 64 57 65 34 66
REMARK SMILES IDX 23 67 24 68 28 69 25 70 27 71 26 72 45 73 46 74 50 75 47 76
REMARK SMILES IDX 49 77 48 78 35 79 36 80 40 81 37 82 39 83 38 84
REMARK H PARENT 67 17 67 18 55 52 33 63
REMARK Flexibility Score: inf
ROOT
ATOM      1  C   UNL A   1      32.860  30.286  26.931  1.00  0.00     0.275 C 
ENDROOT
BRANCH   1   2
ATOM      2  O   UNL A   1      32.821  28.857  27.055  1.00  0.00    -0.457 OA
BRANCH   2   3
ATOM      3  C   UNL A   1      31.683  28.107  26.921  1.00  0.00     0.359 C 
ATOM      4  O   UNL A   1      31.051  27.613  27.842  1.00  0.00    -0.244 OA
BRANCH   3   5
ATOM      5  C   UNL A   1      31.439  27.869  25.495  1.00  0.00     0.174 A 
ATOM      6  N   UNL A   1      30.678  27.864  23.496  1.00  0.00    -0.269 N 
ATOM      7  N   UNL A   1      30.774  28.636  24.621  1.00  0.00    -0.165 NA
ATOM      8  C   UNL A   1      31.267  26.630  23.648  1.00  0.00     0.043 A 
ATOM      9  C   UNL A   1      31.794  26.647  24.902  1.00  0.00     0.014 A 
ATOM     10  C   UNL A   1      31.321  25.418  22.791  1.00  0.00     0.062 C 
ATOM     11  C   UNL A   1      32.368  25.512  25.618  1.00  0.00     0.105 C 
ATOM     12  C   UNL A   1      31.400  24.127  23.695  1.00  0.00     0.072 C 
ATOM     13  C   UNL A   1      32.389  24.178  24.912  1.00  0.00     0.187 C 
BRANCH   6  14
ATOM     14  C   UNL A   1      29.969  28.397  22.345  1.00  0.00     0.141 C 
ATOM     15  C   UNL A   1      29.923  29.923  22.292  1.00  0.00     0.029 C 
ENDBRANCH   6  14
BRANCH  13  16
ATOM     16  N   UNL A   1      32.151  23.097  25.927  1.00  0.00    -0.338 N 
ATOM     17  H   UNL A   1      31.330  23.357  26.474  1.00  0.00     0.346 HD
ATOM     18  H   UNL A   1      33.010  23.036  26.474  1.00  0.00     0.346 HD
BRANCH  16  19
ATOM     19  C   UNL A   1      31.919  21.722  25.371  1.00  0.00     0.320 C 
BRANCH  19  20
ATOM     20  C   UNL A   1      33.174  20.832  25.215  1.00  0.00     0.124 A 
ATOM     21  N   UNL A   1      34.407  21.216  25.618  1.00  0.00    -0.171 NA
ATOM     22  C   UNL A   1      33.247  19.558  24.543  1.00  0.00     0.029 A 
ATOM     23  N   UNL A   1      35.238  20.251  25.138  1.00  0.00    -0.265 N 
ATOM     24  C   UNL A   1      34.570  19.143  24.676  1.00  0.00     0.069 A 
ATOM     25  C   UNL A   1      32.378  18.742  23.784  1.00  0.00     0.012 A 
ATOM     26  C   UNL A   1      35.026  17.883  24.260  1.00  0.00     0.028 A 
ATOM     27  C   UNL A   1      32.864  17.541  23.235  1.00  0.00     0.001 A 
ATOM     28  C   UNL A   1      34.156  17.100  23.506  1.00  0.00     0.002 A 
BRANCH  23  29
ATOM     29  C   UNL A   1      36.677  20.484  25.031  1.00  0.00     0.141 C 
ATOM     30  C   UNL A   1      37.179  21.892  25.394  1.00  0.00     0.029 C 
ENDBRANCH  23  29
ENDBRANCH  19  20
ENDBRANCH  16  19
ENDBRANCH  13  16
ENDBRANCH   3   5
ENDBRANCH   2   3
ENDBRANCH   1   2
BRANCH   1  31
ATOM     31  C   UNL A   1      34.183  30.891  27.365  1.00  0.00     0.275 C 
BRANCH  31  32
ATOM     32  O   UNL A   1      33.926  31.613  28.551  1.00  0.00    -0.458 OA
BRANCH  32  33
ATOM     33  C   UNL A   1      34.072  32.945  28.345  1.00  0.00     0.338 C 
ATOM     34  O   UNL A   1      33.860  33.538  27.295  1.00  0.00    -0.246 OA
BRANCH  33  35
ATOM     35  C   UNL A   1      34.452  33.593  29.646  1.00  0.00     0.060 A 
ATOM     36  C   UNL A   1      35.383  34.586  29.379  1.00  0.00     0.016 A 
ATOM     37  C   UNL A   1      34.688  32.635  30.632  1.00  0.00     0.016 A 
ATOM     38  C   UNL A   1      36.680  34.163  29.436  1.00  0.00     0.010 A 
ATOM     39  C   UNL A   1      35.965  32.154  30.655  1.00  0.00     0.010 A 
ATOM     40  C   UNL A   1      36.922  32.879  29.950  1.00  0.00    -0.014 A 
BRANCH  40  41
ATOM     41  C   UNL A   1      38.264  32.390  29.852  1.00  0.00     0.031 A 
ATOM     42  C   UNL A   1      38.281  30.989  29.425  1.00  0.00     0.074 A 
ATOM     43  C   UNL A   1      39.359  33.132  30.058  1.00  0.00     0.049 A 
ATOM     44  N   UNL A   1      38.515  29.952  30.154  1.00  0.00    -0.248 NA
ATOM     45  C   UNL A   1      37.743  30.708  28.086  1.00  0.00     0.031 C 
ATOM     46  C   UNL A   1      39.502  34.584  30.145  1.00  0.00     0.029 A 
ATOM     47  N   UNL A   1      40.633  32.681  30.113  1.00  0.00    -0.354 N 
ATOM     48  C   UNL A   1      38.308  28.877  29.307  1.00  0.00     0.074 A 
ATOM     49  C   UNL A   1      37.629  29.385  28.142  1.00  0.00     0.031 C 
ATOM     50  C   UNL A   1      40.812  34.895  29.996  1.00  0.00     0.029 A 
ATOM     51  C   UNL A   1      41.587  33.663  29.943  1.00  0.00     0.049 A 
ATOM     52  H   UNL A   1      40.861  31.735  30.263  1.00  0.00     0.167 HD
ATOM     53  C   UNL A   1      38.953  27.697  29.488  1.00  0.00     0.031 A 
ATOM     54  C   UNL A   1      42.891  33.432  29.665  1.00  0.00     0.031 A 
ATOM     55  C   UNL A   1      39.515  27.582  30.807  1.00  0.00     0.049 A 
ATOM     56  C   UNL A   1      43.189  32.015  30.005  1.00  0.00     0.074 A 
ATOM     57  C   UNL A   1      38.991  27.575  32.086  1.00  0.00     0.029 A 
ATOM     58  N   UNL A   1      40.855  27.856  30.946  1.00  0.00    -0.354 N 
ATOM     59  N   UNL A   1      43.201  31.549  31.222  1.00  0.00    -0.248 NA
ATOM     60  C   UNL A   1      43.046  31.007  28.962  1.00  0.00     0.031 C 
ATOM     61  C   UNL A   1      39.942  28.277  32.883  1.00  0.00     0.029 A 
ATOM     62  C   UNL A   1      41.005  28.650  32.056  1.00  0.00     0.049 A 
ATOM     63  H   UNL A   1      41.577  27.539  30.357  1.00  0.00     0.167 HD
ATOM     64  C   UNL A   1      42.661  30.272  31.129  1.00  0.00     0.074 A 
ATOM     65  C   UNL A   1      42.688  29.954  29.704  1.00  0.00     0.031 C 
ATOM     66  C   UNL A   1      41.987  29.709  32.176  1.00  0.00     0.031 A 
BRANCH  53  67
ATOM     67  C   UNL A   1      39.404  26.864  28.323  1.00  0.00    -0.014 A 
ATOM     68  C   UNL A   1      39.098  25.497  28.314  1.00  0.00     0.009 A 
ATOM     69  C   UNL A   1      40.330  27.318  27.359  1.00  0.00     0.009 A 
ATOM     70  C   UNL A   1      39.720  24.627  27.411  1.00  0.00     0.001 A 
ATOM     71  C   UNL A   1      40.912  26.465  26.425  1.00  0.00     0.001 A 
ATOM     72  C   UNL A   1      40.625  25.111  26.468  1.00  0.00     0.000 A 
ENDBRANCH  53  67
BRANCH  54  73
ATOM     73  C   UNL A   1      43.776  34.248  28.812  1.00  0.00    -0.014 A 
ATOM     74  C   UNL A   1      44.581  35.252  29.367  1.00  0.00     0.009 A 
ATOM     75  C   UNL A   1      44.016  33.872  27.477  1.00  0.00     0.009 A 
ATOM     76  C   UNL A   1      45.608  35.840  28.618  1.00  0.00     0.001 A 
ATOM     77  C   UNL A   1      45.036  34.462  26.727  1.00  0.00     0.001 A 
ATOM     78  C   UNL A   1      45.841  35.438  27.303  1.00  0.00     0.000 A 
ENDBRANCH  54  73
BRANCH  66  79
ATOM     79  C   UNL A   1      42.050  30.418  33.509  1.00  0.00    -0.014 A 
ATOM     80  C   UNL A   1      43.020  30.120  34.482  1.00  0.00     0.009 A 
ATOM     81  C   UNL A   1      41.205  31.517  33.728  1.00  0.00     0.009 A 
ATOM     82  C   UNL A   1      43.117  30.877  35.654  1.00  0.00     0.001 A 
ATOM     83  C   UNL A   1      41.317  32.286  34.888  1.00  0.00     0.001 A 
ATOM     84  C   UNL A   1      42.268  31.962  35.854  1.00  0.00     0.000 A 
ENDBRANCH  66  79
ENDBRANCH  40  41
ENDBRANCH  33  35
ENDBRANCH  32  33
ENDBRANCH  31  32
ENDBRANCH   1  31
TORSDOF 16
ENDMDL
MODEL 3
REMARK VINA RESULT:     -11.1      3.739      8.674
REMARK SMILES CCn1nc(C(=O)OCCOC(=O)c2ccc(-c3c4nc(c(-c5ccccc5)c5ccc([nH]5)c(-c5ccccc5)c5nc(c(-c6ccccc6)c6ccc3[nH]6)C=C5)C=C4)cc2)c2c1CC[C@H]([NH2+]Cc1nn(CC)c3ccccc13)C2
REMARK SMILES IDX 9 1 8 2 6 3 7 4 5 5 3 6 4 7 63 8 62 9 64 10 80 11 65 12
REMARK SMILES IDX 66 13 2 14 1 15 67 16 68 19 69 20 70 21 79 22 71 23 74 24
REMARK SMILES IDX 78 25 75 26 77 27 76 28 72 29 73 30 10 31 11 32 12 33 13 34
REMARK SMILES IDX 14 35 15 36 61 37 16 38 60 39 17 40 18 41 19 42 54 43 20 44
REMARK SMILES IDX 59 45 53 46 55 47 21 48 58 49 52 50 51 51 22 53 44 54 29 55
REMARK SMILES IDX 43 56 30 57 33 58 42 59 56 60 31 61 32 62 41 64 57 65 34 66
REMARK SMILES IDX 23 67 24 68 28 69 25 70 27 71 26 72 45 73 46 74 50 75 47 76
REMARK SMILES IDX 49 77 48 78 35 79 36 80 40 81 37 82 39 83 38 84
REMARK H PARENT 67 17 67 18 55 52 33 63
REMARK Flexibility Score: inf
ROOT
ATOM      1  C   UNL A   1      44.248  27.373  25.855  1.00  0.00     0.275 C 
ENDROOT
BRANCH   1   2
ATOM      2  O   UNL A   1      43.815  26.303  25.002  1.00  0.00    -0.457 OA
BRANCH   2   3
ATOM      3  C   UNL A   1      42.668  25.582  25.200  1.00  0.00     0.359 C 
ATOM      4  O   UNL A   1      41.554  26.058  25.363  1.00  0.00    -0.244 OA
BRANCH   3   5
ATOM      5  C   UNL A   1      43.017  24.165  25.337  1.00  0.00     0.174 A 
ATOM      6  N   UNL A   1      43.785  22.186  25.075  1.00  0.00    -0.269 N 
ATOM      7  N   UNL A   1      44.037  23.498  24.782  1.00  0.00    -0.165 NA
ATOM      8  C   UNL A   1      42.629  22.018  25.801  1.00  0.00     0.043 A 
ATOM      9  C   UNL A   1      42.162  23.278  26.010  1.00  0.00     0.014 A 
ATOM     10  C   UNL A   1      41.874  20.818  26.246  1.00  0.00     0.062 C 
ATOM     11  C   UNL A   1      40.866  23.642  26.573  1.00  0.00     0.105 C 
ATOM     12  C   UNL A   1      40.334  21.152  26.315  1.00  0.00     0.072 C 
ATOM     13  C   UNL A   1      39.937  22.520  26.971  1.00  0.00     0.187 C 
BRANCH   6  14
ATOM     14  C   UNL A   1      44.703  21.174  24.580  1.00  0.00     0.141 C 
ATOM     15  C   UNL A   1      46.029  21.108  25.337  1.00  0.00     0.029 C 
ENDBRANCH   6  14
BRANCH  13  16
ATOM     16  N   UNL A   1      38.526  22.942  26.676  1.00  0.00    -0.338 N 
ATOM     17  H   UNL A   1      38.556  23.880  26.277  1.00  0.00     0.346 HD
ATOM     18  H   UNL A   1      38.028  22.887  27.565  1.00  0.00     0.346 HD
BRANCH  16  19
ATOM     19  C   UNL A   1      37.768  22.061  25.726  1.00  0.00     0.320 C 
BRANCH  19  20
ATOM     20  C   UNL A   1      36.282  22.425  25.500  1.00  0.00     0.124 A 
ATOM     21  N   UNL A   1      35.787  23.666  25.704  1.00  0.00    -0.171 NA
ATOM     22  C   UNL A   1      35.216  21.515  25.161  1.00  0.00     0.029 A 
ATOM     23  N   UNL A   1      34.439  23.520  25.579  1.00  0.00    -0.265 N 
ATOM     24  C   UNL A   1      34.074  22.306  25.052  1.00  0.00     0.069 A 
ATOM     25  C   UNL A   1      35.063  20.120  25.001  1.00  0.00     0.012 A 
ATOM     26  C   UNL A   1      32.836  21.813  24.612  1.00  0.00     0.028 A 
ATOM     27  C   UNL A   1      33.793  19.595  24.702  1.00  0.00     0.001 A 
ATOM     28  C   UNL A   1      32.707  20.434  24.470  1.00  0.00     0.002 A 
BRANCH  23  29
ATOM     29  C   UNL A   1      33.522  24.535  26.095  1.00  0.00     0.141 C 
ATOM     30  C   UNL A   1      33.845  25.999  25.750  1.00  0.00     0.029 C 
ENDBRANCH  23  29
ENDBRANCH  19  20
ENDBRANCH  16  19
ENDBRANCH  13  16
ENDBRANCH   3   5
ENDBRANCH   2   3
ENDBRANCH   1   2
BRANCH   1  31
ATOM     31  C   UNL A   1      45.481  27.029  26.670  1.00  0.00     0.275 C 
BRANCH  31  32
ATOM     32  O   UNL A   1      45.053  26.166  27.703  1.00  0.00    -0.458 OA
BRANCH  32  33
ATOM     33  C   UNL A   1      44.950  26.835  28.878  1.00  0.00     0.338 C 
ATOM     34  O   UNL A   1      45.573  27.841  29.190  1.00  0.00    -0.246 OA
BRANCH  33  35
ATOM     35  C   UNL A   1      43.876  26.188  29.706  1.00  0.00     0.060 A 
ATOM     36  C   UNL A   1      42.750  26.035  28.910  1.00  0.00     0.016 A 
ATOM     37  C   UNL A   1      43.788  26.781  30.965  1.00  0.00     0.016 A 
ATOM     38  C   UNL A   1      41.884  27.090  28.963  1.00  0.00     0.010 A 
ATOM     39  C   UNL A   1      42.978  27.878  31.015  1.00  0.00     0.010 A 
ATOM     40  C   UNL A   1      42.113  28.070  29.940  1.00  0.00    -0.014 A 
BRANCH  40  41
ATOM     41  C   UNL A   1      41.297  29.244  29.877  1.00  0.00     0.031 A 
ATOM     42  C   UNL A   1      42.106  30.430  29.586  1.00  0.00     0.074 A 
ATOM     43  C   UNL A   1      39.964  29.249  30.001  1.00  0.00     0.049 A 
ATOM     44  N   UNL A   1      42.459  31.357  30.409  1.00  0.00    -0.248 NA
ATOM     45  C   UNL A   1      42.791  30.450  28.285  1.00  0.00     0.031 C 
ATOM     46  C   UNL A   1      39.016  28.138  29.948  1.00  0.00     0.029 A 
ATOM     47  N   UNL A   1      39.172  30.343  30.087  1.00  0.00    -0.354 N 
ATOM     48  C   UNL A   1      43.292  32.180  29.671  1.00  0.00     0.074 A 
ATOM     49  C   UNL A   1      43.633  31.462  28.469  1.00  0.00     0.031 C 
ATOM     50  C   UNL A   1      37.773  28.645  29.757  1.00  0.00     0.029 A 
ATOM     51  C   UNL A   1      37.842  30.098  29.815  1.00  0.00     0.049 A 
ATOM     52  H   UNL A   1      39.514  31.235  30.325  1.00  0.00     0.167 HD
ATOM     53  C   UNL A   1      43.423  33.499  29.958  1.00  0.00     0.031 A 
ATOM     54  C   UNL A   1      36.921  31.053  29.549  1.00  0.00     0.031 A 
ATOM     55  C   UNL A   1      42.946  33.818  31.277  1.00  0.00     0.049 A 
ATOM     56  C   UNL A   1      37.461  32.357  30.020  1.00  0.00     0.074 A 
ATOM     57  C   UNL A   1      43.299  33.431  32.555  1.00  0.00     0.029 A 
ATOM     58  N   UNL A   1      41.682  34.350  31.377  1.00  0.00    -0.354 N 
ATOM     59  N   UNL A   1      37.640  32.656  31.275  1.00  0.00    -0.248 NA
ATOM     60  C   UNL A   1      38.217  33.175  29.079  1.00  0.00     0.031 C 
ATOM     61  C   UNL A   1      42.070  33.342  33.272  1.00  0.00     0.029 A 
ATOM     62  C   UNL A   1      41.038  33.706  32.403  1.00  0.00     0.049 A 
ATOM     63  H   UNL A   1      41.307  35.065  30.813  1.00  0.00     0.167 HD
ATOM     64  C   UNL A   1      38.815  33.396  31.310  1.00  0.00     0.074 A 
ATOM     65  C   UNL A   1      39.063  33.776  29.922  1.00  0.00     0.031 C 
ATOM     66  C   UNL A   1      39.623  33.394  32.413  1.00  0.00     0.031 A 
BRANCH  53  67
ATOM     67  C   UNL A   1      43.600  34.523  28.875  1.00  0.00    -0.014 A 
ATOM     68  C   UNL A   1      42.468  34.973  28.182  1.00  0.00     0.009 A 
ATOM     69  C   UNL A   1      44.858  34.877  28.342  1.00  0.00     0.009 A 
ATOM     70  C   UNL A   1      42.595  35.704  26.995  1.00  0.00     0.001 A 
ATOM     71  C   UNL A   1      44.988  35.649  27.189  1.00  0.00     0.001 A 
ATOM     72  C   UNL A   1      43.854  36.042  26.501  1.00  0.00     0.000 A 
ENDBRANCH  53  67
BRANCH  54  73
ATOM     73  C   UNL A   1      35.784  30.955  28.613  1.00  0.00    -0.014 A 
ATOM     74  C   UNL A   1      35.533  29.769  27.912  1.00  0.00     0.009 A 
ATOM     75  C   UNL A   1      34.793  31.955  28.597  1.00  0.00     0.009 A 
ATOM     76  C   UNL A   1      34.319  29.580  27.237  1.00  0.00     0.001 A 
ATOM     77  C   UNL A   1      33.585  31.770  27.920  1.00  0.00     0.001 A 
ATOM     78  C   UNL A   1      33.343  30.575  27.251  1.00  0.00     0.000 A 
ENDBRANCH  54  73
BRANCH  66  79
ATOM     79  C   UNL A   1      39.085  32.753  33.671  1.00  0.00    -0.014 A 
ATOM     80  C   UNL A   1      38.483  33.495  34.703  1.00  0.00     0.009 A 
ATOM     81  C   UNL A   1      39.047  31.353  33.750  1.00  0.00     0.009 A 
ATOM     82  C   UNL A   1      37.894  32.854  35.798  1.00  0.00     0.001 A 
ATOM     83  C   UNL A   1      38.439  30.713  34.833  1.00  0.00     0.001 A 
ATOM     84  C   UNL A   1      37.869  31.463  35.860  1.00  0.00     0.000 A 
ENDBRANCH  66  79
ENDBRANCH  40  41
ENDBRANCH  33  35
ENDBRANCH  32  33
ENDBRANCH  31  32
ENDBRANCH   1  31
TORSDOF 16
ENDMDL
