MODEL 1
REMARK VINA RESULT:      -9.3      0.000      0.000
REMARK SMILES C#CCN(CC(=O)OCCOC(=O)c1ccc(-c2c3nc(c(-c4ccccc4)c4ccc([nH]4)c(-c4ccccc4)c4nc(c(-c5ccccc5)c5ccc2[nH]5)C=C4)C=C3)cc1)C(=O)N1CCO[C@@H](C#N)C1
REMARK SMILES IDX 9 1 8 2 6 3 7 4 5 5 4 6 3 7 2 8 1 9 62 10 63 11 64 12 65 13
REMARK SMILES IDX 71 14 66 15 68 16 67 17 69 18 70 19 10 20 11 21 12 22 13 23
REMARK SMILES IDX 14 24 15 25 61 26 16 27 60 28 17 29 18 30 19 31 54 32 20 33
REMARK SMILES IDX 59 34 53 35 55 36 21 37 58 38 52 39 51 40 22 42 44 43 29 44
REMARK SMILES IDX 43 45 30 46 33 47 42 48 56 49 31 50 32 51 41 53 57 54 34 55
REMARK SMILES IDX 23 56 24 57 28 58 25 59 27 60 26 61 45 62 46 63 50 64 47 65
REMARK SMILES IDX 49 66 48 67 35 68 36 69 40 70 37 71 39 72 38 73
REMARK H PARENT 55 41 33 52
REMARK Flexibility Score: inf
ROOT
ATOM      1  C   UNL A   1      34.299  20.980  25.883  1.00  0.00     0.274 C 
ENDROOT
BRANCH   1   2
ATOM      2  O   UNL A   1      34.231  22.167  26.704  1.00  0.00    -0.461 OA
BRANCH   2   3
ATOM      3  C   UNL A   1      32.980  22.549  27.048  1.00  0.00     0.325 C 
ATOM      4  O   UNL A   1      32.518  22.499  28.187  1.00  0.00    -0.250 OA
BRANCH   3   5
ATOM      5  C   UNL A   1      32.182  23.195  25.919  1.00  0.00     0.245 C 
BRANCH   5   6
ATOM      6  N   UNL A   1      32.654  24.302  25.049  1.00  0.00    -0.302 N 
BRANCH   6   7
ATOM      7  C   UNL A   1      33.151  23.828  23.800  1.00  0.00     0.211 C 
BRANCH   7   8
ATOM      8  C   UNL A   1      32.588  22.551  23.198  1.00  0.00    -0.085 C 
ATOM      9  C   UNL A   1      32.105  21.455  22.682  1.00  0.00     0.006 C 
ENDBRANCH   7   8
ENDBRANCH   6   7
BRANCH   6  10
ATOM     10  C   UNL A   1      32.654  25.682  25.119  1.00  0.00     0.321 C 
ATOM     11  O   UNL A   1      33.646  26.297  25.520  1.00  0.00    -0.248 OA
BRANCH  10  12
ATOM     12  N   UNL A   1      31.617  26.397  24.603  1.00  0.00    -0.319 N 
ATOM     13  C   UNL A   1      31.491  27.835  24.912  1.00  0.00     0.150 C 
ATOM     14  C   UNL A   1      30.774  26.009  23.519  1.00  0.00     0.169 C 
ATOM     15  C   UNL A   1      31.609  28.695  23.625  1.00  0.00     0.183 C 
ATOM     16  C   UNL A   1      31.180  26.794  22.287  1.00  0.00     0.240 C 
ATOM     17  O   UNL A   1      30.864  28.176  22.512  1.00  0.00    -0.360 OA
BRANCH  16  18
ATOM     18  C   UNL A   1      32.543  26.578  21.756  1.00  0.00     0.096 C 
ATOM     19  N   UNL A   1      33.614  26.484  21.338  1.00  0.00    -0.195 NA
ENDBRANCH  16  18
ENDBRANCH  10  12
ENDBRANCH   6  10
ENDBRANCH   5   6
ENDBRANCH   3   5
ENDBRANCH   2   3
ENDBRANCH   1   2
BRANCH   1  20
ATOM     20  C   UNL A   1      35.711  20.837  25.306  1.00  0.00     0.275 C 
BRANCH  20  21
ATOM     21  O   UNL A   1      36.701  21.691  25.927  1.00  0.00    -0.458 OA
BRANCH  21  22
ATOM     22  C   UNL A   1      38.001  21.429  25.653  1.00  0.00     0.338 C 
ATOM     23  O   UNL A   1      38.453  20.404  25.177  1.00  0.00    -0.246 OA
BRANCH  22  24
ATOM     24  C   UNL A   1      38.835  22.514  26.225  1.00  0.00     0.060 A 
ATOM     25  C   UNL A   1      38.382  23.808  26.030  1.00  0.00     0.016 A 
ATOM     26  C   UNL A   1      40.080  22.312  26.840  1.00  0.00     0.016 A 
ATOM     27  C   UNL A   1      39.211  24.876  26.390  1.00  0.00     0.010 A 
ATOM     28  C   UNL A   1      40.851  23.409  27.305  1.00  0.00     0.010 A 
ATOM     29  C   UNL A   1      40.432  24.730  27.094  1.00  0.00    -0.014 A 
BRANCH  29  30
ATOM     30  C   UNL A   1      41.144  25.969  27.612  1.00  0.00     0.031 A 
ATOM     31  C   UNL A   1      40.557  26.975  28.603  1.00  0.00     0.074 A 
ATOM     32  C   UNL A   1      42.414  26.195  27.192  1.00  0.00     0.049 A 
ATOM     33  N   UNL A   1      41.036  28.150  28.961  1.00  0.00    -0.248 NA
ATOM     34  C   UNL A   1      39.298  26.639  29.283  1.00  0.00     0.031 C 
ATOM     35  C   UNL A   1      43.168  25.337  26.270  1.00  0.00     0.029 A 
ATOM     36  N   UNL A   1      43.320  27.186  27.496  1.00  0.00    -0.354 N 
ATOM     37  C   UNL A   1      40.126  28.702  29.864  1.00  0.00     0.074 A 
ATOM     38  C   UNL A   1      39.071  27.722  30.021  1.00  0.00     0.031 C 
ATOM     39  C   UNL A   1      44.437  25.732  26.214  1.00  0.00     0.029 A 
ATOM     40  C   UNL A   1      44.520  27.035  26.839  1.00  0.00     0.049 A 
ATOM     41  H   UNL A   1      43.130  27.926  28.118  1.00  0.00     0.167 HD
ATOM     42  C   UNL A   1      40.152  29.917  30.479  1.00  0.00     0.031 A 
ATOM     43  C   UNL A   1      45.540  27.875  26.598  1.00  0.00     0.031 A 
ATOM     44  C   UNL A   1      41.202  30.900  30.311  1.00  0.00     0.049 A 
ATOM     45  C   UNL A   1      45.465  29.261  27.131  1.00  0.00     0.074 A 
ATOM     46  C   UNL A   1      41.301  32.167  30.871  1.00  0.00     0.029 A 
ATOM     47  N   UNL A   1      42.329  30.733  29.521  1.00  0.00    -0.354 N 
ATOM     48  N   UNL A   1      44.550  29.792  27.898  1.00  0.00    -0.248 NA
ATOM     49  C   UNL A   1      46.548  30.169  26.742  1.00  0.00     0.031 C 
ATOM     50  C   UNL A   1      42.437  32.795  30.348  1.00  0.00     0.029 A 
ATOM     51  C   UNL A   1      43.096  31.891  29.534  1.00  0.00     0.049 A 
ATOM     52  H   UNL A   1      42.552  29.915  29.023  1.00  0.00     0.167 HD
ATOM     53  C   UNL A   1      44.951  31.101  28.101  1.00  0.00     0.074 A 
ATOM     54  C   UNL A   1      46.205  31.271  27.391  1.00  0.00     0.031 C 
ATOM     55  C   UNL A   1      44.331  32.070  28.814  1.00  0.00     0.031 A 
BRANCH  42  56
ATOM     56  C   UNL A   1      38.964  30.326  31.327  1.00  0.00    -0.014 A 
ATOM     57  C   UNL A   1      38.932  30.150  32.719  1.00  0.00     0.009 A 
ATOM     58  C   UNL A   1      37.886  30.996  30.716  1.00  0.00     0.009 A 
ATOM     59  C   UNL A   1      37.838  30.602  33.469  1.00  0.00     0.001 A 
ATOM     60  C   UNL A   1      36.809  31.472  31.469  1.00  0.00     0.001 A 
ATOM     61  C   UNL A   1      36.780  31.265  32.845  1.00  0.00     0.000 A 
ENDBRANCH  42  56
BRANCH  43  62
ATOM     62  C   UNL A   1      46.617  27.450  25.661  1.00  0.00    -0.014 A 
ATOM     63  C   UNL A   1      46.608  27.849  24.321  1.00  0.00     0.009 A 
ATOM     64  C   UNL A   1      47.713  26.705  26.142  1.00  0.00     0.009 A 
ATOM     65  C   UNL A   1      47.677  27.518  23.483  1.00  0.00     0.001 A 
ATOM     66  C   UNL A   1      48.801  26.422  25.319  1.00  0.00     0.001 A 
ATOM     67  C   UNL A   1      48.778  26.822  23.986  1.00  0.00     0.000 A 
ENDBRANCH  43  62
BRANCH  55  68
ATOM     68  C   UNL A   1      45.039  33.390  28.899  1.00  0.00    -0.014 A 
ATOM     69  C   UNL A   1      45.980  33.654  29.908  1.00  0.00     0.009 A 
ATOM     70  C   UNL A   1      44.736  34.396  27.970  1.00  0.00     0.009 A 
ATOM     71  C   UNL A   1      46.569  34.916  30.009  1.00  0.00     0.001 A 
ATOM     72  C   UNL A   1      45.351  35.644  28.052  1.00  0.00     0.001 A 
ATOM     73  C   UNL A   1      46.257  35.907  29.079  1.00  0.00     0.000 A 
ENDBRANCH  55  68
ENDBRANCH  29  30
ENDBRANCH  22  24
ENDBRANCH  21  22
ENDBRANCH  20  21
ENDBRANCH   1  20
TORSDOF 17
ENDMDL
MODEL 2
REMARK VINA RESULT:      -9.3      3.529      8.595
REMARK SMILES C#CCN(CC(=O)OCCOC(=O)c1ccc(-c2c3nc(c(-c4ccccc4)c4ccc([nH]4)c(-c4ccccc4)c4nc(c(-c5ccccc5)c5ccc2[nH]5)C=C4)C=C3)cc1)C(=O)N1CCO[C@@H](C#N)C1
REMARK SMILES IDX 9 1 8 2 6 3 7 4 5 5 4 6 3 7 2 8 1 9 62 10 63 11 64 12 65 13
REMARK SMILES IDX 71 14 66 15 68 16 67 17 69 18 70 19 10 20 11 21 12 22 13 23
REMARK SMILES IDX 14 24 15 25 61 26 16 27 60 28 17 29 18 30 19 31 54 32 20 33
REMARK SMILES IDX 59 34 53 35 55 36 21 37 58 38 52 39 51 40 22 42 44 43 29 44
REMARK SMILES IDX 43 45 30 46 33 47 42 48 56 49 31 50 32 51 41 53 57 54 34 55
REMARK SMILES IDX 23 56 24 57 28 58 25 59 27 60 26 61 45 62 46 63 50 64 47 65
REMARK SMILES IDX 49 66 48 67 35 68 36 69 40 70 37 71 39 72 38 73
REMARK H PARENT 55 41 33 52
REMARK Flexibility Score: inf
ROOT
ATOM      1  C   UNL A   1      31.516  28.844  24.468  1.00  0.00     0.274 C 
ENDROOT
BRANCH   1   2
ATOM      2  O   UNL A   1      32.748  28.091  24.426  1.00  0.00    -0.461 OA
BRANCH   2   3
ATOM      3  C   UNL A   1      32.775  27.001  25.227  1.00  0.00     0.325 C 
ATOM      4  O   UNL A   1      33.666  26.744  26.034  1.00  0.00    -0.250 OA
BRANCH   3   5
ATOM      5  C   UNL A   1      31.519  26.137  25.163  1.00  0.00     0.245 C 
BRANCH   5   6
ATOM      6  N   UNL A   1      31.475  24.695  24.810  1.00  0.00    -0.302 N 
BRANCH   6   7
ATOM      7  C   UNL A   1      30.993  24.481  23.485  1.00  0.00     0.211 C 
BRANCH   7   8
ATOM      8  C   UNL A   1      31.631  25.220  22.320  1.00  0.00    -0.085 C 
ATOM      9  C   UNL A   1      32.177  25.855  21.321  1.00  0.00     0.006 C 
ENDBRANCH   7   8
ENDBRANCH   6   7
BRANCH   6  10
ATOM     10  C   UNL A   1      31.865  23.518  25.418  1.00  0.00     0.321 C 
ATOM     11  O   UNL A   1      31.035  22.654  25.718  1.00  0.00    -0.248 OA
BRANCH  10  12
ATOM     12  N   UNL A   1      33.186  23.221  25.561  1.00  0.00    -0.319 N 
ATOM     13  C   UNL A   1      33.775  23.125  26.911  1.00  0.00     0.150 C 
ATOM     14  C   UNL A   1      34.044  22.667  24.565  1.00  0.00     0.169 C 
ATOM     15  C   UNL A   1      34.297  21.690  27.192  1.00  0.00     0.183 C 
ATOM     16  C   UNL A   1      34.267  21.201  24.880  1.00  0.00     0.240 C 
ATOM     17  O   UNL A   1      35.025  21.114  26.096  1.00  0.00    -0.360 OA
BRANCH  16  18
ATOM     18  C   UNL A   1      33.088  20.307  24.852  1.00  0.00     0.096 C 
ATOM     19  N   UNL A   1      32.128  19.669  24.853  1.00  0.00    -0.195 NA
ENDBRANCH  16  18
ENDBRANCH  10  12
ENDBRANCH   6  10
ENDBRANCH   5   6
ENDBRANCH   3   5
ENDBRANCH   2   3
ENDBRANCH   1   2
BRANCH   1  20
ATOM     20  C   UNL A   1      31.661  30.009  25.452  1.00  0.00     0.275 C 
BRANCH  20  21
ATOM     21  O   UNL A   1      33.001  30.197  25.964  1.00  0.00    -0.458 OA
BRANCH  21  22
ATOM     22  C   UNL A   1      33.174  31.156  26.904  1.00  0.00     0.338 C 
ATOM     23  O   UNL A   1      32.455  32.117  27.105  1.00  0.00    -0.246 OA
BRANCH  22  24
ATOM     24  C   UNL A   1      34.508  30.976  27.527  1.00  0.00     0.060 A 
ATOM     25  C   UNL A   1      34.832  29.692  27.932  1.00  0.00     0.016 A 
ATOM     26  C   UNL A   1      35.391  32.027  27.817  1.00  0.00     0.016 A 
ATOM     27  C   UNL A   1      35.996  29.493  28.682  1.00  0.00     0.010 A 
ATOM     28  C   UNL A   1      36.626  31.783  28.475  1.00  0.00     0.010 A 
ATOM     29  C   UNL A   1      36.965  30.499  28.925  1.00  0.00    -0.014 A 
BRANCH  29  30
ATOM     30  C   UNL A   1      38.286  30.118  29.573  1.00  0.00     0.031 A 
ATOM     31  C   UNL A   1      39.395  29.306  28.904  1.00  0.00     0.074 A 
ATOM     32  C   UNL A   1      38.524  30.553  30.835  1.00  0.00     0.049 A 
ATOM     33  N   UNL A   1      40.480  28.792  29.450  1.00  0.00    -0.248 NA
ATOM     34  C   UNL A   1      39.298  29.038  27.462  1.00  0.00     0.031 C 
ATOM     35  C   UNL A   1      37.605  31.369  31.639  1.00  0.00     0.029 A 
ATOM     36  N   UNL A   1      39.611  30.409  31.667  1.00  0.00    -0.354 N 
ATOM     37  C   UNL A   1      41.162  28.113  28.438  1.00  0.00     0.074 A 
ATOM     38  C   UNL A   1      40.380  28.299  27.232  1.00  0.00     0.031 C 
ATOM     39  C   UNL A   1      38.213  31.783  32.747  1.00  0.00     0.029 A 
ATOM     40  C   UNL A   1      39.437  31.023  32.888  1.00  0.00     0.049 A 
ATOM     41  H   UNL A   1      40.428  29.919  31.417  1.00  0.00     0.167 HD
ATOM     42  C   UNL A   1      42.309  27.384  28.512  1.00  0.00     0.031 A 
ATOM     43  C   UNL A   1      40.065  30.898  34.069  1.00  0.00     0.031 A 
ATOM     44  C   UNL A   1      43.082  27.190  29.721  1.00  0.00     0.049 A 
ATOM     45  C   UNL A   1      41.210  29.956  34.173  1.00  0.00     0.074 A 
ATOM     46  C   UNL A   1      44.241  26.447  29.899  1.00  0.00     0.029 A 
ATOM     47  N   UNL A   1      42.773  27.733  30.959  1.00  0.00    -0.354 N 
ATOM     48  N   UNL A   1      41.775  29.250  33.229  1.00  0.00    -0.248 NA
ATOM     49  C   UNL A   1      41.785  29.773  35.509  1.00  0.00     0.031 C 
ATOM     50  C   UNL A   1      44.578  26.468  31.257  1.00  0.00     0.029 A 
ATOM     51  C   UNL A   1      43.684  27.297  31.912  1.00  0.00     0.049 A 
ATOM     52  H   UNL A   1      42.018  28.338  31.136  1.00  0.00     0.167 HD
ATOM     53  C   UNL A   1      42.789  28.544  33.852  1.00  0.00     0.074 A 
ATOM     54  C   UNL A   1      42.770  28.927  35.251  1.00  0.00     0.031 C 
ATOM     55  C   UNL A   1      43.656  27.659  33.306  1.00  0.00     0.031 A 
BRANCH  42  56
ATOM     56  C   UNL A   1      42.775  26.638  27.277  1.00  0.00    -0.014 A 
ATOM     57  C   UNL A   1      43.741  27.157  26.401  1.00  0.00     0.009 A 
ATOM     58  C   UNL A   1      42.298  25.334  27.045  1.00  0.00     0.009 A 
ATOM     59  C   UNL A   1      44.188  26.402  25.307  1.00  0.00     0.001 A 
ATOM     60  C   UNL A   1      42.764  24.572  25.970  1.00  0.00     0.001 A 
ATOM     61  C   UNL A   1      43.702  25.111  25.094  1.00  0.00     0.000 A 
ENDBRANCH  42  56
BRANCH  43  62
ATOM     62  C   UNL A   1      39.484  31.566  35.267  1.00  0.00    -0.014 A 
ATOM     63  C   UNL A   1      39.871  32.860  35.631  1.00  0.00     0.009 A 
ATOM     64  C   UNL A   1      38.465  30.928  36.002  1.00  0.00     0.009 A 
ATOM     65  C   UNL A   1      39.244  33.503  36.703  1.00  0.00     0.001 A 
ATOM     66  C   UNL A   1      37.805  31.591  37.035  1.00  0.00     0.001 A 
ATOM     67  C   UNL A   1      38.202  32.877  37.389  1.00  0.00     0.000 A 
ENDBRANCH  43  62
BRANCH  55  68
ATOM     68  C   UNL A   1      44.691  27.086  34.229  1.00  0.00    -0.014 A 
ATOM     69  C   UNL A   1      44.461  25.897  34.940  1.00  0.00     0.009 A 
ATOM     70  C   UNL A   1      45.905  27.765  34.410  1.00  0.00     0.009 A 
ATOM     71  C   UNL A   1      45.410  25.426  35.849  1.00  0.00     0.001 A 
ATOM     72  C   UNL A   1      46.866  27.273  35.292  1.00  0.00     0.001 A 
ATOM     73  C   UNL A   1      46.612  26.111  36.020  1.00  0.00     0.000 A 
ENDBRANCH  55  68
ENDBRANCH  29  30
ENDBRANCH  22  24
ENDBRANCH  21  22
ENDBRANCH  20  21
ENDBRANCH   1  20
TORSDOF 17
ENDMDL
MODEL 3
REMARK VINA RESULT:      -9.3      3.844      6.976
REMARK SMILES C#CCN(CC(=O)OCCOC(=O)c1ccc(-c2c3nc(c(-c4ccccc4)c4ccc([nH]4)c(-c4ccccc4)c4nc(c(-c5ccccc5)c5ccc2[nH]5)C=C4)C=C3)cc1)C(=O)N1CCO[C@@H](C#N)C1
REMARK SMILES IDX 9 1 8 2 6 3 7 4 5 5 4 6 3 7 2 8 1 9 62 10 63 11 64 12 65 13
REMARK SMILES IDX 71 14 66 15 68 16 67 17 69 18 70 19 10 20 11 21 12 22 13 23
REMARK SMILES IDX 14 24 15 25 61 26 16 27 60 28 17 29 18 30 19 31 54 32 20 33
REMARK SMILES IDX 59 34 53 35 55 36 21 37 58 38 52 39 51 40 22 42 44 43 29 44
REMARK SMILES IDX 43 45 30 46 33 47 42 48 56 49 31 50 32 51 41 53 57 54 34 55
REMARK SMILES IDX 23 56 24 57 28 58 25 59 27 60 26 61 45 62 46 63 50 64 47 65
REMARK SMILES IDX 49 66 48 67 35 68 36 69 40 70 37 71 39 72 38 73
REMARK H PARENT 55 41 33 52
REMARK Flexibility Score: inf
ROOT
ATOM      1  C   UNL A   1      35.896  22.413  24.609  1.00  0.00     0.274 C 
ENDROOT
BRANCH   1   2
ATOM      2  O   UNL A   1      35.769  23.425  23.587  1.00  0.00    -0.461 OA
BRANCH   2   3
ATOM      3  C   UNL A   1      34.504  23.849  23.360  1.00  0.00     0.325 C 
ATOM      4  O   UNL A   1      34.134  24.450  22.354  1.00  0.00    -0.250 OA
BRANCH   3   5
ATOM      5  C   UNL A   1      33.490  23.402  24.409  1.00  0.00     0.245 C 
BRANCH   5   6
ATOM      6  N   UNL A   1      32.499  24.279  25.085  1.00  0.00    -0.302 N 
BRANCH   6   7
ATOM      7  C   UNL A   1      32.486  24.087  26.497  1.00  0.00     0.211 C 
BRANCH   7   8
ATOM      8  C   UNL A   1      33.229  22.909  27.106  1.00  0.00    -0.085 C 
ATOM      9  C   UNL A   1      33.866  21.898  27.628  1.00  0.00     0.006 C 
ENDBRANCH   7   8
ENDBRANCH   6   7
BRANCH   6  10
ATOM     10  C   UNL A   1      31.647  25.293  24.690  1.00  0.00     0.321 C 
ATOM     11  O   UNL A   1      30.428  25.200  24.863  1.00  0.00    -0.248 OA
BRANCH  10  12
ATOM     12  N   UNL A   1      32.146  26.476  24.241  1.00  0.00    -0.319 N 
ATOM     13  C   UNL A   1      31.314  27.350  23.393  1.00  0.00     0.150 C 
ATOM     14  C   UNL A   1      33.293  27.160  24.747  1.00  0.00     0.169 C 
ATOM     15  C   UNL A   1      31.036  28.708  24.092  1.00  0.00     0.183 C 
ATOM     16  C   UNL A   1      32.826  28.330  25.589  1.00  0.00     0.240 C 
ATOM     17  O   UNL A   1      32.193  29.283  24.721  1.00  0.00    -0.360 OA
BRANCH  16  18
ATOM     18  C   UNL A   1      32.043  28.028  26.807  1.00  0.00     0.096 C 
ATOM     19  N   UNL A   1      31.393  27.744  27.716  1.00  0.00    -0.195 NA
ENDBRANCH  16  18
ENDBRANCH  10  12
ENDBRANCH   6  10
ENDBRANCH   5   6
ENDBRANCH   3   5
ENDBRANCH   2   3
ENDBRANCH   1   2
BRANCH   1  20
ATOM     20  C   UNL A   1      37.378  22.182  24.920  1.00  0.00     0.275 C 
BRANCH  20  21
ATOM     21  O   UNL A   1      37.900  23.002  25.992  1.00  0.00    -0.458 OA
BRANCH  21  22
ATOM     22  C   UNL A   1      39.245  23.029  26.150  1.00  0.00     0.338 C 
ATOM     23  O   UNL A   1      40.024  22.125  25.912  1.00  0.00    -0.246 OA
BRANCH  22  24
ATOM     24  C   UNL A   1      39.614  24.272  26.868  1.00  0.00     0.060 A 
ATOM     25  C   UNL A   1      39.053  24.451  28.122  1.00  0.00     0.016 A 
ATOM     26  C   UNL A   1      40.394  25.300  26.317  1.00  0.00     0.016 A 
ATOM     27  C   UNL A   1      39.222  25.679  28.769  1.00  0.00     0.010 A 
ATOM     28  C   UNL A   1      40.652  26.493  27.044  1.00  0.00     0.010 A 
ATOM     29  C   UNL A   1      40.071  26.714  28.300  1.00  0.00    -0.014 A 
BRANCH  29  30
ATOM     30  C   UNL A   1      40.337  27.917  29.189  1.00  0.00     0.031 A 
ATOM     31  C   UNL A   1      41.521  28.064  30.145  1.00  0.00     0.074 A 
ATOM     32  C   UNL A   1      39.478  28.965  29.115  1.00  0.00     0.049 A 
ATOM     33  N   UNL A   1      41.724  28.987  31.065  1.00  0.00    -0.248 NA
ATOM     34  C   UNL A   1      42.611  27.081  30.071  1.00  0.00     0.031 C 
ATOM     35  C   UNL A   1      38.301  29.037  28.241  1.00  0.00     0.029 A 
ATOM     36  N   UNL A   1      39.461  30.186  29.750  1.00  0.00    -0.354 N 
ATOM     37  C   UNL A   1      42.929  28.673  31.697  1.00  0.00     0.074 A 
ATOM     38  C   UNL A   1      43.429  27.482  31.040  1.00  0.00     0.031 C 
ATOM     39  C   UNL A   1      37.787  30.263  28.267  1.00  0.00     0.029 A 
ATOM     40  C   UNL A   1      38.393  30.970  29.375  1.00  0.00     0.049 A 
ATOM     41  H   UNL A   1      40.142  30.470  30.403  1.00  0.00     0.167 HD
ATOM     42  C   UNL A   1      43.543  29.297  32.740  1.00  0.00     0.031 A 
ATOM     43  C   UNL A   1      37.822  32.056  29.924  1.00  0.00     0.031 A 
ATOM     44  C   UNL A   1      43.035  30.480  33.402  1.00  0.00     0.049 A 
ATOM     45  C   UNL A   1      38.406  32.617  31.170  1.00  0.00     0.074 A 
ATOM     46  C   UNL A   1      43.572  31.167  34.483  1.00  0.00     0.029 A 
ATOM     47  N   UNL A   1      41.870  31.148  33.057  1.00  0.00    -0.354 N 
ATOM     48  N   UNL A   1      39.486  32.245  31.806  1.00  0.00    -0.248 NA
ATOM     49  C   UNL A   1      37.678  33.729  31.788  1.00  0.00     0.031 C 
ATOM     50  C   UNL A   1      42.688  32.190  34.844  1.00  0.00     0.029 A 
ATOM     51  C   UNL A   1      41.645  32.200  33.934  1.00  0.00     0.049 A 
ATOM     52  H   UNL A   1      41.288  30.911  32.300  1.00  0.00     0.167 HD
ATOM     53  C   UNL A   1      39.581  33.089  32.899  1.00  0.00     0.074 A 
ATOM     54  C   UNL A   1      38.458  34.003  32.822  1.00  0.00     0.031 C 
ATOM     55  C   UNL A   1      40.520  33.098  33.874  1.00  0.00     0.031 A 
BRANCH  42  56
ATOM     56  C   UNL A   1      44.795  28.673  33.323  1.00  0.00    -0.014 A 
ATOM     57  C   UNL A   1      46.086  29.062  32.932  1.00  0.00     0.009 A 
ATOM     58  C   UNL A   1      44.670  27.736  34.366  1.00  0.00     0.009 A 
ATOM     59  C   UNL A   1      47.215  28.501  33.546  1.00  0.00     0.001 A 
ATOM     60  C   UNL A   1      45.796  27.199  34.997  1.00  0.00     0.001 A 
ATOM     61  C   UNL A   1      47.069  27.574  34.579  1.00  0.00     0.000 A 
ENDBRANCH  42  56
BRANCH  43  62
ATOM     62  C   UNL A   1      36.528  32.545  29.371  1.00  0.00    -0.014 A 
ATOM     63  C   UNL A   1      35.314  31.971  29.758  1.00  0.00     0.009 A 
ATOM     64  C   UNL A   1      36.510  33.661  28.510  1.00  0.00     0.009 A 
ATOM     65  C   UNL A   1      34.107  32.508  29.299  1.00  0.00     0.001 A 
ATOM     66  C   UNL A   1      35.305  34.226  28.098  1.00  0.00     0.001 A 
ATOM     67  C   UNL A   1      34.103  33.643  28.487  1.00  0.00     0.000 A 
ENDBRANCH  43  62
BRANCH  55  68
ATOM     68  C   UNL A   1      40.390  34.175  34.911  1.00  0.00    -0.014 A 
ATOM     69  C   UNL A   1      39.645  33.977  36.084  1.00  0.00     0.009 A 
ATOM     70  C   UNL A   1      41.001  35.419  34.693  1.00  0.00     0.009 A 
ATOM     71  C   UNL A   1      39.479  35.020  36.997  1.00  0.00     0.001 A 
ATOM     72  C   UNL A   1      40.862  36.448  35.623  1.00  0.00     0.001 A 
ATOM     73  C   UNL A   1      40.091  36.252  36.768  1.00  0.00     0.000 A 
ENDBRANCH  55  68
ENDBRANCH  29  30
ENDBRANCH  22  24
ENDBRANCH  21  22
ENDBRANCH  20  21
ENDBRANCH   1  20
TORSDOF 17
ENDMDL
