MODEL 1
REMARK VINA RESULT:      -8.9      0.000      0.000
REMARK SMILES CCCc1cc2c(cc1Cl)C=C(C(=O)OCCOC(=O)c1ccc(-c3c4nc(c(-c5ccccc5)c5ccc([nH]5)c(-c5ccccc5)c5nc(c(-c6ccccc6)c6ccc3[nH]6)C=C5)C=C4)cc1)[C@@H](C(F)(F)F)O2
REMARK SMILES IDX 16 1 15 2 13 3 14 4 12 5 4 6 5 7 9 8 6 9 8 10 10 11 7 12
REMARK SMILES IDX 74 13 11 14 69 15 3 16 2 17 1 18 70 19 71 20 72 21 73 22
REMARK SMILES IDX 17 23 18 24 19 25 20 26 21 27 22 28 68 29 23 30 67 31 24 32
REMARK SMILES IDX 25 33 26 34 61 35 27 36 66 37 60 38 62 39 28 40 65 41 59 42
REMARK SMILES IDX 58 43 29 45 51 46 36 47 50 48 37 49 40 50 49 51 63 52 38 53
REMARK SMILES IDX 39 54 48 56 64 57 41 58 30 59 31 60 35 61 32 62 34 63 33 64
REMARK SMILES IDX 52 65 53 66 57 67 54 68 56 69 55 70 42 71 43 72 47 73 44 74
REMARK SMILES IDX 46 75 45 76
REMARK H PARENT 62 44 40 55
REMARK Flexibility Score: inf
ROOT
ATOM      1  C   UNL A   1      41.993  20.167  26.269  1.00  0.00     0.275 C 
ENDROOT
BRANCH   1   2
ATOM      2  O   UNL A   1      42.571  21.445  25.922  1.00  0.00    -0.459 OA
BRANCH   2   3
ATOM      3  C   UNL A   1      43.864  21.411  25.532  1.00  0.00     0.338 C 
ATOM      4  O   UNL A   1      44.321  20.806  24.574  1.00  0.00    -0.246 OA
BRANCH   3   5
ATOM      5  C   UNL A   1      44.702  22.230  26.424  1.00  0.00     0.087 C 
ATOM      6  C   UNL A   1      46.193  25.547  29.905  1.00  0.00    -0.026 A 
ATOM      7  C   UNL A   1      46.711  25.089  28.676  1.00  0.00     0.052 A 
ATOM      8  C   UNL A   1      45.005  24.969  30.378  1.00  0.00     0.045 A 
ATOM      9  C   UNL A   1      46.087  24.077  27.952  1.00  0.00     0.128 A 
ATOM     10  C   UNL A   1      44.357  23.978  29.634  1.00  0.00     0.032 A 
ATOM     11  Cl  UNL A   1      44.257  25.447  31.860  1.00  0.00    -0.084 Cl
ATOM     12  C   UNL A   1      44.898  23.539  28.422  1.00  0.00     0.019 A 
ATOM     13  O   UNL A   1      46.702  23.678  26.803  1.00  0.00    -0.475 OA
ATOM     14  C   UNL A   1      44.188  22.579  27.609  1.00  0.00     0.027 C 
ATOM     15  C   UNL A   1      46.018  22.746  25.916  1.00  0.00     0.316 C 
BRANCH   6  16
ATOM     16  C   UNL A   1      46.924  26.652  30.634  1.00  0.00     0.037 C 
BRANCH  16  17
ATOM     17  C   UNL A   1      46.909  28.010  29.919  1.00  0.00     0.001 C 
ATOM     18  C   UNL A   1      45.894  28.999  30.476  1.00  0.00     0.004 C 
ENDBRANCH  16  17
ENDBRANCH   6  16
BRANCH  15  19
ATOM     19  C   UNL A   1      45.894  23.416  24.539  1.00  0.00     0.430 C 
ATOM     20  F   UNL A   1      44.622  23.822  24.307  1.00  0.00    -0.167 F 
ATOM     21  F   UNL A   1      46.673  24.520  24.443  1.00  0.00    -0.167 F 
ATOM     22  F   UNL A   1      46.245  22.582  23.534  1.00  0.00    -0.167 F 
ENDBRANCH  15  19
ENDBRANCH   3   5
ENDBRANCH   2   3
ENDBRANCH   1   2
BRANCH   1  23
ATOM     23  C   UNL A   1      40.510  20.099  25.900  1.00  0.00     0.275 C 
BRANCH  23  24
ATOM     24  O   UNL A   1      39.708  20.818  26.856  1.00  0.00    -0.458 OA
BRANCH  24  25
ATOM     25  C   UNL A   1      39.021  21.866  26.350  1.00  0.00     0.338 C 
ATOM     26  O   UNL A   1      38.053  21.836  25.610  1.00  0.00    -0.246 OA
BRANCH  25  27
ATOM     27  C   UNL A   1      39.539  23.120  26.913  1.00  0.00     0.060 A 
ATOM     28  C   UNL A   1      40.488  23.125  27.927  1.00  0.00     0.016 A 
ATOM     29  C   UNL A   1      39.201  24.306  26.271  1.00  0.00     0.016 A 
ATOM     30  C   UNL A   1      41.087  24.339  28.288  1.00  0.00     0.010 A 
ATOM     31  C   UNL A   1      39.922  25.468  26.509  1.00  0.00     0.010 A 
ATOM     32  C   UNL A   1      40.848  25.520  27.552  1.00  0.00    -0.014 A 
BRANCH  32  33
ATOM     33  C   UNL A   1      41.548  26.798  27.866  1.00  0.00     0.031 A 
ATOM     34  C   UNL A   1      42.894  27.122  27.254  1.00  0.00     0.074 A 
ATOM     35  C   UNL A   1      40.992  27.665  28.738  1.00  0.00     0.049 A 
ATOM     36  N   UNL A   1      43.622  28.203  27.393  1.00  0.00    -0.248 NA
ATOM     37  C   UNL A   1      43.530  26.091  26.414  1.00  0.00     0.031 C 
ATOM     38  C   UNL A   1      39.751  27.437  29.482  1.00  0.00     0.029 A 
ATOM     39  N   UNL A   1      41.381  28.924  29.126  1.00  0.00    -0.354 N 
ATOM     40  C   UNL A   1      44.796  27.965  26.686  1.00  0.00     0.074 A 
ATOM     41  C   UNL A   1      44.725  26.614  26.187  1.00  0.00     0.031 C 
ATOM     42  C   UNL A   1      39.432  28.549  30.160  1.00  0.00     0.029 A 
ATOM     43  C   UNL A   1      40.468  29.553  29.941  1.00  0.00     0.049 A 
ATOM     44  H   UNL A   1      42.230  29.337  28.849  1.00  0.00     0.167 HD
ATOM     45  C   UNL A   1      45.823  28.809  26.430  1.00  0.00     0.031 A 
ATOM     46  C   UNL A   1      40.448  30.805  30.439  1.00  0.00     0.031 A 
ATOM     47  C   UNL A   1      45.866  30.175  26.877  1.00  0.00     0.049 A 
ATOM     48  C   UNL A   1      41.567  31.749  30.095  1.00  0.00     0.074 A 
ATOM     49  C   UNL A   1      46.819  31.138  26.594  1.00  0.00     0.029 A 
ATOM     50  N   UNL A   1      44.913  30.772  27.684  1.00  0.00    -0.354 N 
ATOM     51  N   UNL A   1      42.621  31.534  29.347  1.00  0.00    -0.248 NA
ATOM     52  C   UNL A   1      41.489  33.108  30.650  1.00  0.00     0.031 C 
ATOM     53  C   UNL A   1      46.468  32.305  27.274  1.00  0.00     0.029 A 
ATOM     54  C   UNL A   1      45.263  32.087  27.925  1.00  0.00     0.049 A 
ATOM     55  H   UNL A   1      44.108  30.327  28.034  1.00  0.00     0.167 HD
ATOM     56  C   UNL A   1      43.323  32.732  29.327  1.00  0.00     0.074 A 
ATOM     57  C   UNL A   1      42.563  33.676  30.120  1.00  0.00     0.031 C 
ATOM     58  C   UNL A   1      44.496  33.018  28.711  1.00  0.00     0.031 A 
BRANCH  45  59
ATOM     59  C   UNL A   1      46.968  28.305  25.591  1.00  0.00    -0.014 A 
ATOM     60  C   UNL A   1      46.825  28.197  24.198  1.00  0.00     0.009 A 
ATOM     61  C   UNL A   1      48.154  27.846  26.186  1.00  0.00     0.009 A 
ATOM     62  C   UNL A   1      47.842  27.637  23.421  1.00  0.00     0.001 A 
ATOM     63  C   UNL A   1      49.183  27.318  25.403  1.00  0.00     0.001 A 
ATOM     64  C   UNL A   1      49.022  27.203  24.024  1.00  0.00     0.000 A 
ENDBRANCH  45  59
BRANCH  46  65
ATOM     65  C   UNL A   1      39.281  31.249  31.251  1.00  0.00    -0.014 A 
ATOM     66  C   UNL A   1      38.158  31.829  30.641  1.00  0.00     0.009 A 
ATOM     67  C   UNL A   1      39.318  31.158  32.651  1.00  0.00     0.009 A 
ATOM     68  C   UNL A   1      37.111  32.336  31.415  1.00  0.00     0.001 A 
ATOM     69  C   UNL A   1      38.255  31.636  33.422  1.00  0.00     0.001 A 
ATOM     70  C   UNL A   1      37.158  32.235  32.804  1.00  0.00     0.000 A 
ENDBRANCH  46  65
BRANCH  58  71
ATOM     71  C   UNL A   1      45.045  34.410  28.847  1.00  0.00    -0.014 A 
ATOM     72  C   UNL A   1      44.719  35.383  27.890  1.00  0.00     0.009 A 
ATOM     73  C   UNL A   1      45.986  34.719  29.840  1.00  0.00     0.009 A 
ATOM     74  C   UNL A   1      45.341  36.632  27.908  1.00  0.00     0.001 A 
ATOM     75  C   UNL A   1      46.585  35.980  29.875  1.00  0.00     0.001 A 
ATOM     76  C   UNL A   1      46.271  36.930  28.903  1.00  0.00     0.000 A 
ENDBRANCH  58  71
ENDBRANCH  32  33
ENDBRANCH  25  27
ENDBRANCH  24  25
ENDBRANCH  23  24
ENDBRANCH   1  23
TORSDOF 14
ENDMDL
MODEL 2
REMARK VINA RESULT:      -8.8      5.934     11.340
REMARK SMILES CCCc1cc2c(cc1Cl)C=C(C(=O)OCCOC(=O)c1ccc(-c3c4nc(c(-c5ccccc5)c5ccc([nH]5)c(-c5ccccc5)c5nc(c(-c6ccccc6)c6ccc3[nH]6)C=C5)C=C4)cc1)[C@@H](C(F)(F)F)O2
REMARK SMILES IDX 16 1 15 2 13 3 14 4 12 5 4 6 5 7 9 8 6 9 8 10 10 11 7 12
REMARK SMILES IDX 74 13 11 14 69 15 3 16 2 17 1 18 70 19 71 20 72 21 73 22
REMARK SMILES IDX 17 23 18 24 19 25 20 26 21 27 22 28 68 29 23 30 67 31 24 32
REMARK SMILES IDX 25 33 26 34 61 35 27 36 66 37 60 38 62 39 28 40 65 41 59 42
REMARK SMILES IDX 58 43 29 45 51 46 36 47 50 48 37 49 40 50 49 51 63 52 38 53
REMARK SMILES IDX 39 54 48 56 64 57 41 58 30 59 31 60 35 61 32 62 34 63 33 64
REMARK SMILES IDX 52 65 53 66 57 67 54 68 56 69 55 70 42 71 43 72 47 73 44 74
REMARK SMILES IDX 46 75 45 76
REMARK H PARENT 62 44 40 55
REMARK Flexibility Score: inf
ROOT
ATOM      1  C   UNL A   1      33.989  34.788  29.159  1.00  0.00     0.275 C 
ENDROOT
BRANCH   1   2
ATOM      2  O   UNL A   1      33.922  34.565  30.585  1.00  0.00    -0.459 OA
BRANCH   2   3
ATOM      3  C   UNL A   1      34.687  33.554  31.051  1.00  0.00     0.338 C 
ATOM      4  O   UNL A   1      34.423  32.362  31.011  1.00  0.00    -0.246 OA
BRANCH   3   5
ATOM      5  C   UNL A   1      35.940  34.069  31.630  1.00  0.00     0.087 C 
ATOM      6  C   UNL A   1      40.807  34.712  32.742  1.00  0.00    -0.026 A 
ATOM      7  C   UNL A   1      39.595  34.853  33.448  1.00  0.00     0.052 A 
ATOM      8  C   UNL A   1      40.745  34.353  31.387  1.00  0.00     0.045 A 
ATOM      9  C   UNL A   1      38.362  34.668  32.827  1.00  0.00     0.128 A 
ATOM     10  C   UNL A   1      39.509  34.131  30.771  1.00  0.00     0.032 A 
ATOM     11  Cl  UNL A   1      42.154  34.134  30.411  1.00  0.00    -0.084 Cl
ATOM     12  C   UNL A   1      38.323  34.285  31.495  1.00  0.00     0.019 A 
ATOM     13  O   UNL A   1      37.253  34.880  33.593  1.00  0.00    -0.475 OA
ATOM     14  C   UNL A   1      37.049  33.974  30.888  1.00  0.00     0.027 C 
ATOM     15  C   UNL A   1      35.942  34.542  33.055  1.00  0.00     0.316 C 
BRANCH   6  16
ATOM     16  C   UNL A   1      42.107  34.925  33.484  1.00  0.00     0.037 C 
BRANCH  16  17
ATOM     17  C   UNL A   1      42.011  35.872  34.687  1.00  0.00     0.001 C 
ATOM     18  C   UNL A   1      42.688  37.221  34.479  1.00  0.00     0.004 C 
ENDBRANCH  16  17
ENDBRANCH   6  16
BRANCH  15  19
ATOM     19  C   UNL A   1      35.292  33.530  34.011  1.00  0.00     0.430 C 
ATOM     20  F   UNL A   1      33.951  33.478  33.828  1.00  0.00    -0.167 F 
ATOM     21  F   UNL A   1      35.756  32.274  33.808  1.00  0.00    -0.167 F 
ATOM     22  F   UNL A   1      35.514  33.842  35.308  1.00  0.00    -0.167 F 
ENDBRANCH  15  19
ENDBRANCH   3   5
ENDBRANCH   2   3
ENDBRANCH   1   2
BRANCH   1  23
ATOM     23  C   UNL A   1      33.300  33.667  28.379  1.00  0.00     0.275 C 
BRANCH  23  24
ATOM     24  O   UNL A   1      34.244  32.964  27.548  1.00  0.00    -0.458 OA
BRANCH  24  25
ATOM     25  C   UNL A   1      34.181  31.616  27.628  1.00  0.00     0.338 C 
ATOM     26  O   UNL A   1      33.224  30.899  27.395  1.00  0.00    -0.246 OA
BRANCH  25  27
ATOM     27  C   UNL A   1      35.509  31.074  27.944  1.00  0.00     0.060 A 
ATOM     28  C   UNL A   1      36.637  31.883  27.973  1.00  0.00     0.016 A 
ATOM     29  C   UNL A   1      35.580  29.765  28.408  1.00  0.00     0.016 A 
ATOM     30  C   UNL A   1      37.837  31.355  28.468  1.00  0.00     0.010 A 
ATOM     31  C   UNL A   1      36.717  29.307  29.058  1.00  0.00     0.010 A 
ATOM     32  C   UNL A   1      37.882  30.075  29.063  1.00  0.00    -0.014 A 
BRANCH  32  33
ATOM     33  C   UNL A   1      39.129  29.536  29.677  1.00  0.00     0.031 A 
ATOM     34  C   UNL A   1      39.545  29.935  31.076  1.00  0.00     0.074 A 
ATOM     35  C   UNL A   1      39.921  28.710  28.963  1.00  0.00     0.049 A 
ATOM     36  N   UNL A   1      40.580  29.533  31.773  1.00  0.00    -0.248 NA
ATOM     37  C   UNL A   1      38.727  30.945  31.772  1.00  0.00     0.031 C 
ATOM     38  C   UNL A   1      39.699  28.324  27.567  1.00  0.00     0.029 A 
ATOM     39  N   UNL A   1      41.056  28.021  29.317  1.00  0.00    -0.354 N 
ATOM     40  C   UNL A   1      40.544  30.255  32.962  1.00  0.00     0.074 A 
ATOM     41  C   UNL A   1      39.439  31.178  32.864  1.00  0.00     0.031 C 
ATOM     42  C   UNL A   1      40.605  27.401  27.215  1.00  0.00     0.029 A 
ATOM     43  C   UNL A   1      41.505  27.164  28.339  1.00  0.00     0.049 A 
ATOM     44  H   UNL A   1      41.505  28.131  30.185  1.00  0.00     0.167 HD
ATOM     45  C   UNL A   1      41.326  30.132  34.059  1.00  0.00     0.031 A 
ATOM     46  C   UNL A   1      42.510  26.267  28.349  1.00  0.00     0.031 A 
ATOM     47  C   UNL A   1      42.389  29.172  34.179  1.00  0.00     0.049 A 
ATOM     48  C   UNL A   1      43.332  26.100  29.597  1.00  0.00     0.074 A 
ATOM     49  C   UNL A   1      43.181  28.905  35.282  1.00  0.00     0.029 A 
ATOM     50  N   UNL A   1      42.796  28.314  33.171  1.00  0.00    -0.354 N 
ATOM     51  N   UNL A   1      43.221  26.726  30.742  1.00  0.00    -0.248 NA
ATOM     52  C   UNL A   1      44.406  25.097  29.560  1.00  0.00     0.031 C 
ATOM     53  C   UNL A   1      44.103  27.921  34.924  1.00  0.00     0.029 A 
ATOM     54  C   UNL A   1      43.841  27.529  33.620  1.00  0.00     0.049 A 
ATOM     55  H   UNL A   1      42.401  28.270  32.270  1.00  0.00     0.167 HD
ATOM     56  C   UNL A   1      44.197  26.184  31.568  1.00  0.00     0.074 A 
ATOM     57  C   UNL A   1      44.876  25.162  30.799  1.00  0.00     0.031 C 
ATOM     58  C   UNL A   1      44.504  26.511  32.847  1.00  0.00     0.031 A 
BRANCH  45  59
ATOM     59  C   UNL A   1      41.041  31.021  35.241  1.00  0.00    -0.014 A 
ATOM     60  C   UNL A   1      39.780  30.989  35.858  1.00  0.00     0.009 A 
ATOM     61  C   UNL A   1      41.988  31.957  35.687  1.00  0.00     0.009 A 
ATOM     62  C   UNL A   1      39.470  31.879  36.888  1.00  0.00     0.001 A 
ATOM     63  C   UNL A   1      41.688  32.823  36.742  1.00  0.00     0.001 A 
ATOM     64  C   UNL A   1      40.427  32.791  37.334  1.00  0.00     0.000 A 
ENDBRANCH  45  59
BRANCH  46  65
ATOM     65  C   UNL A   1      42.733  25.408  27.154  1.00  0.00    -0.014 A 
ATOM     66  C   UNL A   1      42.106  24.157  27.037  1.00  0.00     0.009 A 
ATOM     67  C   UNL A   1      43.634  25.806  26.153  1.00  0.00     0.009 A 
ATOM     68  C   UNL A   1      42.397  23.312  25.964  1.00  0.00     0.001 A 
ATOM     69  C   UNL A   1      43.899  24.973  25.063  1.00  0.00     0.001 A 
ATOM     70  C   UNL A   1      43.290  23.722  24.975  1.00  0.00     0.000 A 
ENDBRANCH  46  65
BRANCH  58  71
ATOM     71  C   UNL A   1      45.617  25.760  33.521  1.00  0.00    -0.014 A 
ATOM     72  C   UNL A   1      46.950  26.021  33.164  1.00  0.00     0.009 A 
ATOM     73  C   UNL A   1      45.342  24.707  34.406  1.00  0.00     0.009 A 
ATOM     74  C   UNL A   1      47.984  25.229  33.660  1.00  0.00     0.001 A 
ATOM     75  C   UNL A   1      46.383  23.934  34.926  1.00  0.00     0.001 A 
ATOM     76  C   UNL A   1      47.700  24.187  34.544  1.00  0.00     0.000 A 
ENDBRANCH  58  71
ENDBRANCH  32  33
ENDBRANCH  25  27
ENDBRANCH  24  25
ENDBRANCH  23  24
ENDBRANCH   1  23
TORSDOF 14
ENDMDL
MODEL 3
REMARK VINA RESULT:      -8.8      4.176      6.888
REMARK SMILES CCCc1cc2c(cc1Cl)C=C(C(=O)OCCOC(=O)c1ccc(-c3c4nc(c(-c5ccccc5)c5ccc([nH]5)c(-c5ccccc5)c5nc(c(-c6ccccc6)c6ccc3[nH]6)C=C5)C=C4)cc1)[C@@H](C(F)(F)F)O2
REMARK SMILES IDX 16 1 15 2 13 3 14 4 12 5 4 6 5 7 9 8 6 9 8 10 10 11 7 12
REMARK SMILES IDX 74 13 11 14 69 15 3 16 2 17 1 18 70 19 71 20 72 21 73 22
REMARK SMILES IDX 17 23 18 24 19 25 20 26 21 27 22 28 68 29 23 30 67 31 24 32
REMARK SMILES IDX 25 33 26 34 61 35 27 36 66 37 60 38 62 39 28 40 65 41 59 42
REMARK SMILES IDX 58 43 29 45 51 46 36 47 50 48 37 49 40 50 49 51 63 52 38 53
REMARK SMILES IDX 39 54 48 56 64 57 41 58 30 59 31 60 35 61 32 62 34 63 33 64
REMARK SMILES IDX 52 65 53 66 57 67 54 68 56 69 55 70 42 71 43 72 47 73 44 74
REMARK SMILES IDX 46 75 45 76
REMARK H PARENT 62 44 40 55
REMARK Flexibility Score: inf
ROOT
ATOM      1  C   UNL A   1      36.109  20.188  24.996  1.00  0.00     0.275 C 
ENDROOT
BRANCH   1   2
ATOM      2  O   UNL A   1      35.461  21.458  24.766  1.00  0.00    -0.459 OA
BRANCH   2   3
ATOM      3  C   UNL A   1      34.118  21.408  24.628  1.00  0.00     0.338 C 
ATOM      4  O   UNL A   1      33.457  20.444  24.273  1.00  0.00    -0.246 OA
BRANCH   3   5
ATOM      5  C   UNL A   1      33.506  22.701  24.981  1.00  0.00     0.087 C 
ATOM      6  C   UNL A   1      32.699  27.639  25.532  1.00  0.00    -0.026 A 
ATOM      7  C   UNL A   1      32.397  26.488  26.287  1.00  0.00     0.052 A 
ATOM      8  C   UNL A   1      33.338  27.468  24.294  1.00  0.00     0.045 A 
ATOM      9  C   UNL A   1      32.695  25.210  25.823  1.00  0.00     0.128 A 
ATOM     10  C   UNL A   1      33.671  26.188  23.842  1.00  0.00     0.032 A 
ATOM     11  Cl  UNL A   1      33.776  28.794  23.276  1.00  0.00    -0.084 Cl
ATOM     12  C   UNL A   1      33.352  25.064  24.611  1.00  0.00     0.019 A 
ATOM     13  O   UNL A   1      32.311  24.166  26.613  1.00  0.00    -0.475 OA
ATOM     14  C   UNL A   1      33.770  23.747  24.189  1.00  0.00     0.027 C 
ATOM     15  C   UNL A   1      32.740  22.817  26.267  1.00  0.00     0.316 C 
BRANCH   6  16
ATOM     16  C   UNL A   1      32.348  28.995  26.103  1.00  0.00     0.037 C 
BRANCH  16  17
ATOM     17  C   UNL A   1      33.549  29.809  26.602  1.00  0.00     0.001 C 
ATOM     18  C   UNL A   1      34.624  28.981  27.293  1.00  0.00     0.004 C 
ENDBRANCH  16  17
ENDBRANCH   6  16
BRANCH  15  19
ATOM     19  C   UNL A   1      33.518  22.253  27.467  1.00  0.00     0.430 C 
ATOM     20  F   UNL A   1      32.886  22.532  28.632  1.00  0.00    -0.167 F 
ATOM     21  F   UNL A   1      33.632  20.906  27.405  1.00  0.00    -0.167 F 
ATOM     22  F   UNL A   1      34.767  22.765  27.548  1.00  0.00    -0.167 F 
ENDBRANCH  15  19
ENDBRANCH   3   5
ENDBRANCH   2   3
ENDBRANCH   1   2
BRANCH   1  23
ATOM     23  C   UNL A   1      37.625  20.286  24.819  1.00  0.00     0.275 C 
BRANCH  23  24
ATOM     24  O   UNL A   1      38.152  21.430  25.517  1.00  0.00    -0.458 OA
BRANCH  24  25
ATOM     25  C   UNL A   1      39.312  21.213  26.176  1.00  0.00     0.338 C 
ATOM     26  O   UNL A   1      39.964  20.184  26.218  1.00  0.00    -0.246 OA
BRANCH  25  27
ATOM     27  C   UNL A   1      39.781  22.464  26.786  1.00  0.00     0.060 A 
ATOM     28  C   UNL A   1      40.869  22.489  27.649  1.00  0.00     0.016 A 
ATOM     29  C   UNL A   1      39.231  23.654  26.325  1.00  0.00     0.016 A 
ATOM     30  C   UNL A   1      41.392  23.728  28.044  1.00  0.00     0.010 A 
ATOM     31  C   UNL A   1      39.860  24.866  26.576  1.00  0.00     0.010 A 
ATOM     32  C   UNL A   1      40.925  24.933  27.475  1.00  0.00    -0.014 A 
BRANCH  32  33
ATOM     33  C   UNL A   1      41.532  26.251  27.817  1.00  0.00     0.031 A 
ATOM     34  C   UNL A   1      42.868  26.666  27.241  1.00  0.00     0.074 A 
ATOM     35  C   UNL A   1      40.900  27.071  28.681  1.00  0.00     0.049 A 
ATOM     36  N   UNL A   1      43.521  27.791  27.407  1.00  0.00    -0.248 NA
ATOM     37  C   UNL A   1      43.590  25.687  26.409  1.00  0.00     0.031 C 
ATOM     38  C   UNL A   1      39.659  26.756  29.393  1.00  0.00     0.029 A 
ATOM     39  N   UNL A   1      41.197  28.350  29.089  1.00  0.00    -0.354 N 
ATOM     40  C   UNL A   1      44.725  27.637  26.727  1.00  0.00     0.074 A 
ATOM     41  C   UNL A   1      44.754  26.288  26.216  1.00  0.00     0.031 C 
ATOM     42  C   UNL A   1      39.252  27.839  30.071  1.00  0.00     0.029 A 
ATOM     43  C   UNL A   1      40.226  28.910  29.886  1.00  0.00     0.049 A 
ATOM     44  H   UNL A   1      42.024  28.819  28.837  1.00  0.00     0.167 HD
ATOM     45  C   UNL A   1      45.701  28.548  26.503  1.00  0.00     0.031 A 
ATOM     46  C   UNL A   1      40.113  30.154  30.394  1.00  0.00     0.031 A 
ATOM     47  C   UNL A   1      45.645  29.909  26.961  1.00  0.00     0.049 A 
ATOM     48  C   UNL A   1      41.176  31.171  30.084  1.00  0.00     0.074 A 
ATOM     49  C   UNL A   1      46.539  30.934  26.709  1.00  0.00     0.029 A 
ATOM     50  N   UNL A   1      44.635  30.436  27.749  1.00  0.00    -0.354 N 
ATOM     51  N   UNL A   1      42.259  31.032  29.361  1.00  0.00    -0.248 NA
ATOM     52  C   UNL A   1      40.996  32.517  30.648  1.00  0.00     0.031 C 
ATOM     53  C   UNL A   1      46.097  32.070  27.390  1.00  0.00     0.029 A 
ATOM     54  C   UNL A   1      44.894  31.768  28.009  1.00  0.00     0.049 A 
ATOM     55  H   UNL A   1      43.853  29.936  28.076  1.00  0.00     0.167 HD
ATOM     56  C   UNL A   1      42.882  32.273  29.368  1.00  0.00     0.074 A 
ATOM     57  C   UNL A   1      42.044  33.159  30.149  1.00  0.00     0.031 C 
ATOM     58  C   UNL A   1      44.049  32.640  28.783  1.00  0.00     0.031 A 
BRANCH  45  59
ATOM     59  C   UNL A   1      46.896  28.126  25.688  1.00  0.00    -0.014 A 
ATOM     60  C   UNL A   1      46.802  28.048  24.289  1.00  0.00     0.009 A 
ATOM     61  C   UNL A   1      48.087  27.715  26.309  1.00  0.00     0.009 A 
ATOM     62  C   UNL A   1      47.870  27.562  23.532  1.00  0.00     0.001 A 
ATOM     63  C   UNL A   1      49.166  27.263  25.547  1.00  0.00     0.001 A 
ATOM     64  C   UNL A   1      49.053  27.175  24.161  1.00  0.00     0.000 A 
ENDBRANCH  45  59
BRANCH  46  65
ATOM     65  C   UNL A   1      38.901  30.513  31.179  1.00  0.00    -0.014 A 
ATOM     66  C   UNL A   1      38.866  30.342  32.572  1.00  0.00     0.009 A 
ATOM     67  C   UNL A   1      37.742  30.965  30.526  1.00  0.00     0.009 A 
ATOM     68  C   UNL A   1      37.694  30.584  33.290  1.00  0.00     0.001 A 
ATOM     69  C   UNL A   1      36.579  31.238  31.251  1.00  0.00     0.001 A 
ATOM     70  C   UNL A   1      36.552  31.036  32.630  1.00  0.00     0.000 A 
ENDBRANCH  46  65
BRANCH  58  71
ATOM     71  C   UNL A   1      44.504  34.063  28.944  1.00  0.00    -0.014 A 
ATOM     72  C   UNL A   1      44.119  35.027  27.998  1.00  0.00     0.009 A 
ATOM     73  C   UNL A   1      45.415  34.419  29.948  1.00  0.00     0.009 A 
ATOM     74  C   UNL A   1      44.656  36.313  28.039  1.00  0.00     0.001 A 
ATOM     75  C   UNL A   1      45.928  35.717  30.006  1.00  0.00     0.001 A 
ATOM     76  C   UNL A   1      45.558  36.658  29.045  1.00  0.00     0.000 A 
ENDBRANCH  58  71
ENDBRANCH  32  33
ENDBRANCH  25  27
ENDBRANCH  24  25
ENDBRANCH  23  24
ENDBRANCH   1  23
TORSDOF 14
ENDMDL
