MODEL 1
REMARK VINA RESULT:      -9.0      0.000      0.000
REMARK SMILES C=CCN(CC(=O)OCCOC(=O)c1ccc(-c2c3nc(c(-c4ccccc4)c4ccc([nH]4)c(-c4ccccc4)c4nc(c(-c5ccccc5)c5ccc2[nH]5)C=C4)C=C3)cc1)C(=O)CC1([NH2+]C)CCCCC1
REMARK SMILES IDX 8 1 6 2 7 3 5 4 4 5 3 6 2 7 1 8 62 9 63 10 64 11 65 12 68 13
REMARK SMILES IDX 72 14 69 15 71 16 70 17 66 18 67 19 9 22 10 23 11 24 12 25
REMARK SMILES IDX 13 26 14 27 15 28 61 29 16 30 60 31 17 32 18 33 19 34 54 35
REMARK SMILES IDX 20 36 59 37 53 38 55 39 21 40 58 41 52 42 51 43 22 45 44 46
REMARK SMILES IDX 29 47 43 48 30 49 33 50 42 51 56 52 31 53 32 54 41 56 57 57
REMARK SMILES IDX 34 58 23 59 24 60 28 61 25 62 27 63 26 64 45 65 46 66 50 67
REMARK SMILES IDX 47 68 49 69 48 70 35 71 36 72 40 73 37 74 39 75 38 76
REMARK H PARENT 66 20 66 21 55 44 33 55
REMARK Flexibility Score: inf
ROOT
ATOM      1  O   UNL A   1      34.281  35.751  28.055  1.00  0.00    -0.461 OA
ENDROOT
BRANCH   1   2
ATOM      2  C   UNL A   1      33.518  36.356  29.003  1.00  0.00     0.325 C 
ATOM      3  O   UNL A   1      33.343  37.570  29.077  1.00  0.00    -0.250 OA
BRANCH   2   4
ATOM      4  C   UNL A   1      32.966  35.404  30.071  1.00  0.00     0.242 C 
BRANCH   4   5
ATOM      5  N   UNL A   1      33.501  35.356  31.439  1.00  0.00    -0.328 N 
BRANCH   5   6
ATOM      6  C   UNL A   1      32.851  36.217  32.424  1.00  0.00     0.147 C 
BRANCH   6   7
ATOM      7  C   UNL A   1      31.440  35.732  32.638  1.00  0.00    -0.014 C 
ATOM      8  C   UNL A   1      30.498  36.453  33.264  1.00  0.00     0.006 C 
ENDBRANCH   6   7
ENDBRANCH   5   6
BRANCH   5   9
ATOM      9  C   UNL A   1      34.338  34.369  31.948  1.00  0.00     0.229 C 
ATOM     10  O   UNL A   1      34.051  33.169  31.855  1.00  0.00    -0.275 OA
BRANCH   9  11
ATOM     11  C   UNL A   1      35.624  34.736  32.666  1.00  0.00     0.168 C 
BRANCH  11  12
ATOM     12  C   UNL A   1      36.778  33.686  32.653  1.00  0.00     0.105 C 
ATOM     13  C   UNL A   1      37.979  34.322  33.401  1.00  0.00     0.069 C 
ATOM     14  C   UNL A   1      36.417  32.393  33.439  1.00  0.00     0.069 C 
ATOM     15  C   UNL A   1      39.189  33.401  33.504  1.00  0.00     0.006 C 
ATOM     16  C   UNL A   1      37.609  31.439  33.646  1.00  0.00     0.006 C 
ATOM     17  C   UNL A   1      38.828  32.129  34.253  1.00  0.00     0.000 C 
BRANCH  12  18
ATOM     18  N   UNL A   1      37.112  33.282  31.266  1.00  0.00    -0.343 N 
ATOM     19  C   UNL A   1      37.958  34.177  30.498  1.00  0.00     0.331 C 
ATOM     20  H   UNL A   1      36.233  33.179  30.758  1.00  0.00     0.346 HD
ATOM     21  H   UNL A   1      37.657  32.426  31.367  1.00  0.00     0.346 HD
ENDBRANCH  12  18
ENDBRANCH  11  12
ENDBRANCH   9  11
ENDBRANCH   5   9
ENDBRANCH   4   5
ENDBRANCH   2   4
ENDBRANCH   1   2
BRANCH   1  22
ATOM     22  C   UNL A   1      34.062  34.332  27.881  1.00  0.00     0.274 C 
BRANCH  22  23
ATOM     23  C   UNL A   1      35.336  33.533  28.147  1.00  0.00     0.275 C 
BRANCH  23  24
ATOM     24  O   UNL A   1      35.049  32.403  28.995  1.00  0.00    -0.458 OA
BRANCH  24  25
ATOM     25  C   UNL A   1      34.862  31.231  28.338  1.00  0.00     0.338 C 
ATOM     26  O   UNL A   1      33.900  30.935  27.648  1.00  0.00    -0.246 OA
BRANCH  25  27
ATOM     27  C   UNL A   1      36.010  30.306  28.518  1.00  0.00     0.060 A 
ATOM     28  C   UNL A   1      36.242  29.648  29.721  1.00  0.00     0.016 A 
ATOM     29  C   UNL A   1      36.970  30.226  27.505  1.00  0.00     0.016 A 
ATOM     30  C   UNL A   1      37.508  29.102  29.973  1.00  0.00     0.010 A 
ATOM     31  C   UNL A   1      38.190  29.567  27.724  1.00  0.00     0.010 A 
ATOM     32  C   UNL A   1      38.521  29.075  28.995  1.00  0.00    -0.014 A 
BRANCH  32  33
ATOM     33  C   UNL A   1      39.923  28.629  29.318  1.00  0.00     0.031 A 
ATOM     34  C   UNL A   1      40.850  29.482  30.175  1.00  0.00     0.074 A 
ATOM     35  C   UNL A   1      40.380  27.417  28.930  1.00  0.00     0.049 A 
ATOM     36  N   UNL A   1      42.120  29.294  30.460  1.00  0.00    -0.248 NA
ATOM     37  C   UNL A   1      40.277  30.677  30.820  1.00  0.00     0.031 C 
ATOM     38  C   UNL A   1      39.620  26.414  28.182  1.00  0.00     0.029 A 
ATOM     39  N   UNL A   1      41.601  26.813  29.133  1.00  0.00    -0.354 N 
ATOM     40  C   UNL A   1      42.486  30.336  31.309  1.00  0.00     0.074 A 
ATOM     41  C   UNL A   1      41.318  31.169  31.480  1.00  0.00     0.031 C 
ATOM     42  C   UNL A   1      40.359  25.305  28.052  1.00  0.00     0.029 A 
ATOM     43  C   UNL A   1      41.697  25.562  28.571  1.00  0.00     0.049 A 
ATOM     44  H   UNL A   1      42.336  27.236  29.633  1.00  0.00     0.167 HD
ATOM     45  C   UNL A   1      43.677  30.580  31.910  1.00  0.00     0.031 A 
ATOM     46  C   UNL A   1      42.744  24.733  28.400  1.00  0.00     0.031 A 
ATOM     47  C   UNL A   1      44.866  29.786  31.752  1.00  0.00     0.049 A 
ATOM     48  C   UNL A   1      44.112  25.151  28.849  1.00  0.00     0.074 A 
ATOM     49  C   UNL A   1      46.125  29.999  32.294  1.00  0.00     0.029 A 
ATOM     50  N   UNL A   1      44.949  28.633  30.994  1.00  0.00    -0.354 N 
ATOM     51  N   UNL A   1      44.462  26.191  29.560  1.00  0.00    -0.248 NA
ATOM     52  C   UNL A   1      45.236  24.301  28.425  1.00  0.00     0.031 C 
ATOM     53  C   UNL A   1      46.985  29.006  31.811  1.00  0.00     0.029 A 
ATOM     54  C   UNL A   1      46.248  28.150  31.012  1.00  0.00     0.049 A 
ATOM     55  H   UNL A   1      44.198  28.218  30.513  1.00  0.00     0.167 HD
ATOM     56  C   UNL A   1      45.845  26.125  29.667  1.00  0.00     0.074 A 
ATOM     57  C   UNL A   1      46.269  24.932  28.966  1.00  0.00     0.031 C 
ATOM     58  C   UNL A   1      46.684  26.986  30.291  1.00  0.00     0.031 A 
BRANCH  45  59
ATOM     59  C   UNL A   1      43.780  31.799  32.784  1.00  0.00    -0.014 A 
ATOM     60  C   UNL A   1      44.113  33.050  32.245  1.00  0.00     0.009 A 
ATOM     61  C   UNL A   1      43.456  31.705  34.147  1.00  0.00     0.009 A 
ATOM     62  C   UNL A   1      44.130  34.185  33.059  1.00  0.00     0.001 A 
ATOM     63  C   UNL A   1      43.460  32.844  34.955  1.00  0.00     0.001 A 
ATOM     64  C   UNL A   1      43.799  34.083  34.411  1.00  0.00     0.000 A 
ENDBRANCH  45  59
BRANCH  46  65
ATOM     65  C   UNL A   1      42.556  23.471  27.635  1.00  0.00    -0.014 A 
ATOM     66  C   UNL A   1      42.241  22.271  28.284  1.00  0.00     0.009 A 
ATOM     67  C   UNL A   1      42.675  23.479  26.234  1.00  0.00     0.009 A 
ATOM     68  C   UNL A   1      42.039  21.104  27.542  1.00  0.00     0.001 A 
ATOM     69  C   UNL A   1      42.437  22.322  25.495  1.00  0.00     0.001 A 
ATOM     70  C   UNL A   1      42.124  21.134  26.149  1.00  0.00     0.000 A 
ENDBRANCH  46  65
BRANCH  58  71
ATOM     71  C   UNL A   1      48.149  26.670  30.246  1.00  0.00    -0.014 A 
ATOM     72  C   UNL A   1      48.718  25.765  31.156  1.00  0.00     0.009 A 
ATOM     73  C   UNL A   1      48.969  27.271  29.279  1.00  0.00     0.009 A 
ATOM     74  C   UNL A   1      50.086  25.491  31.117  1.00  0.00     0.001 A 
ATOM     75  C   UNL A   1      50.333  26.979  29.230  1.00  0.00     0.001 A 
ATOM     76  C   UNL A   1      50.892  26.097  30.152  1.00  0.00     0.000 A 
ENDBRANCH  58  71
ENDBRANCH  32  33
ENDBRANCH  25  27
ENDBRANCH  24  25
ENDBRANCH  23  24
ENDBRANCH  22  23
ENDBRANCH   1  22
TORSDOF 18
ENDMDL
MODEL 2
REMARK VINA RESULT:      -8.6      5.365      9.209
REMARK SMILES C=CCN(CC(=O)OCCOC(=O)c1ccc(-c2c3nc(c(-c4ccccc4)c4ccc([nH]4)c(-c4ccccc4)c4nc(c(-c5ccccc5)c5ccc2[nH]5)C=C4)C=C3)cc1)C(=O)CC1([NH2+]C)CCCCC1
REMARK SMILES IDX 8 1 6 2 7 3 5 4 4 5 3 6 2 7 1 8 62 9 63 10 64 11 65 12 68 13
REMARK SMILES IDX 72 14 69 15 71 16 70 17 66 18 67 19 9 22 10 23 11 24 12 25
REMARK SMILES IDX 13 26 14 27 15 28 61 29 16 30 60 31 17 32 18 33 19 34 54 35
REMARK SMILES IDX 20 36 59 37 53 38 55 39 21 40 58 41 52 42 51 43 22 45 44 46
REMARK SMILES IDX 29 47 43 48 30 49 33 50 42 51 56 52 31 53 32 54 41 56 57 57
REMARK SMILES IDX 34 58 23 59 24 60 28 61 25 62 27 63 26 64 45 65 46 66 50 67
REMARK SMILES IDX 47 68 49 69 48 70 35 71 36 72 40 73 37 74 39 75 38 76
REMARK H PARENT 66 20 66 21 55 44 33 55
REMARK Flexibility Score: inf
ROOT
ATOM      1  O   UNL A   1      34.831  20.841  25.483  1.00  0.00    -0.461 OA
ENDROOT
BRANCH   1   2
ATOM      2  C   UNL A   1      34.288  21.674  26.410  1.00  0.00     0.325 C 
ATOM      3  O   UNL A   1      33.972  21.328  27.546  1.00  0.00    -0.250 OA
BRANCH   2   4
ATOM      4  C   UNL A   1      33.984  23.084  25.891  1.00  0.00     0.242 C 
BRANCH   4   5
ATOM      5  N   UNL A   1      32.615  23.608  25.783  1.00  0.00    -0.328 N 
BRANCH   5   6
ATOM      6  C   UNL A   1      31.625  22.724  25.172  1.00  0.00     0.147 C 
BRANCH   6   7
ATOM      7  C   UNL A   1      31.580  22.994  23.691  1.00  0.00    -0.014 C 
ATOM      8  C   UNL A   1      30.621  23.724  23.102  1.00  0.00     0.006 C 
ENDBRANCH   6   7
ENDBRANCH   5   6
BRANCH   5   9
ATOM      9  C   UNL A   1      32.111  24.706  26.471  1.00  0.00     0.229 C 
ATOM     10  O   UNL A   1      31.113  24.611  27.196  1.00  0.00    -0.275 OA
BRANCH   9  11
ATOM     11  C   UNL A   1      32.756  26.073  26.329  1.00  0.00     0.168 C 
BRANCH  11  12
ATOM     12  C   UNL A   1      32.219  27.007  25.200  1.00  0.00     0.105 C 
ATOM     13  C   UNL A   1      32.953  26.607  23.893  1.00  0.00     0.069 C 
ATOM     14  C   UNL A   1      30.703  26.796  24.923  1.00  0.00     0.069 C 
ATOM     15  C   UNL A   1      32.512  27.412  22.677  1.00  0.00     0.006 C 
ATOM     16  C   UNL A   1      30.194  27.525  23.664  1.00  0.00     0.006 C 
ATOM     17  C   UNL A   1      31.026  27.223  22.421  1.00  0.00     0.000 C 
BRANCH  12  18
ATOM     18  N   UNL A   1      32.410  28.433  25.555  1.00  0.00    -0.343 N 
ATOM     19  C   UNL A   1      33.765  28.872  25.838  1.00  0.00     0.331 C 
ATOM     20  H   UNL A   1      31.847  28.620  26.385  1.00  0.00     0.346 HD
ATOM     21  H   UNL A   1      32.134  28.950  24.720  1.00  0.00     0.346 HD
ENDBRANCH  12  18
ENDBRANCH  11  12
ENDBRANCH   9  11
ENDBRANCH   5   9
ENDBRANCH   4   5
ENDBRANCH   2   4
ENDBRANCH   1   2
BRANCH   1  22
ATOM     22  C   UNL A   1      35.700  21.466  24.509  1.00  0.00     0.274 C 
BRANCH  22  23
ATOM     23  C   UNL A   1      37.147  21.009  24.677  1.00  0.00     0.275 C 
BRANCH  23  24
ATOM     24  O   UNL A   1      37.649  21.406  25.969  1.00  0.00    -0.458 OA
BRANCH  24  25
ATOM     25  C   UNL A   1      38.997  21.543  26.039  1.00  0.00     0.338 C 
ATOM     26  O   UNL A   1      39.825  20.772  25.582  1.00  0.00    -0.246 OA
BRANCH  25  27
ATOM     27  C   UNL A   1      39.392  22.797  26.728  1.00  0.00     0.060 A 
ATOM     28  C   UNL A   1      38.756  24.007  26.474  1.00  0.00     0.016 A 
ATOM     29  C   UNL A   1      40.539  22.788  27.528  1.00  0.00     0.016 A 
ATOM     30  C   UNL A   1      39.386  25.205  26.840  1.00  0.00     0.010 A 
ATOM     31  C   UNL A   1      41.095  23.988  27.996  1.00  0.00     0.010 A 
ATOM     32  C   UNL A   1      40.583  25.227  27.581  1.00  0.00    -0.014 A 
BRANCH  32  33
ATOM     33  C   UNL A   1      41.334  26.507  27.839  1.00  0.00     0.031 A 
ATOM     34  C   UNL A   1      40.764  27.594  28.742  1.00  0.00     0.074 A 
ATOM     35  C   UNL A   1      42.578  26.701  27.348  1.00  0.00     0.049 A 
ATOM     36  N   UNL A   1      41.231  28.797  28.985  1.00  0.00    -0.248 NA
ATOM     37  C   UNL A   1      39.533  27.283  29.491  1.00  0.00     0.031 C 
ATOM     38  C   UNL A   1      43.338  25.747  26.538  1.00  0.00     0.029 A 
ATOM     39  N   UNL A   1      43.435  27.771  27.477  1.00  0.00    -0.354 N 
ATOM     40  C   UNL A   1      40.361  29.375  29.907  1.00  0.00     0.074 A 
ATOM     41  C   UNL A   1      39.322  28.405  30.166  1.00  0.00     0.031 C 
ATOM     42  C   UNL A   1      44.562  26.239  26.305  1.00  0.00     0.029 A 
ATOM     43  C   UNL A   1      44.629  27.603  26.816  1.00  0.00     0.049 A 
ATOM     44  H   UNL A   1      43.215  28.580  27.994  1.00  0.00     0.167 HD
ATOM     45  C   UNL A   1      40.417  30.593  30.500  1.00  0.00     0.031 A 
ATOM     46  C   UNL A   1      45.640  28.456  26.559  1.00  0.00     0.031 A 
ATOM     47  C   UNL A   1      41.425  31.591  30.256  1.00  0.00     0.049 A 
ATOM     48  C   UNL A   1      45.551  29.882  27.011  1.00  0.00     0.074 A 
ATOM     49  C   UNL A   1      41.521  32.868  30.787  1.00  0.00     0.029 A 
ATOM     50  N   UNL A   1      42.503  31.430  29.408  1.00  0.00    -0.354 N 
ATOM     51  N   UNL A   1      44.668  30.443  27.795  1.00  0.00    -0.248 NA
ATOM     52  C   UNL A   1      46.577  30.803  26.498  1.00  0.00     0.031 C 
ATOM     53  C   UNL A   1      42.627  33.502  30.210  1.00  0.00     0.029 A 
ATOM     54  C   UNL A   1      43.245  32.601  29.361  1.00  0.00     0.049 A 
ATOM     55  H   UNL A   1      42.715  30.608  28.910  1.00  0.00     0.167 HD
ATOM     56  C   UNL A   1      45.026  31.782  27.868  1.00  0.00     0.074 A 
ATOM     57  C   UNL A   1      46.219  31.947  27.066  1.00  0.00     0.031 C 
ATOM     58  C   UNL A   1      44.411  32.783  28.541  1.00  0.00     0.031 A 
BRANCH  45  59
ATOM     59  C   UNL A   1      39.322  30.949  31.466  1.00  0.00    -0.014 A 
ATOM     60  C   UNL A   1      39.448  30.675  32.836  1.00  0.00     0.009 A 
ATOM     61  C   UNL A   1      38.190  31.642  31.008  1.00  0.00     0.009 A 
ATOM     62  C   UNL A   1      38.452  31.080  33.729  1.00  0.00     0.001 A 
ATOM     63  C   UNL A   1      37.205  32.059  31.905  1.00  0.00     0.001 A 
ATOM     64  C   UNL A   1      37.335  31.776  33.264  1.00  0.00     0.000 A 
ENDBRANCH  45  59
BRANCH  46  65
ATOM     65  C   UNL A   1      46.769  28.007  25.700  1.00  0.00    -0.014 A 
ATOM     66  C   UNL A   1      47.954  27.516  26.260  1.00  0.00     0.009 A 
ATOM     67  C   UNL A   1      46.645  28.056  24.300  1.00  0.00     0.009 A 
ATOM     68  C   UNL A   1      48.990  27.072  25.434  1.00  0.00     0.001 A 
ATOM     69  C   UNL A   1      47.665  27.578  23.479  1.00  0.00     0.001 A 
ATOM     70  C   UNL A   1      48.839  27.091  24.046  1.00  0.00     0.000 A 
ENDBRANCH  46  65
BRANCH  58  71
ATOM     71  C   UNL A   1      45.017  34.151  28.442  1.00  0.00    -0.014 A 
ATOM     72  C   UNL A   1      46.087  34.525  29.269  1.00  0.00     0.009 A 
ATOM     73  C   UNL A   1      44.525  35.072  27.504  1.00  0.00     0.009 A 
ATOM     74  C   UNL A   1      46.633  35.807  29.181  1.00  0.00     0.001 A 
ATOM     75  C   UNL A   1      45.088  36.346  27.404  1.00  0.00     0.001 A 
ATOM     76  C   UNL A   1      46.134  36.715  28.247  1.00  0.00     0.000 A 
ENDBRANCH  58  71
ENDBRANCH  32  33
ENDBRANCH  25  27
ENDBRANCH  24  25
ENDBRANCH  23  24
ENDBRANCH  22  23
ENDBRANCH   1  22
TORSDOF 18
ENDMDL
MODEL 3
REMARK VINA RESULT:      -8.3      1.489      2.827
REMARK SMILES C=CCN(CC(=O)OCCOC(=O)c1ccc(-c2c3nc(c(-c4ccccc4)c4ccc([nH]4)c(-c4ccccc4)c4nc(c(-c5ccccc5)c5ccc2[nH]5)C=C4)C=C3)cc1)C(=O)CC1([NH2+]C)CCCCC1
REMARK SMILES IDX 8 1 6 2 7 3 5 4 4 5 3 6 2 7 1 8 62 9 63 10 64 11 65 12 68 13
REMARK SMILES IDX 72 14 69 15 71 16 70 17 66 18 67 19 9 22 10 23 11 24 12 25
REMARK SMILES IDX 13 26 14 27 15 28 61 29 16 30 60 31 17 32 18 33 19 34 54 35
REMARK SMILES IDX 20 36 59 37 53 38 55 39 21 40 58 41 52 42 51 43 22 45 44 46
REMARK SMILES IDX 29 47 43 48 30 49 33 50 42 51 56 52 31 53 32 54 41 56 57 57
REMARK SMILES IDX 34 58 23 59 24 60 28 61 25 62 27 63 26 64 45 65 46 66 50 67
REMARK SMILES IDX 47 68 49 69 48 70 35 71 36 72 40 73 37 74 39 75 38 76
REMARK H PARENT 66 20 66 21 55 44 33 55
REMARK Flexibility Score: inf
ROOT
ATOM      1  O   UNL A   1      34.097  33.352  31.861  1.00  0.00    -0.461 OA
ENDROOT
BRANCH   1   2
ATOM      2  C   UNL A   1      34.998  33.523  32.865  1.00  0.00     0.325 C 
ATOM      3  O   UNL A   1      34.788  33.222  34.038  1.00  0.00    -0.250 OA
BRANCH   2   4
ATOM      4  C   UNL A   1      36.285  34.239  32.441  1.00  0.00     0.242 C 
BRANCH   4   5
ATOM      5  N   UNL A   1      37.573  33.542  32.322  1.00  0.00    -0.328 N 
BRANCH   5   6
ATOM      6  C   UNL A   1      37.744  32.681  31.154  1.00  0.00     0.147 C 
BRANCH   6   7
ATOM      7  C   UNL A   1      37.857  33.545  29.925  1.00  0.00    -0.014 C 
ATOM      8  C   UNL A   1      39.028  33.890  29.369  1.00  0.00     0.006 C 
ENDBRANCH   6   7
ENDBRANCH   5   6
BRANCH   5   9
ATOM      9  C   UNL A   1      38.733  33.855  33.024  1.00  0.00     0.229 C 
ATOM     10  O   UNL A   1      39.398  34.862  32.755  1.00  0.00    -0.275 OA
BRANCH   9  11
ATOM     11  C   UNL A   1      39.237  32.948  34.132  1.00  0.00     0.168 C 
BRANCH  11  12
ATOM     12  C   UNL A   1      39.090  33.459  35.600  1.00  0.00     0.105 C 
ATOM     13  C   UNL A   1      37.666  33.072  36.075  1.00  0.00     0.069 C 
ATOM     14  C   UNL A   1      40.076  32.755  36.577  1.00  0.00     0.069 C 
ATOM     15  C   UNL A   1      37.374  33.475  37.515  1.00  0.00     0.006 C 
ATOM     16  C   UNL A   1      39.801  33.060  38.063  1.00  0.00     0.006 C 
ATOM     17  C   UNL A   1      38.351  32.805  38.466  1.00  0.00     0.000 C 
BRANCH  12  18
ATOM     18  N   UNL A   1      39.350  34.916  35.683  1.00  0.00    -0.343 N 
ATOM     19  C   UNL A   1      40.724  35.335  35.894  1.00  0.00     0.331 C 
ATOM     20  H   UNL A   1      38.795  35.282  36.457  1.00  0.00     0.346 HD
ATOM     21  H   UNL A   1      39.103  35.278  34.763  1.00  0.00     0.346 HD
ENDBRANCH  12  18
ENDBRANCH  11  12
ENDBRANCH   9  11
ENDBRANCH   5   9
ENDBRANCH   4   5
ENDBRANCH   2   4
ENDBRANCH   1   2
BRANCH   1  22
ATOM     22  C   UNL A   1      34.296  34.176  30.689  1.00  0.00     0.274 C 
BRANCH  22  23
ATOM     23  C   UNL A   1      34.216  33.353  29.406  1.00  0.00     0.275 C 
BRANCH  23  24
ATOM     24  O   UNL A   1      34.726  32.023  29.634  1.00  0.00    -0.458 OA
BRANCH  24  25
ATOM     25  C   UNL A   1      34.898  31.279  28.513  1.00  0.00     0.338 C 
ATOM     26  O   UNL A   1      34.231  31.345  27.494  1.00  0.00    -0.246 OA
BRANCH  25  27
ATOM     27  C   UNL A   1      36.052  30.353  28.635  1.00  0.00     0.060 A 
ATOM     28  C   UNL A   1      36.267  29.592  29.778  1.00  0.00     0.016 A 
ATOM     29  C   UNL A   1      37.034  30.373  27.639  1.00  0.00     0.016 A 
ATOM     30  C   UNL A   1      37.534  29.038  30.008  1.00  0.00     0.010 A 
ATOM     31  C   UNL A   1      38.257  29.710  27.825  1.00  0.00     0.010 A 
ATOM     32  C   UNL A   1      38.567  29.109  29.054  1.00  0.00    -0.014 A 
BRANCH  32  33
ATOM     33  C   UNL A   1      39.967  28.649  29.365  1.00  0.00     0.031 A 
ATOM     34  C   UNL A   1      40.905  29.486  30.227  1.00  0.00     0.074 A 
ATOM     35  C   UNL A   1      40.414  27.438  28.963  1.00  0.00     0.049 A 
ATOM     36  N   UNL A   1      42.174  29.287  30.504  1.00  0.00    -0.248 NA
ATOM     37  C   UNL A   1      40.343  30.678  30.888  1.00  0.00     0.031 C 
ATOM     38  C   UNL A   1      39.643  26.449  28.207  1.00  0.00     0.029 A 
ATOM     39  N   UNL A   1      41.631  26.824  29.153  1.00  0.00    -0.354 N 
ATOM     40  C   UNL A   1      42.552  30.316  31.363  1.00  0.00     0.074 A 
ATOM     41  C   UNL A   1      41.390  31.155  31.548  1.00  0.00     0.031 C 
ATOM     42  C   UNL A   1      40.374  25.336  28.062  1.00  0.00     0.029 A 
ATOM     43  C   UNL A   1      41.716  25.578  28.578  1.00  0.00     0.049 A 
ATOM     44  H   UNL A   1      42.372  27.236  29.654  1.00  0.00     0.167 HD
ATOM     45  C   UNL A   1      43.747  30.546  31.961  1.00  0.00     0.031 A 
ATOM     46  C   UNL A   1      42.757  24.743  28.393  1.00  0.00     0.031 A 
ATOM     47  C   UNL A   1      44.929  29.744  31.789  1.00  0.00     0.049 A 
ATOM     48  C   UNL A   1      44.129  25.147  28.839  1.00  0.00     0.074 A 
ATOM     49  C   UNL A   1      46.192  29.943  32.328  1.00  0.00     0.029 A 
ATOM     50  N   UNL A   1      45.001  28.600  31.019  1.00  0.00    -0.354 N 
ATOM     51  N   UNL A   1      44.490  26.176  29.561  1.00  0.00    -0.248 NA
ATOM     52  C   UNL A   1      45.245  24.293  28.401  1.00  0.00     0.031 C 
ATOM     53  C   UNL A   1      47.043  28.949  31.830  1.00  0.00     0.029 A 
ATOM     54  C   UNL A   1      46.296  28.107  31.026  1.00  0.00     0.049 A 
ATOM     55  H   UNL A   1      44.245  28.195  30.536  1.00  0.00     0.167 HD
ATOM     56  C   UNL A   1      45.873  26.099  29.661  1.00  0.00     0.074 A 
ATOM     57  C   UNL A   1      46.285  24.911  28.944  1.00  0.00     0.031 C 
ATOM     58  C   UNL A   1      46.721  26.947  30.290  1.00  0.00     0.031 A 
BRANCH  45  59
ATOM     59  C   UNL A   1      43.862  31.754  32.848  1.00  0.00    -0.014 A 
ATOM     60  C   UNL A   1      44.250  32.998  32.329  1.00  0.00     0.009 A 
ATOM     61  C   UNL A   1      43.495  31.661  34.200  1.00  0.00     0.009 A 
ATOM     62  C   UNL A   1      44.279  34.126  33.153  1.00  0.00     0.001 A 
ATOM     63  C   UNL A   1      43.511  32.793  35.017  1.00  0.00     0.001 A 
ATOM     64  C   UNL A   1      43.905  34.024  34.494  1.00  0.00     0.000 A 
ENDBRANCH  45  59
BRANCH  46  65
ATOM     65  C   UNL A   1      42.556  23.491  27.615  1.00  0.00    -0.014 A 
ATOM     66  C   UNL A   1      42.144  22.308  28.241  1.00  0.00     0.009 A 
ATOM     67  C   UNL A   1      42.763  23.492  26.224  1.00  0.00     0.009 A 
ATOM     68  C   UNL A   1      41.932  21.152  27.485  1.00  0.00     0.001 A 
ATOM     69  C   UNL A   1      42.516  22.347  25.469  1.00  0.00     0.001 A 
ATOM     70  C   UNL A   1      42.105  21.176  26.100  1.00  0.00     0.000 A 
ENDBRANCH  46  65
BRANCH  58  71
ATOM     71  C   UNL A   1      48.183  26.622  30.235  1.00  0.00    -0.014 A 
ATOM     72  C   UNL A   1      48.783  25.836  31.232  1.00  0.00     0.009 A 
ATOM     73  C   UNL A   1      48.970  27.093  29.173  1.00  0.00     0.009 A 
ATOM     74  C   UNL A   1      50.148  25.553  31.181  1.00  0.00     0.001 A 
ATOM     75  C   UNL A   1      50.331  26.790  29.114  1.00  0.00     0.001 A 
ATOM     76  C   UNL A   1      50.921  26.028  30.121  1.00  0.00     0.000 A 
ENDBRANCH  58  71
ENDBRANCH  32  33
ENDBRANCH  25  27
ENDBRANCH  24  25
ENDBRANCH  23  24
ENDBRANCH  22  23
ENDBRANCH   1  22
TORSDOF 18
ENDMDL
