MODEL 1
REMARK VINA RESULT:     -11.5      0.000      0.000
REMARK SMILES Cc1ncccc1OC1(C(=O)OCCOC(=O)c2ccc(-c3c4nc(c(-c5ccccc5)c5ccc([nH]5)c(-c5ccccc5)c5nc(c(-c6ccccc6)c6ccc3[nH]6)C=C5)C=C4)cc2)CCN(C(=O)c2ccc(O)nn2)CC1
REMARK SMILES IDX 13 1 12 2 10 3 11 4 9 5 66 6 79 7 67 8 78 9 68 10 69 11
REMARK SMILES IDX 70 12 8 13 7 14 1 15 2 16 3 17 4 18 6 19 5 20 71 21 72 22
REMARK SMILES IDX 77 23 73 24 76 25 74 26 75 27 14 29 15 30 16 31 17 32 18 33
REMARK SMILES IDX 19 34 65 35 20 36 64 37 21 38 22 39 23 40 58 41 24 42 63 43
REMARK SMILES IDX 57 44 59 45 25 46 62 47 56 48 55 49 26 51 48 52 33 53 47 54
REMARK SMILES IDX 34 55 37 56 46 57 60 58 35 59 36 60 45 62 61 63 38 64 27 65
REMARK SMILES IDX 28 66 32 67 29 68 31 69 30 70 49 71 50 72 54 73 51 74 53 75
REMARK SMILES IDX 52 76 39 77 40 78 44 79 41 80 43 81 42 82
REMARK H PARENT 75 28 59 50 37 61
REMARK Flexibility Score: inf
ROOT
ATOM      1  C   UNL A   1      39.297  21.861  26.380  1.00  0.00     0.274 C 
ENDROOT
BRANCH   1   2
ATOM      2  O   UNL A   1      38.258  21.990  25.384  1.00  0.00    -0.459 OA
BRANCH   2   3
ATOM      3  C   UNL A   1      37.484  20.899  25.066  1.00  0.00     0.350 C 
ATOM      4  O   UNL A   1      37.938  19.803  24.765  1.00  0.00    -0.247 OA
BRANCH   3   5
ATOM      5  C   UNL A   1      35.968  21.299  24.997  1.00  0.00     0.209 C 
ATOM      6  C   UNL A   1      35.478  21.735  26.390  1.00  0.00     0.082 C 
ATOM      7  C   UNL A   1      36.048  22.483  24.014  1.00  0.00     0.082 C 
ATOM      8  C   UNL A   1      34.671  23.034  26.483  1.00  0.00     0.124 C 
ATOM      9  C   UNL A   1      34.748  23.227  23.950  1.00  0.00     0.124 C 
ATOM     10  N   UNL A   1      34.321  23.735  25.249  1.00  0.00    -0.337 N 
ATOM     11  C   UNL A   1      33.401  24.792  25.357  1.00  0.00     0.274 C 
ATOM     12  O   UNL A   1      33.054  25.291  26.423  1.00  0.00    -0.267 OA
BRANCH   5  13
ATOM     13  O   UNL A   1      35.122  20.362  24.276  1.00  0.00    -0.474 OA
BRANCH  13  14
ATOM     14  C   UNL A   1      34.364  19.353  24.802  1.00  0.00     0.142 A 
ATOM     15  C   UNL A   1      32.197  20.694  25.074  1.00  0.00     0.071 C 
ATOM     16  C   UNL A   1      33.007  19.448  25.151  1.00  0.00     0.079 A 
ATOM     17  N   UNL A   1      32.223  18.363  25.422  1.00  0.00    -0.258 NA
ATOM     18  C   UNL A   1      32.750  17.140  25.264  1.00  0.00     0.111 A 
ATOM     19  C   UNL A   1      34.860  18.058  24.633  1.00  0.00     0.050 A 
ATOM     20  C   UNL A   1      34.053  16.937  24.866  1.00  0.00     0.024 A 
ENDBRANCH  13  14
ENDBRANCH   5  13
BRANCH  11  21
ATOM     21  C   UNL A   1      32.863  25.348  24.093  1.00  0.00     0.151 A 
ATOM     22  C   UNL A   1      33.625  26.251  23.370  1.00  0.00     0.042 A 
ATOM     23  N   UNL A   1      31.741  24.757  23.603  1.00  0.00    -0.142 NA
ATOM     24  C   UNL A   1      33.219  26.532  22.073  1.00  0.00     0.072 A 
ATOM     25  N   UNL A   1      31.344  25.047  22.337  1.00  0.00    -0.112 NA
ATOM     26  C   UNL A   1      32.085  25.903  21.608  1.00  0.00     0.230 A 
BRANCH  26  27
ATOM     27  O   UNL A   1      31.667  26.093  20.329  1.00  0.00    -0.492 OA
ATOM     28  H   UNL A   1      32.122  26.694  19.773  1.00  0.00     0.295 HD
ENDBRANCH  26  27
ENDBRANCH  11  21
ENDBRANCH   3   5
ENDBRANCH   2   3
ENDBRANCH   1   2
BRANCH   1  29
ATOM     29  C   UNL A   1      40.385  22.925  26.212  1.00  0.00     0.275 C 
BRANCH  29  30
ATOM     30  O   UNL A   1      39.867  24.227  26.527  1.00  0.00    -0.458 OA
BRANCH  30  31
ATOM     31  C   UNL A   1      40.677  25.255  26.181  1.00  0.00     0.338 C 
ATOM     32  O   UNL A   1      41.139  25.502  25.084  1.00  0.00    -0.246 OA
BRANCH  31  33
ATOM     33  C   UNL A   1      40.731  26.194  27.308  1.00  0.00     0.060 A 
ATOM     34  C   UNL A   1      39.828  25.978  28.348  1.00  0.00     0.016 A 
ATOM     35  C   UNL A   1      41.620  27.270  27.346  1.00  0.00     0.016 A 
ATOM     36  C   UNL A   1      39.824  26.818  29.448  1.00  0.00     0.010 A 
ATOM     37  C   UNL A   1      41.599  28.131  28.451  1.00  0.00     0.010 A 
ATOM     38  C   UNL A   1      40.700  27.902  29.505  1.00  0.00    -0.014 A 
BRANCH  38  39
ATOM     39  C   UNL A   1      40.552  28.839  30.638  1.00  0.00     0.031 A 
ATOM     40  C   UNL A   1      39.465  29.869  30.589  1.00  0.00     0.074 A 
ATOM     41  C   UNL A   1      41.289  28.676  31.751  1.00  0.00     0.049 A 
ATOM     42  N   UNL A   1      39.179  30.808  31.451  1.00  0.00    -0.248 NA
ATOM     43  C   UNL A   1      38.570  29.823  29.421  1.00  0.00     0.031 C 
ATOM     44  C   UNL A   1      42.282  27.622  31.964  1.00  0.00     0.029 A 
ATOM     45  N   UNL A   1      41.290  29.381  32.928  1.00  0.00    -0.354 N 
ATOM     46  C   UNL A   1      38.097  31.492  30.913  1.00  0.00     0.074 A 
ATOM     47  C   UNL A   1      37.772  30.854  29.655  1.00  0.00     0.031 C 
ATOM     48  C   UNL A   1      42.782  27.739  33.205  1.00  0.00     0.029 A 
ATOM     49  C   UNL A   1      42.192  28.909  33.849  1.00  0.00     0.049 A 
ATOM     50  H   UNL A   1      40.701  30.152  33.095  1.00  0.00     0.167 HD
ATOM     51  C   UNL A   1      37.444  32.563  31.418  1.00  0.00     0.031 A 
ATOM     52  C   UNL A   1      42.524  29.388  35.062  1.00  0.00     0.031 A 
ATOM     53  C   UNL A   1      37.767  33.182  32.674  1.00  0.00     0.049 A 
ATOM     54  C   UNL A   1      41.848  30.636  35.560  1.00  0.00     0.074 A 
ATOM     55  C   UNL A   1      37.188  34.293  33.263  1.00  0.00     0.029 A 
ATOM     56  N   UNL A   1      38.754  32.736  33.539  1.00  0.00    -0.354 N 
ATOM     57  N   UNL A   1      40.878  31.326  35.009  1.00  0.00    -0.248 NA
ATOM     58  C   UNL A   1      42.326  31.182  36.838  1.00  0.00     0.031 C 
ATOM     59  C   UNL A   1      37.857  34.544  34.466  1.00  0.00     0.029 A 
ATOM     60  C   UNL A   1      38.817  33.561  34.648  1.00  0.00     0.049 A 
ATOM     61  H   UNL A   1      39.326  31.950  33.386  1.00  0.00     0.167 HD
ATOM     62  C   UNL A   1      40.624  32.381  35.875  1.00  0.00     0.074 A 
ATOM     63  C   UNL A   1      41.526  32.227  36.999  1.00  0.00     0.031 C 
ATOM     64  C   UNL A   1      39.727  33.390  35.750  1.00  0.00     0.031 A 
BRANCH  51  65
ATOM     65  C   UNL A   1      36.367  33.169  30.567  1.00  0.00    -0.014 A 
ATOM     66  C   UNL A   1      35.008  32.931  30.816  1.00  0.00     0.009 A 
ATOM     67  C   UNL A   1      36.730  33.998  29.494  1.00  0.00     0.009 A 
ATOM     68  C   UNL A   1      34.032  33.487  29.985  1.00  0.00     0.001 A 
ATOM     69  C   UNL A   1      35.752  34.572  28.680  1.00  0.00     0.001 A 
ATOM     70  C   UNL A   1      34.406  34.309  28.920  1.00  0.00     0.000 A 
ENDBRANCH  51  65
BRANCH  52  71
ATOM     71  C   UNL A   1      43.585  28.725  35.864  1.00  0.00    -0.014 A 
ATOM     72  C   UNL A   1      44.921  29.145  35.777  1.00  0.00     0.009 A 
ATOM     73  C   UNL A   1      43.265  27.654  36.714  1.00  0.00     0.009 A 
ATOM     74  C   UNL A   1      45.915  28.495  36.513  1.00  0.00     0.001 A 
ATOM     75  C   UNL A   1      44.256  27.025  37.470  1.00  0.00     0.001 A 
ATOM     76  C   UNL A   1      45.581  27.440  37.363  1.00  0.00     0.000 A 
ENDBRANCH  52  71
BRANCH  64  77
ATOM     77  C   UNL A   1      39.668  34.390  36.867  1.00  0.00    -0.014 A 
ATOM     78  C   UNL A   1      40.343  35.617  36.778  1.00  0.00     0.009 A 
ATOM     79  C   UNL A   1      38.895  34.115  38.006  1.00  0.00     0.009 A 
ATOM     80  C   UNL A   1      40.267  36.539  37.823  1.00  0.00     0.001 A 
ATOM     81  C   UNL A   1      38.801  35.049  39.038  1.00  0.00     0.001 A 
ATOM     82  C   UNL A   1      39.493  36.256  38.950  1.00  0.00     0.000 A 
ENDBRANCH  64  77
ENDBRANCH  38  39
ENDBRANCH  31  33
ENDBRANCH  30  31
ENDBRANCH  29  30
ENDBRANCH   1  29
TORSDOF 15
ENDMDL
MODEL 2
REMARK VINA RESULT:     -11.5      4.419      7.945
REMARK SMILES Cc1ncccc1OC1(C(=O)OCCOC(=O)c2ccc(-c3c4nc(c(-c5ccccc5)c5ccc([nH]5)c(-c5ccccc5)c5nc(c(-c6ccccc6)c6ccc3[nH]6)C=C5)C=C4)cc2)CCN(C(=O)c2ccc(O)nn2)CC1
REMARK SMILES IDX 13 1 12 2 10 3 11 4 9 5 66 6 79 7 67 8 78 9 68 10 69 11
REMARK SMILES IDX 70 12 8 13 7 14 1 15 2 16 3 17 4 18 6 19 5 20 71 21 72 22
REMARK SMILES IDX 77 23 73 24 76 25 74 26 75 27 14 29 15 30 16 31 17 32 18 33
REMARK SMILES IDX 19 34 65 35 20 36 64 37 21 38 22 39 23 40 58 41 24 42 63 43
REMARK SMILES IDX 57 44 59 45 25 46 62 47 56 48 55 49 26 51 48 52 33 53 47 54
REMARK SMILES IDX 34 55 37 56 46 57 60 58 35 59 36 60 45 62 61 63 38 64 27 65
REMARK SMILES IDX 28 66 32 67 29 68 31 69 30 70 49 71 50 72 54 73 51 74 53 75
REMARK SMILES IDX 52 76 39 77 40 78 44 79 41 80 43 81 42 82
REMARK H PARENT 75 28 59 50 37 61
REMARK Flexibility Score: inf
ROOT
ATOM      1  C   UNL A   1      38.482  20.221  25.045  1.00  0.00     0.274 C 
ENDROOT
BRANCH   1   2
ATOM      2  O   UNL A   1      37.311  20.745  25.709  1.00  0.00    -0.459 OA
BRANCH   2   3
ATOM      3  C   UNL A   1      37.002  22.080  25.584  1.00  0.00     0.350 C 
ATOM      4  O   UNL A   1      37.810  22.986  25.732  1.00  0.00    -0.247 OA
BRANCH   3   5
ATOM      5  C   UNL A   1      35.457  22.271  25.380  1.00  0.00     0.209 C 
ATOM      6  C   UNL A   1      34.765  22.436  26.746  1.00  0.00     0.082 C 
ATOM      7  C   UNL A   1      35.453  23.578  24.566  1.00  0.00     0.082 C 
ATOM      8  C   UNL A   1      33.762  23.584  26.897  1.00  0.00     0.124 C 
ATOM      9  C   UNL A   1      34.068  24.135  24.435  1.00  0.00     0.124 C 
ATOM     10  N   UNL A   1      33.436  24.393  25.724  1.00  0.00    -0.337 N 
ATOM     11  C   UNL A   1      32.358  25.287  25.846  1.00  0.00     0.274 C 
ATOM     12  O   UNL A   1      31.830  25.579  26.916  1.00  0.00    -0.267 OA
BRANCH   5  13
ATOM     13  O   UNL A   1      34.844  21.333  24.453  1.00  0.00    -0.474 OA
BRANCH  13  14
ATOM     14  C   UNL A   1      34.131  20.208  24.759  1.00  0.00     0.142 A 
ATOM     15  C   UNL A   1      31.818  21.310  24.831  1.00  0.00     0.071 C 
ATOM     16  C   UNL A   1      32.736  20.141  24.908  1.00  0.00     0.079 A 
ATOM     17  N   UNL A   1      32.041  18.966  24.953  1.00  0.00    -0.258 NA
ATOM     18  C   UNL A   1      32.711  17.821  24.758  1.00  0.00     0.111 A 
ATOM     19  C   UNL A   1      34.780  18.990  24.542  1.00  0.00     0.050 A 
ATOM     20  C   UNL A   1      34.070  17.782  24.542  1.00  0.00     0.024 A 
ENDBRANCH  13  14
ENDBRANCH   5  13
BRANCH  11  21
ATOM     21  C   UNL A   1      31.873  25.931  24.603  1.00  0.00     0.151 A 
ATOM     22  C   UNL A   1      30.649  25.555  24.077  1.00  0.00     0.042 A 
ATOM     23  N   UNL A   1      32.566  27.022  24.179  1.00  0.00    -0.142 NA
ATOM     24  C   UNL A   1      30.107  26.362  23.086  1.00  0.00     0.072 A 
ATOM     25  N   UNL A   1      32.033  27.799  23.201  1.00  0.00    -0.112 NA
ATOM     26  C   UNL A   1      30.832  27.466  22.694  1.00  0.00     0.230 A 
BRANCH  26  27
ATOM     27  O   UNL A   1      30.330  28.326  21.770  1.00  0.00    -0.492 OA
ATOM     28  H   UNL A   1      29.436  28.603  21.825  1.00  0.00     0.295 HD
ENDBRANCH  26  27
ENDBRANCH  11  21
ENDBRANCH   3   5
ENDBRANCH   2   3
ENDBRANCH   1   2
BRANCH   1  29
ATOM     29  C   UNL A   1      39.480  19.619  26.037  1.00  0.00     0.275 C 
BRANCH  29  30
ATOM     30  O   UNL A   1      40.683  19.220  25.361  1.00  0.00    -0.458 OA
BRANCH  30  31
ATOM     31  C   UNL A   1      41.793  19.221  26.136  1.00  0.00     0.338 C 
ATOM     32  O   UNL A   1      42.614  18.332  26.261  1.00  0.00    -0.246 OA
BRANCH  31  33
ATOM     33  C   UNL A   1      41.996  20.583  26.643  1.00  0.00     0.060 A 
ATOM     34  C   UNL A   1      42.208  21.580  25.693  1.00  0.00     0.016 A 
ATOM     35  C   UNL A   1      42.004  20.882  28.006  1.00  0.00     0.016 A 
ATOM     36  C   UNL A   1      42.401  22.890  26.094  1.00  0.00     0.010 A 
ATOM     37  C   UNL A   1      42.221  22.205  28.410  1.00  0.00     0.010 A 
ATOM     38  C   UNL A   1      42.417  23.212  27.451  1.00  0.00    -0.014 A 
BRANCH  38  39
ATOM     39  C   UNL A   1      42.764  24.601  27.819  1.00  0.00     0.031 A 
ATOM     40  C   UNL A   1      44.202  25.022  27.780  1.00  0.00     0.074 A 
ATOM     41  C   UNL A   1      41.794  25.503  28.046  1.00  0.00     0.049 A 
ATOM     42  N   UNL A   1      44.733  26.173  28.095  1.00  0.00    -0.248 NA
ATOM     43  C   UNL A   1      45.167  24.016  27.306  1.00  0.00     0.031 C 
ATOM     44  C   UNL A   1      40.357  25.238  27.976  1.00  0.00     0.029 A 
ATOM     45  N   UNL A   1      41.875  26.838  28.349  1.00  0.00    -0.354 N 
ATOM     46  C   UNL A   1      46.098  26.021  27.897  1.00  0.00     0.074 A 
ATOM     47  C   UNL A   1      46.314  24.670  27.426  1.00  0.00     0.031 C 
ATOM     48  C   UNL A   1      39.691  26.381  28.211  1.00  0.00     0.029 A 
ATOM     49  C   UNL A   1      40.651  27.440  28.508  1.00  0.00     0.049 A 
ATOM     50  H   UNL A   1      42.729  27.319  28.445  1.00  0.00     0.167 HD
ATOM     51  C   UNL A   1      47.083  26.925  28.103  1.00  0.00     0.031 A 
ATOM     52  C   UNL A   1      40.344  28.696  28.881  1.00  0.00     0.031 A 
ATOM     53  C   UNL A   1      46.859  28.268  28.560  1.00  0.00     0.049 A 
ATOM     54  C   UNL A   1      41.460  29.654  29.195  1.00  0.00     0.074 A 
ATOM     55  C   UNL A   1      47.790  29.254  28.833  1.00  0.00     0.029 A 
ATOM     56  N   UNL A   1      45.609  28.816  28.805  1.00  0.00    -0.354 N 
ATOM     57  N   UNL A   1      42.755  29.479  29.082  1.00  0.00    -0.248 NA
ATOM     58  C   UNL A   1      41.072  30.976  29.707  1.00  0.00     0.031 C 
ATOM     59  C   UNL A   1      47.104  30.387  29.286  1.00  0.00     0.029 A 
ATOM     60  C   UNL A   1      45.744  30.121  29.246  1.00  0.00     0.049 A 
ATOM     61  H   UNL A   1      44.752  28.346  28.685  1.00  0.00     0.167 HD
ATOM     62  C   UNL A   1      43.336  30.668  29.499  1.00  0.00     0.074 A 
ATOM     63  C   UNL A   1      42.252  31.566  29.846  1.00  0.00     0.031 C 
ATOM     64  C   UNL A   1      44.650  30.990  29.591  1.00  0.00     0.031 A 
BRANCH  51  65
ATOM     65  C   UNL A   1      48.494  26.454  27.905  1.00  0.00    -0.014 A 
ATOM     66  C   UNL A   1      49.137  26.553  26.662  1.00  0.00     0.009 A 
ATOM     67  C   UNL A   1      49.189  25.899  28.991  1.00  0.00     0.009 A 
ATOM     68  C   UNL A   1      50.441  26.077  26.505  1.00  0.00     0.001 A 
ATOM     69  C   UNL A   1      50.500  25.446  28.837  1.00  0.00     0.001 A 
ATOM     70  C   UNL A   1      51.121  25.526  27.593  1.00  0.00     0.000 A 
ENDBRANCH  51  65
BRANCH  52  71
ATOM     71  C   UNL A   1      38.924  29.104  29.037  1.00  0.00    -0.014 A 
ATOM     72  C   UNL A   1      38.258  28.940  30.261  1.00  0.00     0.009 A 
ATOM     73  C   UNL A   1      38.220  29.649  27.951  1.00  0.00     0.009 A 
ATOM     74  C   UNL A   1      36.914  29.301  30.389  1.00  0.00     0.001 A 
ATOM     75  C   UNL A   1      36.885  30.034  28.088  1.00  0.00     0.001 A 
ATOM     76  C   UNL A   1      36.231  29.853  29.304  1.00  0.00     0.000 A 
ENDBRANCH  52  71
BRANCH  64  77
ATOM     77  C   UNL A   1      44.981  32.374  30.067  1.00  0.00    -0.014 A 
ATOM     78  C   UNL A   1      45.079  33.445  29.166  1.00  0.00     0.009 A 
ATOM     79  C   UNL A   1      45.158  32.615  31.438  1.00  0.00     0.009 A 
ATOM     80  C   UNL A   1      45.377  34.729  29.628  1.00  0.00     0.001 A 
ATOM     81  C   UNL A   1      45.431  33.903  31.900  1.00  0.00     0.001 A 
ATOM     82  C   UNL A   1      45.548  34.956  30.994  1.00  0.00     0.000 A 
ENDBRANCH  64  77
ENDBRANCH  38  39
ENDBRANCH  31  33
ENDBRANCH  30  31
ENDBRANCH  29  30
ENDBRANCH   1  29
TORSDOF 15
ENDMDL
MODEL 3
REMARK VINA RESULT:     -11.4      3.284      6.878
REMARK SMILES Cc1ncccc1OC1(C(=O)OCCOC(=O)c2ccc(-c3c4nc(c(-c5ccccc5)c5ccc([nH]5)c(-c5ccccc5)c5nc(c(-c6ccccc6)c6ccc3[nH]6)C=C5)C=C4)cc2)CCN(C(=O)c2ccc(O)nn2)CC1
REMARK SMILES IDX 13 1 12 2 10 3 11 4 9 5 66 6 79 7 67 8 78 9 68 10 69 11
REMARK SMILES IDX 70 12 8 13 7 14 1 15 2 16 3 17 4 18 6 19 5 20 71 21 72 22
REMARK SMILES IDX 77 23 73 24 76 25 74 26 75 27 14 29 15 30 16 31 17 32 18 33
REMARK SMILES IDX 19 34 65 35 20 36 64 37 21 38 22 39 23 40 58 41 24 42 63 43
REMARK SMILES IDX 57 44 59 45 25 46 62 47 56 48 55 49 26 51 48 52 33 53 47 54
REMARK SMILES IDX 34 55 37 56 46 57 60 58 35 59 36 60 45 62 61 63 38 64 27 65
REMARK SMILES IDX 28 66 32 67 29 68 31 69 30 70 49 71 50 72 54 73 51 74 53 75
REMARK SMILES IDX 52 76 39 77 40 78 44 79 41 80 43 81 42 82
REMARK H PARENT 75 28 59 50 37 61
REMARK Flexibility Score: inf
ROOT
ATOM      1  C   UNL A   1      36.023  21.894  24.896  1.00  0.00     0.274 C 
ENDROOT
BRANCH   1   2
ATOM      2  O   UNL A   1      35.466  23.218  24.747  1.00  0.00    -0.459 OA
BRANCH   2   3
ATOM      3  C   UNL A   1      34.648  23.493  23.675  1.00  0.00     0.350 C 
ATOM      4  O   UNL A   1      34.965  23.308  22.508  1.00  0.00    -0.247 OA
BRANCH   3   5
ATOM      5  C   UNL A   1      33.335  24.208  24.153  1.00  0.00     0.209 C 
ATOM      6  C   UNL A   1      33.639  25.103  25.369  1.00  0.00     0.082 C 
ATOM      7  C   UNL A   1      33.005  25.033  22.895  1.00  0.00     0.082 C 
ATOM      8  C   UNL A   1      33.087  26.532  25.352  1.00  0.00     0.124 C 
ATOM      9  C   UNL A   1      31.908  26.018  23.161  1.00  0.00     0.124 C 
ATOM     10  N   UNL A   1      32.225  26.941  24.246  1.00  0.00    -0.337 N 
ATOM     11  C   UNL A   1      31.565  28.175  24.375  1.00  0.00     0.274 C 
ATOM     12  O   UNL A   1      31.834  29.008  25.236  1.00  0.00    -0.267 OA
BRANCH   5  13
ATOM     13  O   UNL A   1      32.174  23.341  24.262  1.00  0.00    -0.474 OA
BRANCH  13  14
ATOM     14  C   UNL A   1      32.162  21.986  24.444  1.00  0.00     0.142 A 
ATOM     15  C   UNL A   1      32.027  21.336  21.968  1.00  0.00     0.071 C 
ATOM     16  C   UNL A   1      32.131  21.025  23.420  1.00  0.00     0.079 A 
ATOM     17  N   UNL A   1      32.384  19.698  23.627  1.00  0.00    -0.258 NA
ATOM     18  C   UNL A   1      32.766  19.305  24.850  1.00  0.00     0.111 A 
ATOM     19  C   UNL A   1      32.582  21.529  25.695  1.00  0.00     0.050 A 
ATOM     20  C   UNL A   1      32.886  20.178  25.908  1.00  0.00     0.024 A 
ENDBRANCH  13  14
ENDBRANCH   5  13
BRANCH  11  21
ATOM     21  C   UNL A   1      30.513  28.484  23.378  1.00  0.00     0.151 A 
ATOM     22  C   UNL A   1      29.202  28.127  23.642  1.00  0.00     0.042 A 
ATOM     23  N   UNL A   1      30.872  29.308  22.358  1.00  0.00    -0.142 NA
ATOM     24  C   UNL A   1      28.217  28.671  22.829  1.00  0.00     0.072 A 
ATOM     25  N   UNL A   1      29.903  29.827  21.560  1.00  0.00    -0.112 NA
ATOM     26  C   UNL A   1      28.619  29.512  21.815  1.00  0.00     0.230 A 
BRANCH  26  27
ATOM     27  O   UNL A   1      27.701  30.121  21.021  1.00  0.00    -0.492 OA
ATOM     28  H   UNL A   1      27.730  29.998  20.092  1.00  0.00     0.295 HD
ENDBRANCH  26  27
ENDBRANCH  11  21
ENDBRANCH   3   5
ENDBRANCH   2   3
ENDBRANCH   1   2
BRANCH   1  29
ATOM     29  C   UNL A   1      37.553  21.920  24.946  1.00  0.00     0.275 C 
BRANCH  29  30
ATOM     30  O   UNL A   1      38.012  23.038  25.721  1.00  0.00    -0.458 OA
BRANCH  30  31
ATOM     31  C   UNL A   1      39.163  22.822  26.399  1.00  0.00     0.338 C 
ATOM     32  O   UNL A   1      39.821  21.799  26.440  1.00  0.00    -0.246 OA
BRANCH  31  33
ATOM     33  C   UNL A   1      39.645  24.111  26.908  1.00  0.00     0.060 A 
ATOM     34  C   UNL A   1      39.400  24.384  28.253  1.00  0.00     0.016 A 
ATOM     35  C   UNL A   1      40.296  25.041  26.097  1.00  0.00     0.016 A 
ATOM     36  C   UNL A   1      39.831  25.577  28.807  1.00  0.00     0.010 A 
ATOM     37  C   UNL A   1      40.712  26.257  26.656  1.00  0.00     0.010 A 
ATOM     38  C   UNL A   1      40.480  26.524  28.015  1.00  0.00    -0.014 A 
BRANCH  38  39
ATOM     39  C   UNL A   1      40.791  27.831  28.630  1.00  0.00     0.031 A 
ATOM     40  C   UNL A   1      42.212  28.144  28.984  1.00  0.00     0.074 A 
ATOM     41  C   UNL A   1      39.837  28.773  28.736  1.00  0.00     0.049 A 
ATOM     42  N   UNL A   1      42.703  29.209  29.561  1.00  0.00    -0.248 NA
ATOM     43  C   UNL A   1      43.217  27.130  28.625  1.00  0.00     0.031 C 
ATOM     44  C   UNL A   1      38.449  28.626  28.297  1.00  0.00     0.029 A 
ATOM     45  N   UNL A   1      39.903  30.054  29.220  1.00  0.00    -0.354 N 
ATOM     46  C   UNL A   1      44.068  28.978  29.672  1.00  0.00     0.074 A 
ATOM     47  C   UNL A   1      44.329  27.677  29.094  1.00  0.00     0.031 C 
ATOM     48  C   UNL A   1      37.798  29.781  28.514  1.00  0.00     0.029 A 
ATOM     49  C   UNL A   1      38.706  30.724  29.163  1.00  0.00     0.049 A 
ATOM     50  H   UNL A   1      40.729  30.455  29.575  1.00  0.00     0.167 HD
ATOM     51  C   UNL A   1      45.013  29.775  30.218  1.00  0.00     0.031 A 
ATOM     52  C   UNL A   1      38.375  31.949  29.612  1.00  0.00     0.031 A 
ATOM     53  C   UNL A   1      44.747  31.071  30.779  1.00  0.00     0.049 A 
ATOM     54  C   UNL A   1      39.424  32.778  30.300  1.00  0.00     0.074 A 
ATOM     55  C   UNL A   1      45.628  31.946  31.388  1.00  0.00     0.029 A 
ATOM     56  N   UNL A   1      43.501  31.679  30.792  1.00  0.00    -0.354 N 
ATOM     57  N   UNL A   1      40.698  32.520  30.473  1.00  0.00    -0.248 NA
ATOM     58  C   UNL A   1      38.985  34.058  30.873  1.00  0.00     0.031 C 
ATOM     59  C   UNL A   1      44.905  33.068  31.809  1.00  0.00     0.029 A 
ATOM     60  C   UNL A   1      43.585  32.912  31.417  1.00  0.00     0.049 A 
ATOM     61  H   UNL A   1      42.679  31.292  30.414  1.00  0.00     0.167 HD
ATOM     62  C   UNL A   1      41.215  33.607  31.165  1.00  0.00     0.074 A 
ATOM     63  C   UNL A   1      40.121  34.538  31.360  1.00  0.00     0.031 C 
ATOM     64  C   UNL A   1      42.480  33.816  31.604  1.00  0.00     0.031 A 
BRANCH  51  65
ATOM     65  C   UNL A   1      46.407  29.225  30.298  1.00  0.00    -0.014 A 
ATOM     66  C   UNL A   1      46.866  28.538  31.431  1.00  0.00     0.009 A 
ATOM     67  C   UNL A   1      47.275  29.403  29.209  1.00  0.00     0.009 A 
ATOM     68  C   UNL A   1      48.179  28.066  31.483  1.00  0.00     0.001 A 
ATOM     69  C   UNL A   1      48.579  28.908  29.254  1.00  0.00     0.001 A 
ATOM     70  C   UNL A   1      49.034  28.249  30.394  1.00  0.00     0.000 A 
ENDBRANCH  51  65
BRANCH  52  71
ATOM     71  C   UNL A   1      36.979  32.442  29.481  1.00  0.00    -0.014 A 
ATOM     72  C   UNL A   1      36.034  32.205  30.491  1.00  0.00     0.009 A 
ATOM     73  C   UNL A   1      36.581  33.145  28.332  1.00  0.00     0.009 A 
ATOM     74  C   UNL A   1      34.717  32.649  30.344  1.00  0.00     0.001 A 
ATOM     75  C   UNL A   1      35.272  33.611  28.200  1.00  0.00     0.001 A 
ATOM     76  C   UNL A   1      34.339  33.356  29.203  1.00  0.00     0.000 A 
ENDBRANCH  52  71
BRANCH  64  77
ATOM     77  C   UNL A   1      42.749  35.108  32.319  1.00  0.00    -0.014 A 
ATOM     78  C   UNL A   1      42.379  35.284  33.661  1.00  0.00     0.009 A 
ATOM     79  C   UNL A   1      43.414  36.147  31.651  1.00  0.00     0.009 A 
ATOM     80  C   UNL A   1      42.646  36.489  34.312  1.00  0.00     0.001 A 
ATOM     81  C   UNL A   1      43.702  37.341  32.311  1.00  0.00     0.001 A 
ATOM     82  C   UNL A   1      43.311  37.515  33.638  1.00  0.00     0.000 A 
ENDBRANCH  64  77
ENDBRANCH  38  39
ENDBRANCH  31  33
ENDBRANCH  30  31
ENDBRANCH  29  30
ENDBRANCH   1  29
TORSDOF 15
ENDMDL
