MODEL 1
REMARK VINA RESULT:     -12.2      0.000      0.000
REMARK SMILES COC(=O)[C@@H]1CN(C(=O)NC(=O)CCCC(=O)OCCOC(=O)c2ccc(-c3c4nc(c(-c5ccccc5)c5ccc([nH]5)c(-c5ccccc5)c5nc(c(-c6ccccc6)c6ccc3[nH]6)C=C5)C=C4)cc2)C[C@H]1C
REMARK SMILES IDX 16 1 17 2 15 3 14 4 13 5 11 6 8 7 9 8 10 9 12 11 7 12 5 13
REMARK SMILES IDX 6 14 73 15 72 16 74 17 3 18 4 19 2 20 1 21 18 22 19 23 20 24
REMARK SMILES IDX 21 25 22 26 23 27 24 28 25 29 71 30 26 31 70 32 27 33 28 34
REMARK SMILES IDX 29 35 64 36 30 37 69 38 63 39 65 40 31 41 68 42 62 43 61 44
REMARK SMILES IDX 32 46 54 47 39 48 53 49 40 50 43 51 52 52 66 53 41 54 42 55
REMARK SMILES IDX 51 57 67 58 44 59 33 60 34 61 38 62 35 63 37 64 36 65 55 66
REMARK SMILES IDX 56 67 60 68 57 69 59 70 58 71 45 72 46 73 50 74 47 75 49 76
REMARK SMILES IDX 48 77
REMARK H PARENT 10 10 65 45 43 56
REMARK Flexibility Score: inf
ROOT
ATOM      1  C   UNL A   1      33.355  30.717  26.935  1.00  0.00     0.305 C 
ATOM      2  O   UNL A   1      32.100  30.611  26.902  1.00  0.00    -0.252 OA
ENDROOT
BRANCH   1   3
ATOM      3  C   UNL A   1      33.937  29.419  26.204  1.00  0.00     0.123 C 
BRANCH   3   4
ATOM      4  C   UNL A   1      33.784  28.086  26.958  1.00  0.00     0.022 C 
BRANCH   4   5
ATOM      5  C   UNL A   1      32.935  26.967  26.365  1.00  0.00     0.101 C 
BRANCH   5   6
ATOM      6  C   UNL A   1      31.562  26.737  26.929  1.00  0.00     0.228 C 
ATOM      7  C   UNL A   1      31.036  24.232  26.575  1.00  0.00     0.324 C 
ATOM      8  O   UNL A   1      30.432  23.469  27.335  1.00  0.00    -0.248 OA
ATOM      9  N   UNL A   1      30.829  25.580  26.738  1.00  0.00    -0.278 N 
ATOM     10  H   UNL A   1      29.867  25.786  26.712  1.00  0.00     0.174 HD
ATOM     11  O   UNL A   1      31.030  27.642  27.583  1.00  0.00    -0.275 OA
BRANCH   7  12
ATOM     12  N   UNL A   1      32.019  23.755  25.761  1.00  0.00    -0.323 N 
ATOM     13  C   UNL A   1      34.509  22.273  24.471  1.00  0.00     0.123 C 
ATOM     14  C   UNL A   1      33.724  23.060  26.162  1.00  0.00     0.137 C 
ATOM     15  C   UNL A   1      33.067  22.685  22.964  1.00  0.00     0.021 C 
ATOM     16  C   UNL A   1      31.581  23.655  23.931  1.00  0.00     0.125 C 
ATOM     17  C   UNL A   1      32.991  23.714  21.668  1.00  0.00     0.010 C 
BRANCH  13  18
ATOM     18  C   UNL A   1      35.299  21.032  24.969  1.00  0.00     0.310 C 
ATOM     19  O   UNL A   1      36.231  21.072  25.760  1.00  0.00    -0.252 OA
BRANCH  18  20
ATOM     20  O   UNL A   1      34.604  19.894  24.715  1.00  0.00    -0.469 OA
ATOM     21  C   UNL A   1      33.246  19.885  25.132  1.00  0.00     0.282 C 
ENDBRANCH  18  20
ENDBRANCH  13  18
ENDBRANCH   7  12
ENDBRANCH   5   6
ENDBRANCH   4   5
ENDBRANCH   3   4
ENDBRANCH   1   3
BRANCH   1  22
ATOM     22  O   UNL A   1      34.291  32.211  27.696  1.00  0.00    -0.462 OA
BRANCH  22  23
ATOM     23  C   UNL A   1      33.909  33.743  28.579  1.00  0.00     0.274 C 
BRANCH  23  24
ATOM     24  C   UNL A   1      34.204  33.863  30.351  1.00  0.00     0.275 C 
BRANCH  24  25
ATOM     25  O   UNL A   1      34.320  32.596  31.190  1.00  0.00    -0.458 OA
BRANCH  25  26
ATOM     26  C   UNL A   1      35.330  32.220  32.030  1.00  0.00     0.338 C 
ATOM     27  O   UNL A   1      35.396  32.444  33.225  1.00  0.00    -0.246 OA
BRANCH  26  28
ATOM     28  C   UNL A   1      36.442  31.419  31.402  1.00  0.00     0.060 A 
ATOM     29  C   UNL A   1      37.402  30.771  32.203  1.00  0.00     0.016 A 
ATOM     30  C   UNL A   1      36.742  31.556  30.045  1.00  0.00     0.016 A 
ATOM     31  C   UNL A   1      38.544  30.158  31.682  1.00  0.00     0.010 A 
ATOM     32  C   UNL A   1      37.936  31.014  29.520  1.00  0.00     0.010 A 
ATOM     33  C   UNL A   1      38.835  30.300  30.334  1.00  0.00    -0.014 A 
BRANCH  33  34
ATOM     34  C   UNL A   1      40.121  29.777  29.817  1.00  0.00     0.031 A 
ATOM     35  C   UNL A   1      41.315  30.681  29.738  1.00  0.00     0.074 A 
ATOM     36  C   UNL A   1      40.221  28.480  29.478  1.00  0.00     0.049 A 
ATOM     37  N   UNL A   1      42.455  30.497  29.126  1.00  0.00    -0.248 NA
ATOM     38  C   UNL A   1      41.215  31.961  30.458  1.00  0.00     0.031 C 
ATOM     39  C   UNL A   1      39.177  27.477  29.691  1.00  0.00     0.029 A 
ATOM     40  N   UNL A   1      41.236  27.788  28.871  1.00  0.00    -0.354 N 
ATOM     41  C   UNL A   1      43.192  31.657  29.345  1.00  0.00     0.074 A 
ATOM     42  C   UNL A   1      42.380  32.524  30.171  1.00  0.00     0.031 C 
ATOM     43  C   UNL A   1      39.585  26.307  29.170  1.00  0.00     0.029 A 
ATOM     44  C   UNL A   1      40.881  26.505  28.532  1.00  0.00     0.049 A 
ATOM     45  H   UNL A   1      42.126  28.170  28.696  1.00  0.00     0.167 HD
ATOM     46  C   UNL A   1      44.419  31.969  28.864  1.00  0.00     0.031 A 
ATOM     47  C   UNL A   1      41.501  25.620  27.727  1.00  0.00     0.031 A 
ATOM     48  C   UNL A   1      45.180  31.085  28.018  1.00  0.00     0.049 A 
ATOM     49  C   UNL A   1      42.796  26.034  27.086  1.00  0.00     0.074 A 
ATOM     50  C   UNL A   1      46.412  31.295  27.424  1.00  0.00     0.029 A 
ATOM     51  N   UNL A   1      44.764  29.815  27.641  1.00  0.00    -0.354 N 
ATOM     52  N   UNL A   1      43.460  27.159  27.223  1.00  0.00    -0.248 NA
ATOM     53  C   UNL A   1      43.421  25.070  26.173  1.00  0.00     0.031 C 
ATOM     54  C   UNL A   1      46.708  30.175  26.638  1.00  0.00     0.029 A 
ATOM     55  C   UNL A   1      45.695  29.240  26.795  1.00  0.00     0.049 A 
ATOM     56  H   UNL A   1      43.927  29.386  27.934  1.00  0.00     0.167 HD
ATOM     57  C   UNL A   1      44.589  27.035  26.427  1.00  0.00     0.074 A 
ATOM     58  C   UNL A   1      44.527  25.716  25.826  1.00  0.00     0.031 C 
ATOM     59  C   UNL A   1      45.588  27.926  26.209  1.00  0.00     0.031 A 
BRANCH  46  60
ATOM     60  C   UNL A   1      44.947  33.350  29.151  1.00  0.00    -0.014 A 
ATOM     61  C   UNL A   1      44.683  34.441  28.308  1.00  0.00     0.009 A 
ATOM     62  C   UNL A   1      45.743  33.558  30.290  1.00  0.00     0.009 A 
ATOM     63  C   UNL A   1      45.241  35.696  28.576  1.00  0.00     0.001 A 
ATOM     64  C   UNL A   1      46.276  34.818  30.572  1.00  0.00     0.001 A 
ATOM     65  C   UNL A   1      46.036  35.884  29.707  1.00  0.00     0.000 A 
ENDBRANCH  46  60
BRANCH  47  66
ATOM     66  C   UNL A   1      40.856  24.315  27.423  1.00  0.00    -0.014 A 
ATOM     67  C   UNL A   1      39.744  24.238  26.573  1.00  0.00     0.009 A 
ATOM     68  C   UNL A   1      41.373  23.124  27.963  1.00  0.00     0.009 A 
ATOM     69  C   UNL A   1      39.163  23.002  26.274  1.00  0.00     0.001 A 
ATOM     70  C   UNL A   1      40.811  21.887  27.639  1.00  0.00     0.001 A 
ATOM     71  C   UNL A   1      39.702  21.828  26.799  1.00  0.00     0.000 A 
ENDBRANCH  47  66
BRANCH  59  72
ATOM     72  C   UNL A   1      46.699  27.483  25.302  1.00  0.00    -0.014 A 
ATOM     73  C   UNL A   1      47.667  26.562  25.731  1.00  0.00     0.009 A 
ATOM     74  C   UNL A   1      46.752  27.966  23.985  1.00  0.00     0.009 A 
ATOM     75  C   UNL A   1      48.686  26.159  24.868  1.00  0.00     0.001 A 
ATOM     76  C   UNL A   1      47.753  27.537  23.114  1.00  0.00     0.001 A 
ATOM     77  C   UNL A   1      48.724  26.642  23.559  1.00  0.00     0.000 A 
ENDBRANCH  59  72
ENDBRANCH  33  34
ENDBRANCH  26  28
ENDBRANCH  25  26
ENDBRANCH  24  25
ENDBRANCH  23  24
ENDBRANCH  22  23
ENDBRANCH   1  22
TORSDOF 17
ENDMDL
MODEL 2
REMARK VINA RESULT:     -12.0      2.111      3.765
REMARK SMILES COC(=O)[C@@H]1CN(C(=O)NC(=O)CCCC(=O)OCCOC(=O)c2ccc(-c3c4nc(c(-c5ccccc5)c5ccc([nH]5)c(-c5ccccc5)c5nc(c(-c6ccccc6)c6ccc3[nH]6)C=C5)C=C4)cc2)C[C@H]1C
REMARK SMILES IDX 16 1 17 2 15 3 14 4 13 5 11 6 8 7 9 8 10 9 12 11 7 12 5 13
REMARK SMILES IDX 6 14 73 15 72 16 74 17 3 18 4 19 2 20 1 21 18 22 19 23 20 24
REMARK SMILES IDX 21 25 22 26 23 27 24 28 25 29 71 30 26 31 70 32 27 33 28 34
REMARK SMILES IDX 29 35 64 36 30 37 69 38 63 39 65 40 31 41 68 42 62 43 61 44
REMARK SMILES IDX 32 46 54 47 39 48 53 49 40 50 43 51 52 52 66 53 41 54 42 55
REMARK SMILES IDX 51 57 67 58 44 59 33 60 34 61 38 62 35 63 37 64 36 65 55 66
REMARK SMILES IDX 56 67 60 68 57 69 59 70 58 71 45 72 46 73 50 74 47 75 49 76
REMARK SMILES IDX 48 77
REMARK H PARENT 10 10 65 45 43 56
REMARK Flexibility Score: inf
ROOT
ATOM      1  C   UNL A   1      33.225  29.895  26.973  1.00  0.00     0.305 C 
ATOM      2  O   UNL A   1      32.457  30.074  25.992  1.00  0.00    -0.252 OA
ENDROOT
BRANCH   1   3
ATOM      3  C   UNL A   1      33.359  28.312  27.158  1.00  0.00     0.123 C 
BRANCH   3   4
ATOM      4  C   UNL A   1      33.903  27.528  25.950  1.00  0.00     0.022 C 
BRANCH   4   5
ATOM      5  C   UNL A   1      33.626  26.035  25.823  1.00  0.00     0.101 C 
BRANCH   5   6
ATOM      6  C   UNL A   1      34.328  25.268  24.738  1.00  0.00     0.228 C 
ATOM      7  C   UNL A   1      33.218  25.967  22.511  1.00  0.00     0.324 C 
ATOM      8  O   UNL A   1      33.760  26.142  21.416  1.00  0.00    -0.248 OA
ATOM      9  N   UNL A   1      33.886  25.194  23.430  1.00  0.00    -0.278 N 
ATOM     10  H   UNL A   1      34.123  24.323  23.038  1.00  0.00     0.174 HD
ATOM     11  O   UNL A   1      35.351  24.635  25.026  1.00  0.00    -0.275 OA
BRANCH   7  12
ATOM     12  N   UNL A   1      32.113  26.686  22.854  1.00  0.00    -0.323 N 
ATOM     13  C   UNL A   1      29.845  28.874  23.218  1.00  0.00     0.123 C 
ATOM     14  C   UNL A   1      31.816  28.547  22.897  1.00  0.00     0.137 C 
ATOM     15  C   UNL A   1      29.009  26.934  23.463  1.00  0.00     0.021 C 
ATOM     16  C   UNL A   1      30.574  25.673  23.244  1.00  0.00     0.125 C 
ATOM     17  C   UNL A   1      28.404  26.074  24.743  1.00  0.00     0.010 C 
BRANCH  13  18
ATOM     18  C   UNL A   1      29.534  30.139  22.372  1.00  0.00     0.310 C 
ATOM     19  O   UNL A   1      29.453  30.156  21.152  1.00  0.00    -0.252 OA
BRANCH  18  20
ATOM     20  O   UNL A   1      29.009  31.115  23.155  1.00  0.00    -0.469 OA
ATOM     21  C   UNL A   1      28.718  32.346  22.508  1.00  0.00     0.282 C 
ENDBRANCH  18  20
ENDBRANCH  13  18
ENDBRANCH   7  12
ENDBRANCH   5   6
ENDBRANCH   4   5
ENDBRANCH   3   4
ENDBRANCH   1   3
BRANCH   1  22
ATOM     22  O   UNL A   1      34.061  31.314  27.961  1.00  0.00    -0.462 OA
BRANCH  22  23
ATOM     23  C   UNL A   1      33.740  33.043  28.385  1.00  0.00     0.274 C 
BRANCH  23  24
ATOM     24  C   UNL A   1      34.302  33.708  29.961  1.00  0.00     0.275 C 
BRANCH  24  25
ATOM     25  O   UNL A   1      34.330  32.815  31.196  1.00  0.00    -0.458 OA
BRANCH  25  26
ATOM     26  C   UNL A   1      35.389  32.514  32.006  1.00  0.00     0.338 C 
ATOM     27  O   UNL A   1      35.517  32.832  33.174  1.00  0.00    -0.246 OA
BRANCH  26  28
ATOM     28  C   UNL A   1      36.474  31.673  31.382  1.00  0.00     0.060 A 
ATOM     29  C   UNL A   1      37.398  30.982  32.187  1.00  0.00     0.016 A 
ATOM     30  C   UNL A   1      36.791  31.806  30.030  1.00  0.00     0.016 A 
ATOM     31  C   UNL A   1      38.520  30.326  31.673  1.00  0.00     0.010 A 
ATOM     32  C   UNL A   1      37.968  31.220  29.511  1.00  0.00     0.010 A 
ATOM     33  C   UNL A   1      38.829  30.465  30.328  1.00  0.00    -0.014 A 
BRANCH  33  34
ATOM     34  C   UNL A   1      40.098  29.895  29.820  1.00  0.00     0.031 A 
ATOM     35  C   UNL A   1      41.339  30.737  29.801  1.00  0.00     0.074 A 
ATOM     36  C   UNL A   1      40.138  28.609  29.434  1.00  0.00     0.049 A 
ATOM     37  N   UNL A   1      42.483  30.516  29.207  1.00  0.00    -0.248 NA
ATOM     38  C   UNL A   1      41.289  31.992  30.568  1.00  0.00     0.031 C 
ATOM     39  C   UNL A   1      39.039  27.654  29.585  1.00  0.00     0.029 A 
ATOM     40  N   UNL A   1      41.130  27.886  28.822  1.00  0.00    -0.354 N 
ATOM     41  C   UNL A   1      43.273  31.626  29.487  1.00  0.00     0.074 A 
ATOM     42  C   UNL A   1      42.488  32.503  30.328  1.00  0.00     0.031 C 
ATOM     43  C   UNL A   1      39.398  26.485  29.029  1.00  0.00     0.029 A 
ATOM     44  C   UNL A   1      40.717  26.637  28.426  1.00  0.00     0.049 A 
ATOM     45  H   UNL A   1      42.043  28.227  28.681  1.00  0.00     0.167 HD
ATOM     46  C   UNL A   1      44.526  31.891  29.045  1.00  0.00     0.031 A 
ATOM     47  C   UNL A   1      41.309  25.752  27.602  1.00  0.00     0.031 A 
ATOM     48  C   UNL A   1      45.260  31.000  28.183  1.00  0.00     0.049 A 
ATOM     49  C   UNL A   1      42.639  26.120  27.006  1.00  0.00     0.074 A 
ATOM     50  C   UNL A   1      46.515  31.165  27.624  1.00  0.00     0.029 A 
ATOM     51  N   UNL A   1      44.787  29.769  27.748  1.00  0.00    -0.354 N 
ATOM     52  N   UNL A   1      43.357  27.203  27.200  1.00  0.00    -0.248 NA
ATOM     53  C   UNL A   1      43.234  25.159  26.069  1.00  0.00     0.031 C 
ATOM     54  C   UNL A   1      46.770  30.062  26.801  1.00  0.00     0.029 A 
ATOM     55  C   UNL A   1      45.706  29.177  26.901  1.00  0.00     0.049 A 
ATOM     56  H   UNL A   1      43.922  29.374  28.006  1.00  0.00     0.167 HD
ATOM     57  C   UNL A   1      44.496  27.048  26.424  1.00  0.00     0.074 A 
ATOM     58  C   UNL A   1      44.380  25.758  25.772  1.00  0.00     0.031 C 
ATOM     59  C   UNL A   1      45.545  27.893  26.262  1.00  0.00     0.031 A 
BRANCH  46  60
ATOM     60  C   UNL A   1      45.118  33.230  29.396  1.00  0.00    -0.014 A 
ATOM     61  C   UNL A   1      45.900  33.424  30.545  1.00  0.00     0.009 A 
ATOM     62  C   UNL A   1      44.869  34.331  28.558  1.00  0.00     0.009 A 
ATOM     63  C   UNL A   1      46.382  34.697  30.869  1.00  0.00     0.001 A 
ATOM     64  C   UNL A   1      45.374  35.596  28.868  1.00  0.00     0.001 A 
ATOM     65  C   UNL A   1      46.119  35.781  30.031  1.00  0.00     0.000 A 
ENDBRANCH  46  60
BRANCH  47  66
ATOM     66  C   UNL A   1      40.604  24.494  27.234  1.00  0.00    -0.014 A 
ATOM     67  C   UNL A   1      41.084  23.247  27.657  1.00  0.00     0.009 A 
ATOM     68  C   UNL A   1      39.421  24.538  26.476  1.00  0.00     0.009 A 
ATOM     69  C   UNL A   1      40.399  22.073  27.327  1.00  0.00     0.001 A 
ATOM     70  C   UNL A   1      38.721  23.368  26.173  1.00  0.00     0.001 A 
ATOM     71  C   UNL A   1      39.214  22.136  26.594  1.00  0.00     0.000 A 
ENDBRANCH  47  66
BRANCH  59  72
ATOM     72  C   UNL A   1      46.653  27.425  25.363  1.00  0.00    -0.014 A 
ATOM     73  C   UNL A   1      46.799  27.930  24.063  1.00  0.00     0.009 A 
ATOM     74  C   UNL A   1      47.587  26.494  25.844  1.00  0.00     0.009 A 
ATOM     75  C   UNL A   1      47.841  27.485  23.248  1.00  0.00     0.001 A 
ATOM     76  C   UNL A   1      48.646  26.075  25.040  1.00  0.00     0.001 A 
ATOM     77  C   UNL A   1      48.766  26.564  23.740  1.00  0.00     0.000 A 
ENDBRANCH  59  72
ENDBRANCH  33  34
ENDBRANCH  26  28
ENDBRANCH  25  26
ENDBRANCH  24  25
ENDBRANCH  23  24
ENDBRANCH  22  23
ENDBRANCH   1  22
TORSDOF 17
ENDMDL
MODEL 3
REMARK VINA RESULT:     -12.0      4.172      9.228
REMARK SMILES COC(=O)[C@@H]1CN(C(=O)NC(=O)CCCC(=O)OCCOC(=O)c2ccc(-c3c4nc(c(-c5ccccc5)c5ccc([nH]5)c(-c5ccccc5)c5nc(c(-c6ccccc6)c6ccc3[nH]6)C=C5)C=C4)cc2)C[C@H]1C
REMARK SMILES IDX 16 1 17 2 15 3 14 4 13 5 11 6 8 7 9 8 10 9 12 11 7 12 5 13
REMARK SMILES IDX 6 14 73 15 72 16 74 17 3 18 4 19 2 20 1 21 18 22 19 23 20 24
REMARK SMILES IDX 21 25 22 26 23 27 24 28 25 29 71 30 26 31 70 32 27 33 28 34
REMARK SMILES IDX 29 35 64 36 30 37 69 38 63 39 65 40 31 41 68 42 62 43 61 44
REMARK SMILES IDX 32 46 54 47 39 48 53 49 40 50 43 51 52 52 66 53 41 54 42 55
REMARK SMILES IDX 51 57 67 58 44 59 33 60 34 61 38 62 35 63 37 64 36 65 55 66
REMARK SMILES IDX 56 67 60 68 57 69 59 70 58 71 45 72 46 73 50 74 47 75 49 76
REMARK SMILES IDX 48 77
REMARK H PARENT 10 10 65 45 43 56
REMARK Flexibility Score: inf
ROOT
ATOM      1  C   UNL A   1      35.340  23.369  25.634  1.00  0.00     0.305 C 
ATOM      2  O   UNL A   1      34.666  23.238  26.691  1.00  0.00    -0.252 OA
ENDROOT
BRANCH   1   3
ATOM      3  C   UNL A   1      34.305  23.796  24.490  1.00  0.00     0.123 C 
BRANCH   3   4
ATOM      4  C   UNL A   1      33.762  22.660  23.605  1.00  0.00     0.022 C 
BRANCH   4   5
ATOM      5  C   UNL A   1      32.346  22.140  23.817  1.00  0.00     0.101 C 
BRANCH   5   6
ATOM      6  C   UNL A   1      31.986  21.576  25.163  1.00  0.00     0.228 C 
ATOM      7  C   UNL A   1      30.866  23.493  26.485  1.00  0.00     0.324 C 
ATOM      8  O   UNL A   1      29.912  23.420  27.265  1.00  0.00    -0.248 OA
ATOM      9  N   UNL A   1      31.569  22.339  26.238  1.00  0.00    -0.278 N 
ATOM     10  H   UNL A   1      31.867  21.931  27.082  1.00  0.00     0.174 HD
ATOM     11  O   UNL A   1      32.092  20.356  25.343  1.00  0.00    -0.275 OA
BRANCH   7  12
ATOM     12  N   UNL A   1      31.066  24.622  25.748  1.00  0.00    -0.323 N 
ATOM     13  C   UNL A   1      30.867  27.085  23.760  1.00  0.00     0.123 C 
ATOM     14  C   UNL A   1      30.345  25.159  24.092  1.00  0.00     0.137 C 
ATOM     15  C   UNL A   1      32.097  27.604  25.416  1.00  0.00     0.021 C 
ATOM     16  C   UNL A   1      32.154  25.933  26.552  1.00  0.00     0.125 C 
ATOM     17  C   UNL A   1      33.715  27.888  25.627  1.00  0.00     0.010 C 
BRANCH  13  18
ATOM     18  C   UNL A   1      29.630  27.689  23.040  1.00  0.00     0.310 C 
ATOM     19  O   UNL A   1      28.489  27.665  23.480  1.00  0.00    -0.252 OA
BRANCH  18  20
ATOM     20  O   UNL A   1      30.022  28.550  22.067  1.00  0.00    -0.469 OA
ATOM     21  C   UNL A   1      29.299  29.771  21.986  1.00  0.00     0.282 C 
ENDBRANCH  18  20
ENDBRANCH  13  18
ENDBRANCH   7  12
ENDBRANCH   5   6
ENDBRANCH   4   5
ENDBRANCH   3   4
ENDBRANCH   1   3
BRANCH   1  22
ATOM     22  O   UNL A   1      37.242  23.128  25.531  1.00  0.00    -0.462 OA
BRANCH  22  23
ATOM     23  C   UNL A   1      38.432  21.771  25.411  1.00  0.00     0.274 C 
BRANCH  23  24
ATOM     24  C   UNL A   1      39.833  21.694  26.540  1.00  0.00     0.275 C 
BRANCH  24  25
ATOM     25  O   UNL A   1      41.254  21.778  25.996  1.00  0.00    -0.458 OA
BRANCH  25  26
ATOM     26  C   UNL A   1      41.989  22.892  25.701  1.00  0.00     0.338 C 
ATOM     27  O   UNL A   1      42.874  22.974  24.870  1.00  0.00    -0.246 OA
BRANCH  26  28
ATOM     28  C   UNL A   1      41.625  24.139  26.467  1.00  0.00     0.060 A 
ATOM     29  C   UNL A   1      42.473  25.262  26.454  1.00  0.00     0.016 A 
ATOM     30  C   UNL A   1      40.631  24.111  27.446  1.00  0.00     0.016 A 
ATOM     31  C   UNL A   1      42.277  26.378  27.272  1.00  0.00     0.010 A 
ATOM     32  C   UNL A   1      40.474  25.197  28.336  1.00  0.00     0.010 A 
ATOM     33  C   UNL A   1      41.288  26.342  28.243  1.00  0.00    -0.014 A 
BRANCH  33  34
ATOM     34  C   UNL A   1      41.182  27.464  29.204  1.00  0.00     0.031 A 
ATOM     35  C   UNL A   1      42.111  27.529  30.379  1.00  0.00     0.074 A 
ATOM     36  C   UNL A   1      40.291  28.445  28.981  1.00  0.00     0.049 A 
ATOM     37  N   UNL A   1      42.053  28.287  31.442  1.00  0.00    -0.248 NA
ATOM     38  C   UNL A   1      43.273  26.626  30.344  1.00  0.00     0.031 C 
ATOM     39  C   UNL A   1      39.470  28.573  27.776  1.00  0.00     0.029 A 
ATOM     40  N   UNL A   1      39.913  29.507  29.761  1.00  0.00    -0.354 N 
ATOM     41  C   UNL A   1      43.140  27.920  32.227  1.00  0.00     0.074 A 
ATOM     42  C   UNL A   1      43.858  26.893  31.503  1.00  0.00     0.031 C 
ATOM     43  C   UNL A   1      38.645  29.623  27.921  1.00  0.00     0.029 A 
ATOM     44  C   UNL A   1      38.834  30.189  29.252  1.00  0.00     0.049 A 
ATOM     45  H   UNL A   1      40.366  29.755  30.598  1.00  0.00     0.167 HD
ATOM     46  C   UNL A   1      43.477  28.383  33.456  1.00  0.00     0.031 A 
ATOM     47  C   UNL A   1      38.042  31.110  29.831  1.00  0.00     0.031 A 
ATOM     48  C   UNL A   1      42.715  29.386  34.153  1.00  0.00     0.049 A 
ATOM     49  C   UNL A   1      38.343  31.512  31.248  1.00  0.00     0.074 A 
ATOM     50  C   UNL A   1      42.916  29.910  35.418  1.00  0.00     0.029 A 
ATOM     51  N   UNL A   1      41.589  30.013  33.634  1.00  0.00    -0.354 N 
ATOM     52  N   UNL A   1      39.322  31.111  32.027  1.00  0.00    -0.248 NA
ATOM     53  C   UNL A   1      37.431  32.478  31.872  1.00  0.00     0.031 C 
ATOM     54  C   UNL A   1      41.874  30.805  35.685  1.00  0.00     0.029 A 
ATOM     55  C   UNL A   1      41.062  30.892  34.563  1.00  0.00     0.049 A 
ATOM     56  H   UNL A   1      41.220  29.854  32.736  1.00  0.00     0.167 HD
ATOM     57  C   UNL A   1      39.154  31.785  33.228  1.00  0.00     0.074 A 
ATOM     58  C   UNL A   1      37.990  32.636  33.064  1.00  0.00     0.031 C 
ATOM     59  C   UNL A   1      39.892  31.712  34.364  1.00  0.00     0.031 A 
BRANCH  46  60
ATOM     60  C   UNL A   1      44.643  27.728  34.149  1.00  0.00    -0.014 A 
ATOM     61  C   UNL A   1      44.504  26.540  34.884  1.00  0.00     0.009 A 
ATOM     62  C   UNL A   1      45.911  28.328  34.075  1.00  0.00     0.009 A 
ATOM     63  C   UNL A   1      45.598  25.995  35.564  1.00  0.00     0.001 A 
ATOM     64  C   UNL A   1      47.009  27.768  34.731  1.00  0.00     0.001 A 
ATOM     65  C   UNL A   1      46.849  26.608  35.487  1.00  0.00     0.000 A 
ENDBRANCH  46  60
BRANCH  47  66
ATOM     66  C   UNL A   1      36.854  31.631  29.103  1.00  0.00    -0.014 A 
ATOM     67  C   UNL A   1      35.711  30.839  28.926  1.00  0.00     0.009 A 
ATOM     68  C   UNL A   1      36.845  32.945  28.604  1.00  0.00     0.009 A 
ATOM     69  C   UNL A   1      34.590  31.349  28.263  1.00  0.00     0.001 A 
ATOM     70  C   UNL A   1      35.714  33.463  27.970  1.00  0.00     0.001 A 
ATOM     71  C   UNL A   1      34.589  32.662  27.794  1.00  0.00     0.000 A 
ENDBRANCH  47  66
BRANCH  59  72
ATOM     72  C   UNL A   1      39.467  32.597  35.500  1.00  0.00    -0.014 A 
ATOM     73  C   UNL A   1      38.561  32.149  36.473  1.00  0.00     0.009 A 
ATOM     74  C   UNL A   1      40.016  33.884  35.616  1.00  0.00     0.009 A 
ATOM     75  C   UNL A   1      38.187  32.987  37.524  1.00  0.00     0.001 A 
ATOM     76  C   UNL A   1      39.664  34.707  36.685  1.00  0.00     0.001 A 
ATOM     77  C   UNL A   1      38.744  34.262  37.632  1.00  0.00     0.000 A 
ENDBRANCH  59  72
ENDBRANCH  33  34
ENDBRANCH  26  28
ENDBRANCH  25  26
ENDBRANCH  24  25
ENDBRANCH  23  24
ENDBRANCH  22  23
ENDBRANCH   1  22
TORSDOF 17
ENDMDL
