MODEL 1
REMARK VINA RESULT:     -11.4      0.000      0.000
REMARK SMILES O=C(OCCOC(=O)c1cn(C[C@@H]2CCS(=O)(=O)C2)c(=O)[nH]c1=O)c1ccc(-c2c3nc(c(-c4ccccc4)c4ccc([nH]4)c(-c4ccccc4)c4nc(c(-c5ccccc5)c5ccc2[nH]5)C=C4)C=C3)cc1
REMARK SMILES IDX 4 1 3 2 2 3 1 4 25 5 26 6 72 7 27 8 71 9 28 10 29 11 30 12
REMARK SMILES IDX 65 13 31 14 70 15 64 16 66 17 32 18 69 19 63 20 62 21 33 23
REMARK SMILES IDX 55 24 40 25 54 26 41 27 44 28 53 29 67 30 42 31 43 32 52 34
REMARK SMILES IDX 68 35 45 36 34 37 35 38 39 39 36 40 38 41 37 42 56 43 57 44
REMARK SMILES IDX 61 45 58 46 60 47 59 48 46 49 47 50 51 51 48 52 50 53 49 54
REMARK SMILES IDX 5 55 6 56 7 57 8 58 9 59 10 60 23 61 11 62 22 63 24 64 20 65
REMARK SMILES IDX 21 67 12 68 13 69 14 70 19 71 15 72 16 73 17 74 18 75
REMARK H PARENT 66 22 44 33 22 66
REMARK Flexibility Score: inf
ROOT
ATOM      1  C   UNL A   1      43.415  21.409  25.325  1.00  0.00     0.275 C 
ENDROOT
BRANCH   1   2
ATOM      2  O   UNL A   1      43.302  22.632  24.580  1.00  0.00    -0.458 OA
BRANCH   2   3
ATOM      3  C   UNL A   1      44.028  23.764  24.758  1.00  0.00     0.338 C 
ATOM      4  O   UNL A   1      45.131  23.882  24.230  1.00  0.00    -0.246 OA
BRANCH   3   5
ATOM      5  C   UNL A   1      43.625  24.777  25.775  1.00  0.00     0.060 A 
ATOM      6  C   UNL A   1      42.527  24.434  26.565  1.00  0.00     0.016 A 
ATOM      7  C   UNL A   1      44.231  26.021  25.993  1.00  0.00     0.016 A 
ATOM      8  C   UNL A   1      41.971  25.369  27.436  1.00  0.00     0.010 A 
ATOM      9  C   UNL A   1      43.674  26.963  26.876  1.00  0.00     0.010 A 
ATOM     10  C   UNL A   1      42.518  26.660  27.590  1.00  0.00    -0.014 A 
BRANCH  10  11
ATOM     11  C   UNL A   1      41.980  27.547  28.658  1.00  0.00     0.031 A 
ATOM     12  C   UNL A   1      40.786  28.458  28.483  1.00  0.00     0.074 A 
ATOM     13  C   UNL A   1      42.533  27.400  29.877  1.00  0.00     0.049 A 
ATOM     14  N   UNL A   1      39.988  28.918  29.417  1.00  0.00    -0.248 NA
ATOM     15  C   UNL A   1      40.349  28.816  27.120  1.00  0.00     0.031 C 
ATOM     16  C   UNL A   1      43.695  26.550  30.168  1.00  0.00     0.029 A 
ATOM     17  N   UNL A   1      42.192  27.926  31.092  1.00  0.00    -0.354 N 
ATOM     18  C   UNL A   1      38.894  29.481  28.766  1.00  0.00     0.074 A 
ATOM     19  C   UNL A   1      39.168  29.395  27.348  1.00  0.00     0.031 C 
ATOM     20  C   UNL A   1      43.951  26.592  31.477  1.00  0.00     0.029 A 
ATOM     21  C   UNL A   1      43.047  27.549  32.096  1.00  0.00     0.049 A 
ATOM     22  H   UNL A   1      41.416  28.514  31.231  1.00  0.00     0.167 HD
ATOM     23  C   UNL A   1      37.751  29.948  29.332  1.00  0.00     0.031 A 
ATOM     24  C   UNL A   1      43.151  27.978  33.366  1.00  0.00     0.031 A 
ATOM     25  C   UNL A   1      37.619  30.182  30.749  1.00  0.00     0.049 A 
ATOM     26  C   UNL A   1      42.102  28.907  33.877  1.00  0.00     0.074 A 
ATOM     27  C   UNL A   1      36.530  30.682  31.441  1.00  0.00     0.029 A 
ATOM     28  N   UNL A   1      38.647  30.037  31.670  1.00  0.00    -0.354 N 
ATOM     29  N   UNL A   1      40.979  29.254  33.293  1.00  0.00    -0.248 NA
ATOM     30  C   UNL A   1      42.314  29.507  35.195  1.00  0.00     0.031 C 
ATOM     31  C   UNL A   1      36.946  30.968  32.746  1.00  0.00     0.029 A 
ATOM     32  C   UNL A   1      38.267  30.571  32.889  1.00  0.00     0.049 A 
ATOM     33  H   UNL A   1      39.517  29.617  31.484  1.00  0.00     0.167 HD
ATOM     34  C   UNL A   1      40.340  30.107  34.175  1.00  0.00     0.074 A 
ATOM     35  C   UNL A   1      41.201  30.218  35.339  1.00  0.00     0.031 C 
ATOM     36  C   UNL A   1      39.144  30.728  34.026  1.00  0.00     0.031 A 
BRANCH  23  37
ATOM     37  C   UNL A   1      36.543  30.259  28.479  1.00  0.00    -0.014 A 
ATOM     38  C   UNL A   1      36.127  31.580  28.268  1.00  0.00     0.009 A 
ATOM     39  C   UNL A   1      35.674  29.227  28.085  1.00  0.00     0.009 A 
ATOM     40  C   UNL A   1      34.886  31.850  27.671  1.00  0.00     0.001 A 
ATOM     41  C   UNL A   1      34.451  29.494  27.461  1.00  0.00     0.001 A 
ATOM     42  C   UNL A   1      34.054  30.809  27.261  1.00  0.00     0.000 A 
ENDBRANCH  23  37
BRANCH  24  43
ATOM     43  C   UNL A   1      44.363  27.575  34.122  1.00  0.00    -0.014 A 
ATOM     44  C   UNL A   1      45.579  28.242  33.860  1.00  0.00     0.009 A 
ATOM     45  C   UNL A   1      44.381  26.429  34.923  1.00  0.00     0.009 A 
ATOM     46  C   UNL A   1      46.793  27.719  34.298  1.00  0.00     0.001 A 
ATOM     47  C   UNL A   1      45.600  25.931  35.398  1.00  0.00     0.001 A 
ATOM     48  C   UNL A   1      46.803  26.557  35.064  1.00  0.00     0.000 A 
ENDBRANCH  24  43
BRANCH  36  49
ATOM     49  C   UNL A   1      38.697  31.643  35.128  1.00  0.00    -0.014 A 
ATOM     50  C   UNL A   1      38.920  33.025  35.036  1.00  0.00     0.009 A 
ATOM     51  C   UNL A   1      38.143  31.118  36.306  1.00  0.00     0.009 A 
ATOM     52  C   UNL A   1      38.634  33.861  36.114  1.00  0.00     0.001 A 
ATOM     53  C   UNL A   1      37.821  31.962  37.369  1.00  0.00     0.001 A 
ATOM     54  C   UNL A   1      38.081  33.329  37.279  1.00  0.00     0.000 A 
ENDBRANCH  36  49
ENDBRANCH  10  11
ENDBRANCH   3   5
ENDBRANCH   2   3
ENDBRANCH   1   2
BRANCH   1  55
ATOM     55  C   UNL A   1      42.232  21.108  26.255  1.00  0.00     0.275 C 
BRANCH  55  56
ATOM     56  O   UNL A   1      40.956  21.194  25.594  1.00  0.00    -0.458 OA
BRANCH  56  57
ATOM     57  C   UNL A   1      39.915  21.640  26.357  1.00  0.00     0.345 C 
ATOM     58  O   UNL A   1      40.018  22.294  27.380  1.00  0.00    -0.246 OA
BRANCH  57  59
ATOM     59  C   UNL A   1      38.633  21.270  25.726  1.00  0.00     0.141 A 
ATOM     60  C   UNL A   1      37.652  22.167  25.534  1.00  0.00     0.112 A 
ATOM     61  C   UNL A   1      38.367  19.870  25.343  1.00  0.00     0.268 A 
ATOM     62  N   UNL A   1      36.391  21.805  25.062  1.00  0.00    -0.299 N 
ATOM     63  N   UNL A   1      37.089  19.584  24.948  1.00  0.00    -0.273 N 
ATOM     64  O   UNL A   1      39.207  18.985  25.455  1.00  0.00    -0.268 OA
ATOM     65  C   UNL A   1      36.057  20.471  24.853  1.00  0.00     0.328 A 
ATOM     66  H   UNL A   1      36.895  18.649  24.711  1.00  0.00     0.175 HD
ATOM     67  O   UNL A   1      34.910  20.084  24.645  1.00  0.00    -0.248 OA
BRANCH  62  68
ATOM     68  C   UNL A   1      35.331  22.798  24.984  1.00  0.00     0.131 C 
BRANCH  68  69
ATOM     69  C   UNL A   1      34.827  23.450  26.274  1.00  0.00     0.025 C 
ATOM     70  C   UNL A   1      34.269  22.501  27.339  1.00  0.00     0.022 C 
ATOM     71  C   UNL A   1      33.790  24.549  26.086  1.00  0.00     0.142 C 
ATOM     72  C   UNL A   1      32.796  22.263  27.051  1.00  0.00     0.137 C 
ATOM     73  S   UNL A   1      32.204  23.751  26.263  1.00  0.00     0.150 S 
ATOM     74  O   UNL A   1      31.698  23.429  24.948  1.00  0.00    -0.229 OA
ATOM     75  O   UNL A   1      31.423  24.512  27.220  1.00  0.00    -0.229 OA
ENDBRANCH  68  69
ENDBRANCH  62  68
ENDBRANCH  57  59
ENDBRANCH  56  57
ENDBRANCH  55  56
ENDBRANCH   1  55
TORSDOF 13
ENDMDL
MODEL 2
REMARK VINA RESULT:     -11.3      5.128     11.271
REMARK SMILES O=C(OCCOC(=O)c1cn(C[C@@H]2CCS(=O)(=O)C2)c(=O)[nH]c1=O)c1ccc(-c2c3nc(c(-c4ccccc4)c4ccc([nH]4)c(-c4ccccc4)c4nc(c(-c5ccccc5)c5ccc2[nH]5)C=C4)C=C3)cc1
REMARK SMILES IDX 4 1 3 2 2 3 1 4 25 5 26 6 72 7 27 8 71 9 28 10 29 11 30 12
REMARK SMILES IDX 65 13 31 14 70 15 64 16 66 17 32 18 69 19 63 20 62 21 33 23
REMARK SMILES IDX 55 24 40 25 54 26 41 27 44 28 53 29 67 30 42 31 43 32 52 34
REMARK SMILES IDX 68 35 45 36 34 37 35 38 39 39 36 40 38 41 37 42 56 43 57 44
REMARK SMILES IDX 61 45 58 46 60 47 59 48 46 49 47 50 51 51 48 52 50 53 49 54
REMARK SMILES IDX 5 55 6 56 7 57 8 58 9 59 10 60 23 61 11 62 22 63 24 64 20 65
REMARK SMILES IDX 21 67 12 68 13 69 14 70 19 71 15 72 16 73 17 74 18 75
REMARK H PARENT 66 22 44 33 22 66
REMARK Flexibility Score: inf
ROOT
ATOM      1  C   UNL A   1      34.431  32.942  28.271  1.00  0.00     0.275 C 
ENDROOT
BRANCH   1   2
ATOM      2  O   UNL A   1      33.971  31.813  27.511  1.00  0.00    -0.458 OA
BRANCH   2   3
ATOM      3  C   UNL A   1      34.340  30.517  27.675  1.00  0.00     0.338 C 
ATOM      4  O   UNL A   1      33.503  29.621  27.598  1.00  0.00    -0.246 OA
BRANCH   3   5
ATOM      5  C   UNL A   1      35.698  30.168  28.182  1.00  0.00     0.060 A 
ATOM      6  C   UNL A   1      36.721  30.192  27.233  1.00  0.00     0.016 A 
ATOM      7  C   UNL A   1      36.026  29.813  29.497  1.00  0.00     0.016 A 
ATOM      8  C   UNL A   1      37.994  29.732  27.564  1.00  0.00     0.010 A 
ATOM      9  C   UNL A   1      37.312  29.354  29.833  1.00  0.00     0.010 A 
ATOM     10  C   UNL A   1      38.308  29.281  28.863  1.00  0.00    -0.014 A 
BRANCH  10  11
ATOM     11  C   UNL A   1      39.726  28.964  29.191  1.00  0.00     0.031 A 
ATOM     12  C   UNL A   1      40.645  29.884  29.963  1.00  0.00     0.074 A 
ATOM     13  C   UNL A   1      40.134  27.719  28.883  1.00  0.00     0.049 A 
ATOM     14  N   UNL A   1      41.703  29.551  30.664  1.00  0.00    -0.248 NA
ATOM     15  C   UNL A   1      40.302  31.314  30.073  1.00  0.00     0.031 C 
ATOM     16  C   UNL A   1      39.335  26.741  28.134  1.00  0.00     0.029 A 
ATOM     17  N   UNL A   1      41.292  27.052  29.170  1.00  0.00    -0.354 N 
ATOM     18  C   UNL A   1      42.061  30.675  31.403  1.00  0.00     0.074 A 
ATOM     19  C   UNL A   1      41.166  31.738  30.998  1.00  0.00     0.031 C 
ATOM     20  C   UNL A   1      40.014  25.595  28.046  1.00  0.00     0.029 A 
ATOM     21  C   UNL A   1      41.330  25.790  28.633  1.00  0.00     0.049 A 
ATOM     22  H   UNL A   1      42.022  27.437  29.706  1.00  0.00     0.167 HD
ATOM     23  C   UNL A   1      43.006  30.754  32.375  1.00  0.00     0.031 A 
ATOM     24  C   UNL A   1      42.337  24.904  28.549  1.00  0.00     0.031 A 
ATOM     25  C   UNL A   1      43.987  29.720  32.596  1.00  0.00     0.049 A 
ATOM     26  C   UNL A   1      43.606  25.218  29.267  1.00  0.00     0.074 A 
ATOM     27  C   UNL A   1      45.015  29.693  33.522  1.00  0.00     0.029 A 
ATOM     28  N   UNL A   1      44.129  28.588  31.808  1.00  0.00    -0.354 N 
ATOM     29  N   UNL A   1      43.831  26.192  30.116  1.00  0.00    -0.248 NA
ATOM     30  C   UNL A   1      44.753  24.339  29.028  1.00  0.00     0.031 C 
ATOM     31  C   UNL A   1      45.854  28.620  33.202  1.00  0.00     0.029 A 
ATOM     32  C   UNL A   1      45.305  27.933  32.130  1.00  0.00     0.049 A 
ATOM     33  H   UNL A   1      43.489  28.294  31.121  1.00  0.00     0.167 HD
ATOM     34  C   UNL A   1      45.144  26.043  30.526  1.00  0.00     0.074 A 
ATOM     35  C   UNL A   1      45.662  24.876  29.835  1.00  0.00     0.031 C 
ATOM     36  C   UNL A   1      45.842  26.805  31.404  1.00  0.00     0.031 A 
BRANCH  23  37
ATOM     37  C   UNL A   1      43.077  31.961  33.282  1.00  0.00    -0.014 A 
ATOM     38  C   UNL A   1      43.920  33.040  32.986  1.00  0.00     0.009 A 
ATOM     39  C   UNL A   1      42.489  31.919  34.558  1.00  0.00     0.009 A 
ATOM     40  C   UNL A   1      44.152  34.045  33.937  1.00  0.00     0.001 A 
ATOM     41  C   UNL A   1      42.694  32.936  35.496  1.00  0.00     0.001 A 
ATOM     42  C   UNL A   1      43.533  33.998  35.186  1.00  0.00     0.000 A 
ENDBRANCH  23  37
BRANCH  24  43
ATOM     43  C   UNL A   1      42.139  23.733  27.658  1.00  0.00    -0.014 A 
ATOM     44  C   UNL A   1      41.744  22.504  28.231  1.00  0.00     0.009 A 
ATOM     45  C   UNL A   1      42.529  23.757  26.316  1.00  0.00     0.009 A 
ATOM     46  C   UNL A   1      41.838  21.315  27.511  1.00  0.00     0.001 A 
ATOM     47  C   UNL A   1      42.580  22.565  25.584  1.00  0.00     0.001 A 
ATOM     48  C   UNL A   1      42.263  21.346  26.187  1.00  0.00     0.000 A 
ENDBRANCH  24  43
BRANCH  36  49
ATOM     49  C   UNL A   1      47.280  26.445  31.643  1.00  0.00    -0.014 A 
ATOM     50  C   UNL A   1      48.269  26.846  30.733  1.00  0.00     0.009 A 
ATOM     51  C   UNL A   1      47.637  25.622  32.720  1.00  0.00     0.009 A 
ATOM     52  C   UNL A   1      49.583  26.398  30.874  1.00  0.00     0.001 A 
ATOM     53  C   UNL A   1      48.959  25.206  32.882  1.00  0.00     0.001 A 
ATOM     54  C   UNL A   1      49.927  25.581  31.951  1.00  0.00     0.000 A 
ENDBRANCH  36  49
ENDBRANCH  10  11
ENDBRANCH   3   5
ENDBRANCH   2   3
ENDBRANCH   1   2
BRANCH   1  55
ATOM     55  C   UNL A   1      33.388  34.048  28.478  1.00  0.00     0.275 C 
BRANCH  55  56
ATOM     56  O   UNL A   1      33.926  35.222  29.115  1.00  0.00    -0.458 OA
BRANCH  56  57
ATOM     57  C   UNL A   1      33.194  35.731  30.149  1.00  0.00     0.345 C 
ATOM     58  O   UNL A   1      32.103  36.264  30.048  1.00  0.00    -0.246 OA
BRANCH  57  59
ATOM     59  C   UNL A   1      33.888  35.482  31.428  1.00  0.00     0.141 A 
ATOM     60  C   UNL A   1      34.649  34.393  31.623  1.00  0.00     0.112 A 
ATOM     61  C   UNL A   1      33.709  36.406  32.565  1.00  0.00     0.268 A 
ATOM     62  N   UNL A   1      35.201  34.080  32.864  1.00  0.00    -0.299 N 
ATOM     63  N   UNL A   1      34.228  35.997  33.763  1.00  0.00    -0.273 N 
ATOM     64  O   UNL A   1      33.055  37.439  32.478  1.00  0.00    -0.268 OA
ATOM     65  C   UNL A   1      34.911  34.838  33.993  1.00  0.00     0.328 A 
ATOM     66  H   UNL A   1      34.095  36.595  34.532  1.00  0.00     0.175 HD
ATOM     67  O   UNL A   1      35.193  34.490  35.136  1.00  0.00    -0.248 OA
BRANCH  62  68
ATOM     68  C   UNL A   1      35.919  32.828  33.045  1.00  0.00     0.131 C 
BRANCH  68  69
ATOM     69  C   UNL A   1      37.310  32.671  32.427  1.00  0.00     0.025 C 
ATOM     70  C   UNL A   1      38.285  31.758  33.175  1.00  0.00     0.022 C 
ATOM     71  C   UNL A   1      38.054  33.974  32.159  1.00  0.00     0.142 C 
ATOM     72  C   UNL A   1      39.003  32.579  34.233  1.00  0.00     0.137 C 
ATOM     73  S   UNL A   1      39.085  34.242  33.590  1.00  0.00     0.150 S 
ATOM     74  O   UNL A   1      38.401  35.140  34.493  1.00  0.00    -0.229 OA
ATOM     75  O   UNL A   1      40.435  34.502  33.127  1.00  0.00    -0.229 OA
ENDBRANCH  68  69
ENDBRANCH  62  68
ENDBRANCH  57  59
ENDBRANCH  56  57
ENDBRANCH  55  56
ENDBRANCH   1  55
TORSDOF 13
ENDMDL
MODEL 3
REMARK VINA RESULT:     -11.2      3.667      7.680
REMARK SMILES O=C(OCCOC(=O)c1cn(C[C@@H]2CCS(=O)(=O)C2)c(=O)[nH]c1=O)c1ccc(-c2c3nc(c(-c4ccccc4)c4ccc([nH]4)c(-c4ccccc4)c4nc(c(-c5ccccc5)c5ccc2[nH]5)C=C4)C=C3)cc1
REMARK SMILES IDX 4 1 3 2 2 3 1 4 25 5 26 6 72 7 27 8 71 9 28 10 29 11 30 12
REMARK SMILES IDX 65 13 31 14 70 15 64 16 66 17 32 18 69 19 63 20 62 21 33 23
REMARK SMILES IDX 55 24 40 25 54 26 41 27 44 28 53 29 67 30 42 31 43 32 52 34
REMARK SMILES IDX 68 35 45 36 34 37 35 38 39 39 36 40 38 41 37 42 56 43 57 44
REMARK SMILES IDX 61 45 58 46 60 47 59 48 46 49 47 50 51 51 48 52 50 53 49 54
REMARK SMILES IDX 5 55 6 56 7 57 8 58 9 59 10 60 23 61 11 62 22 63 24 64 20 65
REMARK SMILES IDX 21 67 12 68 13 69 14 70 19 71 15 72 16 73 17 74 18 75
REMARK H PARENT 66 22 44 33 22 66
REMARK Flexibility Score: inf
ROOT
ATOM      1  C   UNL A   1      38.689  20.176  25.371  1.00  0.00     0.275 C 
ENDROOT
BRANCH   1   2
ATOM      2  O   UNL A   1      39.685  19.215  25.756  1.00  0.00    -0.458 OA
BRANCH   2   3
ATOM      3  C   UNL A   1      41.012  19.440  25.921  1.00  0.00     0.338 C 
ATOM      4  O   UNL A   1      41.806  18.504  25.899  1.00  0.00    -0.246 OA
BRANCH   3   5
ATOM      5  C   UNL A   1      41.510  20.773  26.368  1.00  0.00     0.060 A 
ATOM      6  C   UNL A   1      41.250  21.099  27.700  1.00  0.00     0.016 A 
ATOM      7  C   UNL A   1      42.189  21.711  25.579  1.00  0.00     0.016 A 
ATOM      8  C   UNL A   1      41.532  22.378  28.176  1.00  0.00     0.010 A 
ATOM      9  C   UNL A   1      42.479  23.000  26.061  1.00  0.00     0.010 A 
ATOM     10  C   UNL A   1      42.129  23.362  27.359  1.00  0.00    -0.014 A 
BRANCH  10  11
ATOM     11  C   UNL A   1      42.555  24.647  27.977  1.00  0.00     0.031 A 
ATOM     12  C   UNL A   1      43.981  24.975  28.356  1.00  0.00     0.074 A 
ATOM     13  C   UNL A   1      41.607  25.600  28.062  1.00  0.00     0.049 A 
ATOM     14  N   UNL A   1      44.523  26.164  28.477  1.00  0.00    -0.248 NA
ATOM     15  C   UNL A   1      44.955  23.877  28.508  1.00  0.00     0.031 C 
ATOM     16  C   UNL A   1      40.191  25.398  27.728  1.00  0.00     0.029 A 
ATOM     17  N   UNL A   1      41.680  26.916  28.424  1.00  0.00    -0.354 N 
ATOM     18  C   UNL A   1      45.898  25.969  28.571  1.00  0.00     0.074 A 
ATOM     19  C   UNL A   1      46.112  24.538  28.589  1.00  0.00     0.031 C 
ATOM     20  C   UNL A   1      39.539  26.553  27.874  1.00  0.00     0.029 A 
ATOM     21  C   UNL A   1      40.460  27.542  28.412  1.00  0.00     0.049 A 
ATOM     22  H   UNL A   1      42.520  27.367  28.667  1.00  0.00     0.167 HD
ATOM     23  C   UNL A   1      46.866  26.921  28.565  1.00  0.00     0.031 A 
ATOM     24  C   UNL A   1      40.095  28.757  28.856  1.00  0.00     0.031 A 
ATOM     25  C   UNL A   1      46.583  28.325  28.738  1.00  0.00     0.049 A 
ATOM     26  C   UNL A   1      41.168  29.687  29.311  1.00  0.00     0.074 A 
ATOM     27  C   UNL A   1      47.473  29.383  28.784  1.00  0.00     0.029 A 
ATOM     28  N   UNL A   1      45.326  28.848  29.007  1.00  0.00    -0.354 N 
ATOM     29  N   UNL A   1      42.466  29.536  29.194  1.00  0.00    -0.248 NA
ATOM     30  C   UNL A   1      40.754  30.935  29.956  1.00  0.00     0.031 C 
ATOM     31  C   UNL A   1      46.774  30.515  29.217  1.00  0.00     0.029 A 
ATOM     32  C   UNL A   1      45.435  30.181  29.361  1.00  0.00     0.049 A 
ATOM     33  H   UNL A   1      44.482  28.344  28.954  1.00  0.00     0.167 HD
ATOM     34  C   UNL A   1      43.031  30.675  29.741  1.00  0.00     0.074 A 
ATOM     35  C   UNL A   1      41.930  31.511  30.183  1.00  0.00     0.031 C 
ATOM     36  C   UNL A   1      44.345  30.992  29.851  1.00  0.00     0.031 A 
BRANCH  23  37
ATOM     37  C   UNL A   1      48.317  26.540  28.380  1.00  0.00    -0.014 A 
ATOM     38  C   UNL A   1      48.872  26.402  27.101  1.00  0.00     0.009 A 
ATOM     39  C   UNL A   1      49.069  26.079  29.474  1.00  0.00     0.009 A 
ATOM     40  C   UNL A   1      50.142  25.832  26.933  1.00  0.00     0.001 A 
ATOM     41  C   UNL A   1      50.349  25.540  29.312  1.00  0.00     0.001 A 
ATOM     42  C   UNL A   1      50.883  25.409  28.036  1.00  0.00     0.000 A 
ENDBRANCH  23  37
BRANCH  24  43
ATOM     43  C   UNL A   1      38.639  29.034  28.956  1.00  0.00    -0.014 A 
ATOM     44  C   UNL A   1      38.001  29.698  27.887  1.00  0.00     0.009 A 
ATOM     45  C   UNL A   1      37.937  28.848  30.151  1.00  0.00     0.009 A 
ATOM     46  C   UNL A   1      36.732  30.253  28.042  1.00  0.00     0.001 A 
ATOM     47  C   UNL A   1      36.645  29.370  30.288  1.00  0.00     0.001 A 
ATOM     48  C   UNL A   1      36.057  30.093  29.248  1.00  0.00     0.000 A 
ENDBRANCH  24  43
BRANCH  36  49
ATOM     49  C   UNL A   1      44.691  32.285  30.530  1.00  0.00    -0.014 A 
ATOM     50  C   UNL A   1      44.841  32.335  31.924  1.00  0.00     0.009 A 
ATOM     51  C   UNL A   1      44.768  33.476  29.792  1.00  0.00     0.009 A 
ATOM     52  C   UNL A   1      45.024  33.556  32.572  1.00  0.00     0.001 A 
ATOM     53  C   UNL A   1      44.990  34.692  30.438  1.00  0.00     0.001 A 
ATOM     54  C   UNL A   1      45.102  34.734  31.828  1.00  0.00     0.000 A 
ENDBRANCH  36  49
ENDBRANCH  10  11
ENDBRANCH   3   5
ENDBRANCH   2   3
ENDBRANCH   1   2
BRANCH   1  55
ATOM     55  C   UNL A   1      37.369  19.573  24.871  1.00  0.00     0.275 C 
BRANCH  55  56
ATOM     56  O   UNL A   1      36.220  20.377  25.193  1.00  0.00    -0.458 OA
BRANCH  56  57
ATOM     57  C   UNL A   1      35.004  19.827  24.906  1.00  0.00     0.345 C 
ATOM     58  O   UNL A   1      34.813  18.672  24.568  1.00  0.00    -0.246 OA
BRANCH  57  59
ATOM     59  C   UNL A   1      33.935  20.821  25.129  1.00  0.00     0.141 A 
ATOM     60  C   UNL A   1      34.206  22.118  25.346  1.00  0.00     0.112 A 
ATOM     61  C   UNL A   1      32.523  20.397  25.182  1.00  0.00     0.268 A 
ATOM     62  N   UNL A   1      33.218  23.040  25.688  1.00  0.00    -0.299 N 
ATOM     63  N   UNL A   1      31.622  21.345  25.584  1.00  0.00    -0.273 N 
ATOM     64  O   UNL A   1      32.173  19.242  24.971  1.00  0.00    -0.268 OA
ATOM     65  C   UNL A   1      31.906  22.639  25.912  1.00  0.00     0.328 A 
ATOM     66  H   UNL A   1      30.681  21.067  25.644  1.00  0.00     0.175 HD
ATOM     67  O   UNL A   1      31.051  23.363  26.416  1.00  0.00    -0.248 OA
BRANCH  62  68
ATOM     68  C   UNL A   1      33.585  24.406  26.027  1.00  0.00     0.131 C 
BRANCH  68  69
ATOM     69  C   UNL A   1      34.307  25.264  24.985  1.00  0.00     0.025 C 
ATOM     70  C   UNL A   1      33.784  26.691  24.801  1.00  0.00     0.022 C 
ATOM     71  C   UNL A   1      34.401  24.653  23.592  1.00  0.00     0.142 C 
ATOM     72  C   UNL A   1      32.651  26.665  23.788  1.00  0.00     0.137 C 
ATOM     73  S   UNL A   1      33.013  25.310  22.684  1.00  0.00     0.150 S 
ATOM     74  O   UNL A   1      31.933  24.351  22.730  1.00  0.00    -0.229 OA
ATOM     75  O   UNL A   1      33.510  25.845  21.430  1.00  0.00    -0.229 OA
ENDBRANCH  68  69
ENDBRANCH  62  68
ENDBRANCH  57  59
ENDBRANCH  56  57
ENDBRANCH  55  56
ENDBRANCH   1  55
TORSDOF 13
ENDMDL
