MODEL 1
REMARK VINA RESULT:     -11.1      0.000      0.000
REMARK SMILES COc1cccc(NC(=O)NC2(C(=O)OCCOC(=O)c3ccc(-c4c5nc(c(-c6ccccc6)c6ccc([nH]6)c(-c6ccccc6)c6nc(c(-c7ccccc7)c7ccc4[nH]7)C=C6)C=C5)cc3)CCCCC2)c1
REMARK SMILES IDX 16 1 15 2 13 3 14 4 12 5 69 6 73 7 70 8 72 9 71 10 11 11
REMARK SMILES IDX 8 12 9 13 10 15 7 17 3 18 4 19 74 20 5 21 6 22 2 23 1 24
REMARK SMILES IDX 17 25 18 26 19 27 20 28 21 29 22 30 68 31 23 32 67 33 24 34
REMARK SMILES IDX 25 35 26 36 61 37 27 38 66 39 60 40 62 41 28 42 65 43 59 44
REMARK SMILES IDX 58 45 29 47 51 48 36 49 50 50 37 51 40 52 49 53 63 54 38 55
REMARK SMILES IDX 39 56 48 58 64 59 41 60 30 61 31 62 35 63 32 64 34 65 33 66
REMARK SMILES IDX 52 67 53 68 57 69 54 70 56 71 55 72 42 73 43 74 47 75 44 76
REMARK SMILES IDX 46 77 45 78
REMARK H PARENT 8 14 11 16 62 46 40 57
REMARK Flexibility Score: inf
ROOT
ATOM      1  C   UNL A   1      34.866  20.421  25.074  1.00  0.00     0.274 C 
ENDROOT
BRANCH   1   2
ATOM      2  O   UNL A   1      33.863  21.345  25.548  1.00  0.00    -0.460 OA
BRANCH   2   3
ATOM      3  C   UNL A   1      32.943  21.723  24.623  1.00  0.00     0.332 C 
ATOM      4  O   UNL A   1      32.627  21.006  23.679  1.00  0.00    -0.249 OA
BRANCH   3   5
ATOM      5  C   UNL A   1      32.267  23.089  24.931  1.00  0.00     0.139 C 
ATOM      6  C   UNL A   1      31.696  23.858  23.731  1.00  0.00     0.040 C 
ATOM      7  C   UNL A   1      33.310  23.990  25.662  1.00  0.00     0.040 C 
ATOM      8  C   UNL A   1      32.720  24.555  22.840  1.00  0.00     0.003 C 
ATOM      9  C   UNL A   1      34.327  24.687  24.758  1.00  0.00     0.003 C 
ATOM     10  C   UNL A   1      33.655  25.451  23.631  1.00  0.00     0.000 C 
BRANCH   5  11
ATOM     11  N   UNL A   1      31.202  22.785  25.952  1.00  0.00    -0.322 N 
ATOM     12  N   UNL A   1      29.965  24.699  26.676  1.00  0.00    -0.308 N 
ATOM     13  C   UNL A   1      30.219  23.384  26.631  1.00  0.00     0.320 C 
ATOM     14  H   UNL A   1      29.449  24.960  27.473  1.00  0.00     0.171 HD
ATOM     15  O   UNL A   1      29.580  22.654  27.397  1.00  0.00    -0.248 OA
ATOM     16  H   UNL A   1      31.245  21.833  26.202  1.00  0.00     0.166 HD
BRANCH  12  17
ATOM     17  C   UNL A   1      30.266  25.779  25.850  1.00  0.00     0.046 A 
ATOM     18  C   UNL A   1      31.741  27.647  25.408  1.00  0.00     0.120 A 
ATOM     19  C   UNL A   1      31.103  27.842  24.180  1.00  0.00     0.046 A 
ATOM     20  C   UNL A   1      31.297  26.632  26.257  1.00  0.00     0.072 A 
ATOM     21  C   UNL A   1      29.997  27.069  23.829  1.00  0.00     0.006 A 
ATOM     22  C   UNL A   1      29.566  26.053  24.680  1.00  0.00     0.026 A 
BRANCH  18  23
ATOM     23  O   UNL A   1      32.799  28.479  25.647  1.00  0.00    -0.497 OA
ATOM     24  C   UNL A   1      33.634  28.143  26.749  1.00  0.00     0.278 C 
ENDBRANCH  18  23
ENDBRANCH  12  17
ENDBRANCH   5  11
ENDBRANCH   3   5
ENDBRANCH   2   3
ENDBRANCH   1   2
BRANCH   1  25
ATOM     25  C   UNL A   1      36.172  21.114  24.656  1.00  0.00     0.275 C 
BRANCH  25  26
ATOM     26  O   UNL A   1      36.860  21.695  25.784  1.00  0.00    -0.458 OA
BRANCH  26  27
ATOM     27  C   UNL A   1      38.190  21.460  25.857  1.00  0.00     0.338 C 
ATOM     28  O   UNL A   1      38.794  20.487  25.434  1.00  0.00    -0.246 OA
BRANCH  27  29
ATOM     29  C   UNL A   1      38.884  22.621  26.443  1.00  0.00     0.060 A 
ATOM     30  C   UNL A   1      38.388  23.895  26.159  1.00  0.00     0.016 A 
ATOM     31  C   UNL A   1      40.083  22.481  27.139  1.00  0.00     0.016 A 
ATOM     32  C   UNL A   1      39.077  25.036  26.556  1.00  0.00     0.010 A 
ATOM     33  C   UNL A   1      40.780  23.629  27.545  1.00  0.00     0.010 A 
ATOM     34  C   UNL A   1      40.291  24.912  27.238  1.00  0.00    -0.014 A 
BRANCH  34  35
ATOM     35  C   UNL A   1      41.084  26.130  27.536  1.00  0.00     0.031 A 
ATOM     36  C   UNL A   1      40.539  27.153  28.493  1.00  0.00     0.074 A 
ATOM     37  C   UNL A   1      42.312  26.293  27.011  1.00  0.00     0.049 A 
ATOM     38  N   UNL A   1      41.032  28.319  28.829  1.00  0.00    -0.248 NA
ATOM     39  C   UNL A   1      39.276  26.815  29.168  1.00  0.00     0.031 C 
ATOM     40  C   UNL A   1      42.999  25.331  26.150  1.00  0.00     0.029 A 
ATOM     41  N   UNL A   1      43.205  27.326  27.142  1.00  0.00    -0.354 N 
ATOM     42  C   UNL A   1      40.125  28.865  29.729  1.00  0.00     0.074 A 
ATOM     43  C   UNL A   1      39.052  27.906  29.884  1.00  0.00     0.031 C 
ATOM     44  C   UNL A   1      44.216  25.813  25.844  1.00  0.00     0.029 A 
ATOM     45  C   UNL A   1      44.371  27.136  26.442  1.00  0.00     0.049 A 
ATOM     46  H   UNL A   1      43.028  28.128  27.686  1.00  0.00     0.167 HD
ATOM     47  C   UNL A   1      40.180  30.058  30.367  1.00  0.00     0.031 A 
ATOM     48  C   UNL A   1      45.433  27.947  26.283  1.00  0.00     0.031 A 
ATOM     49  C   UNL A   1      41.249  31.009  30.223  1.00  0.00     0.049 A 
ATOM     50  C   UNL A   1      45.430  29.304  26.929  1.00  0.00     0.074 A 
ATOM     51  C   UNL A   1      41.382  32.257  30.808  1.00  0.00     0.029 A 
ATOM     52  N   UNL A   1      42.375  30.811  29.441  1.00  0.00    -0.354 N 
ATOM     53  N   UNL A   1      44.538  29.836  27.727  1.00  0.00    -0.248 NA
ATOM     54  C   UNL A   1      46.575  30.178  26.634  1.00  0.00     0.031 C 
ATOM     55  C   UNL A   1      42.574  32.829  30.351  1.00  0.00     0.029 A 
ATOM     56  C   UNL A   1      43.201  31.921  29.513  1.00  0.00     0.049 A 
ATOM     57  H   UNL A   1      42.562  30.002  28.913  1.00  0.00     0.167 HD
ATOM     58  C   UNL A   1      45.018  31.100  28.041  1.00  0.00     0.074 A 
ATOM     59  C   UNL A   1      46.288  31.251  27.360  1.00  0.00     0.031 C 
ATOM     60  C   UNL A   1      44.457  32.054  28.823  1.00  0.00     0.031 A 
BRANCH  47  61
ATOM     61  C   UNL A   1      39.013  30.419  31.239  1.00  0.00    -0.014 A 
ATOM     62  C   UNL A   1      37.882  31.065  30.719  1.00  0.00     0.009 A 
ATOM     63  C   UNL A   1      39.050  30.103  32.606  1.00  0.00     0.009 A 
ATOM     64  C   UNL A   1      36.824  31.418  31.559  1.00  0.00     0.001 A 
ATOM     65  C   UNL A   1      37.981  30.437  33.439  1.00  0.00     0.001 A 
ATOM     66  C   UNL A   1      36.873  31.102  32.917  1.00  0.00     0.000 A 
ENDBRANCH  47  61
BRANCH  48  67
ATOM     67  C   UNL A   1      46.577  27.515  25.440  1.00  0.00    -0.014 A 
ATOM     68  C   UNL A   1      47.592  26.707  25.975  1.00  0.00     0.009 A 
ATOM     69  C   UNL A   1      46.665  27.918  24.098  1.00  0.00     0.009 A 
ATOM     70  C   UNL A   1      48.678  26.322  25.185  1.00  0.00     0.001 A 
ATOM     71  C   UNL A   1      47.740  27.513  23.305  1.00  0.00     0.001 A 
ATOM     72  C   UNL A   1      48.749  26.721  23.851  1.00  0.00     0.000 A 
ENDBRANCH  48  67
BRANCH  60  73
ATOM     73  C   UNL A   1      45.223  33.331  28.997  1.00  0.00    -0.014 A 
ATOM     74  C   UNL A   1      46.176  33.469  30.019  1.00  0.00     0.009 A 
ATOM     75  C   UNL A   1      45.014  34.398  28.109  1.00  0.00     0.009 A 
ATOM     76  C   UNL A   1      46.884  34.663  30.164  1.00  0.00     0.001 A 
ATOM     77  C   UNL A   1      45.738  35.583  28.246  1.00  0.00     0.001 A 
ATOM     78  C   UNL A   1      46.667  35.717  29.277  1.00  0.00     0.000 A 
ENDBRANCH  60  73
ENDBRANCH  34  35
ENDBRANCH  27  29
ENDBRANCH  26  27
ENDBRANCH  25  26
ENDBRANCH   1  25
TORSDOF 14
ENDMDL
MODEL 2
REMARK VINA RESULT:     -11.0      3.386      8.358
REMARK SMILES COc1cccc(NC(=O)NC2(C(=O)OCCOC(=O)c3ccc(-c4c5nc(c(-c6ccccc6)c6ccc([nH]6)c(-c6ccccc6)c6nc(c(-c7ccccc7)c7ccc4[nH]7)C=C6)C=C5)cc3)CCCCC2)c1
REMARK SMILES IDX 16 1 15 2 13 3 14 4 12 5 69 6 73 7 70 8 72 9 71 10 11 11
REMARK SMILES IDX 8 12 9 13 10 15 7 17 3 18 4 19 74 20 5 21 6 22 2 23 1 24
REMARK SMILES IDX 17 25 18 26 19 27 20 28 21 29 22 30 68 31 23 32 67 33 24 34
REMARK SMILES IDX 25 35 26 36 61 37 27 38 66 39 60 40 62 41 28 42 65 43 59 44
REMARK SMILES IDX 58 45 29 47 51 48 36 49 50 50 37 51 40 52 49 53 63 54 38 55
REMARK SMILES IDX 39 56 48 58 64 59 41 60 30 61 31 62 35 63 32 64 34 65 33 66
REMARK SMILES IDX 52 67 53 68 57 69 54 70 56 71 55 72 42 73 43 74 47 75 44 76
REMARK SMILES IDX 46 77 45 78
REMARK H PARENT 8 14 11 16 62 46 40 57
REMARK Flexibility Score: inf
ROOT
ATOM      1  C   UNL A   1      31.052  28.820  24.548  1.00  0.00     0.274 C 
ENDROOT
BRANCH   1   2
ATOM      2  O   UNL A   1      31.010  27.655  25.401  1.00  0.00    -0.460 OA
BRANCH   2   3
ATOM      3  C   UNL A   1      30.412  26.563  24.857  1.00  0.00     0.332 C 
ATOM      4  O   UNL A   1      29.410  26.644  24.155  1.00  0.00    -0.249 OA
BRANCH   3   5
ATOM      5  C   UNL A   1      31.171  25.232  25.126  1.00  0.00     0.139 C 
ATOM      6  C   UNL A   1      32.644  25.356  25.543  1.00  0.00     0.040 C 
ATOM      7  C   UNL A   1      31.079  24.356  23.839  1.00  0.00     0.040 C 
ATOM      8  C   UNL A   1      33.624  25.700  24.426  1.00  0.00     0.003 C 
ATOM      9  C   UNL A   1      32.071  24.708  22.729  1.00  0.00     0.003 C 
ATOM     10  C   UNL A   1      33.499  24.762  23.241  1.00  0.00     0.000 C 
BRANCH   5  11
ATOM     11  N   UNL A   1      30.357  24.514  26.170  1.00  0.00    -0.322 N 
ATOM     12  N   UNL A   1      30.950  22.216  26.462  1.00  0.00    -0.308 N 
ATOM     13  C   UNL A   1      30.274  23.328  26.781  1.00  0.00     0.320 C 
ATOM     14  H   UNL A   1      30.509  21.397  26.784  1.00  0.00     0.171 HD
ATOM     15  O   UNL A   1      29.378  23.228  27.627  1.00  0.00    -0.248 OA
ATOM     16  H   UNL A   1      29.656  25.114  26.515  1.00  0.00     0.166 HD
BRANCH  12  17
ATOM     17  C   UNL A   1      32.137  21.958  25.780  1.00  0.00     0.046 A 
ATOM     18  C   UNL A   1      34.554  22.087  25.791  1.00  0.00     0.120 A 
ATOM     19  C   UNL A   1      34.586  21.320  24.623  1.00  0.00     0.046 A 
ATOM     20  C   UNL A   1      33.322  22.433  26.349  1.00  0.00     0.072 A 
ATOM     21  C   UNL A   1      33.401  20.950  23.989  1.00  0.00     0.006 A 
ATOM     22  C   UNL A   1      32.176  21.293  24.559  1.00  0.00     0.026 A 
BRANCH  18  23
ATOM     23  O   UNL A   1      35.779  22.405  26.307  1.00  0.00    -0.497 OA
ATOM     24  C   UNL A   1      36.417  23.555  25.765  1.00  0.00     0.278 C 
ENDBRANCH  18  23
ENDBRANCH  12  17
ENDBRANCH   5  11
ENDBRANCH   3   5
ENDBRANCH   2   3
ENDBRANCH   1   2
BRANCH   1  25
ATOM     25  C   UNL A   1      31.426  30.104  25.304  1.00  0.00     0.275 C 
BRANCH  25  26
ATOM     26  O   UNL A   1      32.635  29.944  26.076  1.00  0.00    -0.458 OA
BRANCH  26  27
ATOM     27  C   UNL A   1      33.002  31.001  26.837  1.00  0.00     0.338 C 
ATOM     28  O   UNL A   1      32.331  31.984  27.110  1.00  0.00    -0.246 OA
BRANCH  27  29
ATOM     29  C   UNL A   1      34.338  30.775  27.417  1.00  0.00     0.060 A 
ATOM     30  C   UNL A   1      34.749  29.458  27.625  1.00  0.00     0.016 A 
ATOM     31  C   UNL A   1      35.119  31.830  27.885  1.00  0.00     0.016 A 
ATOM     32  C   UNL A   1      35.931  29.176  28.303  1.00  0.00     0.010 A 
ATOM     33  C   UNL A   1      36.314  31.551  28.564  1.00  0.00     0.010 A 
ATOM     34  C   UNL A   1      36.717  30.223  28.795  1.00  0.00    -0.014 A 
BRANCH  34  35
ATOM     35  C   UNL A   1      37.901  29.911  29.632  1.00  0.00     0.031 A 
ATOM     36  C   UNL A   1      39.021  29.092  29.054  1.00  0.00     0.074 A 
ATOM     37  C   UNL A   1      38.011  30.409  30.876  1.00  0.00     0.049 A 
ATOM     38  N   UNL A   1      40.104  28.641  29.636  1.00  0.00    -0.248 NA
ATOM     39  C   UNL A   1      38.911  28.740  27.629  1.00  0.00     0.031 C 
ATOM     40  C   UNL A   1      37.045  31.300  31.520  1.00  0.00     0.029 A 
ATOM     41  N   UNL A   1      38.998  30.248  31.815  1.00  0.00    -0.354 N 
ATOM     42  C   UNL A   1      40.788  27.929  28.658  1.00  0.00     0.074 A 
ATOM     43  C   UNL A   1      39.997  28.004  27.448  1.00  0.00     0.031 C 
ATOM     44  C   UNL A   1      37.498  31.620  32.744  1.00  0.00     0.029 A 
ATOM     45  C   UNL A   1      38.754  30.918  32.988  1.00  0.00     0.049 A 
ATOM     46  H   UNL A   1      39.805  29.704  31.663  1.00  0.00     0.167 HD
ATOM     47  C   UNL A   1      41.966  27.269  28.760  1.00  0.00     0.031 A 
ATOM     48  C   UNL A   1      39.453  30.943  34.139  1.00  0.00     0.031 A 
ATOM     49  C   UNL A   1      42.759  27.201  29.958  1.00  0.00     0.049 A 
ATOM     50  C   UNL A   1      40.712  30.130  34.255  1.00  0.00     0.074 A 
ATOM     51  C   UNL A   1      43.955  26.536  30.166  1.00  0.00     0.029 A 
ATOM     52  N   UNL A   1      42.437  27.829  31.149  1.00  0.00    -0.354 N 
ATOM     53  N   UNL A   1      41.317  29.409  33.344  1.00  0.00    -0.248 NA
ATOM     54  C   UNL A   1      41.374  30.123  35.568  1.00  0.00     0.031 C 
ATOM     55  C   UNL A   1      44.338  26.733  31.498  1.00  0.00     0.029 A 
ATOM     56  C   UNL A   1      43.400  27.553  32.105  1.00  0.00     0.049 A 
ATOM     57  H   UNL A   1      41.640  28.388  31.296  1.00  0.00     0.167 HD
ATOM     58  C   UNL A   1      42.436  28.872  33.967  1.00  0.00     0.074 A 
ATOM     59  C   UNL A   1      42.435  29.363  35.330  1.00  0.00     0.031 C 
ATOM     60  C   UNL A   1      43.379  28.045  33.456  1.00  0.00     0.031 A 
BRANCH  47  61
ATOM     61  C   UNL A   1      42.436  26.523  27.546  1.00  0.00    -0.014 A 
ATOM     62  C   UNL A   1      42.079  25.184  27.325  1.00  0.00     0.009 A 
ATOM     63  C   UNL A   1      43.250  27.176  26.607  1.00  0.00     0.009 A 
ATOM     64  C   UNL A   1      42.557  24.504  26.203  1.00  0.00     0.001 A 
ATOM     65  C   UNL A   1      43.708  26.499  25.475  1.00  0.00     0.001 A 
ATOM     66  C   UNL A   1      43.368  25.162  25.279  1.00  0.00     0.000 A 
ENDBRANCH  47  61
BRANCH  48  67
ATOM     67  C   UNL A   1      38.957  31.735  35.292  1.00  0.00    -0.014 A 
ATOM     68  C   UNL A   1      38.159  31.137  36.278  1.00  0.00     0.009 A 
ATOM     69  C   UNL A   1      39.272  33.099  35.406  1.00  0.00     0.009 A 
ATOM     70  C   UNL A   1      37.676  31.893  37.349  1.00  0.00     0.001 A 
ATOM     71  C   UNL A   1      38.806  33.846  36.490  1.00  0.00     0.001 A 
ATOM     72  C   UNL A   1      38.003  33.244  37.456  1.00  0.00     0.000 A 
ENDBRANCH  48  67
BRANCH  60  73
ATOM     73  C   UNL A   1      44.496  27.638  34.371  1.00  0.00    -0.014 A 
ATOM     74  C   UNL A   1      45.659  28.417  34.483  1.00  0.00     0.009 A 
ATOM     75  C   UNL A   1      44.370  26.480  35.154  1.00  0.00     0.009 A 
ATOM     76  C   UNL A   1      46.687  28.027  35.342  1.00  0.00     0.001 A 
ATOM     77  C   UNL A   1      45.393  26.104  36.027  1.00  0.00     0.001 A 
ATOM     78  C   UNL A   1      46.553  26.873  36.115  1.00  0.00     0.000 A 
ENDBRANCH  60  73
ENDBRANCH  34  35
ENDBRANCH  27  29
ENDBRANCH  26  27
ENDBRANCH  25  26
ENDBRANCH   1  25
TORSDOF 14
ENDMDL
MODEL 3
REMARK VINA RESULT:     -10.9      2.371      3.152
REMARK SMILES COc1cccc(NC(=O)NC2(C(=O)OCCOC(=O)c3ccc(-c4c5nc(c(-c6ccccc6)c6ccc([nH]6)c(-c6ccccc6)c6nc(c(-c7ccccc7)c7ccc4[nH]7)C=C6)C=C5)cc3)CCCCC2)c1
REMARK SMILES IDX 16 1 15 2 13 3 14 4 12 5 69 6 73 7 70 8 72 9 71 10 11 11
REMARK SMILES IDX 8 12 9 13 10 15 7 17 3 18 4 19 74 20 5 21 6 22 2 23 1 24
REMARK SMILES IDX 17 25 18 26 19 27 20 28 21 29 22 30 68 31 23 32 67 33 24 34
REMARK SMILES IDX 25 35 26 36 61 37 27 38 66 39 60 40 62 41 28 42 65 43 59 44
REMARK SMILES IDX 58 45 29 47 51 48 36 49 50 50 37 51 40 52 49 53 63 54 38 55
REMARK SMILES IDX 39 56 48 58 64 59 41 60 30 61 31 62 35 63 32 64 34 65 33 66
REMARK SMILES IDX 52 67 53 68 57 69 54 70 56 71 55 72 42 73 43 74 47 75 44 76
REMARK SMILES IDX 46 77 45 78
REMARK H PARENT 8 14 11 16 62 46 40 57
REMARK Flexibility Score: inf
ROOT
ATOM      1  C   UNL A   1      37.440  20.715  24.938  1.00  0.00     0.274 C 
ENDROOT
BRANCH   1   2
ATOM      2  O   UNL A   1      36.408  21.666  25.276  1.00  0.00    -0.460 OA
BRANCH   2   3
ATOM      3  C   UNL A   1      35.900  22.364  24.227  1.00  0.00     0.332 C 
ATOM      4  O   UNL A   1      36.547  22.582  23.208  1.00  0.00    -0.249 OA
BRANCH   3   5
ATOM      5  C   UNL A   1      34.408  22.764  24.403  1.00  0.00     0.139 C 
ATOM      6  C   UNL A   1      33.750  23.492  23.222  1.00  0.00     0.040 C 
ATOM      7  C   UNL A   1      34.295  23.658  25.677  1.00  0.00     0.040 C 
ATOM      8  C   UNL A   1      34.133  24.959  23.047  1.00  0.00     0.003 C 
ATOM      9  C   UNL A   1      34.677  25.127  25.487  1.00  0.00     0.003 C 
ATOM     10  C   UNL A   1      33.938  25.759  24.321  1.00  0.00     0.000 C 
BRANCH   5  11
ATOM     11  N   UNL A   1      33.689  21.484  24.737  1.00  0.00    -0.322 N 
ATOM     12  N   UNL A   1      31.400  21.782  25.364  1.00  0.00    -0.308 N 
ATOM     13  C   UNL A   1      32.473  21.036  25.065  1.00  0.00     0.320 C 
ATOM     14  H   UNL A   1      30.735  21.293  25.899  1.00  0.00     0.171 HD
ATOM     15  O   UNL A   1      32.386  19.816  25.243  1.00  0.00    -0.248 OA
ATOM     16  H   UNL A   1      34.321  20.730  24.702  1.00  0.00     0.166 HD
BRANCH  12  17
ATOM     17  C   UNL A   1      31.016  23.092  25.087  1.00  0.00     0.046 A 
ATOM     18  C   UNL A   1      30.694  25.335  25.937  1.00  0.00     0.120 A 
ATOM     19  C   UNL A   1      30.470  25.782  24.632  1.00  0.00     0.046 A 
ATOM     20  C   UNL A   1      30.935  23.979  26.164  1.00  0.00     0.072 A 
ATOM     21  C   UNL A   1      30.430  24.877  23.573  1.00  0.00     0.006 A 
ATOM     22  C   UNL A   1      30.680  23.525  23.809  1.00  0.00     0.026 A 
BRANCH  18  23
ATOM     23  O   UNL A   1      30.689  26.314  26.891  1.00  0.00    -0.497 OA
ATOM     24  C   UNL A   1      31.494  27.458  26.630  1.00  0.00     0.278 C 
ENDBRANCH  18  23
ENDBRANCH  12  17
ENDBRANCH   5  11
ENDBRANCH   3   5
ENDBRANCH   2   3
ENDBRANCH   1   2
BRANCH   1  25
ATOM     25  C   UNL A   1      38.827  21.122  25.461  1.00  0.00     0.275 C 
BRANCH  25  26
ATOM     26  O   UNL A   1      39.437  20.075  26.247  1.00  0.00    -0.458 OA
BRANCH  26  27
ATOM     27  C   UNL A   1      40.778  19.943  26.126  1.00  0.00     0.338 C 
ATOM     28  O   UNL A   1      41.386  19.022  25.604  1.00  0.00    -0.246 OA
BRANCH  27  29
ATOM     29  C   UNL A   1      41.458  21.150  26.629  1.00  0.00     0.060 A 
ATOM     30  C   UNL A   1      41.371  21.431  27.993  1.00  0.00     0.016 A 
ATOM     31  C   UNL A   1      42.048  22.069  25.765  1.00  0.00     0.016 A 
ATOM     32  C   UNL A   1      41.862  22.627  28.510  1.00  0.00     0.010 A 
ATOM     33  C   UNL A   1      42.549  23.273  26.281  1.00  0.00     0.010 A 
ATOM     34  C   UNL A   1      42.441  23.567  27.653  1.00  0.00    -0.014 A 
BRANCH  34  35
ATOM     35  C   UNL A   1      42.836  24.892  28.191  1.00  0.00     0.031 A 
ATOM     36  C   UNL A   1      41.784  25.939  28.430  1.00  0.00     0.074 A 
ATOM     37  C   UNL A   1      44.115  25.141  28.527  1.00  0.00     0.049 A 
ATOM     38  N   UNL A   1      41.924  27.181  28.816  1.00  0.00    -0.248 NA
ATOM     39  C   UNL A   1      40.388  25.528  28.212  1.00  0.00     0.031 C 
ATOM     40  C   UNL A   1      45.215  24.181  28.442  1.00  0.00     0.029 A 
ATOM     41  N   UNL A   1      44.698  26.277  29.027  1.00  0.00    -0.354 N 
ATOM     42  C   UNL A   1      40.640  27.709  28.859  1.00  0.00     0.074 A 
ATOM     43  C   UNL A   1      39.734  26.654  28.456  1.00  0.00     0.031 C 
ATOM     44  C   UNL A   1      46.338  24.765  28.892  1.00  0.00     0.029 A 
ATOM     45  C   UNL A   1      46.047  26.152  29.246  1.00  0.00     0.049 A 
ATOM     46  H   UNL A   1      44.197  27.105  29.212  1.00  0.00     0.167 HD
ATOM     47  C   UNL A   1      40.249  28.960  29.201  1.00  0.00     0.031 A 
ATOM     48  C   UNL A   1      46.951  27.059  29.662  1.00  0.00     0.031 A 
ATOM     49  C   UNL A   1      41.145  30.008  29.612  1.00  0.00     0.049 A 
ATOM     50  C   UNL A   1      46.506  28.466  29.949  1.00  0.00     0.074 A 
ATOM     51  C   UNL A   1      40.847  31.316  29.953  1.00  0.00     0.029 A 
ATOM     52  N   UNL A   1      42.516  29.862  29.744  1.00  0.00    -0.354 N 
ATOM     53  N   UNL A   1      45.298  28.971  29.924  1.00  0.00    -0.248 NA
ATOM     54  C   UNL A   1      47.558  29.431  30.304  1.00  0.00     0.031 C 
ATOM     55  C   UNL A   1      42.045  31.971  30.259  1.00  0.00     0.029 A 
ATOM     56  C   UNL A   1      43.082  31.060  30.145  1.00  0.00     0.049 A 
ATOM     57  H   UNL A   1      43.014  29.030  29.578  1.00  0.00     0.167 HD
ATOM     58  C   UNL A   1      45.440  30.308  30.273  1.00  0.00     0.074 A 
ATOM     59  C   UNL A   1      46.850  30.532  30.518  1.00  0.00     0.031 C 
ATOM     60  C   UNL A   1      44.487  31.265  30.378  1.00  0.00     0.031 A 
BRANCH  47  61
ATOM     61  C   UNL A   1      38.786  29.271  29.088  1.00  0.00    -0.014 A 
ATOM     62  C   UNL A   1      38.226  29.737  27.889  1.00  0.00     0.009 A 
ATOM     63  C   UNL A   1      37.954  29.093  30.205  1.00  0.00     0.009 A 
ATOM     64  C   UNL A   1      36.867  30.050  27.821  1.00  0.00     0.001 A 
ATOM     65  C   UNL A   1      36.592  29.386  30.127  1.00  0.00     0.001 A 
ATOM     66  C   UNL A   1      36.051  29.873  28.939  1.00  0.00     0.000 A 
ENDBRANCH  47  61
BRANCH  48  67
ATOM     67  C   UNL A   1      48.380  26.677  29.794  1.00  0.00    -0.014 A 
ATOM     68  C   UNL A   1      49.268  26.856  28.724  1.00  0.00     0.009 A 
ATOM     69  C   UNL A   1      48.860  26.122  30.991  1.00  0.00     0.009 A 
ATOM     70  C   UNL A   1      50.606  26.473  28.845  1.00  0.00     0.001 A 
ATOM     71  C   UNL A   1      50.203  25.762  31.117  1.00  0.00     0.001 A 
ATOM     72  C   UNL A   1      51.073  25.932  30.042  1.00  0.00     0.000 A 
ENDBRANCH  48  67
BRANCH  60  73
ATOM     73  C   UNL A   1      44.939  32.633  30.794  1.00  0.00    -0.014 A 
ATOM     74  C   UNL A   1      45.024  32.984  32.151  1.00  0.00     0.009 A 
ATOM     75  C   UNL A   1      45.314  33.571  29.820  1.00  0.00     0.009 A 
ATOM     76  C   UNL A   1      45.452  34.260  32.522  1.00  0.00     0.001 A 
ATOM     77  C   UNL A   1      45.759  34.840  30.196  1.00  0.00     0.001 A 
ATOM     78  C   UNL A   1      45.821  35.185  31.546  1.00  0.00     0.000 A 
ENDBRANCH  60  73
ENDBRANCH  34  35
ENDBRANCH  27  29
ENDBRANCH  26  27
ENDBRANCH  25  26
ENDBRANCH   1  25
TORSDOF 14
ENDMDL
