MODEL 1
REMARK VINA RESULT:     -12.3      0.000      0.000
REMARK SMILES CC1(C)Cc2c(-c3ccccc3)c(-c3ccc(Cl)cc3)c(CC(=O)OCCOC(=O)c3ccc(-c4c5nc(c(-c6ccccc6)c6ccc([nH]6)c(-c6ccccc6)c6nc(c(-c7ccccc7)c7ccc4[nH]7)C=C6)C=C5)cc3)n2C1
REMARK SMILES IDX 26 1 25 2 23 3 24 4 22 5 21 6 1 7 2 8 3 9 4 10 80 11 5 12
REMARK SMILES IDX 79 13 6 14 13 15 7 16 8 17 12 18 9 19 11 20 10 21 14 22
REMARK SMILES IDX 15 23 20 24 16 25 19 26 17 27 18 28 27 29 28 30 29 31 30 32
REMARK SMILES IDX 31 33 32 34 78 35 33 36 77 37 34 38 35 39 36 40 71 41 37 42
REMARK SMILES IDX 76 43 70 44 72 45 38 46 75 47 69 48 68 49 39 51 61 52 46 53
REMARK SMILES IDX 60 54 47 55 50 56 59 57 73 58 48 59 49 60 58 62 74 63 51 64
REMARK SMILES IDX 40 65 41 66 45 67 42 68 44 69 43 70 62 71 63 72 67 73 64 74
REMARK SMILES IDX 66 75 65 76 52 77 53 78 57 79 54 80 56 81 55 82
REMARK H PARENT 72 50 50 61
REMARK Flexibility Score: inf
ROOT
ATOM      1  C   UNL A   1      34.243  31.023  27.454  1.00  0.00     0.274 C 
ENDROOT
BRANCH   1   2
ATOM      2  O   UNL A   1      32.870  30.602  27.411  1.00  0.00    -0.462 OA
BRANCH   2   3
ATOM      3  C   UNL A   1      32.639  29.302  27.111  1.00  0.00     0.311 C 
ATOM      4  O   UNL A   1      31.744  28.633  27.620  1.00  0.00    -0.252 OA
BRANCH   3   5
ATOM      5  C   UNL A   1      33.510  28.793  25.981  1.00  0.00     0.177 C 
BRANCH   5   6
ATOM      6  C   UNL A   1      32.904  27.811  25.014  1.00  0.00     0.037 A 
ATOM      7  C   UNL A   1      29.589  29.856  21.924  1.00  0.00     0.013 C 
ATOM      8  C   UNL A   1      30.037  28.829  22.962  1.00  0.00    -0.012 C 
ATOM      9  C   UNL A   1      28.842  28.440  23.853  1.00  0.00     0.013 C 
ATOM     10  C   UNL A   1      30.628  27.558  22.266  1.00  0.00     0.063 C 
ATOM     11  C   UNL A   1      31.199  29.378  23.840  1.00  0.00     0.129 C 
ATOM     12  C   UNL A   1      31.707  27.174  23.196  1.00  0.00     0.027 A 
ATOM     13  N   UNL A   1      32.024  28.194  24.047  1.00  0.00    -0.346 N 
ATOM     14  C   UNL A   1      32.424  26.070  23.558  1.00  0.00     0.011 A 
ATOM     15  C   UNL A   1      33.107  26.445  24.779  1.00  0.00     0.011 A 
BRANCH  14  16
ATOM     16  C   UNL A   1      32.305  24.747  22.963  1.00  0.00    -0.016 A 
ATOM     17  C   UNL A   1      33.278  24.295  22.068  1.00  0.00     0.009 A 
ATOM     18  C   UNL A   1      31.340  23.845  23.436  1.00  0.00     0.009 A 
ATOM     19  C   UNL A   1      33.317  22.947  21.697  1.00  0.00     0.001 A 
ATOM     20  C   UNL A   1      31.401  22.494  23.093  1.00  0.00     0.001 A 
ATOM     21  C   UNL A   1      32.394  22.044  22.228  1.00  0.00     0.000 A 
ENDBRANCH  14  16
BRANCH  15  22
ATOM     22  C   UNL A   1      33.514  25.455  25.764  1.00  0.00    -0.016 A 
ATOM     23  C   UNL A   1      34.728  24.765  25.661  1.00  0.00     0.010 A 
ATOM     24  C   UNL A   1      32.463  24.879  26.484  1.00  0.00     0.010 A 
ATOM     25  C   UNL A   1      34.840  23.477  26.215  1.00  0.00     0.021 A 
ATOM     26  C   UNL A   1      32.588  23.636  27.076  1.00  0.00     0.021 A 
ATOM     27  C   UNL A   1      33.751  22.915  26.891  1.00  0.00     0.041 A 
ATOM     28  Cl  UNL A   1      33.671  21.269  27.377  1.00  0.00    -0.084 Cl
ENDBRANCH  15  22
ENDBRANCH   5   6
ENDBRANCH   3   5
ENDBRANCH   2   3
ENDBRANCH   1   2
BRANCH   1  29
ATOM     29  C   UNL A   1      34.455  31.919  28.674  1.00  0.00     0.275 C 
BRANCH  29  30
ATOM     30  O   UNL A   1      35.582  31.631  29.529  1.00  0.00    -0.458 OA
BRANCH  30  31
ATOM     31  C   UNL A   1      36.811  32.070  29.173  1.00  0.00     0.338 C 
ATOM     32  O   UNL A   1      37.094  33.201  28.807  1.00  0.00    -0.246 OA
BRANCH  31  33
ATOM     33  C   UNL A   1      37.798  30.968  29.276  1.00  0.00     0.060 A 
ATOM     34  C   UNL A   1      39.135  31.288  29.541  1.00  0.00     0.016 A 
ATOM     35  C   UNL A   1      37.431  29.636  29.045  1.00  0.00     0.016 A 
ATOM     36  C   UNL A   1      40.107  30.290  29.503  1.00  0.00     0.010 A 
ATOM     37  C   UNL A   1      38.401  28.642  29.001  1.00  0.00     0.010 A 
ATOM     38  C   UNL A   1      39.746  28.970  29.196  1.00  0.00    -0.014 A 
BRANCH  38  39
ATOM     39  C   UNL A   1      40.745  27.904  29.339  1.00  0.00     0.031 A 
ATOM     40  C   UNL A   1      41.435  27.915  30.642  1.00  0.00     0.074 A 
ATOM     41  C   UNL A   1      40.930  26.875  28.487  1.00  0.00     0.049 A 
ATOM     42  N   UNL A   1      42.708  28.003  30.831  1.00  0.00    -0.248 NA
ATOM     43  C   UNL A   1      40.624  27.967  31.866  1.00  0.00     0.031 C 
ATOM     44  C   UNL A   1      40.253  26.702  27.219  1.00  0.00     0.029 A 
ATOM     45  N   UNL A   1      41.653  25.719  28.593  1.00  0.00    -0.354 N 
ATOM     46  C   UNL A   1      42.876  27.899  32.201  1.00  0.00     0.074 A 
ATOM     47  C   UNL A   1      41.574  28.075  32.794  1.00  0.00     0.031 C 
ATOM     48  C   UNL A   1      40.353  25.433  26.789  1.00  0.00     0.029 A 
ATOM     49  C   UNL A   1      41.241  24.733  27.694  1.00  0.00     0.049 A 
ATOM     50  H   UNL A   1      42.388  25.594  29.236  1.00  0.00     0.167 HD
ATOM     51  C   UNL A   1      44.004  27.343  32.714  1.00  0.00     0.031 A 
ATOM     52  C   UNL A   1      41.591  23.427  27.646  1.00  0.00     0.031 A 
ATOM     53  C   UNL A   1      45.081  27.315  31.757  1.00  0.00     0.049 A 
ATOM     54  C   UNL A   1      42.910  23.306  28.286  1.00  0.00     0.074 A 
ATOM     55  C   UNL A   1      45.818  28.259  31.074  1.00  0.00     0.029 A 
ATOM     56  N   UNL A   1      45.282  26.115  31.122  1.00  0.00    -0.354 N 
ATOM     57  N   UNL A   1      43.994  23.800  27.762  1.00  0.00    -0.248 NA
ATOM     58  C   UNL A   1      43.000  22.967  29.699  1.00  0.00     0.031 C 
ATOM     59  C   UNL A   1      46.203  27.640  29.849  1.00  0.00     0.029 A 
ATOM     60  C   UNL A   1      45.710  26.334  29.839  1.00  0.00     0.049 A 
ATOM     61  H   UNL A   1      45.139  25.230  31.527  1.00  0.00     0.167 HD
ATOM     62  C   UNL A   1      44.706  24.278  28.848  1.00  0.00     0.074 A 
ATOM     63  C   UNL A   1      44.154  23.572  29.998  1.00  0.00     0.031 C 
ATOM     64  C   UNL A   1      45.444  25.421  28.746  1.00  0.00     0.031 A 
BRANCH  51  65
ATOM     65  C   UNL A   1      43.954  26.392  33.884  1.00  0.00    -0.014 A 
ATOM     66  C   UNL A   1      43.466  25.093  33.677  1.00  0.00     0.009 A 
ATOM     67  C   UNL A   1      44.088  26.815  35.223  1.00  0.00     0.009 A 
ATOM     68  C   UNL A   1      43.088  24.282  34.754  1.00  0.00     0.001 A 
ATOM     69  C   UNL A   1      43.756  25.993  36.300  1.00  0.00     0.001 A 
ATOM     70  C   UNL A   1      43.232  24.733  36.064  1.00  0.00     0.000 A 
ENDBRANCH  51  65
BRANCH  52  71
ATOM     71  C   UNL A   1      40.800  22.275  27.160  1.00  0.00    -0.014 A 
ATOM     72  C   UNL A   1      39.572  22.451  26.507  1.00  0.00     0.009 A 
ATOM     73  C   UNL A   1      41.380  20.991  27.127  1.00  0.00     0.009 A 
ATOM     74  C   UNL A   1      38.969  21.392  25.810  1.00  0.00     0.001 A 
ATOM     75  C   UNL A   1      40.778  19.936  26.435  1.00  0.00     0.001 A 
ATOM     76  C   UNL A   1      39.579  20.141  25.762  1.00  0.00     0.000 A 
ENDBRANCH  52  71
BRANCH  64  77
ATOM     77  C   UNL A   1      45.794  25.898  27.358  1.00  0.00    -0.014 A 
ATOM     78  C   UNL A   1      44.959  26.739  26.601  1.00  0.00     0.009 A 
ATOM     79  C   UNL A   1      47.063  25.584  26.849  1.00  0.00     0.009 A 
ATOM     80  C   UNL A   1      45.375  27.228  25.358  1.00  0.00     0.001 A 
ATOM     81  C   UNL A   1      47.486  26.089  25.618  1.00  0.00     0.001 A 
ATOM     82  C   UNL A   1      46.641  26.907  24.870  1.00  0.00     0.000 A 
ENDBRANCH  64  77
ENDBRANCH  38  39
ENDBRANCH  31  33
ENDBRANCH  30  31
ENDBRANCH  29  30
ENDBRANCH   1  29
TORSDOF 14
ENDMDL
MODEL 2
REMARK VINA RESULT:     -12.3      1.815      2.585
REMARK SMILES CC1(C)Cc2c(-c3ccccc3)c(-c3ccc(Cl)cc3)c(CC(=O)OCCOC(=O)c3ccc(-c4c5nc(c(-c6ccccc6)c6ccc([nH]6)c(-c6ccccc6)c6nc(c(-c7ccccc7)c7ccc4[nH]7)C=C6)C=C5)cc3)n2C1
REMARK SMILES IDX 26 1 25 2 23 3 24 4 22 5 21 6 1 7 2 8 3 9 4 10 80 11 5 12
REMARK SMILES IDX 79 13 6 14 13 15 7 16 8 17 12 18 9 19 11 20 10 21 14 22
REMARK SMILES IDX 15 23 20 24 16 25 19 26 17 27 18 28 27 29 28 30 29 31 30 32
REMARK SMILES IDX 31 33 32 34 78 35 33 36 77 37 34 38 35 39 36 40 71 41 37 42
REMARK SMILES IDX 76 43 70 44 72 45 38 46 75 47 69 48 68 49 39 51 61 52 46 53
REMARK SMILES IDX 60 54 47 55 50 56 59 57 73 58 48 59 49 60 58 62 74 63 51 64
REMARK SMILES IDX 40 65 41 66 45 67 42 68 44 69 43 70 62 71 63 72 67 73 64 74
REMARK SMILES IDX 66 75 65 76 52 77 53 78 57 79 54 80 56 81 55 82
REMARK H PARENT 72 50 50 61
REMARK Flexibility Score: inf
ROOT
ATOM      1  C   UNL A   1      33.507  28.501  25.836  1.00  0.00     0.274 C 
ENDROOT
BRANCH   1   2
ATOM      2  O   UNL A   1      34.379  28.258  24.720  1.00  0.00    -0.462 OA
BRANCH   2   3
ATOM      3  C   UNL A   1      33.829  28.345  23.486  1.00  0.00     0.311 C 
ATOM      4  O   UNL A   1      33.345  29.375  23.026  1.00  0.00    -0.252 OA
BRANCH   3   5
ATOM      5  C   UNL A   1      33.997  27.076  22.674  1.00  0.00     0.177 C 
BRANCH   5   6
ATOM      6  C   UNL A   1      33.332  25.824  23.182  1.00  0.00     0.037 A 
ATOM      7  C   UNL A   1      28.496  26.409  24.174  1.00  0.00     0.013 C 
ATOM      8  C   UNL A   1      29.925  26.008  24.533  1.00  0.00    -0.012 C 
ATOM      9  C   UNL A   1      30.180  26.282  26.027  1.00  0.00     0.013 C 
ATOM     10  C   UNL A   1      30.174  24.496  24.210  1.00  0.00     0.063 C 
ATOM     11  C   UNL A   1      30.965  26.775  23.665  1.00  0.00     0.129 C 
ATOM     12  C   UNL A   1      31.579  24.507  23.760  1.00  0.00     0.027 A 
ATOM     13  N   UNL A   1      31.997  25.769  23.446  1.00  0.00    -0.346 N 
ATOM     14  C   UNL A   1      32.647  23.661  23.664  1.00  0.00     0.011 A 
ATOM     15  C   UNL A   1      33.785  24.516  23.397  1.00  0.00     0.011 A 
BRANCH  14  16
ATOM     16  C   UNL A   1      32.644  22.247  24.009  1.00  0.00    -0.016 A 
ATOM     17  C   UNL A   1      32.311  21.295  23.042  1.00  0.00     0.009 A 
ATOM     18  C   UNL A   1      33.170  21.820  25.236  1.00  0.00     0.009 A 
ATOM     19  C   UNL A   1      32.556  19.939  23.281  1.00  0.00     0.001 A 
ATOM     20  C   UNL A   1      33.447  20.471  25.461  1.00  0.00     0.001 A 
ATOM     21  C   UNL A   1      33.145  19.531  24.480  1.00  0.00     0.000 A 
ENDBRANCH  14  16
BRANCH  15  22
ATOM     22  C   UNL A   1      35.138  24.125  23.758  1.00  0.00    -0.016 A 
ATOM     23  C   UNL A   1      35.844  23.153  23.038  1.00  0.00     0.010 A 
ATOM     24  C   UNL A   1      35.482  24.365  25.093  1.00  0.00     0.010 A 
ATOM     25  C   UNL A   1      36.827  22.387  23.690  1.00  0.00     0.021 A 
ATOM     26  C   UNL A   1      36.484  23.650  25.720  1.00  0.00     0.021 A 
ATOM     27  C   UNL A   1      37.112  22.627  25.039  1.00  0.00     0.041 A 
ATOM     28  Cl  UNL A   1      38.089  21.599  26.009  1.00  0.00    -0.084 Cl
ENDBRANCH  15  22
ENDBRANCH   5   6
ENDBRANCH   3   5
ENDBRANCH   2   3
ENDBRANCH   1   2
BRANCH   1  29
ATOM     29  C   UNL A   1      33.706  29.936  26.325  1.00  0.00     0.275 C 
BRANCH  29  30
ATOM     30  O   UNL A   1      34.281  30.123  27.636  1.00  0.00    -0.458 OA
BRANCH  30  31
ATOM     31  C   UNL A   1      35.328  30.964  27.785  1.00  0.00     0.338 C 
ATOM     32  O   UNL A   1      35.313  32.172  27.606  1.00  0.00    -0.246 OA
BRANCH  31  33
ATOM     33  C   UNL A   1      36.537  30.210  28.196  1.00  0.00     0.060 A 
ATOM     34  C   UNL A   1      37.644  30.197  27.339  1.00  0.00     0.016 A 
ATOM     35  C   UNL A   1      36.563  29.463  29.381  1.00  0.00     0.016 A 
ATOM     36  C   UNL A   1      38.737  29.384  27.631  1.00  0.00     0.010 A 
ATOM     37  C   UNL A   1      37.651  28.648  29.669  1.00  0.00     0.010 A 
ATOM     38  C   UNL A   1      38.727  28.579  28.779  1.00  0.00    -0.014 A 
BRANCH  38  39
ATOM     39  C   UNL A   1      39.954  27.873  29.168  1.00  0.00     0.031 A 
ATOM     40  C   UNL A   1      40.331  28.083  30.577  1.00  0.00     0.074 A 
ATOM     41  C   UNL A   1      40.610  26.961  28.423  1.00  0.00     0.049 A 
ATOM     42  N   UNL A   1      41.452  28.558  31.005  1.00  0.00    -0.248 NA
ATOM     43  C   UNL A   1      39.315  27.868  31.617  1.00  0.00     0.031 C 
ATOM     44  C   UNL A   1      40.286  26.600  27.059  1.00  0.00     0.029 A 
ATOM     45  N   UNL A   1      41.615  26.083  28.727  1.00  0.00    -0.354 N 
ATOM     46  C   UNL A   1      41.367  28.497  32.385  1.00  0.00     0.074 A 
ATOM     47  C   UNL A   1      39.981  28.255  32.704  1.00  0.00     0.031 C 
ATOM     48  C   UNL A   1      40.853  25.429  26.722  1.00  0.00     0.029 A 
ATOM     49  C   UNL A   1      41.712  25.028  27.817  1.00  0.00     0.049 A 
ATOM     50  H   UNL A   1      42.209  26.185  29.505  1.00  0.00     0.167 HD
ATOM     51  C   UNL A   1      42.483  28.311  33.134  1.00  0.00     0.031 A 
ATOM     52  C   UNL A   1      42.445  23.895  27.906  1.00  0.00     0.031 A 
ATOM     53  C   UNL A   1      43.686  28.628  32.407  1.00  0.00     0.049 A 
ATOM     54  C   UNL A   1      43.582  24.181  28.795  1.00  0.00     0.074 A 
ATOM     55  C   UNL A   1      44.221  29.760  31.832  1.00  0.00     0.029 A 
ATOM     56  N   UNL A   1      44.366  27.555  31.886  1.00  0.00    -0.354 N 
ATOM     57  N   UNL A   1      44.546  24.992  28.465  1.00  0.00    -0.248 NA
ATOM     58  C   UNL A   1      43.487  23.871  30.214  1.00  0.00     0.031 C 
ATOM     59  C   UNL A   1      45.013  29.304  30.738  1.00  0.00     0.029 A 
ATOM     60  C   UNL A   1      44.955  27.910  30.701  1.00  0.00     0.049 A 
ATOM     61  H   UNL A   1      44.422  26.665  32.301  1.00  0.00     0.167 HD
ATOM     62  C   UNL A   1      44.845  25.655  29.642  1.00  0.00     0.074 A 
ATOM     63  C   UNL A   1      44.317  24.800  30.699  1.00  0.00     0.031 C 
ATOM     64  C   UNL A   1      45.205  26.971  29.626  1.00  0.00     0.031 A 
BRANCH  51  65
ATOM     65  C   UNL A   1      42.492  27.379  34.320  1.00  0.00    -0.014 A 
ATOM     66  C   UNL A   1      42.835  26.034  34.119  1.00  0.00     0.009 A 
ATOM     67  C   UNL A   1      41.898  27.705  35.557  1.00  0.00     0.009 A 
ATOM     68  C   UNL A   1      42.551  25.062  35.086  1.00  0.00     0.001 A 
ATOM     69  C   UNL A   1      41.655  26.747  36.542  1.00  0.00     0.001 A 
ATOM     70  C   UNL A   1      41.959  25.418  36.295  1.00  0.00     0.000 A 
ENDBRANCH  51  65
BRANCH  52  71
ATOM     71  C   UNL A   1      42.157  22.560  27.337  1.00  0.00    -0.014 A 
ATOM     72  C   UNL A   1      42.939  22.017  26.307  1.00  0.00     0.009 A 
ATOM     73  C   UNL A   1      41.242  21.706  27.983  1.00  0.00     0.009 A 
ATOM     74  C   UNL A   1      42.838  20.659  25.966  1.00  0.00     0.001 A 
ATOM     75  C   UNL A   1      41.140  20.353  27.642  1.00  0.00     0.001 A 
ATOM     76  C   UNL A   1      41.951  19.826  26.644  1.00  0.00     0.000 A 
ENDBRANCH  52  71
BRANCH  64  77
ATOM     77  C   UNL A   1      45.663  27.548  28.309  1.00  0.00    -0.014 A 
ATOM     78  C   UNL A   1      46.998  27.503  27.872  1.00  0.00     0.009 A 
ATOM     79  C   UNL A   1      44.689  28.046  27.430  1.00  0.00     0.009 A 
ATOM     80  C   UNL A   1      47.350  27.968  26.600  1.00  0.00     0.001 A 
ATOM     81  C   UNL A   1      45.038  28.492  26.154  1.00  0.00     0.001 A 
ATOM     82  C   UNL A   1      46.368  28.458  25.740  1.00  0.00     0.000 A 
ENDBRANCH  64  77
ENDBRANCH  38  39
ENDBRANCH  31  33
ENDBRANCH  30  31
ENDBRANCH  29  30
ENDBRANCH   1  29
TORSDOF 14
ENDMDL
MODEL 3
REMARK VINA RESULT:     -12.3      2.489      3.751
REMARK SMILES CC1(C)Cc2c(-c3ccccc3)c(-c3ccc(Cl)cc3)c(CC(=O)OCCOC(=O)c3ccc(-c4c5nc(c(-c6ccccc6)c6ccc([nH]6)c(-c6ccccc6)c6nc(c(-c7ccccc7)c7ccc4[nH]7)C=C6)C=C5)cc3)n2C1
REMARK SMILES IDX 26 1 25 2 23 3 24 4 22 5 21 6 1 7 2 8 3 9 4 10 80 11 5 12
REMARK SMILES IDX 79 13 6 14 13 15 7 16 8 17 12 18 9 19 11 20 10 21 14 22
REMARK SMILES IDX 15 23 20 24 16 25 19 26 17 27 18 28 27 29 28 30 29 31 30 32
REMARK SMILES IDX 31 33 32 34 78 35 33 36 77 37 34 38 35 39 36 40 71 41 37 42
REMARK SMILES IDX 76 43 70 44 72 45 38 46 75 47 69 48 68 49 39 51 61 52 46 53
REMARK SMILES IDX 60 54 47 55 50 56 59 57 73 58 48 59 49 60 58 62 74 63 51 64
REMARK SMILES IDX 40 65 41 66 45 67 42 68 44 69 43 70 62 71 63 72 67 73 64 74
REMARK SMILES IDX 66 75 65 76 52 77 53 78 57 79 54 80 56 81 55 82
REMARK H PARENT 72 50 50 61
REMARK Flexibility Score: inf
ROOT
ATOM      1  C   UNL A   1      33.185  28.405  25.438  1.00  0.00     0.274 C 
ENDROOT
BRANCH   1   2
ATOM      2  O   UNL A   1      34.170  28.204  24.413  1.00  0.00    -0.462 OA
BRANCH   2   3
ATOM      3  C   UNL A   1      33.735  28.244  23.131  1.00  0.00     0.311 C 
ATOM      4  O   UNL A   1      33.346  29.268  22.575  1.00  0.00    -0.252 OA
BRANCH   3   5
ATOM      5  C   UNL A   1      33.905  26.924  22.407  1.00  0.00     0.177 C 
BRANCH   5   6
ATOM      6  C   UNL A   1      33.273  25.701  23.019  1.00  0.00     0.037 A 
ATOM      7  C   UNL A   1      28.453  26.283  24.088  1.00  0.00     0.013 C 
ATOM      8  C   UNL A   1      29.898  25.930  24.439  1.00  0.00    -0.012 C 
ATOM      9  C   UNL A   1      30.183  26.313  25.903  1.00  0.00     0.013 C 
ATOM     10  C   UNL A   1      30.164  24.403  24.218  1.00  0.00     0.063 C 
ATOM     11  C   UNL A   1      30.903  26.649  23.494  1.00  0.00     0.129 C 
ATOM     12  C   UNL A   1      31.557  24.403  23.733  1.00  0.00     0.027 A 
ATOM     13  N   UNL A   1      31.946  25.645  23.320  1.00  0.00    -0.346 N 
ATOM     14  C   UNL A   1      32.636  23.568  23.669  1.00  0.00     0.011 A 
ATOM     15  C   UNL A   1      33.753  24.418  23.315  1.00  0.00     0.011 A 
BRANCH  14  16
ATOM     16  C   UNL A   1      32.665  22.182  24.114  1.00  0.00    -0.016 A 
ATOM     17  C   UNL A   1      32.349  21.157  23.218  1.00  0.00     0.009 A 
ATOM     18  C   UNL A   1      33.205  21.854  25.365  1.00  0.00     0.009 A 
ATOM     19  C   UNL A   1      32.624  19.827  23.552  1.00  0.00     0.001 A 
ATOM     20  C   UNL A   1      33.512  20.530  25.683  1.00  0.00     0.001 A 
ATOM     21  C   UNL A   1      33.226  19.517  24.773  1.00  0.00     0.000 A 
ENDBRANCH  14  16
BRANCH  15  22
ATOM     22  C   UNL A   1      35.121  24.074  23.668  1.00  0.00    -0.016 A 
ATOM     23  C   UNL A   1      35.823  23.061  23.005  1.00  0.00     0.010 A 
ATOM     24  C   UNL A   1      35.494  24.419  24.971  1.00  0.00     0.010 A 
ATOM     25  C   UNL A   1      36.834  22.360  23.687  1.00  0.00     0.021 A 
ATOM     26  C   UNL A   1      36.523  23.768  25.625  1.00  0.00     0.021 A 
ATOM     27  C   UNL A   1      37.150  22.705  25.006  1.00  0.00     0.041 A 
ATOM     28  Cl  UNL A   1      38.167  21.767  26.025  1.00  0.00    -0.084 Cl
ENDBRANCH  15  22
ENDBRANCH   5   6
ENDBRANCH   3   5
ENDBRANCH   2   3
ENDBRANCH   1   2
BRANCH   1  29
ATOM     29  C   UNL A   1      33.230  29.862  25.899  1.00  0.00     0.275 C 
BRANCH  29  30
ATOM     30  O   UNL A   1      33.463  30.114  27.301  1.00  0.00    -0.458 OA
BRANCH  30  31
ATOM     31  C   UNL A   1      34.202  31.185  27.667  1.00  0.00     0.338 C 
ATOM     32  O   UNL A   1      33.817  32.343  27.714  1.00  0.00    -0.246 OA
BRANCH  31  33
ATOM     33  C   UNL A   1      35.584  30.764  28.002  1.00  0.00     0.060 A 
ATOM     34  C   UNL A   1      35.892  29.399  27.988  1.00  0.00     0.016 A 
ATOM     35  C   UNL A   1      36.554  31.695  28.397  1.00  0.00     0.016 A 
ATOM     36  C   UNL A   1      37.139  28.965  28.435  1.00  0.00     0.010 A 
ATOM     37  C   UNL A   1      37.795  31.261  28.848  1.00  0.00     0.010 A 
ATOM     38  C   UNL A   1      38.080  29.894  28.901  1.00  0.00    -0.014 A 
BRANCH  38  39
ATOM     39  C   UNL A   1      39.446  29.443  29.194  1.00  0.00     0.031 A 
ATOM     40  C   UNL A   1      39.749  29.381  30.635  1.00  0.00     0.074 A 
ATOM     41  C   UNL A   1      40.321  28.941  28.298  1.00  0.00     0.049 A 
ATOM     42  N   UNL A   1      40.705  29.999  31.241  1.00  0.00    -0.248 NA
ATOM     43  C   UNL A   1      38.818  28.666  31.519  1.00  0.00     0.031 C 
ATOM     44  C   UNL A   1      40.109  28.864  26.869  1.00  0.00     0.029 A 
ATOM     45  N   UNL A   1      41.517  28.296  28.452  1.00  0.00    -0.354 N 
ATOM     46  C   UNL A   1      40.632  29.574  32.557  1.00  0.00     0.074 A 
ATOM     47  C   UNL A   1      39.355  28.922  32.711  1.00  0.00     0.031 C 
ATOM     48  C   UNL A   1      40.962  27.995  26.301  1.00  0.00     0.029 A 
ATOM     49  C   UNL A   1      41.890  27.562  27.325  1.00  0.00     0.049 A 
ATOM     50  H   UNL A   1      42.060  28.345  29.272  1.00  0.00     0.167 HD
ATOM     51  C   UNL A   1      41.754  29.493  33.316  1.00  0.00     0.031 A 
ATOM     52  C   UNL A   1      42.892  26.663  27.189  1.00  0.00     0.031 A 
ATOM     53  C   UNL A   1      42.837  30.272  32.772  1.00  0.00     0.049 A 
ATOM     54  C   UNL A   1      43.911  26.993  28.198  1.00  0.00     0.074 A 
ATOM     55  C   UNL A   1      43.062  31.609  32.525  1.00  0.00     0.029 A 
ATOM     56  N   UNL A   1      43.775  29.570  32.057  1.00  0.00    -0.354 N 
ATOM     57  N   UNL A   1      44.633  28.075  28.141  1.00  0.00    -0.248 NA
ATOM     58  C   UNL A   1      43.892  26.324  29.491  1.00  0.00     0.031 C 
ATOM     59  C   UNL A   1      43.951  31.655  31.412  1.00  0.00     0.029 A 
ATOM     60  C   UNL A   1      44.257  30.346  31.036  1.00  0.00     0.049 A 
ATOM     61  H   UNL A   1      44.059  28.648  32.249  1.00  0.00     0.167 HD
ATOM     62  C   UNL A   1      44.743  28.475  29.461  1.00  0.00     0.074 A 
ATOM     63  C   UNL A   1      44.450  27.279  30.242  1.00  0.00     0.031 C 
ATOM     64  C   UNL A   1      44.749  29.800  29.787  1.00  0.00     0.031 A 
BRANCH  51  65
ATOM     65  C   UNL A   1      41.999  28.327  34.240  1.00  0.00    -0.014 A 
ATOM     66  C   UNL A   1      42.013  28.555  35.625  1.00  0.00     0.009 A 
ATOM     67  C   UNL A   1      42.504  27.087  33.796  1.00  0.00     0.009 A 
ATOM     68  C   UNL A   1      42.550  27.610  36.508  1.00  0.00     0.001 A 
ATOM     69  C   UNL A   1      42.997  26.124  34.677  1.00  0.00     0.001 A 
ATOM     70  C   UNL A   1      43.043  26.397  36.034  1.00  0.00     0.000 A 
ENDBRANCH  51  65
BRANCH  52  71
ATOM     71  C   UNL A   1      42.964  25.486  26.297  1.00  0.00    -0.014 A 
ATOM     72  C   UNL A   1      44.011  25.324  25.377  1.00  0.00     0.009 A 
ATOM     73  C   UNL A   1      42.116  24.383  26.521  1.00  0.00     0.009 A 
ATOM     74  C   UNL A   1      44.224  24.092  24.739  1.00  0.00     0.001 A 
ATOM     75  C   UNL A   1      42.327  23.156  25.884  1.00  0.00     0.001 A 
ATOM     76  C   UNL A   1      43.393  23.006  25.005  1.00  0.00     0.000 A 
ENDBRANCH  52  71
BRANCH  64  77
ATOM     77  C   UNL A   1      45.047  30.784  28.683  1.00  0.00    -0.014 A 
ATOM     78  C   UNL A   1      46.347  31.224  28.375  1.00  0.00     0.009 A 
ATOM     79  C   UNL A   1      43.992  31.186  27.851  1.00  0.00     0.009 A 
ATOM     80  C   UNL A   1      46.576  32.063  27.280  1.00  0.00     0.001 A 
ATOM     81  C   UNL A   1      44.225  32.008  26.746  1.00  0.00     0.001 A 
ATOM     82  C   UNL A   1      45.515  32.451  26.463  1.00  0.00     0.000 A 
ENDBRANCH  64  77
ENDBRANCH  38  39
ENDBRANCH  31  33
ENDBRANCH  30  31
ENDBRANCH  29  30
ENDBRANCH   1  29
TORSDOF 14
ENDMDL
