MODEL 1
REMARK VINA RESULT:      -9.5      0.000      0.000
REMARK SMILES COc1ccc([C@H](C)NC(=O)c2cnn(C)c2C(=O)OCCOC(=O)c2ccc(-c3c4nc(c(-c5ccccc5)c5ccc([nH]5)c(-c5ccccc5)c5nc(c(-c6ccccc6)c6ccc3[nH]6)C=C5)C=C4)cc2)cc1
REMARK SMILES IDX 21 1 20 2 18 3 19 4 17 5 12 6 13 7 14 8 15 9 16 10 10 11
REMARK SMILES IDX 9 12 11 14 7 15 8 16 6 17 3 18 4 19 75 20 5 21 74 22 2 23
REMARK SMILES IDX 1 24 22 25 23 26 24 27 25 28 26 29 27 30 73 31 28 32 72 33
REMARK SMILES IDX 29 34 30 35 31 36 66 37 32 38 71 39 65 40 67 41 33 42 70 43
REMARK SMILES IDX 64 44 63 45 34 47 56 48 41 49 55 50 42 51 45 52 54 53 68 54
REMARK SMILES IDX 43 55 44 56 53 58 69 59 46 60 35 61 36 62 40 63 37 64 39 65
REMARK SMILES IDX 38 66 57 67 58 68 62 69 59 70 61 71 60 72 47 73 48 74 52 75
REMARK SMILES IDX 49 76 51 77 50 78
REMARK H PARENT 9 13 67 46 45 57
REMARK Flexibility Score: inf
ROOT
ATOM      1  C   UNL A   1      41.328  20.151  26.242  1.00  0.00     0.275 C 
ENDROOT
BRANCH   1   2
ATOM      2  O   UNL A   1      42.768  20.183  26.438  1.00  0.00    -0.457 OA
BRANCH   2   3
ATOM      3  C   UNL A   1      43.493  19.439  25.543  1.00  0.00     0.357 C 
ATOM      4  O   UNL A   1      43.138  18.349  25.116  1.00  0.00    -0.244 OA
BRANCH   3   5
ATOM      5  C   UNL A   1      44.760  20.065  25.220  1.00  0.00     0.159 A 
ATOM      6  C   UNL A   1      45.128  21.232  24.514  1.00  0.00     0.092 A 
ATOM      7  C   UNL A   1      46.336  20.796  23.884  1.00  0.00     0.150 A 
ATOM      8  N   UNL A   1      46.829  19.662  24.379  1.00  0.00    -0.180 NA
ATOM      9  N   UNL A   1      45.906  19.305  25.280  1.00  0.00    -0.261 N 
ATOM     10  C   UNL A   1      46.125  18.117  26.073  1.00  0.00     0.174 C 
BRANCH   6  11
ATOM     11  C   UNL A   1      44.431  22.429  24.010  1.00  0.00     0.255 C 
ATOM     12  N   UNL A   1      44.086  23.575  24.711  1.00  0.00    -0.345 N 
ATOM     13  H   UNL A   1      43.172  23.884  24.513  1.00  0.00     0.164 HD
ATOM     14  O   UNL A   1      44.164  22.479  22.803  1.00  0.00    -0.269 OA
BRANCH  12  15
ATOM     15  C   UNL A   1      44.783  24.434  25.692  1.00  0.00     0.109 C 
ATOM     16  C   UNL A   1      44.321  25.867  25.395  1.00  0.00     0.036 C 
BRANCH  15  17
ATOM     17  C   UNL A   1      44.475  24.050  27.167  1.00  0.00    -0.026 A 
ATOM     18  C   UNL A   1      44.151  23.439  29.971  1.00  0.00     0.118 A 
ATOM     19  C   UNL A   1      43.126  23.211  29.050  1.00  0.00     0.047 A 
ATOM     20  C   UNL A   1      45.322  23.995  29.498  1.00  0.00     0.047 A 
ATOM     21  C   UNL A   1      43.289  23.497  27.669  1.00  0.00     0.009 A 
ATOM     22  C   UNL A   1      45.429  24.339  28.140  1.00  0.00     0.009 A 
BRANCH  18  23
ATOM     23  O   UNL A   1      43.894  23.114  31.275  1.00  0.00    -0.497 OA
ATOM     24  C   UNL A   1      44.452  23.964  32.279  1.00  0.00     0.278 C 
ENDBRANCH  18  23
ENDBRANCH  15  17
ENDBRANCH  12  15
ENDBRANCH   6  11
ENDBRANCH   3   5
ENDBRANCH   2   3
ENDBRANCH   1   2
BRANCH   1  25
ATOM     25  C   UNL A   1      40.611  21.475  26.609  1.00  0.00     0.275 C 
BRANCH  25  26
ATOM     26  O   UNL A   1      39.340  21.784  25.950  1.00  0.00    -0.458 OA
BRANCH  26  27
ATOM     27  C   UNL A   1      38.906  23.033  26.176  1.00  0.00     0.338 C 
ATOM     28  O   UNL A   1      37.864  23.463  25.691  1.00  0.00    -0.246 OA
BRANCH  27  29
ATOM     29  C   UNL A   1      39.662  24.064  26.880  1.00  0.00     0.060 A 
ATOM     30  C   UNL A   1      39.205  24.387  28.167  1.00  0.00     0.016 A 
ATOM     31  C   UNL A   1      40.289  25.051  26.106  1.00  0.00     0.016 A 
ATOM     32  C   UNL A   1      39.372  25.684  28.672  1.00  0.00     0.010 A 
ATOM     33  C   UNL A   1      40.459  26.347  26.613  1.00  0.00     0.010 A 
ATOM     34  C   UNL A   1      40.012  26.677  27.905  1.00  0.00    -0.014 A 
BRANCH  34  35
ATOM     35  C   UNL A   1      40.579  27.866  28.589  1.00  0.00     0.031 A 
ATOM     36  C   UNL A   1      41.959  27.983  29.174  1.00  0.00     0.074 A 
ATOM     37  C   UNL A   1      39.689  28.865  28.746  1.00  0.00     0.049 A 
ATOM     38  N   UNL A   1      42.486  29.005  29.810  1.00  0.00    -0.248 NA
ATOM     39  C   UNL A   1      42.853  26.822  29.070  1.00  0.00     0.031 C 
ATOM     40  C   UNL A   1      38.300  28.812  28.270  1.00  0.00     0.029 A 
ATOM     41  N   UNL A   1      39.791  30.089  29.341  1.00  0.00    -0.354 N 
ATOM     42  C   UNL A   1      43.763  28.611  30.201  1.00  0.00     0.074 A 
ATOM     43  C   UNL A   1      43.925  27.245  29.738  1.00  0.00     0.031 C 
ATOM     44  C   UNL A   1      37.688  29.956  28.572  1.00  0.00     0.029 A 
ATOM     45  C   UNL A   1      38.623  30.806  29.291  1.00  0.00     0.049 A 
ATOM     46  H   UNL A   1      40.616  30.422  29.763  1.00  0.00     0.167 HD
ATOM     47  C   UNL A   1      44.694  29.329  30.885  1.00  0.00     0.031 A 
ATOM     48  C   UNL A   1      38.315  32.021  29.767  1.00  0.00     0.031 A 
ATOM     49  C   UNL A   1      44.499  30.692  31.337  1.00  0.00     0.049 A 
ATOM     50  C   UNL A   1      39.378  32.808  30.448  1.00  0.00     0.074 A 
ATOM     51  C   UNL A   1      45.408  31.539  31.954  1.00  0.00     0.029 A 
ATOM     52  N   UNL A   1      43.312  31.405  31.231  1.00  0.00    -0.354 N 
ATOM     53  N   UNL A   1      40.605  32.449  30.732  1.00  0.00    -0.248 NA
ATOM     54  C   UNL A   1      39.023  34.170  30.852  1.00  0.00     0.031 C 
ATOM     55  C   UNL A   1      44.754  32.736  32.276  1.00  0.00     0.029 A 
ATOM     56  C   UNL A   1      43.456  32.664  31.801  1.00  0.00     0.049 A 
ATOM     57  H   UNL A   1      42.487  31.067  30.814  1.00  0.00     0.167 HD
ATOM     58  C   UNL A   1      41.179  33.547  31.348  1.00  0.00     0.074 A 
ATOM     59  C   UNL A   1      40.171  34.590  31.366  1.00  0.00     0.031 C 
ATOM     60  C   UNL A   1      42.429  33.675  31.855  1.00  0.00     0.031 A 
BRANCH  47  61
ATOM     61  C   UNL A   1      46.019  28.677  31.220  1.00  0.00    -0.014 A 
ATOM     62  C   UNL A   1      46.194  27.916  32.387  1.00  0.00     0.009 A 
ATOM     63  C   UNL A   1      47.075  28.719  30.290  1.00  0.00     0.009 A 
ATOM     64  C   UNL A   1      47.394  27.235  32.625  1.00  0.00     0.001 A 
ATOM     65  C   UNL A   1      48.264  28.017  30.516  1.00  0.00     0.001 A 
ATOM     66  C   UNL A   1      48.425  27.281  31.687  1.00  0.00     0.000 A 
ENDBRANCH  47  61
BRANCH  48  67
ATOM     67  C   UNL A   1      36.949  32.539  29.525  1.00  0.00    -0.014 A 
ATOM     68  C   UNL A   1      36.630  33.117  28.290  1.00  0.00     0.009 A 
ATOM     69  C   UNL A   1      35.924  32.297  30.456  1.00  0.00     0.009 A 
ATOM     70  C   UNL A   1      35.308  33.442  27.988  1.00  0.00     0.001 A 
ATOM     71  C   UNL A   1      34.599  32.595  30.137  1.00  0.00     0.001 A 
ATOM     72  C   UNL A   1      34.293  33.168  28.904  1.00  0.00     0.000 A 
ENDBRANCH  48  67
BRANCH  60  73
ATOM     73  C   UNL A   1      42.749  34.999  32.484  1.00  0.00    -0.014 A 
ATOM     74  C   UNL A   1      43.445  35.988  31.770  1.00  0.00     0.009 A 
ATOM     75  C   UNL A   1      42.380  35.250  33.813  1.00  0.00     0.009 A 
ATOM     76  C   UNL A   1      43.809  37.183  32.392  1.00  0.00     0.001 A 
ATOM     77  C   UNL A   1      42.721  36.457  34.424  1.00  0.00     0.001 A 
ATOM     78  C   UNL A   1      43.446  37.416  33.718  1.00  0.00     0.000 A 
ENDBRANCH  60  73
ENDBRANCH  34  35
ENDBRANCH  27  29
ENDBRANCH  26  27
ENDBRANCH  25  26
ENDBRANCH   1  25
TORSDOF 15
ENDMDL
MODEL 2
REMARK VINA RESULT:      -9.5      1.527      6.343
REMARK SMILES COc1ccc([C@H](C)NC(=O)c2cnn(C)c2C(=O)OCCOC(=O)c2ccc(-c3c4nc(c(-c5ccccc5)c5ccc([nH]5)c(-c5ccccc5)c5nc(c(-c6ccccc6)c6ccc3[nH]6)C=C5)C=C4)cc2)cc1
REMARK SMILES IDX 21 1 20 2 18 3 19 4 17 5 12 6 13 7 14 8 15 9 16 10 10 11
REMARK SMILES IDX 9 12 11 14 7 15 8 16 6 17 3 18 4 19 75 20 5 21 74 22 2 23
REMARK SMILES IDX 1 24 22 25 23 26 24 27 25 28 26 29 27 30 73 31 28 32 72 33
REMARK SMILES IDX 29 34 30 35 31 36 66 37 32 38 71 39 65 40 67 41 33 42 70 43
REMARK SMILES IDX 64 44 63 45 34 47 56 48 41 49 55 50 42 51 45 52 54 53 68 54
REMARK SMILES IDX 43 55 44 56 53 58 69 59 46 60 35 61 36 62 40 63 37 64 39 65
REMARK SMILES IDX 38 66 57 67 58 68 62 69 59 70 61 71 60 72 47 73 48 74 52 75
REMARK SMILES IDX 49 76 51 77 50 78
REMARK H PARENT 9 13 67 46 45 57
REMARK Flexibility Score: inf
ROOT
ATOM      1  C   UNL A   1      41.401  19.495  26.259  1.00  0.00     0.275 C 
ENDROOT
BRANCH   1   2
ATOM      2  O   UNL A   1      42.814  19.279  26.519  1.00  0.00    -0.457 OA
BRANCH   2   3
ATOM      3  C   UNL A   1      43.609  19.226  25.403  1.00  0.00     0.357 C 
ATOM      4  O   UNL A   1      43.454  18.424  24.492  1.00  0.00    -0.244 OA
BRANCH   3   5
ATOM      5  C   UNL A   1      44.694  20.185  25.466  1.00  0.00     0.159 A 
ATOM      6  C   UNL A   1      44.774  21.590  25.340  1.00  0.00     0.092 A 
ATOM      7  C   UNL A   1      46.035  21.730  24.679  1.00  0.00     0.150 A 
ATOM      8  N   UNL A   1      46.782  20.628  24.692  1.00  0.00    -0.180 NA
ATOM      9  N   UNL A   1      45.983  19.736  25.291  1.00  0.00    -0.261 N 
ATOM     10  C   UNL A   1      46.483  18.401  25.532  1.00  0.00     0.174 C 
BRANCH   6  11
ATOM     11  C   UNL A   1      43.814  22.708  25.329  1.00  0.00     0.255 C 
ATOM     12  N   UNL A   1      43.565  23.631  26.335  1.00  0.00    -0.345 N 
ATOM     13  H   UNL A   1      42.604  23.797  26.472  1.00  0.00     0.164 HD
ATOM     14  O   UNL A   1      43.181  22.918  24.287  1.00  0.00    -0.269 OA
BRANCH  12  15
ATOM     15  C   UNL A   1      44.421  24.418  27.247  1.00  0.00     0.109 C 
ATOM     16  C   UNL A   1      44.922  23.430  28.307  1.00  0.00     0.036 C 
BRANCH  15  17
ATOM     17  C   UNL A   1      45.615  25.104  26.524  1.00  0.00    -0.026 A 
ATOM     18  C   UNL A   1      47.997  26.209  25.322  1.00  0.00     0.118 A 
ATOM     19  C   UNL A   1      46.722  26.623  24.931  1.00  0.00     0.047 A 
ATOM     20  C   UNL A   1      48.081  25.227  26.288  1.00  0.00     0.047 A 
ATOM     21  C   UNL A   1      45.550  26.092  25.532  1.00  0.00     0.009 A 
ATOM     22  C   UNL A   1      46.905  24.665  26.811  1.00  0.00     0.009 A 
BRANCH  18  23
ATOM     23  O   UNL A   1      49.058  26.797  24.690  1.00  0.00    -0.497 OA
ATOM     24  C   UNL A   1      48.991  26.902  23.267  1.00  0.00     0.278 C 
ENDBRANCH  18  23
ENDBRANCH  15  17
ENDBRANCH  12  15
ENDBRANCH   6  11
ENDBRANCH   3   5
ENDBRANCH   2   3
ENDBRANCH   1   2
BRANCH   1  25
ATOM     25  C   UNL A   1      40.866  20.856  26.772  1.00  0.00     0.275 C 
BRANCH  25  26
ATOM     26  O   UNL A   1      40.280  21.784  25.800  1.00  0.00    -0.458 OA
BRANCH  26  27
ATOM     27  C   UNL A   1      39.546  22.757  26.360  1.00  0.00     0.338 C 
ATOM     28  O   UNL A   1      38.321  22.774  26.295  1.00  0.00    -0.246 OA
BRANCH  27  29
ATOM     29  C   UNL A   1      40.091  23.967  26.969  1.00  0.00     0.060 A 
ATOM     30  C   UNL A   1      39.577  24.301  28.232  1.00  0.00     0.016 A 
ATOM     31  C   UNL A   1      40.521  24.988  26.110  1.00  0.00     0.016 A 
ATOM     32  C   UNL A   1      39.493  25.642  28.629  1.00  0.00     0.010 A 
ATOM     33  C   UNL A   1      40.440  26.330  26.510  1.00  0.00     0.010 A 
ATOM     34  C   UNL A   1      39.935  26.673  27.776  1.00  0.00    -0.014 A 
BRANCH  34  35
ATOM     35  C   UNL A   1      40.263  28.000  28.355  1.00  0.00     0.031 A 
ATOM     36  C   UNL A   1      39.298  29.124  28.609  1.00  0.00     0.074 A 
ATOM     37  C   UNL A   1      41.582  28.178  28.565  1.00  0.00     0.049 A 
ATOM     38  N   UNL A   1      39.553  30.319  29.091  1.00  0.00    -0.248 NA
ATOM     39  C   UNL A   1      37.887  28.913  28.259  1.00  0.00     0.031 C 
ATOM     40  C   UNL A   1      42.605  27.163  28.282  1.00  0.00     0.029 A 
ATOM     41  N   UNL A   1      42.292  29.244  29.039  1.00  0.00    -0.354 N 
ATOM     42  C   UNL A   1      38.346  31.013  29.088  1.00  0.00     0.074 A 
ATOM     43  C   UNL A   1      37.357  30.102  28.540  1.00  0.00     0.031 C 
ATOM     44  C   UNL A   1      43.804  27.644  28.606  1.00  0.00     0.029 A 
ATOM     45  C   UNL A   1      43.642  29.008  29.084  1.00  0.00     0.049 A 
ATOM     46  H   UNL A   1      41.877  30.092  29.319  1.00  0.00     0.167 HD
ATOM     47  C   UNL A   1      38.105  32.287  29.498  1.00  0.00     0.031 A 
ATOM     48  C   UNL A   1      44.660  29.793  29.465  1.00  0.00     0.031 A 
ATOM     49  C   UNL A   1      39.118  33.173  30.038  1.00  0.00     0.049 A 
ATOM     50  C   UNL A   1      44.354  31.156  29.975  1.00  0.00     0.074 A 
ATOM     51  C   UNL A   1      38.962  34.445  30.569  1.00  0.00     0.029 A 
ATOM     52  N   UNL A   1      40.474  32.884  30.108  1.00  0.00    -0.354 N 
ATOM     53  N   UNL A   1      43.195  31.762  30.044  1.00  0.00    -0.248 NA
ATOM     54  C   UNL A   1      45.487  31.932  30.482  1.00  0.00     0.031 C 
ATOM     55  C   UNL A   1      40.228  34.947  30.899  1.00  0.00     0.029 A 
ATOM     56  C   UNL A   1      41.168  33.965  30.637  1.00  0.00     0.049 A 
ATOM     57  H   UNL A   1      40.885  32.037  29.822  1.00  0.00     0.167 HD
ATOM     58  C   UNL A   1      43.455  32.997  30.608  1.00  0.00     0.074 A 
ATOM     59  C   UNL A   1      44.878  33.037  30.889  1.00  0.00     0.031 C 
ATOM     60  C   UNL A   1      42.591  34.008  30.867  1.00  0.00     0.031 A 
BRANCH  47  61
ATOM     61  C   UNL A   1      36.700  32.841  29.378  1.00  0.00    -0.014 A 
ATOM     62  C   UNL A   1      36.206  33.343  28.164  1.00  0.00     0.009 A 
ATOM     63  C   UNL A   1      35.814  32.742  30.467  1.00  0.00     0.009 A 
ATOM     64  C   UNL A   1      34.872  33.752  28.050  1.00  0.00     0.001 A 
ATOM     65  C   UNL A   1      34.474  33.126  30.344  1.00  0.00     0.001 A 
ATOM     66  C   UNL A   1      34.005  33.638  29.137  1.00  0.00     0.000 A 
ENDBRANCH  47  61
BRANCH  48  67
ATOM     67  C   UNL A   1      46.029  29.230  29.421  1.00  0.00    -0.014 A 
ATOM     68  C   UNL A   1      46.525  28.513  30.517  1.00  0.00     0.009 A 
ATOM     69  C   UNL A   1      46.768  29.255  28.225  1.00  0.00     0.009 A 
ATOM     70  C   UNL A   1      47.736  27.828  30.418  1.00  0.00     0.001 A 
ATOM     71  C   UNL A   1      47.962  28.543  28.120  1.00  0.00     0.001 A 
ATOM     72  C   UNL A   1      48.445  27.831  29.217  1.00  0.00     0.000 A 
ENDBRANCH  48  67
BRANCH  60  73
ATOM     73  C   UNL A   1      43.189  35.244  31.472  1.00  0.00    -0.014 A 
ATOM     74  C   UNL A   1      43.695  36.273  30.661  1.00  0.00     0.009 A 
ATOM     75  C   UNL A   1      43.279  35.368  32.866  1.00  0.00     0.009 A 
ATOM     76  C   UNL A   1      44.324  37.379  31.234  1.00  0.00     0.001 A 
ATOM     77  C   UNL A   1      43.883  36.488  33.437  1.00  0.00     0.001 A 
ATOM     78  C   UNL A   1      44.416  37.486  32.622  1.00  0.00     0.000 A 
ENDBRANCH  60  73
ENDBRANCH  34  35
ENDBRANCH  27  29
ENDBRANCH  26  27
ENDBRANCH  25  26
ENDBRANCH   1  25
TORSDOF 15
ENDMDL
MODEL 3
REMARK VINA RESULT:      -9.5      3.236      7.751
REMARK SMILES COc1ccc([C@H](C)NC(=O)c2cnn(C)c2C(=O)OCCOC(=O)c2ccc(-c3c4nc(c(-c5ccccc5)c5ccc([nH]5)c(-c5ccccc5)c5nc(c(-c6ccccc6)c6ccc3[nH]6)C=C5)C=C4)cc2)cc1
REMARK SMILES IDX 21 1 20 2 18 3 19 4 17 5 12 6 13 7 14 8 15 9 16 10 10 11
REMARK SMILES IDX 9 12 11 14 7 15 8 16 6 17 3 18 4 19 75 20 5 21 74 22 2 23
REMARK SMILES IDX 1 24 22 25 23 26 24 27 25 28 26 29 27 30 73 31 28 32 72 33
REMARK SMILES IDX 29 34 30 35 31 36 66 37 32 38 71 39 65 40 67 41 33 42 70 43
REMARK SMILES IDX 64 44 63 45 34 47 56 48 41 49 55 50 42 51 45 52 54 53 68 54
REMARK SMILES IDX 43 55 44 56 53 58 69 59 46 60 35 61 36 62 40 63 37 64 39 65
REMARK SMILES IDX 38 66 57 67 58 68 62 69 59 70 61 71 60 72 47 73 48 74 52 75
REMARK SMILES IDX 49 76 51 77 50 78
REMARK H PARENT 9 13 67 46 45 57
REMARK Flexibility Score: inf
ROOT
ATOM      1  C   UNL A   1      44.084  23.946  24.627  1.00  0.00     0.275 C 
ENDROOT
BRANCH   1   2
ATOM      2  O   UNL A   1      43.306  22.723  24.729  1.00  0.00    -0.457 OA
BRANCH   2   3
ATOM      3  C   UNL A   1      43.861  21.745  25.515  1.00  0.00     0.357 C 
ATOM      4  O   UNL A   1      44.925  21.867  26.105  1.00  0.00    -0.244 OA
BRANCH   3   5
ATOM      5  C   UNL A   1      43.070  20.530  25.505  1.00  0.00     0.159 A 
ATOM      6  C   UNL A   1      41.862  20.137  26.123  1.00  0.00     0.092 A 
ATOM      7  C   UNL A   1      42.132  18.757  26.388  1.00  0.00     0.150 A 
ATOM      8  N   UNL A   1      43.192  18.276  25.742  1.00  0.00    -0.180 NA
ATOM      9  N   UNL A   1      43.671  19.356  25.112  1.00  0.00    -0.261 N 
ATOM     10  C   UNL A   1      44.823  19.210  24.250  1.00  0.00     0.174 C 
BRANCH   6  11
ATOM     11  C   UNL A   1      40.767  20.819  26.836  1.00  0.00     0.255 C 
ATOM     12  N   UNL A   1      39.649  21.435  26.295  1.00  0.00    -0.345 N 
ATOM     13  H   UNL A   1      39.451  22.304  26.712  1.00  0.00     0.164 HD
ATOM     14  O   UNL A   1      40.783  20.802  28.073  1.00  0.00    -0.269 OA
BRANCH  12  15
ATOM     15  C   UNL A   1      38.688  21.077  25.229  1.00  0.00     0.109 C 
ATOM     16  C   UNL A   1      38.443  19.570  25.375  1.00  0.00     0.036 C 
BRANCH  15  17
ATOM     17  C   UNL A   1      37.350  21.865  25.324  1.00  0.00    -0.026 A 
ATOM     18  C   UNL A   1      34.739  23.092  25.440  1.00  0.00     0.118 A 
ATOM     19  C   UNL A   1      35.896  23.807  25.755  1.00  0.00     0.047 A 
ATOM     20  C   UNL A   1      34.882  21.764  25.096  1.00  0.00     0.047 A 
ATOM     21  C   UNL A   1      37.183  23.209  25.684  1.00  0.00     0.009 A 
ATOM     22  C   UNL A   1      36.159  21.177  25.107  1.00  0.00     0.009 A 
BRANCH  18  23
ATOM     23  O   UNL A   1      33.552  23.768  25.526  1.00  0.00    -0.497 OA
ATOM     24  C   UNL A   1      32.368  23.049  25.178  1.00  0.00     0.278 C 
ENDBRANCH  18  23
ENDBRANCH  15  17
ENDBRANCH  12  15
ENDBRANCH   6  11
ENDBRANCH   3   5
ENDBRANCH   2   3
ENDBRANCH   1   2
BRANCH   1  25
ATOM     25  C   UNL A   1      43.462  25.154  25.373  1.00  0.00     0.275 C 
BRANCH  25  26
ATOM     26  O   UNL A   1      42.101  25.566  25.018  1.00  0.00    -0.458 OA
BRANCH  26  27
ATOM     27  C   UNL A   1      41.201  25.345  25.988  1.00  0.00     0.338 C 
ATOM     28  O   UNL A   1      40.633  24.266  26.122  1.00  0.00    -0.246 OA
BRANCH  27  29
ATOM     29  C   UNL A   1      40.680  26.368  26.890  1.00  0.00     0.060 A 
ATOM     30  C   UNL A   1      41.485  27.505  27.057  1.00  0.00     0.016 A 
ATOM     31  C   UNL A   1      39.861  25.945  27.946  1.00  0.00     0.016 A 
ATOM     32  C   UNL A   1      41.473  28.208  28.269  1.00  0.00     0.010 A 
ATOM     33  C   UNL A   1      39.847  26.651  29.158  1.00  0.00     0.010 A 
ATOM     34  C   UNL A   1      40.644  27.796  29.330  1.00  0.00    -0.014 A 
BRANCH  34  35
ATOM     35  C   UNL A   1      40.299  28.768  30.399  1.00  0.00     0.031 A 
ATOM     36  C   UNL A   1      39.208  29.799  30.345  1.00  0.00     0.074 A 
ATOM     37  C   UNL A   1      41.142  28.725  31.448  1.00  0.00     0.049 A 
ATOM     38  N   UNL A   1      38.891  30.693  31.254  1.00  0.00    -0.248 NA
ATOM     39  C   UNL A   1      38.388  29.873  29.128  1.00  0.00     0.031 C 
ATOM     40  C   UNL A   1      42.277  27.800  31.557  1.00  0.00     0.029 A 
ATOM     41  N   UNL A   1      41.199  29.460  32.599  1.00  0.00    -0.354 N 
ATOM     42  C   UNL A   1      37.851  31.449  30.720  1.00  0.00     0.074 A 
ATOM     43  C   UNL A   1      37.599  30.913  29.395  1.00  0.00     0.031 C 
ATOM     44  C   UNL A   1      42.904  28.006  32.715  1.00  0.00     0.029 A 
ATOM     45  C   UNL A   1      42.242  29.096  33.412  1.00  0.00     0.049 A 
ATOM     46  H   UNL A   1      40.560  30.175  32.820  1.00  0.00     0.167 HD
ATOM     47  C   UNL A   1      37.186  32.491  31.290  1.00  0.00     0.031 A 
ATOM     48  C   UNL A   1      42.642  29.577  34.598  1.00  0.00     0.031 A 
ATOM     49  C   UNL A   1      37.465  33.005  32.616  1.00  0.00     0.049 A 
ATOM     50  C   UNL A   1      41.850  30.669  35.226  1.00  0.00     0.074 A 
ATOM     51  C   UNL A   1      36.792  33.991  33.322  1.00  0.00     0.029 A 
ATOM     52  N   UNL A   1      38.507  32.583  33.432  1.00  0.00    -0.354 N 
ATOM     53  N   UNL A   1      40.818  31.312  34.741  1.00  0.00    -0.248 NA
ATOM     54  C   UNL A   1      42.261  31.083  36.568  1.00  0.00     0.031 C 
ATOM     55  C   UNL A   1      37.463  34.207  34.533  1.00  0.00     0.029 A 
ATOM     56  C   UNL A   1      38.515  33.312  34.615  1.00  0.00     0.049 A 
ATOM     57  H   UNL A   1      39.148  31.871  33.205  1.00  0.00     0.167 HD
ATOM     58  C   UNL A   1      40.446  32.212  35.723  1.00  0.00     0.074 A 
ATOM     59  C   UNL A   1      41.349  32.006  36.841  1.00  0.00     0.031 C 
ATOM     60  C   UNL A   1      39.448  33.128  35.698  1.00  0.00     0.031 A 
BRANCH  47  61
ATOM     61  C   UNL A   1      36.093  33.181  30.501  1.00  0.00    -0.014 A 
ATOM     62  C   UNL A   1      34.789  33.310  31.004  1.00  0.00     0.009 A 
ATOM     63  C   UNL A   1      36.406  33.824  29.288  1.00  0.00     0.009 A 
ATOM     64  C   UNL A   1      33.822  34.043  30.305  1.00  0.00     0.001 A 
ATOM     65  C   UNL A   1      35.446  34.579  28.605  1.00  0.00     0.001 A 
ATOM     66  C   UNL A   1      34.153  34.682  29.110  1.00  0.00     0.000 A 
ENDBRANCH  47  61
BRANCH  48  67
ATOM     67  C   UNL A   1      43.812  28.944  35.249  1.00  0.00    -0.014 A 
ATOM     68  C   UNL A   1      45.086  29.503  35.090  1.00  0.00     0.009 A 
ATOM     69  C   UNL A   1      43.631  27.894  36.165  1.00  0.00     0.009 A 
ATOM     70  C   UNL A   1      46.161  29.024  35.839  1.00  0.00     0.001 A 
ATOM     71  C   UNL A   1      44.702  27.439  36.935  1.00  0.00     0.001 A 
ATOM     72  C   UNL A   1      45.965  28.004  36.770  1.00  0.00     0.000 A 
ENDBRANCH  48  67
BRANCH  60  73
ATOM     73  C   UNL A   1      39.309  33.980  36.926  1.00  0.00    -0.014 A 
ATOM     74  C   UNL A   1      38.637  33.502  38.063  1.00  0.00     0.009 A 
ATOM     75  C   UNL A   1      39.826  35.283  36.936  1.00  0.00     0.009 A 
ATOM     76  C   UNL A   1      38.442  34.332  39.168  1.00  0.00     0.001 A 
ATOM     77  C   UNL A   1      39.654  36.101  38.053  1.00  0.00     0.001 A 
ATOM     78  C   UNL A   1      38.952  35.631  39.162  1.00  0.00     0.000 A 
ENDBRANCH  60  73
ENDBRANCH  34  35
ENDBRANCH  27  29
ENDBRANCH  26  27
ENDBRANCH  25  26
ENDBRANCH   1  25
TORSDOF 15
ENDMDL
