MODEL 1
REMARK VINA RESULT:     -15.1      0.000      0.000
REMARK SMILES Cc1cccc(OC2(C(=O)OCCOC(=O)c3ccc(-c4c5nc(c(-c6ccccc6)c6ccc([nH]6)c(-c6ccccc6)c6nc(c(-c7ccccc7)c7ccc4[nH]7)C=C6)C=C5)cc3)CCN(C(=O)c3cnc[nH]c3=O)CC2)c1
REMARK SMILES IDX 12 1 11 2 9 3 10 4 8 5 65 6 78 7 66 8 77 9 67 10 68 11 69 12
REMARK SMILES IDX 7 13 6 14 1 15 2 16 3 17 79 18 4 19 5 20 70 21 71 22 75 23
REMARK SMILES IDX 72 24 74 25 76 26 73 27 13 29 14 30 15 31 16 32 17 33 18 34
REMARK SMILES IDX 64 35 19 36 63 37 20 38 21 39 22 40 57 41 23 42 62 43 56 44
REMARK SMILES IDX 58 45 24 46 61 47 55 48 54 49 25 51 47 52 32 53 46 54 33 55
REMARK SMILES IDX 36 56 45 57 59 58 34 59 35 60 44 62 60 63 37 64 26 65 27 66
REMARK SMILES IDX 31 67 28 68 30 69 29 70 48 71 49 72 53 73 50 74 52 75 51 76
REMARK SMILES IDX 38 77 39 78 43 79 40 80 42 81 41 82
REMARK H PARENT 74 28 58 50 36 61
REMARK Flexibility Score: inf
ROOT
ATOM      1  C   UNL A   1      37.963  21.099  25.118  1.00  0.00     0.274 C 
ENDROOT
BRANCH   1   2
ATOM      2  O   UNL A   1      36.911  21.891  25.680  1.00  0.00    -0.459 OA
BRANCH   2   3
ATOM      3  C   UNL A   1      36.347  22.834  24.924  1.00  0.00     0.350 C 
ATOM      4  O   UNL A   1      37.073  23.728  24.491  1.00  0.00    -0.247 OA
BRANCH   3   5
ATOM      5  C   UNL A   1      34.655  22.812  24.699  1.00  0.00     0.209 C 
ATOM      6  C   UNL A   1      34.500  24.095  26.046  1.00  0.00     0.082 C 
ATOM      7  C   UNL A   1      34.356  24.203  23.543  1.00  0.00     0.082 C 
ATOM      8  C   UNL A   1      33.349  25.106  26.169  1.00  0.00     0.124 C 
ATOM      9  C   UNL A   1      33.094  25.125  23.711  1.00  0.00     0.124 C 
ATOM     10  N   UNL A   1      33.168  25.867  24.949  1.00  0.00    -0.338 N 
ATOM     11  C   UNL A   1      33.270  27.246  24.989  1.00  0.00     0.261 C 
ATOM     12  O   UNL A   1      34.003  27.848  25.767  1.00  0.00    -0.269 OA
BRANCH   5  13
ATOM     13  O   UNL A   1      33.459  21.121  24.603  1.00  0.00    -0.475 OA
BRANCH  13  14
ATOM     14  C   UNL A   1      33.491  19.539  24.100  1.00  0.00     0.121 A 
ATOM     15  C   UNL A   1      35.258  16.260  25.106  1.00  0.00     0.044 C 
ATOM     16  C   UNL A   1      34.318  17.155  24.343  1.00  0.00    -0.047 A 
ATOM     17  C   UNL A   1      33.493  16.766  23.313  1.00  0.00     0.003 A 
ATOM     18  C   UNL A   1      34.295  18.502  24.693  1.00  0.00     0.050 A 
ATOM     19  C   UNL A   1      32.616  17.714  22.749  1.00  0.00     0.004 A 
ATOM     20  C   UNL A   1      32.583  19.083  23.160  1.00  0.00     0.046 A 
ENDBRANCH  13  14
ENDBRANCH   5  13
BRANCH  11  21
ATOM     21  C   UNL A   1      32.366  27.987  24.090  1.00  0.00     0.123 A 
ATOM     22  C   UNL A   1      31.041  27.992  24.288  1.00  0.00     0.132 A 
ATOM     23  C   UNL A   1      32.876  28.695  22.900  1.00  0.00     0.263 A 
ATOM     24  N   UNL A   1      30.125  28.640  23.491  1.00  0.00    -0.246 NA
ATOM     25  N   UNL A   1      31.917  29.286  22.125  1.00  0.00    -0.312 N 
ATOM     26  O   UNL A   1      34.066  28.768  22.616  1.00  0.00    -0.269 OA
ATOM     27  C   UNL A   1      30.594  29.243  22.451  1.00  0.00     0.199 A 
ATOM     28  H   UNL A   1      32.191  29.759  21.305  1.00  0.00     0.171 HD
ENDBRANCH  11  21
ENDBRANCH   3   5
ENDBRANCH   2   3
ENDBRANCH   1   2
BRANCH   1  29
ATOM     29  C   UNL A   1      39.385  21.117  25.791  1.00  0.00     0.275 C 
BRANCH  29  30
ATOM     30  O   UNL A   1      40.137  19.911  26.258  1.00  0.00    -0.458 OA
BRANCH  30  31
ATOM     31  C   UNL A   1      41.464  19.548  26.051  1.00  0.00     0.338 C 
ATOM     32  O   UNL A   1      41.827  18.393  25.915  1.00  0.00    -0.246 OA
BRANCH  31  33
ATOM     33  C   UNL A   1      42.407  20.706  26.200  1.00  0.00     0.060 A 
ATOM     34  C   UNL A   1      43.739  21.626  25.186  1.00  0.00     0.016 A 
ATOM     35  C   UNL A   1      42.001  21.298  27.784  1.00  0.00     0.016 A 
ATOM     36  C   UNL A   1      44.356  23.237  25.926  1.00  0.00     0.010 A 
ATOM     37  C   UNL A   1      42.504  22.804  28.302  1.00  0.00     0.010 A 
ATOM     38  C   UNL A   1      43.543  23.866  27.415  1.00  0.00    -0.014 A 
BRANCH  38  39
ATOM     39  C   UNL A   1      43.125  25.305  27.926  1.00  0.00     0.031 A 
ATOM     40  C   UNL A   1      41.821  26.060  27.745  1.00  0.00     0.074 A 
ATOM     41  C   UNL A   1      43.778  25.804  29.025  1.00  0.00     0.049 A 
ATOM     42  N   UNL A   1      41.710  27.345  27.528  1.00  0.00    -0.248 NA
ATOM     43  C   UNL A   1      40.510  25.460  27.986  1.00  0.00     0.031 C 
ATOM     44  C   UNL A   1      43.354  26.800  30.021  1.00  0.00     0.029 A 
ATOM     45  N   UNL A   1      45.024  25.453  29.518  1.00  0.00    -0.354 N 
ATOM     46  C   UNL A   1      40.378  27.694  27.783  1.00  0.00     0.074 A 
ATOM     47  C   UNL A   1      39.643  26.461  27.831  1.00  0.00     0.031 C 
ATOM     48  C   UNL A   1      44.400  27.130  30.810  1.00  0.00     0.029 A 
ATOM     49  C   UNL A   1      45.578  26.462  30.288  1.00  0.00     0.049 A 
ATOM     50  H   UNL A   1      45.464  24.590  29.341  1.00  0.00     0.167 HD
ATOM     51  C   UNL A   1      39.974  28.884  28.327  1.00  0.00     0.031 A 
ATOM     52  C   UNL A   1      46.796  27.001  29.973  1.00  0.00     0.031 A 
ATOM     53  C   UNL A   1      41.087  29.584  28.937  1.00  0.00     0.049 A 
ATOM     54  C   UNL A   1      46.607  28.410  29.478  1.00  0.00     0.074 A 
ATOM     55  C   UNL A   1      41.430  29.767  30.268  1.00  0.00     0.029 A 
ATOM     56  N   UNL A   1      42.167  29.984  28.180  1.00  0.00    -0.354 N 
ATOM     57  N   UNL A   1      45.430  28.916  29.256  1.00  0.00    -0.248 NA
ATOM     58  C   UNL A   1      47.679  29.333  29.129  1.00  0.00     0.031 C 
ATOM     59  C   UNL A   1      42.754  30.255  30.308  1.00  0.00     0.029 A 
ATOM     60  C   UNL A   1      43.195  30.392  29.003  1.00  0.00     0.049 A 
ATOM     61  H   UNL A   1      42.200  29.980  27.196  1.00  0.00     0.167 HD
ATOM     62  C   UNL A   1      45.548  30.172  28.757  1.00  0.00     0.074 A 
ATOM     63  C   UNL A   1      46.978  30.397  28.692  1.00  0.00     0.031 C 
ATOM     64  C   UNL A   1      44.437  30.888  28.436  1.00  0.00     0.031 A 
BRANCH  51  65
ATOM     65  C   UNL A   1      38.532  29.293  28.636  1.00  0.00    -0.014 A 
ATOM     66  C   UNL A   1      37.726  29.865  27.625  1.00  0.00     0.009 A 
ATOM     67  C   UNL A   1      37.880  29.046  29.858  1.00  0.00     0.009 A 
ATOM     68  C   UNL A   1      36.386  30.227  27.831  1.00  0.00     0.001 A 
ATOM     69  C   UNL A   1      36.539  29.424  30.078  1.00  0.00     0.001 A 
ATOM     70  C   UNL A   1      35.793  30.016  29.066  1.00  0.00     0.000 A 
ENDBRANCH  51  65
BRANCH  52  71
ATOM     71  C   UNL A   1      47.706  26.000  29.319  1.00  0.00    -0.014 A 
ATOM     72  C   UNL A   1      47.787  26.050  27.910  1.00  0.00     0.009 A 
ATOM     73  C   UNL A   1      48.836  25.603  30.052  1.00  0.00     0.009 A 
ATOM     74  C   UNL A   1      49.029  25.978  27.271  1.00  0.00     0.001 A 
ATOM     75  C   UNL A   1      50.073  25.576  29.409  1.00  0.00     0.001 A 
ATOM     76  C   UNL A   1      50.178  25.814  28.034  1.00  0.00     0.000 A 
ENDBRANCH  52  71
BRANCH  64  77
ATOM     77  C   UNL A   1      44.408  32.157  27.646  1.00  0.00    -0.014 A 
ATOM     78  C   UNL A   1      44.733  32.229  26.289  1.00  0.00     0.009 A 
ATOM     79  C   UNL A   1      43.912  33.332  28.254  1.00  0.00     0.009 A 
ATOM     80  C   UNL A   1      44.641  33.435  25.590  1.00  0.00     0.001 A 
ATOM     81  C   UNL A   1      43.761  34.521  27.546  1.00  0.00     0.001 A 
ATOM     82  C   UNL A   1      44.149  34.578  26.216  1.00  0.00     0.000 A 
ENDBRANCH  64  77
ENDBRANCH  38  39
ENDBRANCH  31  33
ENDBRANCH  30  31
ENDBRANCH  29  30
ENDBRANCH   1  29
TORSDOF 14
ENDMDL
MODEL 2
REMARK VINA RESULT:     -14.2      4.182     10.147
REMARK SMILES Cc1cccc(OC2(C(=O)OCCOC(=O)c3ccc(-c4c5nc(c(-c6ccccc6)c6ccc([nH]6)c(-c6ccccc6)c6nc(c(-c7ccccc7)c7ccc4[nH]7)C=C6)C=C5)cc3)CCN(C(=O)c3cnc[nH]c3=O)CC2)c1
REMARK SMILES IDX 12 1 11 2 9 3 10 4 8 5 65 6 78 7 66 8 77 9 67 10 68 11 69 12
REMARK SMILES IDX 7 13 6 14 1 15 2 16 3 17 79 18 4 19 5 20 70 21 71 22 75 23
REMARK SMILES IDX 72 24 74 25 76 26 73 27 13 29 14 30 15 31 16 32 17 33 18 34
REMARK SMILES IDX 64 35 19 36 63 37 20 38 21 39 22 40 57 41 23 42 62 43 56 44
REMARK SMILES IDX 58 45 24 46 61 47 55 48 54 49 25 51 47 52 32 53 46 54 33 55
REMARK SMILES IDX 36 56 45 57 59 58 34 59 35 60 44 62 60 63 37 64 26 65 27 66
REMARK SMILES IDX 31 67 28 68 30 69 29 70 48 71 49 72 53 73 50 74 52 75 51 76
REMARK SMILES IDX 38 77 39 78 43 79 40 80 42 81 41 82
REMARK H PARENT 74 28 58 50 36 61
REMARK Flexibility Score: inf
ROOT
ATOM      1  C   UNL A   1      33.043  30.962  27.232  1.00  0.00     0.274 C 
ENDROOT
BRANCH   1   2
ATOM      2  O   UNL A   1      32.180  30.306  26.299  1.00  0.00    -0.459 OA
BRANCH   2   3
ATOM      3  C   UNL A   1      31.754  29.073  26.579  1.00  0.00     0.350 C 
ATOM      4  O   UNL A   1      31.866  28.681  27.739  1.00  0.00    -0.247 OA
BRANCH   3   5
ATOM      5  C   UNL A   1      31.193  28.082  25.307  1.00  0.00     0.209 C 
ATOM      6  C   UNL A   1      32.969  27.710  24.868  1.00  0.00     0.082 C 
ATOM      7  C   UNL A   1      31.177  26.404  26.044  1.00  0.00     0.082 C 
ATOM      8  C   UNL A   1      33.450  26.434  24.157  1.00  0.00     0.124 C 
ATOM      9  C   UNL A   1      31.608  25.153  25.195  1.00  0.00     0.124 C 
ATOM     10  N   UNL A   1      33.007  25.236  24.843  1.00  0.00    -0.338 N 
ATOM     11  C   UNL A   1      33.949  24.331  25.300  1.00  0.00     0.261 C 
ATOM     12  O   UNL A   1      35.070  24.654  25.677  1.00  0.00    -0.269 OA
BRANCH   5  13
ATOM     13  O   UNL A   1      29.763  28.600  23.897  1.00  0.00    -0.475 OA
BRANCH  13  14
ATOM     14  C   UNL A   1      29.165  29.917  23.083  1.00  0.00     0.121 A 
ATOM     15  C   UNL A   1      29.256  33.760  23.417  1.00  0.00     0.044 C 
ATOM     16  C   UNL A   1      28.933  32.426  22.799  1.00  0.00    -0.047 A 
ATOM     17  C   UNL A   1      28.226  32.227  21.635  1.00  0.00     0.003 A 
ATOM     18  C   UNL A   1      29.367  31.289  23.475  1.00  0.00     0.050 A 
ATOM     19  C   UNL A   1      28.072  30.912  21.151  1.00  0.00     0.004 A 
ATOM     20  C   UNL A   1      28.567  29.765  21.844  1.00  0.00     0.046 A 
ENDBRANCH  13  14
ENDBRANCH   5  13
BRANCH  11  21
ATOM     21  C   UNL A   1      33.564  22.909  25.228  1.00  0.00     0.123 A 
ATOM     22  C   UNL A   1      33.509  22.263  24.056  1.00  0.00     0.132 A 
ATOM     23  C   UNL A   1      33.161  22.160  26.434  1.00  0.00     0.263 A 
ATOM     24  N   UNL A   1      33.145  20.946  23.895  1.00  0.00    -0.246 NA
ATOM     25  N   UNL A   1      32.772  20.869  26.208  1.00  0.00    -0.312 N 
ATOM     26  O   UNL A   1      33.177  22.638  27.562  1.00  0.00    -0.269 OA
ATOM     27  C   UNL A   1      32.786  20.315  24.963  1.00  0.00     0.199 A 
ATOM     28  H   UNL A   1      32.473  20.321  26.971  1.00  0.00     0.171 HD
ENDBRANCH  11  21
ENDBRANCH   3   5
ENDBRANCH   2   3
ENDBRANCH   1   2
BRANCH   1  29
ATOM     29  C   UNL A   1      33.150  32.533  27.211  1.00  0.00     0.275 C 
BRANCH  29  30
ATOM     30  O   UNL A   1      32.519  33.456  28.204  1.00  0.00    -0.458 OA
BRANCH  30  31
ATOM     31  C   UNL A   1      32.987  34.653  28.738  1.00  0.00     0.338 C 
ATOM     32  O   UNL A   1      32.693  35.745  28.288  1.00  0.00    -0.246 OA
BRANCH  31  33
ATOM     33  C   UNL A   1      34.027  34.438  29.799  1.00  0.00     0.060 A 
ATOM     34  C   UNL A   1      34.136  34.226  31.694  1.00  0.00     0.016 A 
ATOM     35  C   UNL A   1      35.483  34.321  28.857  1.00  0.00     0.016 A 
ATOM     36  C   UNL A   1      35.811  33.696  32.358  1.00  0.00     0.010 A 
ATOM     37  C   UNL A   1      36.896  33.722  29.514  1.00  0.00     0.010 A 
ATOM     38  C   UNL A   1      37.110  33.275  31.173  1.00  0.00    -0.014 A 
BRANCH  38  39
ATOM     39  C   UNL A   1      38.241  32.167  31.114  1.00  0.00     0.031 A 
ATOM     40  C   UNL A   1      38.246  30.821  30.413  1.00  0.00     0.074 A 
ATOM     41  C   UNL A   1      39.538  32.570  31.312  1.00  0.00     0.049 A 
ATOM     42  N   UNL A   1      38.771  29.720  30.884  1.00  0.00    -0.248 NA
ATOM     43  C   UNL A   1      37.828  30.642  29.023  1.00  0.00     0.031 C 
ATOM     44  C   UNL A   1      40.805  31.973  30.865  1.00  0.00     0.029 A 
ATOM     45  N   UNL A   1      39.995  33.701  31.967  1.00  0.00    -0.354 N 
ATOM     46  C   UNL A   1      38.893  28.826  29.813  1.00  0.00     0.074 A 
ATOM     47  C   UNL A   1      38.085  29.361  28.753  1.00  0.00     0.031 C 
ATOM     48  C   UNL A   1      41.840  32.600  31.464  1.00  0.00     0.029 A 
ATOM     49  C   UNL A   1      41.295  33.546  32.421  1.00  0.00     0.049 A 
ATOM     50  H   UNL A   1      39.461  34.519  32.095  1.00  0.00     0.167 HD
ATOM     51  C   UNL A   1      39.912  27.925  29.661  1.00  0.00     0.031 A 
ATOM     52  C   UNL A   1      41.600  33.692  33.747  1.00  0.00     0.031 A 
ATOM     53  C   UNL A   1      41.027  28.244  30.531  1.00  0.00     0.049 A 
ATOM     54  C   UNL A   1      41.955  32.350  34.329  1.00  0.00     0.074 A 
ATOM     55  C   UNL A   1      42.267  28.802  30.257  1.00  0.00     0.029 A 
ATOM     56  N   UNL A   1      40.871  28.250  31.901  1.00  0.00    -0.354 N 
ATOM     57  N   UNL A   1      41.816  31.243  33.661  1.00  0.00    -0.248 NA
ATOM     58  C   UNL A   1      42.419  32.117  35.691  1.00  0.00     0.031 C 
ATOM     59  C   UNL A   1      42.849  29.178  31.487  1.00  0.00     0.029 A 
ATOM     60  C   UNL A   1      41.974  28.823  32.498  1.00  0.00     0.049 A 
ATOM     61  H   UNL A   1      40.088  27.899  32.382  1.00  0.00     0.167 HD
ATOM     62  C   UNL A   1      42.146  30.182  34.439  1.00  0.00     0.074 A 
ATOM     63  C   UNL A   1      42.520  30.774  35.708  1.00  0.00     0.031 C 
ATOM     64  C   UNL A   1      42.058  28.918  33.945  1.00  0.00     0.031 A 
BRANCH  51  65
ATOM     65  C   UNL A   1      40.087  26.947  28.497  1.00  0.00    -0.014 A 
ATOM     66  C   UNL A   1      39.603  25.624  28.605  1.00  0.00     0.009 A 
ATOM     67  C   UNL A   1      40.618  27.293  27.240  1.00  0.00     0.009 A 
ATOM     68  C   UNL A   1      39.697  24.689  27.562  1.00  0.00     0.001 A 
ATOM     69  C   UNL A   1      40.733  26.355  26.194  1.00  0.00     0.001 A 
ATOM     70  C   UNL A   1      40.275  25.053  26.356  1.00  0.00     0.000 A 
ENDBRANCH  51  65
BRANCH  52  71
ATOM     71  C   UNL A   1      40.705  34.688  34.428  1.00  0.00    -0.014 A 
ATOM     72  C   UNL A   1      39.642  34.159  35.193  1.00  0.00     0.009 A 
ATOM     73  C   UNL A   1      41.297  35.896  34.829  1.00  0.00     0.009 A 
ATOM     74  C   UNL A   1      39.367  34.668  36.466  1.00  0.00     0.001 A 
ATOM     75  C   UNL A   1      41.044  36.367  36.117  1.00  0.00     0.001 A 
ATOM     76  C   UNL A   1      40.122  35.728  36.953  1.00  0.00     0.000 A 
ENDBRANCH  52  71
BRANCH  64  77
ATOM     77  C   UNL A   1      42.133  27.656  34.744  1.00  0.00    -0.014 A 
ATOM     78  C   UNL A   1      42.774  26.497  34.298  1.00  0.00     0.009 A 
ATOM     79  C   UNL A   1      41.643  27.654  36.068  1.00  0.00     0.009 A 
ATOM     80  C   UNL A   1      42.854  25.363  35.109  1.00  0.00     0.001 A 
ATOM     81  C   UNL A   1      41.774  26.545  36.901  1.00  0.00     0.001 A 
ATOM     82  C   UNL A   1      42.361  25.389  36.411  1.00  0.00     0.000 A 
ENDBRANCH  64  77
ENDBRANCH  38  39
ENDBRANCH  31  33
ENDBRANCH  30  31
ENDBRANCH  29  30
ENDBRANCH   1  29
TORSDOF 14
ENDMDL
MODEL 3
REMARK VINA RESULT:     -14.0      3.304      8.949
REMARK SMILES Cc1cccc(OC2(C(=O)OCCOC(=O)c3ccc(-c4c5nc(c(-c6ccccc6)c6ccc([nH]6)c(-c6ccccc6)c6nc(c(-c7ccccc7)c7ccc4[nH]7)C=C6)C=C5)cc3)CCN(C(=O)c3cnc[nH]c3=O)CC2)c1
REMARK SMILES IDX 12 1 11 2 9 3 10 4 8 5 65 6 78 7 66 8 77 9 67 10 68 11 69 12
REMARK SMILES IDX 7 13 6 14 1 15 2 16 3 17 79 18 4 19 5 20 70 21 71 22 75 23
REMARK SMILES IDX 72 24 74 25 76 26 73 27 13 29 14 30 15 31 16 32 17 33 18 34
REMARK SMILES IDX 64 35 19 36 63 37 20 38 21 39 22 40 57 41 23 42 62 43 56 44
REMARK SMILES IDX 58 45 24 46 61 47 55 48 54 49 25 51 47 52 32 53 46 54 33 55
REMARK SMILES IDX 36 56 45 57 59 58 34 59 35 60 44 62 60 63 37 64 26 65 27 66
REMARK SMILES IDX 31 67 28 68 30 69 29 70 48 71 49 72 53 73 50 74 52 75 51 76
REMARK SMILES IDX 38 77 39 78 43 79 40 80 42 81 41 82
REMARK H PARENT 74 28 58 50 36 61
REMARK Flexibility Score: inf
ROOT
ATOM      1  C   UNL A   1      32.811  27.230  24.605  1.00  0.00     0.274 C 
ENDROOT
BRANCH   1   2
ATOM      2  O   UNL A   1      33.813  26.350  25.123  1.00  0.00    -0.459 OA
BRANCH   2   3
ATOM      3  C   UNL A   1      34.294  25.391  24.330  1.00  0.00     0.350 C 
ATOM      4  O   UNL A   1      33.974  25.420  23.142  1.00  0.00    -0.247 OA
BRANCH   3   5
ATOM      5  C   UNL A   1      35.219  24.132  25.019  1.00  0.00     0.209 C 
ATOM      6  C   UNL A   1      33.728  23.648  26.033  1.00  0.00     0.082 C 
ATOM      7  C   UNL A   1      34.804  22.677  23.984  1.00  0.00     0.082 C 
ATOM      8  C   UNL A   1      33.454  22.235  26.575  1.00  0.00     0.124 C 
ATOM      9  C   UNL A   1      34.632  21.257  24.635  1.00  0.00     0.124 C 
ATOM     10  N   UNL A   1      33.492  21.239  25.523  1.00  0.00    -0.338 N 
ATOM     11  C   UNL A   1      32.373  20.459  25.289  1.00  0.00     0.261 C 
ATOM     12  O   UNL A   1      31.225  20.850  25.471  1.00  0.00    -0.269 OA
BRANCH   5  13
ATOM     13  O   UNL A   1      37.123  24.315  25.821  1.00  0.00    -0.475 OA
BRANCH  13  14
ATOM     14  C   UNL A   1      38.393  23.394  26.361  1.00  0.00     0.121 A 
ATOM     15  C   UNL A   1      39.802  19.851  25.772  1.00  0.00     0.044 C 
ATOM     16  C   UNL A   1      39.742  21.247  26.330  1.00  0.00    -0.047 A 
ATOM     17  C   UNL A   1      40.647  21.805  27.204  1.00  0.00     0.003 A 
ATOM     18  C   UNL A   1      38.664  22.040  25.948  1.00  0.00     0.050 A 
ATOM     19  C   UNL A   1      40.488  23.155  27.577  1.00  0.00     0.004 A 
ATOM     20  C   UNL A   1      39.393  23.960  27.133  1.00  0.00     0.046 A 
ENDBRANCH  13  14
ENDBRANCH   5  13
BRANCH  11  21
ATOM     21  C   UNL A   1      32.632  19.064  24.885  1.00  0.00     0.123 A 
ATOM     22  C   UNL A   1      33.011  18.142  25.779  1.00  0.00     0.132 A 
ATOM     23  C   UNL A   1      32.551  18.646  23.473  1.00  0.00     0.263 A 
ATOM     24  N   UNL A   1      33.289  16.826  25.487  1.00  0.00    -0.246 NA
ATOM     25  N   UNL A   1      32.876  17.339  23.238  1.00  0.00    -0.312 N 
ATOM     26  O   UNL A   1      32.210  19.395  22.565  1.00  0.00    -0.269 OA
ATOM     27  C   UNL A   1      33.222  16.486  24.244  1.00  0.00     0.199 A 
ATOM     28  H   UNL A   1      32.860  17.002  22.312  1.00  0.00     0.171 HD
ENDBRANCH  11  21
ENDBRANCH   3   5
ENDBRANCH   2   3
ENDBRANCH   1   2
BRANCH   1  29
ATOM     29  C   UNL A   1      33.072  28.782  24.606  1.00  0.00     0.275 C 
BRANCH  29  30
ATOM     30  O   UNL A   1      32.978  29.674  25.803  1.00  0.00    -0.458 OA
BRANCH  30  31
ATOM     31  C   UNL A   1      33.252  29.410  27.142  1.00  0.00     0.338 C 
ATOM     32  O   UNL A   1      32.527  28.736  27.851  1.00  0.00    -0.246 OA
BRANCH  31  33
ATOM     33  C   UNL A   1      34.427  30.191  27.652  1.00  0.00     0.060 A 
ATOM     34  C   UNL A   1      34.798  31.614  28.871  1.00  0.00     0.016 A 
ATOM     35  C   UNL A   1      35.754  29.417  26.838  1.00  0.00     0.016 A 
ATOM     36  C   UNL A   1      36.613  31.917  29.240  1.00  0.00     0.010 A 
ATOM     37  C   UNL A   1      37.333  29.663  27.324  1.00  0.00     0.010 A 
ATOM     38  C   UNL A   1      37.831  30.762  28.566  1.00  0.00    -0.014 A 
BRANCH  38  39
ATOM     39  C   UNL A   1      39.171  30.119  29.113  1.00  0.00     0.031 A 
ATOM     40  C   UNL A   1      39.945  28.913  28.613  1.00  0.00     0.074 A 
ATOM     41  C   UNL A   1      40.021  30.929  29.824  1.00  0.00     0.049 A 
ATOM     42  N   UNL A   1      40.545  28.029  29.367  1.00  0.00    -0.248 NA
ATOM     43  C   UNL A   1      40.276  28.703  27.205  1.00  0.00     0.031 C 
ATOM     44  C   UNL A   1      41.473  30.840  30.038  1.00  0.00     0.029 A 
ATOM     45  N   UNL A   1      39.725  32.097  30.506  1.00  0.00    -0.354 N 
ATOM     46  C   UNL A   1      41.425  27.313  28.546  1.00  0.00     0.074 A 
ATOM     47  C   UNL A   1      41.044  27.613  27.195  1.00  0.00     0.031 C 
ATOM     48  C   UNL A   1      41.853  31.739  30.971  1.00  0.00     0.029 A 
ATOM     49  C   UNL A   1      40.654  32.366  31.498  1.00  0.00     0.049 A 
ATOM     50  H   UNL A   1      38.948  32.668  30.310  1.00  0.00     0.167 HD
ATOM     51  C   UNL A   1      42.644  26.832  28.942  1.00  0.00     0.031 A 
ATOM     52  C   UNL A   1      40.269  32.511  32.803  1.00  0.00     0.031 A 
ATOM     53  C   UNL A   1      43.074  27.451  30.181  1.00  0.00     0.049 A 
ATOM     54  C   UNL A   1      40.762  31.334  33.603  1.00  0.00     0.074 A 
ATOM     55  C   UNL A   1      44.034  28.420  30.431  1.00  0.00     0.029 A 
ATOM     56  N   UNL A   1      42.334  27.303  31.335  1.00  0.00    -0.354 N 
ATOM     57  N   UNL A   1      41.319  30.300  33.047  1.00  0.00    -0.248 NA
ATOM     58  C   UNL A   1      40.621  31.176  35.045  1.00  0.00     0.031 C 
ATOM     59  C   UNL A   1      43.843  28.883  31.750  1.00  0.00     0.029 A 
ATOM     60  C   UNL A   1      42.789  28.175  32.301  1.00  0.00     0.049 A 
ATOM     61  H   UNL A   1      41.591  26.668  31.452  1.00  0.00     0.167 HD
ATOM     62  C   UNL A   1      41.608  29.364  33.985  1.00  0.00     0.074 A 
ATOM     63  C   UNL A   1      41.153  29.953  35.228  1.00  0.00     0.031 C 
ATOM     64  C   UNL A   1      42.185  28.186  33.621  1.00  0.00     0.031 A 
BRANCH  51  65
ATOM     65  C   UNL A   1      43.639  26.062  28.069  1.00  0.00    -0.014 A 
ATOM     66  C   UNL A   1      44.510  26.761  27.204  1.00  0.00     0.009 A 
ATOM     67  C   UNL A   1      43.838  24.670  28.130  1.00  0.00     0.009 A 
ATOM     68  C   UNL A   1      45.471  26.120  26.406  1.00  0.00     0.001 A 
ATOM     69  C   UNL A   1      44.788  24.017  27.318  1.00  0.00     0.001 A 
ATOM     70  C   UNL A   1      45.602  24.741  26.455  1.00  0.00     0.000 A 
ENDBRANCH  51  65
BRANCH  52  71
ATOM     71  C   UNL A   1      38.886  33.084  32.925  1.00  0.00    -0.014 A 
ATOM     72  C   UNL A   1      37.818  32.161  32.908  1.00  0.00     0.009 A 
ATOM     73  C   UNL A   1      38.757  34.261  33.681  1.00  0.00     0.009 A 
ATOM     74  C   UNL A   1      36.774  32.271  33.832  1.00  0.00     0.001 A 
ATOM     75  C   UNL A   1      37.735  34.337  34.626  1.00  0.00     0.001 A 
ATOM     76  C   UNL A   1      36.776  33.323  34.739  1.00  0.00     0.000 A 
ENDBRANCH  52  71
BRANCH  64  77
ATOM     77  C   UNL A   1      42.321  26.972  34.484  1.00  0.00    -0.014 A 
ATOM     78  C   UNL A   1      41.232  26.278  35.016  1.00  0.00     0.009 A 
ATOM     79  C   UNL A   1      43.603  26.413  34.682  1.00  0.00     0.009 A 
ATOM     80  C   UNL A   1      41.419  25.120  35.775  1.00  0.00     0.001 A 
ATOM     81  C   UNL A   1      43.788  25.227  35.387  1.00  0.00     0.001 A 
ATOM     82  C   UNL A   1      42.695  24.592  35.955  1.00  0.00     0.000 A 
ENDBRANCH  64  77
ENDBRANCH  38  39
ENDBRANCH  31  33
ENDBRANCH  30  31
ENDBRANCH  29  30
ENDBRANCH   1  29
TORSDOF 14
ENDMDL
