MODEL 1
REMARK VINA RESULT:      -9.8      0.000      0.000
REMARK SMILES CC[C@@H](C)[C@@H](C(=O)OCCOC(=O)c1ccc(-c2c3nc(c(-c4ccccc4)c4ccc([nH]4)c(-c4ccccc4)c4nc(c(-c5ccccc5)c5ccc2[nH]5)C=C4)C=C3)cc1)S(=O)(=O)c1ccc(OC)cc1
REMARK SMILES IDX 9 1 8 2 6 3 7 4 5 5 3 6 4 7 2 8 1 9 62 10 63 11 64 12 65 13
REMARK SMILES IDX 66 14 72 15 67 16 71 17 68 18 69 19 70 20 10 21 11 22 12 23
REMARK SMILES IDX 13 24 14 25 15 26 61 27 16 28 60 29 17 30 18 31 19 32 54 33
REMARK SMILES IDX 20 34 59 35 53 36 55 37 21 38 58 39 52 40 51 41 22 43 44 44
REMARK SMILES IDX 29 45 43 46 30 47 33 48 42 49 56 50 31 51 32 52 41 54 57 55
REMARK SMILES IDX 34 56 23 57 24 58 28 59 25 60 27 61 26 62 45 63 46 64 50 65
REMARK SMILES IDX 47 66 49 67 48 68 35 69 36 70 40 71 37 72 39 73 38 74
REMARK H PARENT 55 42 33 53
REMARK Flexibility Score: inf
ROOT
ATOM      1  C   UNL A   1      32.419  26.111  22.053  1.00  0.00     0.274 C 
ENDROOT
BRANCH   1   2
ATOM      2  O   UNL A   1      33.543  25.536  22.769  1.00  0.00    -0.461 OA
BRANCH   2   3
ATOM      3  C   UNL A   1      33.578  24.176  22.826  1.00  0.00     0.325 C 
ATOM      4  O   UNL A   1      33.608  23.464  21.828  1.00  0.00    -0.251 OA
BRANCH   3   5
ATOM      5  C   UNL A   1      33.449  23.613  24.228  1.00  0.00     0.225 C 
BRANCH   5   6
ATOM      6  C   UNL A   1      34.709  22.961  24.856  1.00  0.00     0.015 C 
ATOM      7  C   UNL A   1      34.691  23.091  26.392  1.00  0.00     0.009 C 
BRANCH   6   8
ATOM      8  C   UNL A   1      36.042  23.561  24.342  1.00  0.00     0.002 C 
ATOM      9  C   UNL A   1      37.254  22.760  24.817  1.00  0.00     0.004 C 
ENDBRANCH   6   8
ENDBRANCH   5   6
BRANCH   5  10
ATOM     10  S   UNL A   1      31.936  22.659  24.321  1.00  0.00     0.192 S 
ATOM     11  O   UNL A   1      31.308  22.885  25.609  1.00  0.00    -0.223 OA
ATOM     12  O   UNL A   1      31.151  22.943  23.130  1.00  0.00    -0.223 OA
BRANCH  10  13
ATOM     13  C   UNL A   1      32.303  20.912  24.267  1.00  0.00     0.068 A 
ATOM     14  C   UNL A   1      32.649  20.152  25.381  1.00  0.00     0.024 A 
ATOM     15  C   UNL A   1      32.154  20.264  23.049  1.00  0.00     0.024 A 
ATOM     16  C   UNL A   1      32.983  18.795  25.234  1.00  0.00     0.048 A 
ATOM     17  C   UNL A   1      32.502  18.919  22.906  1.00  0.00     0.048 A 
ATOM     18  C   UNL A   1      32.943  18.178  23.987  1.00  0.00     0.118 A 
BRANCH  18  19
ATOM     19  O   UNL A   1      33.318  16.865  23.936  1.00  0.00    -0.497 OA
ATOM     20  C   UNL A   1      33.081  16.094  25.114  1.00  0.00     0.278 C 
ENDBRANCH  18  19
ENDBRANCH  10  13
ENDBRANCH   5  10
ENDBRANCH   3   5
ENDBRANCH   2   3
ENDBRANCH   1   2
BRANCH   1  21
ATOM     21  C   UNL A   1      31.243  26.380  22.983  1.00  0.00     0.275 C 
BRANCH  21  22
ATOM     22  O   UNL A   1      31.736  26.965  24.200  1.00  0.00    -0.458 OA
BRANCH  22  23
ATOM     23  C   UNL A   1      31.764  28.310  24.199  1.00  0.00     0.338 C 
ATOM     24  O   UNL A   1      31.263  29.060  23.365  1.00  0.00    -0.246 OA
BRANCH  23  25
ATOM     25  C   UNL A   1      32.457  28.819  25.390  1.00  0.00     0.060 A 
ATOM     26  C   UNL A   1      32.165  30.096  25.872  1.00  0.00     0.016 A 
ATOM     27  C   UNL A   1      33.572  28.121  25.860  1.00  0.00     0.016 A 
ATOM     28  C   UNL A   1      33.072  30.723  26.736  1.00  0.00     0.010 A 
ATOM     29  C   UNL A   1      34.444  28.733  26.763  1.00  0.00     0.010 A 
ATOM     30  C   UNL A   1      34.235  30.062  27.169  1.00  0.00    -0.014 A 
BRANCH  30  31
ATOM     31  C   UNL A   1      35.244  30.718  28.042  1.00  0.00     0.031 A 
ATOM     32  C   UNL A   1      36.618  30.140  28.219  1.00  0.00     0.074 A 
ATOM     33  C   UNL A   1      34.937  31.824  28.734  1.00  0.00     0.049 A 
ATOM     34  N   UNL A   1      37.372  30.070  29.285  1.00  0.00    -0.248 NA
ATOM     35  C   UNL A   1      37.226  29.549  27.029  1.00  0.00     0.031 C 
ATOM     36  C   UNL A   1      33.712  32.606  28.597  1.00  0.00     0.029 A 
ATOM     37  N   UNL A   1      35.645  32.456  29.723  1.00  0.00    -0.354 N 
ATOM     38  C   UNL A   1      38.471  29.295  28.917  1.00  0.00     0.074 A 
ATOM     39  C   UNL A   1      38.295  28.943  27.527  1.00  0.00     0.031 C 
ATOM     40  C   UNL A   1      33.746  33.614  29.480  1.00  0.00     0.029 A 
ATOM     41  C   UNL A   1      34.932  33.464  30.314  1.00  0.00     0.049 A 
ATOM     42  H   UNL A   1      36.563  32.210  29.980  1.00  0.00     0.167 HD
ATOM     43  C   UNL A   1      39.540  28.949  29.675  1.00  0.00     0.031 A 
ATOM     44  C   UNL A   1      35.156  34.128  31.460  1.00  0.00     0.031 A 
ATOM     45  C   UNL A   1      39.809  29.542  30.960  1.00  0.00     0.049 A 
ATOM     46  C   UNL A   1      36.348  33.770  32.292  1.00  0.00     0.074 A 
ATOM     47  C   UNL A   1      40.860  29.304  31.829  1.00  0.00     0.029 A 
ATOM     48  N   UNL A   1      39.067  30.581  31.502  1.00  0.00    -0.354 N 
ATOM     49  N   UNL A   1      37.228  32.818  32.104  1.00  0.00    -0.248 NA
ATOM     50  C   UNL A   1      36.569  34.573  33.500  1.00  0.00     0.031 C 
ATOM     51  C   UNL A   1      40.766  30.218  32.886  1.00  0.00     0.029 A 
ATOM     52  C   UNL A   1      39.668  31.034  32.660  1.00  0.00     0.049 A 
ATOM     53  H   UNL A   1      38.236  30.941  31.118  1.00  0.00     0.167 HD
ATOM     54  C   UNL A   1      38.120  32.913  33.162  1.00  0.00     0.074 A 
ATOM     55  C   UNL A   1      37.674  34.023  33.984  1.00  0.00     0.031 C 
ATOM     56  C   UNL A   1      39.207  32.154  33.437  1.00  0.00     0.031 A 
BRANCH  43  57
ATOM     57  C   UNL A   1      40.496  27.906  29.162  1.00  0.00    -0.014 A 
ATOM     58  C   UNL A   1      40.151  26.553  29.049  1.00  0.00     0.009 A 
ATOM     59  C   UNL A   1      41.758  28.318  28.695  1.00  0.00     0.009 A 
ATOM     60  C   UNL A   1      41.054  25.632  28.505  1.00  0.00     0.001 A 
ATOM     61  C   UNL A   1      42.647  27.404  28.124  1.00  0.00     0.001 A 
ATOM     62  C   UNL A   1      42.296  26.059  28.035  1.00  0.00     0.000 A 
ENDBRANCH  43  57
BRANCH  44  63
ATOM     63  C   UNL A   1      34.156  35.130  31.894  1.00  0.00    -0.014 A 
ATOM     64  C   UNL A   1      34.281  36.471  31.511  1.00  0.00     0.009 A 
ATOM     65  C   UNL A   1      33.005  34.717  32.587  1.00  0.00     0.009 A 
ATOM     66  C   UNL A   1      33.265  37.381  31.806  1.00  0.00     0.001 A 
ATOM     67  C   UNL A   1      31.980  35.623  32.855  1.00  0.00     0.001 A 
ATOM     68  C   UNL A   1      32.112  36.954  32.466  1.00  0.00     0.000 A 
ENDBRANCH  44  63
BRANCH  56  69
ATOM     69  C   UNL A   1      40.019  32.546  34.631  1.00  0.00    -0.014 A 
ATOM     70  C   UNL A   1      39.755  31.997  35.894  1.00  0.00     0.009 A 
ATOM     71  C   UNL A   1      41.081  33.450  34.479  1.00  0.00     0.009 A 
ATOM     72  C   UNL A   1      40.528  32.372  36.993  1.00  0.00     0.001 A 
ATOM     73  C   UNL A   1      41.861  33.810  35.578  1.00  0.00     0.001 A 
ATOM     74  C   UNL A   1      41.579  33.275  36.835  1.00  0.00     0.000 A 
ENDBRANCH  56  69
ENDBRANCH  30  31
ENDBRANCH  23  25
ENDBRANCH  22  23
ENDBRANCH  21  22
ENDBRANCH   1  21
TORSDOF 16
ENDMDL
MODEL 2
REMARK VINA RESULT:      -9.7      4.200      9.641
REMARK SMILES CC[C@@H](C)[C@@H](C(=O)OCCOC(=O)c1ccc(-c2c3nc(c(-c4ccccc4)c4ccc([nH]4)c(-c4ccccc4)c4nc(c(-c5ccccc5)c5ccc2[nH]5)C=C4)C=C3)cc1)S(=O)(=O)c1ccc(OC)cc1
REMARK SMILES IDX 9 1 8 2 6 3 7 4 5 5 3 6 4 7 2 8 1 9 62 10 63 11 64 12 65 13
REMARK SMILES IDX 66 14 72 15 67 16 71 17 68 18 69 19 70 20 10 21 11 22 12 23
REMARK SMILES IDX 13 24 14 25 15 26 61 27 16 28 60 29 17 30 18 31 19 32 54 33
REMARK SMILES IDX 20 34 59 35 53 36 55 37 21 38 58 39 52 40 51 41 22 43 44 44
REMARK SMILES IDX 29 45 43 46 30 47 33 48 42 49 56 50 31 51 32 52 41 54 57 55
REMARK SMILES IDX 34 56 23 57 24 58 28 59 25 60 27 61 26 62 45 63 46 64 50 65
REMARK SMILES IDX 47 66 49 67 48 68 35 69 36 70 40 71 37 72 39 73 38 74
REMARK H PARENT 55 42 33 53
REMARK Flexibility Score: inf
ROOT
ATOM      1  C   UNL A   1      31.904  30.130  26.991  1.00  0.00     0.274 C 
ENDROOT
BRANCH   1   2
ATOM      2  O   UNL A   1      31.718  29.515  25.690  1.00  0.00    -0.461 OA
BRANCH   2   3
ATOM      3  C   UNL A   1      31.883  28.165  25.642  1.00  0.00     0.325 C 
ATOM      4  O   UNL A   1      32.326  27.510  26.580  1.00  0.00    -0.251 OA
BRANCH   3   5
ATOM      5  C   UNL A   1      31.590  27.554  24.285  1.00  0.00     0.225 C 
BRANCH   5   6
ATOM      6  C   UNL A   1      30.525  26.427  24.222  1.00  0.00     0.015 C 
ATOM      7  C   UNL A   1      29.212  26.942  23.600  1.00  0.00     0.009 C 
BRANCH   6   8
ATOM      8  C   UNL A   1      30.189  25.811  25.604  1.00  0.00     0.002 C 
ATOM      9  C   UNL A   1      30.795  24.417  25.774  1.00  0.00     0.004 C 
ENDBRANCH   6   8
ENDBRANCH   5   6
BRANCH   5  10
ATOM     10  S   UNL A   1      33.146  27.218  23.465  1.00  0.00     0.192 S 
ATOM     11  O   UNL A   1      32.989  27.431  22.038  1.00  0.00    -0.223 OA
ATOM     12  O   UNL A   1      34.187  27.971  24.147  1.00  0.00    -0.223 OA
BRANCH  10  13
ATOM     13  C   UNL A   1      33.581  25.496  23.647  1.00  0.00     0.068 A 
ATOM     14  C   UNL A   1      33.340  24.523  22.681  1.00  0.00     0.024 A 
ATOM     15  C   UNL A   1      34.274  25.128  24.792  1.00  0.00     0.024 A 
ATOM     16  C   UNL A   1      33.660  23.178  22.936  1.00  0.00     0.048 A 
ATOM     17  C   UNL A   1      34.576  23.788  25.047  1.00  0.00     0.048 A 
ATOM     18  C   UNL A   1      34.250  22.798  24.138  1.00  0.00     0.118 A 
BRANCH  18  19
ATOM     19  O   UNL A   1      34.493  21.465  24.311  1.00  0.00    -0.497 OA
ATOM     20  C   UNL A   1      35.498  21.125  25.267  1.00  0.00     0.278 C 
ENDBRANCH  18  19
ENDBRANCH  10  13
ENDBRANCH   5  10
ENDBRANCH   3   5
ENDBRANCH   2   3
ENDBRANCH   1   2
BRANCH   1  21
ATOM     21  C   UNL A   1      33.271  30.792  27.107  1.00  0.00     0.275 C 
BRANCH  21  22
ATOM     22  O   UNL A   1      34.063  30.060  28.057  1.00  0.00    -0.458 OA
BRANCH  22  23
ATOM     23  C   UNL A   1      35.131  30.732  28.526  1.00  0.00     0.338 C 
ATOM     24  O   UNL A   1      35.150  31.884  28.953  1.00  0.00    -0.246 OA
BRANCH  23  25
ATOM     25  C   UNL A   1      36.328  29.882  28.516  1.00  0.00     0.060 A 
ATOM     26  C   UNL A   1      36.811  29.345  29.711  1.00  0.00     0.016 A 
ATOM     27  C   UNL A   1      37.105  29.841  27.356  1.00  0.00     0.016 A 
ATOM     28  C   UNL A   1      38.130  28.880  29.766  1.00  0.00     0.010 A 
ATOM     29  C   UNL A   1      38.403  29.326  27.407  1.00  0.00     0.010 A 
ATOM     30  C   UNL A   1      38.951  28.890  28.625  1.00  0.00    -0.014 A 
BRANCH  30  31
ATOM     31  C   UNL A   1      40.372  28.455  28.662  1.00  0.00     0.031 A 
ATOM     32  C   UNL A   1      41.489  29.445  28.821  1.00  0.00     0.074 A 
ATOM     33  C   UNL A   1      40.698  27.164  28.507  1.00  0.00     0.049 A 
ATOM     34  N   UNL A   1      42.671  29.478  28.265  1.00  0.00    -0.248 NA
ATOM     35  C   UNL A   1      41.235  30.560  29.730  1.00  0.00     0.031 C 
ATOM     36  C   UNL A   1      39.762  26.043  28.473  1.00  0.00     0.029 A 
ATOM     37  N   UNL A   1      41.930  26.594  28.318  1.00  0.00    -0.354 N 
ATOM     38  C   UNL A   1      43.232  30.696  28.647  1.00  0.00     0.074 A 
ATOM     39  C   UNL A   1      42.271  31.357  29.499  1.00  0.00     0.031 C 
ATOM     40  C   UNL A   1      40.453  24.914  28.264  1.00  0.00     0.029 A 
ATOM     41  C   UNL A   1      41.850  25.258  28.030  1.00  0.00     0.049 A 
ATOM     42  H   UNL A   1      42.777  27.092  28.382  1.00  0.00     0.167 HD
ATOM     43  C   UNL A   1      44.456  31.187  28.333  1.00  0.00     0.031 A 
ATOM     44  C   UNL A   1      42.776  24.422  27.533  1.00  0.00     0.031 A 
ATOM     45  C   UNL A   1      45.481  30.387  27.713  1.00  0.00     0.049 A 
ATOM     46  C   UNL A   1      44.139  24.948  27.207  1.00  0.00     0.074 A 
ATOM     47  C   UNL A   1      46.770  30.743  27.355  1.00  0.00     0.029 A 
ATOM     48  N   UNL A   1      45.356  29.028  27.465  1.00  0.00    -0.354 N 
ATOM     49  N   UNL A   1      44.584  26.179  27.275  1.00  0.00    -0.248 NA
ATOM     50  C   UNL A   1      45.121  23.971  26.725  1.00  0.00     0.031 C 
ATOM     51  C   UNL A   1      47.432  29.591  26.913  1.00  0.00     0.029 A 
ATOM     52  C   UNL A   1      46.560  28.519  27.016  1.00  0.00     0.049 A 
ATOM     53  H   UNL A   1      44.533  28.505  27.590  1.00  0.00     0.167 HD
ATOM     54  C   UNL A   1      45.906  26.126  26.858  1.00  0.00     0.074 A 
ATOM     55  C   UNL A   1      46.189  24.737  26.546  1.00  0.00     0.031 C 
ATOM     56  C   UNL A   1      46.807  27.130  26.739  1.00  0.00     0.031 A 
BRANCH  43  57
ATOM     57  C   UNL A   1      44.771  32.626  28.644  1.00  0.00    -0.014 A 
ATOM     58  C   UNL A   1      45.446  33.018  29.807  1.00  0.00     0.009 A 
ATOM     59  C   UNL A   1      44.452  33.608  27.689  1.00  0.00     0.009 A 
ATOM     60  C   UNL A   1      45.772  34.362  30.019  1.00  0.00     0.001 A 
ATOM     61  C   UNL A   1      44.806  34.945  27.886  1.00  0.00     0.001 A 
ATOM     62  C   UNL A   1      45.460  35.322  29.057  1.00  0.00     0.000 A 
ENDBRANCH  43  57
BRANCH  44  63
ATOM     63  C   UNL A   1      42.375  23.026  27.246  1.00  0.00    -0.014 A 
ATOM     64  C   UNL A   1      42.427  22.051  28.251  1.00  0.00     0.009 A 
ATOM     65  C   UNL A   1      41.817  22.699  25.999  1.00  0.00     0.009 A 
ATOM     66  C   UNL A   1      41.918  20.773  28.012  1.00  0.00     0.001 A 
ATOM     67  C   UNL A   1      41.284  21.430  25.774  1.00  0.00     0.001 A 
ATOM     68  C   UNL A   1      41.337  20.469  26.781  1.00  0.00     0.000 A 
ENDBRANCH  44  63
BRANCH  56  69
ATOM     69  C   UNL A   1      48.192  26.746  26.320  1.00  0.00    -0.014 A 
ATOM     70  C   UNL A   1      48.548  26.696  24.965  1.00  0.00     0.009 A 
ATOM     71  C   UNL A   1      49.158  26.465  27.299  1.00  0.00     0.009 A 
ATOM     72  C   UNL A   1      49.846  26.342  24.597  1.00  0.00     0.001 A 
ATOM     73  C   UNL A   1      50.458  26.127  26.926  1.00  0.00     0.001 A 
ATOM     74  C   UNL A   1      50.799  26.059  25.575  1.00  0.00     0.000 A 
ENDBRANCH  56  69
ENDBRANCH  30  31
ENDBRANCH  23  25
ENDBRANCH  22  23
ENDBRANCH  21  22
ENDBRANCH   1  21
TORSDOF 16
ENDMDL
MODEL 3
REMARK VINA RESULT:      -9.7      4.167      9.651
REMARK SMILES CC[C@@H](C)[C@@H](C(=O)OCCOC(=O)c1ccc(-c2c3nc(c(-c4ccccc4)c4ccc([nH]4)c(-c4ccccc4)c4nc(c(-c5ccccc5)c5ccc2[nH]5)C=C4)C=C3)cc1)S(=O)(=O)c1ccc(OC)cc1
REMARK SMILES IDX 9 1 8 2 6 3 7 4 5 5 3 6 4 7 2 8 1 9 62 10 63 11 64 12 65 13
REMARK SMILES IDX 66 14 72 15 67 16 71 17 68 18 69 19 70 20 10 21 11 22 12 23
REMARK SMILES IDX 13 24 14 25 15 26 61 27 16 28 60 29 17 30 18 31 19 32 54 33
REMARK SMILES IDX 20 34 59 35 53 36 55 37 21 38 58 39 52 40 51 41 22 43 44 44
REMARK SMILES IDX 29 45 43 46 30 47 33 48 42 49 56 50 31 51 32 52 41 54 57 55
REMARK SMILES IDX 34 56 23 57 24 58 28 59 25 60 27 61 26 62 45 63 46 64 50 65
REMARK SMILES IDX 47 66 49 67 48 68 35 69 36 70 40 71 37 72 39 73 38 74
REMARK H PARENT 55 42 33 53
REMARK Flexibility Score: inf
ROOT
ATOM      1  C   UNL A   1      33.761  28.759  26.454  1.00  0.00     0.274 C 
ENDROOT
BRANCH   1   2
ATOM      2  O   UNL A   1      32.993  28.683  25.224  1.00  0.00    -0.461 OA
BRANCH   2   3
ATOM      3  C   UNL A   1      31.846  27.953  25.285  1.00  0.00     0.325 C 
ATOM      4  O   UNL A   1      31.264  27.706  26.336  1.00  0.00    -0.251 OA
BRANCH   3   5
ATOM      5  C   UNL A   1      31.418  27.364  23.956  1.00  0.00     0.225 C 
BRANCH   5   6
ATOM      6  C   UNL A   1      30.278  28.084  23.187  1.00  0.00     0.015 C 
ATOM      7  C   UNL A   1      30.275  29.596  23.493  1.00  0.00     0.009 C 
BRANCH   6   8
ATOM      8  C   UNL A   1      28.866  27.530  23.504  1.00  0.00     0.002 C 
ATOM      9  C   UNL A   1      27.762  28.511  23.110  1.00  0.00     0.004 C 
ENDBRANCH   6   8
ENDBRANCH   5   6
BRANCH   5  10
ATOM     10  S   UNL A   1      31.245  25.592  24.148  1.00  0.00     0.192 S 
ATOM     11  O   UNL A   1      30.264  25.318  25.182  1.00  0.00    -0.223 OA
ATOM     12  O   UNL A   1      31.014  25.016  22.832  1.00  0.00    -0.223 OA
BRANCH  10  13
ATOM     13  C   UNL A   1      32.773  24.881  24.737  1.00  0.00     0.068 A 
ATOM     14  C   UNL A   1      34.017  25.108  24.154  1.00  0.00     0.024 A 
ATOM     15  C   UNL A   1      32.720  24.119  25.896  1.00  0.00     0.024 A 
ATOM     16  C   UNL A   1      35.159  24.455  24.647  1.00  0.00     0.048 A 
ATOM     17  C   UNL A   1      33.855  23.461  26.373  1.00  0.00     0.048 A 
ATOM     18  C   UNL A   1      35.078  23.600  25.742  1.00  0.00     0.118 A 
BRANCH  18  19
ATOM     19  O   UNL A   1      36.234  22.982  26.130  1.00  0.00    -0.497 OA
ATOM     20  C   UNL A   1      37.443  23.706  25.901  1.00  0.00     0.278 C 
ENDBRANCH  18  19
ENDBRANCH  10  13
ENDBRANCH   5  10
ENDBRANCH   3   5
ENDBRANCH   2   3
ENDBRANCH   1   2
BRANCH   1  21
ATOM     21  C   UNL A   1      33.399  29.997  27.264  1.00  0.00     0.275 C 
BRANCH  21  22
ATOM     22  O   UNL A   1      34.513  30.905  27.249  1.00  0.00    -0.458 OA
BRANCH  22  23
ATOM     23  C   UNL A   1      35.167  31.002  28.421  1.00  0.00     0.338 C 
ATOM     24  O   UNL A   1      34.866  31.708  29.380  1.00  0.00    -0.246 OA
BRANCH  23  25
ATOM     25  C   UNL A   1      36.318  30.091  28.453  1.00  0.00     0.060 A 
ATOM     26  C   UNL A   1      36.727  29.529  29.665  1.00  0.00     0.016 A 
ATOM     27  C   UNL A   1      37.134  30.009  27.323  1.00  0.00     0.016 A 
ATOM     28  C   UNL A   1      38.017  28.995  29.768  1.00  0.00     0.010 A 
ATOM     29  C   UNL A   1      38.400  29.426  27.421  1.00  0.00     0.010 A 
ATOM     30  C   UNL A   1      38.879  28.963  28.657  1.00  0.00    -0.014 A 
BRANCH  30  31
ATOM     31  C   UNL A   1      40.273  28.453  28.747  1.00  0.00     0.031 A 
ATOM     32  C   UNL A   1      41.431  29.381  28.973  1.00  0.00     0.074 A 
ATOM     33  C   UNL A   1      40.539  27.150  28.579  1.00  0.00     0.049 A 
ATOM     34  N   UNL A   1      42.637  29.362  28.468  1.00  0.00    -0.248 NA
ATOM     35  C   UNL A   1      41.195  30.491  29.892  1.00  0.00     0.031 C 
ATOM     36  C   UNL A   1      39.550  26.081  28.483  1.00  0.00     0.029 A 
ATOM     37  N   UNL A   1      41.747  26.521  28.432  1.00  0.00    -0.354 N 
ATOM     38  C   UNL A   1      43.242  30.543  28.898  1.00  0.00     0.074 A 
ATOM     39  C   UNL A   1      42.279  31.237  29.722  1.00  0.00     0.031 C 
ATOM     40  C   UNL A   1      40.190  24.921  28.280  1.00  0.00     0.029 A 
ATOM     41  C   UNL A   1      41.612  25.196  28.114  1.00  0.00     0.049 A 
ATOM     42  H   UNL A   1      42.615  26.972  28.541  1.00  0.00     0.167 HD
ATOM     43  C   UNL A   1      44.502  30.974  28.647  1.00  0.00     0.031 A 
ATOM     44  C   UNL A   1      42.514  24.322  27.639  1.00  0.00     0.031 A 
ATOM     45  C   UNL A   1      45.511  30.134  28.054  1.00  0.00     0.049 A 
ATOM     46  C   UNL A   1      43.915  24.782  27.382  1.00  0.00     0.074 A 
ATOM     47  C   UNL A   1      46.831  30.428  27.759  1.00  0.00     0.029 A 
ATOM     48  N   UNL A   1      45.328  28.788  27.774  1.00  0.00    -0.354 N 
ATOM     49  N   UNL A   1      44.420  25.987  27.494  1.00  0.00    -0.248 NA
ATOM     50  C   UNL A   1      44.866  23.764  26.923  1.00  0.00     0.031 C 
ATOM     51  C   UNL A   1      47.452  29.252  27.323  1.00  0.00     0.029 A 
ATOM     52  C   UNL A   1      46.522  28.225  27.367  1.00  0.00     0.049 A 
ATOM     53  H   UNL A   1      44.474  28.306  27.853  1.00  0.00     0.167 HD
ATOM     54  C   UNL A   1      45.754  25.872  27.133  1.00  0.00     0.074 A 
ATOM     55  C   UNL A   1      45.979  24.477  26.805  1.00  0.00     0.031 C 
ATOM     56  C   UNL A   1      46.710  26.830  27.072  1.00  0.00     0.031 A 
BRANCH  43  57
ATOM     57  C   UNL A   1      44.876  32.389  29.000  1.00  0.00    -0.014 A 
ATOM     58  C   UNL A   1      45.521  32.725  30.198  1.00  0.00     0.009 A 
ATOM     59  C   UNL A   1      44.648  33.404  28.052  1.00  0.00     0.009 A 
ATOM     60  C   UNL A   1      45.905  34.046  30.451  1.00  0.00     0.001 A 
ATOM     61  C   UNL A   1      45.061  34.717  28.292  1.00  0.00     0.001 A 
ATOM     62  C   UNL A   1      45.684  35.039  29.496  1.00  0.00     0.000 A 
ENDBRANCH  43  57
BRANCH  44  63
ATOM     63  C   UNL A   1      42.055  22.953  27.308  1.00  0.00    -0.014 A 
ATOM     64  C   UNL A   1      42.092  21.938  28.272  1.00  0.00     0.009 A 
ATOM     65  C   UNL A   1      41.459  22.697  26.061  1.00  0.00     0.009 A 
ATOM     66  C   UNL A   1      41.530  20.691  27.995  1.00  0.00     0.001 A 
ATOM     67  C   UNL A   1      40.874  21.459  25.800  1.00  0.00     0.001 A 
ATOM     68  C   UNL A   1      40.912  20.457  26.767  1.00  0.00     0.000 A 
ENDBRANCH  44  63
BRANCH  56  69
ATOM     69  C   UNL A   1      48.090  26.383  26.705  1.00  0.00    -0.014 A 
ATOM     70  C   UNL A   1      48.531  26.422  25.375  1.00  0.00     0.009 A 
ATOM     71  C   UNL A   1      48.967  25.949  27.711  1.00  0.00     0.009 A 
ATOM     72  C   UNL A   1      49.823  26.005  25.055  1.00  0.00     0.001 A 
ATOM     73  C   UNL A   1      50.263  25.549  27.389  1.00  0.00     0.001 A 
ATOM     74  C   UNL A   1      50.688  25.571  26.060  1.00  0.00     0.000 A 
ENDBRANCH  56  69
ENDBRANCH  30  31
ENDBRANCH  23  25
ENDBRANCH  22  23
ENDBRANCH  21  22
ENDBRANCH   1  21
TORSDOF 16
ENDMDL
