MODEL 1
REMARK VINA RESULT:      -9.9      0.000      0.000
REMARK SMILES CCc1cc(OC[C@@H]2C[N@@H+](CC)CCO2)c(C(=O)OCCOC(=O)c2ccc(-c3c4nc(c(-c5ccccc5)c5ccc([nH]5)c(-c5ccccc5)c5nc(c(-c6ccccc6)c6ccc3[nH]6)C=C5)C=C4)cc2)s1
REMARK SMILES IDX 20 1 19 2 17 3 18 4 16 5 3 6 4 7 73 8 5 9 2 10 1 11 6 12
REMARK SMILES IDX 7 13 8 14 9 15 15 16 10 17 14 18 13 19 11 21 12 22 21 23
REMARK SMILES IDX 22 24 23 25 24 26 25 27 26 28 72 29 27 30 71 31 28 32 29 33
REMARK SMILES IDX 30 34 65 35 31 36 70 37 64 38 66 39 32 40 69 41 63 42 62 43
REMARK SMILES IDX 33 45 55 46 40 47 54 48 41 49 44 50 53 51 67 52 42 53 43 54
REMARK SMILES IDX 52 56 68 57 45 58 34 59 35 60 39 61 36 62 38 63 37 64 56 65
REMARK SMILES IDX 57 66 61 67 58 68 60 69 59 70 46 71 47 72 51 73 48 74 50 75
REMARK SMILES IDX 49 76
REMARK H PARENT 10 20 66 44 44 55
REMARK Flexibility Score: inf
ROOT
ATOM      1  C   UNL A   1      32.135  29.908  25.591  1.00  0.00     0.275 C 
ENDROOT
BRANCH   1   2
ATOM      2  O   UNL A   1      31.874  28.494  25.670  1.00  0.00    -0.458 OA
BRANCH   2   3
ATOM      3  C   UNL A   1      32.632  27.675  24.882  1.00  0.00     0.352 C 
ATOM      4  O   UNL A   1      33.611  28.057  24.248  1.00  0.00    -0.245 OA
BRANCH   3   5
ATOM      5  C   UNL A   1      32.197  26.298  25.012  1.00  0.00     0.155 A 
ATOM      6  C   UNL A   1      31.921  24.011  25.939  1.00  0.00     0.009 A 
ATOM      7  C   UNL A   1      30.843  24.415  25.178  1.00  0.00     0.062 A 
ATOM      8  S   UNL A   1      33.156  25.196  25.933  1.00  0.00    -0.130 S 
ATOM      9  C   UNL A   1      31.129  25.616  24.465  1.00  0.00     0.145 A 
BRANCH   6  10
ATOM     10  C   UNL A   1      32.133  22.668  26.573  1.00  0.00     0.043 C 
ATOM     11  C   UNL A   1      33.167  22.673  27.685  1.00  0.00     0.010 C 
ENDBRANCH   6  10
BRANCH   9  12
ATOM     12  O   UNL A   1      30.472  26.073  23.370  1.00  0.00    -0.489 OA
BRANCH  12  13
ATOM     13  C   UNL A   1      29.254  26.792  23.687  1.00  0.00     0.267 C 
BRANCH  13  14
ATOM     14  C   UNL A   1      29.266  28.298  23.306  1.00  0.00     0.210 C 
ATOM     15  C   UNL A   1      27.842  28.832  23.034  1.00  0.00     0.298 C 
ATOM     16  O   UNL A   1      30.033  28.463  22.097  1.00  0.00    -0.363 OA
ATOM     17  N   UNL A   1      27.776  30.201  22.485  1.00  0.00    -0.331 N 
ATOM     18  C   UNL A   1      30.166  29.840  21.755  1.00  0.00     0.222 C 
ATOM     19  C   UNL A   1      28.789  30.426  21.442  1.00  0.00     0.291 C 
ATOM     20  H   UNL A   1      26.870  30.252  22.018  1.00  0.00     0.348 HD
BRANCH  17  21
ATOM     21  C   UNL A   1      27.646  31.280  23.461  1.00  0.00     0.258 C 
ATOM     22  C   UNL A   1      28.402  32.577  23.211  1.00  0.00     0.071 C 
ENDBRANCH  17  21
ENDBRANCH  13  14
ENDBRANCH  12  13
ENDBRANCH   9  12
ENDBRANCH   3   5
ENDBRANCH   2   3
ENDBRANCH   1   2
BRANCH   1  23
ATOM     23  C   UNL A   1      32.421  30.482  26.982  1.00  0.00     0.275 C 
BRANCH  23  24
ATOM     24  O   UNL A   1      33.609  29.897  27.551  1.00  0.00    -0.458 OA
BRANCH  24  25
ATOM     25  C   UNL A   1      34.476  30.779  28.097  1.00  0.00     0.338 C 
ATOM     26  O   UNL A   1      34.235  31.901  28.509  1.00  0.00    -0.246 OA
BRANCH  25  27
ATOM     27  C   UNL A   1      35.795  30.151  28.255  1.00  0.00     0.060 A 
ATOM     28  C   UNL A   1      36.092  29.596  29.497  1.00  0.00     0.016 A 
ATOM     29  C   UNL A   1      36.772  30.215  27.265  1.00  0.00     0.016 A 
ATOM     30  C   UNL A   1      37.367  29.123  29.777  1.00  0.00     0.010 A 
ATOM     31  C   UNL A   1      38.053  29.712  27.534  1.00  0.00     0.010 A 
ATOM     32  C   UNL A   1      38.367  29.179  28.800  1.00  0.00    -0.014 A 
BRANCH  32  33
ATOM     33  C   UNL A   1      39.741  28.725  29.140  1.00  0.00     0.031 A 
ATOM     34  C   UNL A   1      40.649  29.601  29.961  1.00  0.00     0.074 A 
ATOM     35  C   UNL A   1      40.159  27.503  28.755  1.00  0.00     0.049 A 
ATOM     36  N   UNL A   1      41.891  29.395  30.322  1.00  0.00    -0.248 NA
ATOM     37  C   UNL A   1      40.090  30.876  30.433  1.00  0.00     0.031 C 
ATOM     38  C   UNL A   1      39.359  26.535  28.001  1.00  0.00     0.029 A 
ATOM     39  N   UNL A   1      41.355  26.860  28.959  1.00  0.00    -0.354 N 
ATOM     40  C   UNL A   1      42.270  30.525  31.036  1.00  0.00     0.074 A 
ATOM     41  C   UNL A   1      41.135  31.423  31.038  1.00  0.00     0.031 C 
ATOM     42  C   UNL A   1      40.077  25.414  27.829  1.00  0.00     0.029 A 
ATOM     43  C   UNL A   1      41.405  25.605  28.402  1.00  0.00     0.049 A 
ATOM     44  H   UNL A   1      42.104  27.261  29.455  1.00  0.00     0.167 HD
ATOM     45  C   UNL A   1      43.456  30.791  31.636  1.00  0.00     0.031 A 
ATOM     46  C   UNL A   1      42.414  24.716  28.338  1.00  0.00     0.031 A 
ATOM     47  C   UNL A   1      44.582  29.893  31.643  1.00  0.00     0.049 A 
ATOM     48  C   UNL A   1      43.738  25.060  28.959  1.00  0.00     0.074 A 
ATOM     49  C   UNL A   1      45.821  30.068  32.236  1.00  0.00     0.029 A 
ATOM     50  N   UNL A   1      44.607  28.651  31.027  1.00  0.00    -0.354 N 
ATOM     51  N   UNL A   1      44.084  26.135  29.626  1.00  0.00    -0.248 NA
ATOM     52  C   UNL A   1      44.812  24.067  28.820  1.00  0.00     0.031 C 
ATOM     53  C   UNL A   1      46.614  28.958  31.930  1.00  0.00     0.029 A 
ATOM     54  C   UNL A   1      45.847  28.060  31.204  1.00  0.00     0.049 A 
ATOM     55  H   UNL A   1      43.855  28.249  30.536  1.00  0.00     0.167 HD
ATOM     56  C   UNL A   1      45.403  25.935  30.010  1.00  0.00     0.074 A 
ATOM     57  C   UNL A   1      45.790  24.630  29.515  1.00  0.00     0.031 C 
ATOM     58  C   UNL A   1      46.220  26.760  30.710  1.00  0.00     0.031 A 
BRANCH  45  59
ATOM     59  C   UNL A   1      43.611  32.132  32.303  1.00  0.00    -0.014 A 
ATOM     60  C   UNL A   1      44.061  33.259  31.596  1.00  0.00     0.009 A 
ATOM     61  C   UNL A   1      43.267  32.275  33.657  1.00  0.00     0.009 A 
ATOM     62  C   UNL A   1      44.200  34.491  32.244  1.00  0.00     0.001 A 
ATOM     63  C   UNL A   1      43.378  33.513  34.292  1.00  0.00     0.001 A 
ATOM     64  C   UNL A   1      43.855  34.617  33.588  1.00  0.00     0.000 A 
ENDBRANCH  45  59
BRANCH  46  65
ATOM     65  C   UNL A   1      42.219  23.422  27.631  1.00  0.00    -0.014 A 
ATOM     66  C   UNL A   1      42.544  23.288  26.272  1.00  0.00     0.009 A 
ATOM     67  C   UNL A   1      41.699  22.310  28.314  1.00  0.00     0.009 A 
ATOM     68  C   UNL A   1      42.332  22.078  25.609  1.00  0.00     0.001 A 
ATOM     69  C   UNL A   1      41.519  21.092  27.656  1.00  0.00     0.001 A 
ATOM     70  C   UNL A   1      41.826  20.979  26.303  1.00  0.00     0.000 A 
ENDBRANCH  46  65
BRANCH  58  71
ATOM     71  C   UNL A   1      47.600  26.253  31.026  1.00  0.00    -0.014 A 
ATOM     72  C   UNL A   1      47.913  25.705  32.281  1.00  0.00     0.009 A 
ATOM     73  C   UNL A   1      48.595  26.296  30.037  1.00  0.00     0.009 A 
ATOM     74  C   UNL A   1      49.204  25.248  32.548  1.00  0.00     0.001 A 
ATOM     75  C   UNL A   1      49.877  25.809  30.297  1.00  0.00     0.001 A 
ATOM     76  C   UNL A   1      50.183  25.295  31.556  1.00  0.00     0.000 A 
ENDBRANCH  58  71
ENDBRANCH  32  33
ENDBRANCH  25  27
ENDBRANCH  24  25
ENDBRANCH  23  24
ENDBRANCH   1  23
TORSDOF 16
ENDMDL
MODEL 2
REMARK VINA RESULT:      -9.8      2.906      4.940
REMARK SMILES CCc1cc(OC[C@@H]2C[N@@H+](CC)CCO2)c(C(=O)OCCOC(=O)c2ccc(-c3c4nc(c(-c5ccccc5)c5ccc([nH]5)c(-c5ccccc5)c5nc(c(-c6ccccc6)c6ccc3[nH]6)C=C5)C=C4)cc2)s1
REMARK SMILES IDX 20 1 19 2 17 3 18 4 16 5 3 6 4 7 73 8 5 9 2 10 1 11 6 12
REMARK SMILES IDX 7 13 8 14 9 15 15 16 10 17 14 18 13 19 11 21 12 22 21 23
REMARK SMILES IDX 22 24 23 25 24 26 25 27 26 28 72 29 27 30 71 31 28 32 29 33
REMARK SMILES IDX 30 34 65 35 31 36 70 37 64 38 66 39 32 40 69 41 63 42 62 43
REMARK SMILES IDX 33 45 55 46 40 47 54 48 41 49 44 50 53 51 67 52 42 53 43 54
REMARK SMILES IDX 52 56 68 57 45 58 34 59 35 60 39 61 36 62 38 63 37 64 56 65
REMARK SMILES IDX 57 66 61 67 58 68 60 69 59 70 46 71 47 72 51 73 48 74 50 75
REMARK SMILES IDX 49 76
REMARK H PARENT 10 20 66 44 44 55
REMARK Flexibility Score: inf
ROOT
ATOM      1  C   UNL A   1      33.090  27.086  26.251  1.00  0.00     0.275 C 
ENDROOT
BRANCH   1   2
ATOM      2  O   UNL A   1      33.911  25.914  26.090  1.00  0.00    -0.458 OA
BRANCH   2   3
ATOM      3  C   UNL A   1      33.277  24.747  25.772  1.00  0.00     0.352 C 
ATOM      4  O   UNL A   1      32.080  24.674  25.508  1.00  0.00    -0.245 OA
BRANCH   3   5
ATOM      5  C   UNL A   1      34.232  23.662  25.663  1.00  0.00     0.155 A 
ATOM      6  C   UNL A   1      36.401  22.455  25.594  1.00  0.00     0.009 A 
ATOM      7  C   UNL A   1      35.362  21.666  26.045  1.00  0.00     0.062 A 
ATOM      8  S   UNL A   1      35.842  24.007  25.141  1.00  0.00    -0.130 S 
ATOM      9  C   UNL A   1      34.101  22.300  25.844  1.00  0.00     0.145 A 
BRANCH   6  10
ATOM     10  C   UNL A   1      37.819  22.033  25.343  1.00  0.00     0.043 C 
ATOM     11  C   UNL A   1      38.817  22.636  26.313  1.00  0.00     0.010 C 
ENDBRANCH   6  10
BRANCH   9  12
ATOM     12  O   UNL A   1      32.892  21.687  25.813  1.00  0.00    -0.489 OA
BRANCH  12  13
ATOM     13  C   UNL A   1      32.456  21.338  24.475  1.00  0.00     0.267 C 
BRANCH  13  14
ATOM     14  C   UNL A   1      32.298  19.815  24.215  1.00  0.00     0.210 C 
ATOM     15  C   UNL A   1      33.361  18.990  24.974  1.00  0.00     0.298 C 
ATOM     16  O   UNL A   1      32.472  19.565  22.807  1.00  0.00    -0.363 OA
ATOM     17  N   UNL A   1      33.402  17.553  24.637  1.00  0.00    -0.331 N 
ATOM     18  C   UNL A   1      32.235  18.196  22.493  1.00  0.00     0.222 C 
ATOM     19  C   UNL A   1      33.278  17.321  23.190  1.00  0.00     0.291 C 
ATOM     20  H   UNL A   1      34.342  17.252  24.895  1.00  0.00     0.348 HD
BRANCH  17  21
ATOM     21  C   UNL A   1      32.590  16.674  25.475  1.00  0.00     0.258 C 
ATOM     22  C   UNL A   1      32.896  15.183  25.469  1.00  0.00     0.071 C 
ENDBRANCH  17  21
ENDBRANCH  13  14
ENDBRANCH  12  13
ENDBRANCH   9  12
ENDBRANCH   3   5
ENDBRANCH   2   3
ENDBRANCH   1   2
BRANCH   1  23
ATOM     23  C   UNL A   1      33.957  28.347  26.312  1.00  0.00     0.275 C 
BRANCH  23  24
ATOM     24  O   UNL A   1      34.023  28.868  27.655  1.00  0.00    -0.458 OA
BRANCH  24  25
ATOM     25  C   UNL A   1      34.657  30.056  27.777  1.00  0.00     0.338 C 
ATOM     26  O   UNL A   1      34.177  31.171  27.667  1.00  0.00    -0.246 OA
BRANCH  25  27
ATOM     27  C   UNL A   1      36.048  29.839  28.197  1.00  0.00     0.060 A 
ATOM     28  C   UNL A   1      37.038  30.002  27.233  1.00  0.00     0.016 A 
ATOM     29  C   UNL A   1      36.376  29.359  29.463  1.00  0.00     0.016 A 
ATOM     30  C   UNL A   1      38.359  29.666  27.505  1.00  0.00     0.010 A 
ATOM     31  C   UNL A   1      37.712  29.046  29.751  1.00  0.00     0.010 A 
ATOM     32  C   UNL A   1      38.712  29.179  28.768  1.00  0.00    -0.014 A 
BRANCH  32  33
ATOM     33  C   UNL A   1      40.118  28.768  29.020  1.00  0.00     0.031 A 
ATOM     34  C   UNL A   1      41.064  29.694  29.737  1.00  0.00     0.074 A 
ATOM     35  C   UNL A   1      40.536  27.541  28.650  1.00  0.00     0.049 A 
ATOM     36  N   UNL A   1      42.333  29.529  30.011  1.00  0.00    -0.248 NA
ATOM     37  C   UNL A   1      40.510  30.974  30.203  1.00  0.00     0.031 C 
ATOM     38  C   UNL A   1      39.706  26.528  27.995  1.00  0.00     0.029 A 
ATOM     39  N   UNL A   1      41.759  26.933  28.787  1.00  0.00    -0.354 N 
ATOM     40  C   UNL A   1      42.737  30.694  30.653  1.00  0.00     0.074 A 
ATOM     41  C   UNL A   1      41.584  31.566  30.707  1.00  0.00     0.031 C 
ATOM     42  C   UNL A   1      40.436  25.417  27.810  1.00  0.00     0.029 A 
ATOM     43  C   UNL A   1      41.799  25.659  28.275  1.00  0.00     0.049 A 
ATOM     44  H   UNL A   1      42.534  27.369  29.210  1.00  0.00     0.167 HD
ATOM     45  C   UNL A   1      43.958  31.008  31.152  1.00  0.00     0.031 A 
ATOM     46  C   UNL A   1      42.821  24.789  28.167  1.00  0.00     0.031 A 
ATOM     47  C   UNL A   1      45.102  30.136  31.106  1.00  0.00     0.049 A 
ATOM     48  C   UNL A   1      44.179  25.186  28.674  1.00  0.00     0.074 A 
ATOM     49  C   UNL A   1      46.378  30.360  31.598  1.00  0.00     0.029 A 
ATOM     50  N   UNL A   1      45.112  28.872  30.536  1.00  0.00    -0.354 N 
ATOM     51  N   UNL A   1      44.547  26.293  29.273  1.00  0.00    -0.248 NA
ATOM     52  C   UNL A   1      45.263  24.211  28.490  1.00  0.00     0.031 C 
ATOM     53  C   UNL A   1      47.172  29.256  31.273  1.00  0.00     0.029 A 
ATOM     54  C   UNL A   1      46.376  28.315  30.642  1.00  0.00     0.049 A 
ATOM     55  H   UNL A   1      44.335  28.435  30.118  1.00  0.00     0.167 HD
ATOM     56  C   UNL A   1      45.896  26.136  29.563  1.00  0.00     0.074 A 
ATOM     57  C   UNL A   1      46.276  24.822  29.089  1.00  0.00     0.031 C 
ATOM     58  C   UNL A   1      46.743  27.004  30.168  1.00  0.00     0.031 A 
BRANCH  45  59
ATOM     59  C   UNL A   1      44.129  32.377  31.755  1.00  0.00    -0.014 A 
ATOM     60  C   UNL A   1      43.929  32.609  33.124  1.00  0.00     0.009 A 
ATOM     61  C   UNL A   1      44.533  33.446  30.939  1.00  0.00     0.009 A 
ATOM     62  C   UNL A   1      44.091  33.893  33.655  1.00  0.00     0.001 A 
ATOM     63  C   UNL A   1      44.724  34.719  31.477  1.00  0.00     0.001 A 
ATOM     64  C   UNL A   1      44.493  34.944  32.833  1.00  0.00     0.000 A 
ENDBRANCH  45  59
BRANCH  46  65
ATOM     65  C   UNL A   1      42.606  23.465  27.524  1.00  0.00    -0.014 A 
ATOM     66  C   UNL A   1      42.237  22.346  28.288  1.00  0.00     0.009 A 
ATOM     67  C   UNL A   1      42.776  23.312  26.138  1.00  0.00     0.009 A 
ATOM     68  C   UNL A   1      42.065  21.101  27.680  1.00  0.00     0.001 A 
ATOM     69  C   UNL A   1      42.572  22.072  25.529  1.00  0.00     0.001 A 
ATOM     70  C   UNL A   1      42.226  20.966  26.302  1.00  0.00     0.000 A 
ENDBRANCH  46  65
BRANCH  58  71
ATOM     71  C   UNL A   1      48.154  26.540  30.398  1.00  0.00    -0.014 A 
ATOM     72  C   UNL A   1      48.521  25.852  31.566  1.00  0.00     0.009 A 
ATOM     73  C   UNL A   1      49.126  26.769  29.411  1.00  0.00     0.009 A 
ATOM     74  C   UNL A   1      49.841  25.438  31.755  1.00  0.00     0.001 A 
ATOM     75  C   UNL A   1      50.437  26.325  29.589  1.00  0.00     0.001 A 
ATOM     76  C   UNL A   1      50.796  25.670  30.765  1.00  0.00     0.000 A 
ENDBRANCH  58  71
ENDBRANCH  32  33
ENDBRANCH  25  27
ENDBRANCH  24  25
ENDBRANCH  23  24
ENDBRANCH   1  23
TORSDOF 16
ENDMDL
MODEL 3
REMARK VINA RESULT:      -9.8      4.102      8.570
REMARK SMILES CCc1cc(OC[C@@H]2C[N@@H+](CC)CCO2)c(C(=O)OCCOC(=O)c2ccc(-c3c4nc(c(-c5ccccc5)c5ccc([nH]5)c(-c5ccccc5)c5nc(c(-c6ccccc6)c6ccc3[nH]6)C=C5)C=C4)cc2)s1
REMARK SMILES IDX 20 1 19 2 17 3 18 4 16 5 3 6 4 7 73 8 5 9 2 10 1 11 6 12
REMARK SMILES IDX 7 13 8 14 9 15 15 16 10 17 14 18 13 19 11 21 12 22 21 23
REMARK SMILES IDX 22 24 23 25 24 26 25 27 26 28 72 29 27 30 71 31 28 32 29 33
REMARK SMILES IDX 30 34 65 35 31 36 70 37 64 38 66 39 32 40 69 41 63 42 62 43
REMARK SMILES IDX 33 45 55 46 40 47 54 48 41 49 44 50 53 51 67 52 42 53 43 54
REMARK SMILES IDX 52 56 68 57 45 58 34 59 35 60 39 61 36 62 38 63 37 64 56 65
REMARK SMILES IDX 57 66 61 67 58 68 60 69 59 70 46 71 47 72 51 73 48 74 50 75
REMARK SMILES IDX 49 76
REMARK H PARENT 10 20 66 44 44 55
REMARK Flexibility Score: inf
ROOT
ATOM      1  C   UNL A   1      36.736  22.258  24.048  1.00  0.00     0.275 C 
ENDROOT
BRANCH   1   2
ATOM      2  O   UNL A   1      35.300  22.241  24.153  1.00  0.00    -0.458 OA
BRANCH   2   3
ATOM      3  C   UNL A   1      34.609  23.152  23.406  1.00  0.00     0.352 C 
ATOM      4  O   UNL A   1      34.688  23.230  22.184  1.00  0.00    -0.245 OA
BRANCH   3   5
ATOM      5  C   UNL A   1      33.692  23.904  24.240  1.00  0.00     0.155 A 
ATOM      6  C   UNL A   1      32.704  25.790  25.518  1.00  0.00     0.009 A 
ATOM      7  C   UNL A   1      31.755  24.903  25.050  1.00  0.00     0.062 A 
ATOM      8  S   UNL A   1      34.284  25.256  25.135  1.00  0.00    -0.130 S 
ATOM      9  C   UNL A   1      32.357  23.716  24.540  1.00  0.00     0.145 A 
BRANCH   6  10
ATOM     10  C   UNL A   1      32.476  26.985  26.395  1.00  0.00     0.043 C 
ATOM     11  C   UNL A   1      31.505  27.995  25.812  1.00  0.00     0.010 C 
ENDBRANCH   6  10
BRANCH   9  12
ATOM     12  O   UNL A   1      31.745  22.520  24.360  1.00  0.00    -0.489 OA
BRANCH  12  13
ATOM     13  C   UNL A   1      32.029  21.563  25.412  1.00  0.00     0.267 C 
BRANCH  13  14
ATOM     14  C   UNL A   1      32.111  20.084  24.945  1.00  0.00     0.210 C 
ATOM     15  C   UNL A   1      33.279  19.332  25.622  1.00  0.00     0.298 C 
ATOM     16  O   UNL A   1      32.340  20.060  23.523  1.00  0.00    -0.363 OA
ATOM     17  N   UNL A   1      33.546  17.978  25.097  1.00  0.00    -0.331 N 
ATOM     18  C   UNL A   1      32.320  18.726  23.020  1.00  0.00     0.222 C 
ATOM     19  C   UNL A   1      33.477  17.932  23.628  1.00  0.00     0.291 C 
ATOM     20  H   UNL A   1      34.517  17.790  25.344  1.00  0.00     0.348 HD
BRANCH  17  21
ATOM     21  C   UNL A   1      32.867  16.880  25.781  1.00  0.00     0.258 C 
ATOM     22  C   UNL A   1      32.890  15.502  25.136  1.00  0.00     0.071 C 
ENDBRANCH  17  21
ENDBRANCH  13  14
ENDBRANCH  12  13
ENDBRANCH   9  12
ENDBRANCH   3   5
ENDBRANCH   2   3
ENDBRANCH   1   2
BRANCH   1  23
ATOM     23  C   UNL A   1      37.340  21.020  24.718  1.00  0.00     0.275 C 
BRANCH  23  24
ATOM     24  O   UNL A   1      37.808  21.326  26.047  1.00  0.00    -0.458 OA
BRANCH  24  25
ATOM     25  C   UNL A   1      39.146  21.226  26.220  1.00  0.00     0.338 C 
ATOM     26  O   UNL A   1      39.867  20.291  25.917  1.00  0.00    -0.246 OA
BRANCH  25  27
ATOM     27  C   UNL A   1      39.679  22.493  26.737  1.00  0.00     0.060 A 
ATOM     28  C   UNL A   1      39.182  23.668  26.180  1.00  0.00     0.016 A 
ATOM     29  C   UNL A   1      40.732  22.540  27.647  1.00  0.00     0.016 A 
ATOM     30  C   UNL A   1      39.741  24.899  26.500  1.00  0.00     0.010 A 
ATOM     31  C   UNL A   1      41.280  23.784  27.995  1.00  0.00     0.010 A 
ATOM     32  C   UNL A   1      40.802  24.972  27.409  1.00  0.00    -0.014 A 
BRANCH  32  33
ATOM     33  C   UNL A   1      41.427  26.291  27.690  1.00  0.00     0.031 A 
ATOM     34  C   UNL A   1      42.753  26.651  27.075  1.00  0.00     0.074 A 
ATOM     35  C   UNL A   1      40.781  27.190  28.459  1.00  0.00     0.049 A 
ATOM     36  N   UNL A   1      43.472  27.733  27.236  1.00  0.00    -0.248 NA
ATOM     37  C   UNL A   1      43.350  25.662  26.164  1.00  0.00     0.031 C 
ATOM     38  C   UNL A   1      39.467  26.988  29.073  1.00  0.00     0.029 A 
ATOM     39  N   UNL A   1      41.136  28.459  28.843  1.00  0.00    -0.354 N 
ATOM     40  C   UNL A   1      44.618  27.543  26.472  1.00  0.00     0.074 A 
ATOM     41  C   UNL A   1      44.509  26.233  25.867  1.00  0.00     0.031 C 
ATOM     42  C   UNL A   1      39.116  28.102  29.733  1.00  0.00     0.029 A 
ATOM     43  C   UNL A   1      40.203  29.072  29.644  1.00  0.00     0.049 A 
ATOM     44  H   UNL A   1      41.979  28.889  28.571  1.00  0.00     0.167 HD
ATOM     45  C   UNL A   1      45.666  28.384  26.291  1.00  0.00     0.031 A 
ATOM     46  C   UNL A   1      40.227  30.269  30.259  1.00  0.00     0.031 A 
ATOM     47  C   UNL A   1      45.769  29.692  26.885  1.00  0.00     0.049 A 
ATOM     48  C   UNL A   1      41.428  31.157  30.091  1.00  0.00     0.074 A 
ATOM     49  C   UNL A   1      46.786  30.622  26.750  1.00  0.00     0.029 A 
ATOM     50  N   UNL A   1      44.824  30.255  27.729  1.00  0.00    -0.354 N 
ATOM     51  N   UNL A   1      42.506  30.962  29.371  1.00  0.00    -0.248 NA
ATOM     52  C   UNL A   1      41.414  32.433  30.820  1.00  0.00     0.031 C 
ATOM     53  C   UNL A   1      46.482  31.723  27.556  1.00  0.00     0.029 A 
ATOM     54  C   UNL A   1      45.244  31.509  28.140  1.00  0.00     0.049 A 
ATOM     55  H   UNL A   1      43.978  29.826  27.995  1.00  0.00     0.167 HD
ATOM     56  C   UNL A   1      43.284  32.100  29.537  1.00  0.00     0.074 A 
ATOM     57  C   UNL A   1      42.547  32.987  30.413  1.00  0.00     0.031 C 
ATOM     58  C   UNL A   1      44.501  32.384  29.010  1.00  0.00     0.031 A 
BRANCH  45  59
ATOM     59  C   UNL A   1      46.810  27.894  25.444  1.00  0.00    -0.014 A 
ATOM     60  C   UNL A   1      47.890  27.189  26.000  1.00  0.00     0.009 A 
ATOM     61  C   UNL A   1      46.788  28.115  24.058  1.00  0.00     0.009 A 
ATOM     62  C   UNL A   1      48.941  26.751  25.189  1.00  0.00     0.001 A 
ATOM     63  C   UNL A   1      47.824  27.650  23.246  1.00  0.00     0.001 A 
ATOM     64  C   UNL A   1      48.905  26.978  23.814  1.00  0.00     0.000 A 
ENDBRANCH  45  59
BRANCH  46  65
ATOM     65  C   UNL A   1      39.087  30.686  31.119  1.00  0.00    -0.014 A 
ATOM     66  C   UNL A   1      39.033  30.317  32.472  1.00  0.00     0.009 A 
ATOM     67  C   UNL A   1      38.039  31.455  30.585  1.00  0.00     0.009 A 
ATOM     68  C   UNL A   1      37.945  30.690  33.263  1.00  0.00     0.001 A 
ATOM     69  C   UNL A   1      36.969  31.853  31.387  1.00  0.00     0.001 A 
ATOM     70  C   UNL A   1      36.918  31.462  32.723  1.00  0.00     0.000 A 
ENDBRANCH  46  65
BRANCH  58  71
ATOM     71  C   UNL A   1      45.089  33.731  29.327  1.00  0.00    -0.014 A 
ATOM     72  C   UNL A   1      44.826  34.855  28.527  1.00  0.00     0.009 A 
ATOM     73  C   UNL A   1      45.895  33.881  30.467  1.00  0.00     0.009 A 
ATOM     74  C   UNL A   1      45.391  36.092  28.843  1.00  0.00     0.001 A 
ATOM     75  C   UNL A   1      46.432  35.127  30.797  1.00  0.00     0.001 A 
ATOM     76  C   UNL A   1      46.188  36.228  29.979  1.00  0.00     0.000 A 
ENDBRANCH  58  71
ENDBRANCH  32  33
ENDBRANCH  25  27
ENDBRANCH  24  25
ENDBRANCH  23  24
ENDBRANCH   1  23
TORSDOF 16
ENDMDL
