MODEL 1
REMARK VINA RESULT:     -13.2      0.000      0.000
REMARK SMILES O=C(OCCOC(=O)[C@H]1[C@H]2CC[C@H](C2)[C@@H]1C(=O)Nc1sc2c(c1C(=O)NC1CCCCC1)CCCC2)c1ccc(-c2c3nc(c(-c4ccccc4)c4ccc([nH]4)c(-c4ccccc4)c4nc(c(-c5ccccc5)c5ccc2[nH]5)C=C4)C=C3)cc1
REMARK SMILES IDX 5 1 4 2 3 3 2 4 1 5 37 6 38 7 84 8 39 9 83 10 40 11 41 12
REMARK SMILES IDX 42 13 77 14 43 15 82 16 76 17 78 18 44 19 81 20 75 21 74 22
REMARK SMILES IDX 45 24 67 25 52 26 66 27 53 28 56 29 65 30 79 31 54 32 55 33
REMARK SMILES IDX 64 35 80 36 57 37 46 38 47 39 51 40 48 41 50 42 49 43 68 44
REMARK SMILES IDX 69 45 73 46 70 47 72 48 71 49 58 50 59 51 63 52 60 53 62 54
REMARK SMILES IDX 61 55 6 56 7 57 8 58 9 59 10 60 15 61 11 62 14 63 13 64
REMARK SMILES IDX 12 65 16 66 17 67 18 68 19 70 20 71 23 72 21 73 22 74 36 75
REMARK SMILES IDX 33 76 35 77 34 78 24 79 25 80 26 81 27 83 28 84 32 85 29 86
REMARK SMILES IDX 31 87 30 88
REMARK H PARENT 78 23 56 34 18 69 26 82
REMARK Flexibility Score: inf
ROOT
ATOM      1  C   UNL A   1      31.786  29.381  26.758  1.00  0.00     0.274 C 
ENDROOT
BRANCH   1   2
ATOM      2  C   UNL A   1      32.468  30.734  27.009  1.00  0.00     0.275 C 
BRANCH   2   3
ATOM      3  O   UNL A   1      33.894  30.729  27.159  1.00  0.00    -0.458 OA
BRANCH   3   4
ATOM      4  C   UNL A   1      34.656  31.044  28.231  1.00  0.00     0.338 C 
ATOM      5  O   UNL A   1      34.311  31.976  28.955  1.00  0.00    -0.246 OA
BRANCH   4   6
ATOM      6  C   UNL A   1      35.962  30.372  28.523  1.00  0.00     0.060 A 
ATOM      7  C   UNL A   1      36.327  29.758  29.723  1.00  0.00     0.016 A 
ATOM      8  C   UNL A   1      36.898  30.365  27.484  1.00  0.00     0.016 A 
ATOM      9  C   UNL A   1      37.542  29.079  29.857  1.00  0.00     0.010 A 
ATOM     10  C   UNL A   1      38.114  29.684  27.610  1.00  0.00     0.010 A 
ATOM     11  C   UNL A   1      38.450  29.029  28.800  1.00  0.00    -0.014 A 
BRANCH  11  12
ATOM     12  C   UNL A   1      39.828  28.517  29.028  1.00  0.00     0.031 A 
ATOM     13  C   UNL A   1      40.792  29.452  29.709  1.00  0.00     0.074 A 
ATOM     14  C   UNL A   1      40.177  27.253  28.703  1.00  0.00     0.049 A 
ATOM     15  N   UNL A   1      42.078  29.337  29.900  1.00  0.00    -0.248 NA
ATOM     16  C   UNL A   1      40.221  30.708  30.241  1.00  0.00     0.031 C 
ATOM     17  C   UNL A   1      39.290  26.273  28.074  1.00  0.00     0.029 A 
ATOM     18  N   UNL A   1      41.361  26.563  28.854  1.00  0.00    -0.354 N 
ATOM     19  C   UNL A   1      42.458  30.503  30.557  1.00  0.00     0.074 A 
ATOM     20  C   UNL A   1      41.300  31.355  30.641  1.00  0.00     0.031 C 
ATOM     21  C   UNL A   1      39.943  25.105  27.938  1.00  0.00     0.029 A 
ATOM     22  C   UNL A   1      41.331  25.269  28.367  1.00  0.00     0.049 A 
ATOM     23  H   UNL A   1      42.160  26.959  29.273  1.00  0.00     0.167 HD
ATOM     24  C   UNL A   1      43.654  30.806  31.109  1.00  0.00     0.031 A 
ATOM     25  C   UNL A   1      42.330  24.362  28.234  1.00  0.00     0.031 A 
ATOM     26  C   UNL A   1      44.786  29.937  31.011  1.00  0.00     0.049 A 
ATOM     27  C   UNL A   1      43.721  24.833  28.657  1.00  0.00     0.074 A 
ATOM     28  C   UNL A   1      46.054  30.090  31.534  1.00  0.00     0.029 A 
ATOM     29  N   UNL A   1      44.761  28.724  30.337  1.00  0.00    -0.354 N 
ATOM     30  N   UNL A   1      44.081  25.985  29.186  1.00  0.00    -0.248 NA
ATOM     31  C   UNL A   1      44.858  23.935  28.394  1.00  0.00     0.031 C 
ATOM     32  C   UNL A   1      46.809  28.979  31.146  1.00  0.00     0.029 A 
ATOM     33  C   UNL A   1      45.989  28.111  30.437  1.00  0.00     0.049 A 
ATOM     34  H   UNL A   1      43.982  28.358  29.859  1.00  0.00     0.167 HD
ATOM     35  C   UNL A   1      45.461  25.925  29.352  1.00  0.00     0.074 A 
ATOM     36  C   UNL A   1      45.885  24.642  28.839  1.00  0.00     0.031 C 
ATOM     37  C   UNL A   1      46.322  26.825  29.887  1.00  0.00     0.031 A 
BRANCH  24  38
ATOM     38  C   UNL A   1      43.747  32.092  31.882  1.00  0.00    -0.014 A 
ATOM     39  C   UNL A   1      43.421  32.127  33.251  1.00  0.00     0.009 A 
ATOM     40  C   UNL A   1      44.124  33.285  31.250  1.00  0.00     0.009 A 
ATOM     41  C   UNL A   1      43.407  33.335  33.951  1.00  0.00     0.001 A 
ATOM     42  C   UNL A   1      44.146  34.488  31.963  1.00  0.00     0.001 A 
ATOM     43  C   UNL A   1      43.771  34.514  33.306  1.00  0.00     0.000 A 
ENDBRANCH  24  38
BRANCH  25  44
ATOM     44  C   UNL A   1      42.155  23.035  27.518  1.00  0.00    -0.014 A 
ATOM     45  C   UNL A   1      41.746  21.856  28.155  1.00  0.00     0.009 A 
ATOM     46  C   UNL A   1      42.561  22.897  26.182  1.00  0.00     0.009 A 
ATOM     47  C   UNL A   1      41.883  20.602  27.530  1.00  0.00     0.001 A 
ATOM     48  C   UNL A   1      42.655  21.664  25.529  1.00  0.00     0.001 A 
ATOM     49  C   UNL A   1      42.353  20.505  26.222  1.00  0.00     0.000 A 
ENDBRANCH  25  44
BRANCH  37  50
ATOM     50  C   UNL A   1      47.748  26.385  30.033  1.00  0.00    -0.014 A 
ATOM     51  C   UNL A   1      48.695  26.592  29.022  1.00  0.00     0.009 A 
ATOM     52  C   UNL A   1      48.146  25.804  31.248  1.00  0.00     0.009 A 
ATOM     53  C   UNL A   1      50.022  26.209  29.225  1.00  0.00     0.001 A 
ATOM     54  C   UNL A   1      49.475  25.447  31.456  1.00  0.00     0.001 A 
ATOM     55  C   UNL A   1      50.411  25.644  30.442  1.00  0.00     0.000 A 
ENDBRANCH  37  50
ENDBRANCH  11  12
ENDBRANCH   4   6
ENDBRANCH   3   4
ENDBRANCH   2   3
ENDBRANCH   1   2
BRANCH   1  56
ATOM     56  O   UNL A   1      31.993  28.762  25.474  1.00  0.00    -0.462 OA
BRANCH  56  57
ATOM     57  C   UNL A   1      32.296  27.430  25.504  1.00  0.00     0.310 C 
ATOM     58  O   UNL A   1      33.442  26.993  25.487  1.00  0.00    -0.252 OA
BRANCH  57  59
ATOM     59  C   UNL A   1      31.044  26.571  25.407  1.00  0.00     0.115 C 
ATOM     60  C   UNL A   1      30.236  27.144  24.192  1.00  0.00     0.004 C 
ATOM     61  C   UNL A   1      31.252  25.069  25.015  1.00  0.00     0.096 C 
ATOM     62  C   UNL A   1      30.991  27.146  22.848  1.00  0.00     0.005 C 
ATOM     63  C   UNL A   1      29.319  25.981  23.924  1.00  0.00     0.009 C 
ATOM     64  C   UNL A   1      30.453  24.972  23.710  1.00  0.00     0.003 C 
ATOM     65  C   UNL A   1      31.258  25.657  22.593  1.00  0.00     0.005 C 
BRANCH  61  66
ATOM     66  C   UNL A   1      30.992  23.878  25.997  1.00  0.00     0.229 C 
ATOM     67  O   UNL A   1      30.067  24.019  26.817  1.00  0.00    -0.274 OA
ATOM     68  N   UNL A   1      31.614  22.665  26.050  1.00  0.00    -0.317 N 
ATOM     69  H   UNL A   1      31.090  21.949  26.478  1.00  0.00     0.170 HD
BRANCH  68  70
ATOM     70  C   UNL A   1      32.846  22.287  25.603  1.00  0.00     0.108 A 
ATOM     71  S   UNL A   1      33.983  21.699  26.766  1.00  0.00    -0.122 S 
ATOM     72  C   UNL A   1      33.289  21.780  24.381  1.00  0.00     0.078 A 
ATOM     73  C   UNL A   1      35.210  22.040  25.632  1.00  0.00     0.011 A 
ATOM     74  C   UNL A   1      34.660  22.227  24.372  1.00  0.00    -0.019 A 
ATOM     75  C   UNL A   1      36.630  22.279  26.017  1.00  0.00     0.047 C 
ATOM     76  C   UNL A   1      35.445  22.920  23.312  1.00  0.00     0.037 C 
ATOM     77  C   UNL A   1      37.264  23.288  25.047  1.00  0.00     0.006 C 
ATOM     78  C   UNL A   1      36.952  22.938  23.590  1.00  0.00     0.005 C 
BRANCH  72  79
ATOM     79  C   UNL A   1      32.374  21.223  23.382  1.00  0.00     0.254 C 
ATOM     80  O   UNL A   1      31.615  21.965  22.757  1.00  0.00    -0.269 OA
ATOM     81  N   UNL A   1      32.192  19.861  23.230  1.00  0.00    -0.349 N 
ATOM     82  H   UNL A   1      31.465  19.622  22.611  1.00  0.00     0.164 HD
BRANCH  81  83
ATOM     83  C   UNL A   1      32.872  18.713  23.812  1.00  0.00     0.082 C 
ATOM     84  C   UNL A   1      32.150  18.042  24.978  1.00  0.00     0.025 C 
ATOM     85  C   UNL A   1      33.197  17.608  22.795  1.00  0.00     0.025 C 
ATOM     86  C   UNL A   1      33.134  17.105  25.677  1.00  0.00     0.002 C 
ATOM     87  C   UNL A   1      34.117  16.542  23.407  1.00  0.00     0.002 C 
ATOM     88  C   UNL A   1      33.601  15.998  24.739  1.00  0.00     0.000 C 
ENDBRANCH  81  83
ENDBRANCH  72  79
ENDBRANCH  68  70
ENDBRANCH  61  66
ENDBRANCH  57  59
ENDBRANCH  56  57
ENDBRANCH   1  56
TORSDOF 15
ENDMDL
MODEL 2
REMARK VINA RESULT:     -13.1      2.405      6.525
REMARK SMILES O=C(OCCOC(=O)[C@H]1[C@H]2CC[C@H](C2)[C@@H]1C(=O)Nc1sc2c(c1C(=O)NC1CCCCC1)CCCC2)c1ccc(-c2c3nc(c(-c4ccccc4)c4ccc([nH]4)c(-c4ccccc4)c4nc(c(-c5ccccc5)c5ccc2[nH]5)C=C4)C=C3)cc1
REMARK SMILES IDX 5 1 4 2 3 3 2 4 1 5 37 6 38 7 84 8 39 9 83 10 40 11 41 12
REMARK SMILES IDX 42 13 77 14 43 15 82 16 76 17 78 18 44 19 81 20 75 21 74 22
REMARK SMILES IDX 45 24 67 25 52 26 66 27 53 28 56 29 65 30 79 31 54 32 55 33
REMARK SMILES IDX 64 35 80 36 57 37 46 38 47 39 51 40 48 41 50 42 49 43 68 44
REMARK SMILES IDX 69 45 73 46 70 47 72 48 71 49 58 50 59 51 63 52 60 53 62 54
REMARK SMILES IDX 61 55 6 56 7 57 8 58 9 59 10 60 15 61 11 62 14 63 13 64
REMARK SMILES IDX 12 65 16 66 17 67 18 68 19 70 20 71 23 72 21 73 22 74 36 75
REMARK SMILES IDX 33 76 35 77 34 78 24 79 25 80 26 81 27 83 28 84 32 85 29 86
REMARK SMILES IDX 31 87 30 88
REMARK H PARENT 78 23 56 34 18 69 26 82
REMARK Flexibility Score: inf
ROOT
ATOM      1  C   UNL A   1      32.363  30.020  26.953  1.00  0.00     0.274 C 
ENDROOT
BRANCH   1   2
ATOM      2  C   UNL A   1      31.658  31.383  26.964  1.00  0.00     0.275 C 
BRANCH   2   3
ATOM      3  O   UNL A   1      32.486  32.548  26.844  1.00  0.00    -0.458 OA
BRANCH   3   4
ATOM      4  C   UNL A   1      33.052  33.314  27.804  1.00  0.00     0.338 C 
ATOM      5  O   UNL A   1      32.491  34.354  28.145  1.00  0.00    -0.246 OA
BRANCH   4   6
ATOM      6  C   UNL A   1      34.388  33.006  28.404  1.00  0.00     0.060 A 
ATOM      7  C   UNL A   1      35.629  33.431  27.926  1.00  0.00     0.016 A 
ATOM      8  C   UNL A   1      34.379  32.215  29.558  1.00  0.00     0.016 A 
ATOM      9  C   UNL A   1      36.813  33.159  28.619  1.00  0.00     0.010 A 
ATOM     10  C   UNL A   1      35.559  31.943  30.259  1.00  0.00     0.010 A 
ATOM     11  C   UNL A   1      36.792  32.416  29.798  1.00  0.00    -0.014 A 
BRANCH  11  12
ATOM     12  C   UNL A   1      38.067  31.931  30.393  1.00  0.00     0.031 A 
ATOM     13  C   UNL A   1      38.643  30.664  29.817  1.00  0.00     0.074 A 
ATOM     14  C   UNL A   1      38.710  32.628  31.355  1.00  0.00     0.049 A 
ATOM     15  N   UNL A   1      39.645  29.936  30.229  1.00  0.00    -0.248 NA
ATOM     16  C   UNL A   1      37.982  30.136  28.604  1.00  0.00     0.031 C 
ATOM     17  C   UNL A   1      38.236  33.884  31.940  1.00  0.00     0.029 A 
ATOM     18  N   UNL A   1      39.899  32.396  32.013  1.00  0.00    -0.354 N 
ATOM     19  C   UNL A   1      39.717  28.872  29.335  1.00  0.00     0.074 A 
ATOM     20  C   UNL A   1      38.606  28.987  28.427  1.00  0.00     0.031 C 
ATOM     21  C   UNL A   1      39.142  34.330  32.829  1.00  0.00     0.029 A 
ATOM     22  C   UNL A   1      40.216  33.347  32.966  1.00  0.00     0.049 A 
ATOM     23  H   UNL A   1      40.473  31.620  31.821  1.00  0.00     0.167 HD
ATOM     24  C   UNL A   1      40.671  27.920  29.235  1.00  0.00     0.031 A 
ATOM     25  C   UNL A   1      41.222  33.372  33.875  1.00  0.00     0.031 A 
ATOM     26  C   UNL A   1      41.767  27.834  30.153  1.00  0.00     0.049 A 
ATOM     27  C   UNL A   1      42.147  32.156  33.882  1.00  0.00     0.074 A 
ATOM     28  C   UNL A   1      42.823  26.946  30.172  1.00  0.00     0.029 A 
ATOM     29  N   UNL A   1      41.938  28.702  31.222  1.00  0.00    -0.354 N 
ATOM     30  N   UNL A   1      42.136  31.102  33.090  1.00  0.00    -0.248 NA
ATOM     31  C   UNL A   1      43.161  32.071  34.946  1.00  0.00     0.031 C 
ATOM     32  C   UNL A   1      43.620  27.260  31.278  1.00  0.00     0.029 A 
ATOM     33  C   UNL A   1      43.088  28.379  31.905  1.00  0.00     0.049 A 
ATOM     34  H   UNL A   1      41.326  29.438  31.457  1.00  0.00     0.167 HD
ATOM     35  C   UNL A   1      43.158  30.269  33.535  1.00  0.00     0.074 A 
ATOM     36  C   UNL A   1      43.749  30.915  34.685  1.00  0.00     0.031 C 
ATOM     37  C   UNL A   1      43.598  29.082  33.049  1.00  0.00     0.031 A 
BRANCH  24  38
ATOM     38  C   UNL A   1      40.568  26.962  28.082  1.00  0.00    -0.014 A 
ATOM     39  C   UNL A   1      39.865  25.751  28.221  1.00  0.00     0.009 A 
ATOM     40  C   UNL A   1      41.199  27.238  26.860  1.00  0.00     0.009 A 
ATOM     41  C   UNL A   1      39.851  24.811  27.189  1.00  0.00     0.001 A 
ATOM     42  C   UNL A   1      41.151  26.311  25.815  1.00  0.00     0.001 A 
ATOM     43  C   UNL A   1      40.493  25.093  25.987  1.00  0.00     0.000 A 
ENDBRANCH  24  38
BRANCH  25  44
ATOM     44  C   UNL A   1      41.325  34.420  34.968  1.00  0.00    -0.014 A 
ATOM     45  C   UNL A   1      40.603  34.366  36.168  1.00  0.00     0.009 A 
ATOM     46  C   UNL A   1      42.049  35.601  34.745  1.00  0.00     0.009 A 
ATOM     47  C   UNL A   1      40.500  35.489  37.011  1.00  0.00     0.001 A 
ATOM     48  C   UNL A   1      41.998  36.709  35.598  1.00  0.00     0.001 A 
ATOM     49  C   UNL A   1      41.185  36.666  36.716  1.00  0.00     0.000 A 
ENDBRANCH  25  44
BRANCH  37  50
ATOM     50  C   UNL A   1      44.821  28.504  33.698  1.00  0.00    -0.014 A 
ATOM     51  C   UNL A   1      46.114  28.854  33.287  1.00  0.00     0.009 A 
ATOM     52  C   UNL A   1      44.650  27.635  34.787  1.00  0.00     0.009 A 
ATOM     53  C   UNL A   1      47.221  28.327  33.955  1.00  0.00     0.001 A 
ATOM     54  C   UNL A   1      45.756  27.132  35.467  1.00  0.00     0.001 A 
ATOM     55  C   UNL A   1      47.041  27.474  35.047  1.00  0.00     0.000 A 
ENDBRANCH  37  50
ENDBRANCH  11  12
ENDBRANCH   4   6
ENDBRANCH   3   4
ENDBRANCH   2   3
ENDBRANCH   1   2
BRANCH   1  56
ATOM     56  O   UNL A   1      31.540  28.846  27.094  1.00  0.00    -0.462 OA
BRANCH  56  57
ATOM     57  C   UNL A   1      32.097  27.679  26.650  1.00  0.00     0.310 C 
ATOM     58  O   UNL A   1      33.305  27.480  26.599  1.00  0.00    -0.252 OA
BRANCH  57  59
ATOM     59  C   UNL A   1      31.041  26.735  26.092  1.00  0.00     0.115 C 
ATOM     60  C   UNL A   1      30.541  27.404  24.766  1.00  0.00     0.004 C 
ATOM     61  C   UNL A   1      31.540  25.331  25.613  1.00  0.00     0.096 C 
ATOM     62  C   UNL A   1      31.635  27.666  23.713  1.00  0.00     0.005 C 
ATOM     63  C   UNL A   1      29.891  26.215  24.111  1.00  0.00     0.009 C 
ATOM     64  C   UNL A   1      31.158  25.352  24.128  1.00  0.00     0.003 C 
ATOM     65  C   UNL A   1      32.151  26.260  23.382  1.00  0.00     0.005 C 
BRANCH  61  66
ATOM     66  C   UNL A   1      31.168  23.992  26.334  1.00  0.00     0.229 C 
ATOM     67  O   UNL A   1      30.238  24.039  27.160  1.00  0.00    -0.274 OA
ATOM     68  N   UNL A   1      31.696  22.747  26.148  1.00  0.00    -0.317 N 
ATOM     69  H   UNL A   1      31.110  22.004  26.420  1.00  0.00     0.170 HD
BRANCH  68  70
ATOM     70  C   UNL A   1      32.906  22.371  25.643  1.00  0.00     0.108 A 
ATOM     71  S   UNL A   1      34.092  21.768  26.749  1.00  0.00    -0.122 S 
ATOM     72  C   UNL A   1      33.294  21.876  24.398  1.00  0.00     0.078 A 
ATOM     73  C   UNL A   1      35.269  22.118  25.566  1.00  0.00     0.011 A 
ATOM     74  C   UNL A   1      34.664  22.319  24.333  1.00  0.00    -0.019 A 
ATOM     75  C   UNL A   1      36.705  22.349  25.890  1.00  0.00     0.047 C 
ATOM     76  C   UNL A   1      35.404  23.020  23.247  1.00  0.00     0.037 C 
ATOM     77  C   UNL A   1      37.299  23.366  24.903  1.00  0.00     0.006 C 
ATOM     78  C   UNL A   1      36.922  23.032  23.458  1.00  0.00     0.005 C 
BRANCH  72  79
ATOM     79  C   UNL A   1      32.334  21.330  23.434  1.00  0.00     0.254 C 
ATOM     80  O   UNL A   1      31.539  22.079  22.864  1.00  0.00    -0.269 OA
ATOM     81  N   UNL A   1      32.155  19.970  23.263  1.00  0.00    -0.349 N 
ATOM     82  H   UNL A   1      31.400  19.738  22.676  1.00  0.00     0.164 HD
BRANCH  81  83
ATOM     83  C   UNL A   1      32.872  18.817  23.787  1.00  0.00     0.082 C 
ATOM     84  C   UNL A   1      32.256  18.164  25.022  1.00  0.00     0.025 C 
ATOM     85  C   UNL A   1      33.082  17.701  22.752  1.00  0.00     0.025 C 
ATOM     86  C   UNL A   1      33.291  17.218  25.630  1.00  0.00     0.002 C 
ATOM     87  C   UNL A   1      34.043  16.625  23.281  1.00  0.00     0.002 C 
ATOM     88  C   UNL A   1      33.649  16.099  24.661  1.00  0.00     0.000 C 
ENDBRANCH  81  83
ENDBRANCH  72  79
ENDBRANCH  68  70
ENDBRANCH  61  66
ENDBRANCH  57  59
ENDBRANCH  56  57
ENDBRANCH   1  56
TORSDOF 15
ENDMDL
MODEL 3
REMARK VINA RESULT:     -13.1      2.374      3.725
REMARK SMILES O=C(OCCOC(=O)[C@H]1[C@H]2CC[C@H](C2)[C@@H]1C(=O)Nc1sc2c(c1C(=O)NC1CCCCC1)CCCC2)c1ccc(-c2c3nc(c(-c4ccccc4)c4ccc([nH]4)c(-c4ccccc4)c4nc(c(-c5ccccc5)c5ccc2[nH]5)C=C4)C=C3)cc1
REMARK SMILES IDX 5 1 4 2 3 3 2 4 1 5 37 6 38 7 84 8 39 9 83 10 40 11 41 12
REMARK SMILES IDX 42 13 77 14 43 15 82 16 76 17 78 18 44 19 81 20 75 21 74 22
REMARK SMILES IDX 45 24 67 25 52 26 66 27 53 28 56 29 65 30 79 31 54 32 55 33
REMARK SMILES IDX 64 35 80 36 57 37 46 38 47 39 51 40 48 41 50 42 49 43 68 44
REMARK SMILES IDX 69 45 73 46 70 47 72 48 71 49 58 50 59 51 63 52 60 53 62 54
REMARK SMILES IDX 61 55 6 56 7 57 8 58 9 59 10 60 15 61 11 62 14 63 13 64
REMARK SMILES IDX 12 65 16 66 17 67 18 68 19 70 20 71 23 72 21 73 22 74 36 75
REMARK SMILES IDX 33 76 35 77 34 78 24 79 25 80 26 81 27 83 28 84 32 85 29 86
REMARK SMILES IDX 31 87 30 88
REMARK H PARENT 78 23 56 34 18 69 26 82
REMARK Flexibility Score: inf
ROOT
ATOM      1  C   UNL A   1      32.353  30.752  26.891  1.00  0.00     0.274 C 
ENDROOT
BRANCH   1   2
ATOM      2  C   UNL A   1      31.516  32.024  27.093  1.00  0.00     0.275 C 
BRANCH   2   3
ATOM      3  O   UNL A   1      32.212  33.277  27.046  1.00  0.00    -0.458 OA
BRANCH   3   4
ATOM      4  C   UNL A   1      32.896  33.927  28.015  1.00  0.00     0.338 C 
ATOM      5  O   UNL A   1      32.467  35.003  28.428  1.00  0.00    -0.246 OA
BRANCH   4   6
ATOM      6  C   UNL A   1      34.212  33.446  28.542  1.00  0.00     0.060 A 
ATOM      7  C   UNL A   1      35.473  33.757  28.029  1.00  0.00     0.016 A 
ATOM      8  C   UNL A   1      34.159  32.603  29.657  1.00  0.00     0.016 A 
ATOM      9  C   UNL A   1      36.645  33.322  28.657  1.00  0.00     0.010 A 
ATOM     10  C   UNL A   1      35.327  32.169  30.292  1.00  0.00     0.010 A 
ATOM     11  C   UNL A   1      36.587  32.527  29.801  1.00  0.00    -0.014 A 
BRANCH  11  12
ATOM     12  C   UNL A   1      37.822  31.877  30.316  1.00  0.00     0.031 A 
ATOM     13  C   UNL A   1      38.506  32.550  31.478  1.00  0.00     0.074 A 
ATOM     14  C   UNL A   1      38.269  30.706  29.814  1.00  0.00     0.049 A 
ATOM     15  N   UNL A   1      39.662  32.300  32.029  1.00  0.00    -0.248 NA
ATOM     16  C   UNL A   1      37.782  33.681  32.098  1.00  0.00     0.031 C 
ATOM     17  C   UNL A   1      37.642  29.970  28.713  1.00  0.00     0.029 A 
ATOM     18  N   UNL A   1      39.346  29.916  30.154  1.00  0.00    -0.354 N 
ATOM     19  C   UNL A   1      39.797  33.244  33.042  1.00  0.00     0.074 A 
ATOM     20  C   UNL A   1      38.667  34.133  32.966  1.00  0.00     0.031 C 
ATOM     21  C   UNL A   1      38.314  28.825  28.504  1.00  0.00     0.029 A 
ATOM     22  C   UNL A   1      39.487  28.780  29.376  1.00  0.00     0.049 A 
ATOM     23  H   UNL A   1      39.963  30.140  30.888  1.00  0.00     0.167 HD
ATOM     24  C   UNL A   1      40.747  33.320  34.000  1.00  0.00     0.031 A 
ATOM     25  C   UNL A   1      40.484  27.861  29.343  1.00  0.00     0.031 A 
ATOM     26  C   UNL A   1      41.859  32.419  34.051  1.00  0.00     0.049 A 
ATOM     27  C   UNL A   1      41.658  28.115  30.287  1.00  0.00     0.074 A 
ATOM     28  C   UNL A   1      42.888  32.351  34.969  1.00  0.00     0.029 A 
ATOM     29  N   UNL A   1      42.064  31.407  33.124  1.00  0.00    -0.354 N 
ATOM     30  N   UNL A   1      41.817  29.079  31.172  1.00  0.00    -0.248 NA
ATOM     31  C   UNL A   1      42.827  27.227  30.181  1.00  0.00     0.031 C 
ATOM     32  C   UNL A   1      43.737  31.312  34.575  1.00  0.00     0.029 A 
ATOM     33  C   UNL A   1      43.199  30.700  33.450  1.00  0.00     0.049 A 
ATOM     34  H   UNL A   1      41.485  31.224  32.349  1.00  0.00     0.167 HD
ATOM     35  C   UNL A   1      43.070  28.881  31.744  1.00  0.00     0.074 A 
ATOM     36  C   UNL A   1      43.648  27.730  31.089  1.00  0.00     0.031 C 
ATOM     37  C   UNL A   1      43.703  29.562  32.731  1.00  0.00     0.031 A 
BRANCH  24  38
ATOM     38  C   UNL A   1      40.574  34.374  35.058  1.00  0.00    -0.014 A 
ATOM     39  C   UNL A   1      41.175  35.638  34.910  1.00  0.00     0.009 A 
ATOM     40  C   UNL A   1      39.844  34.107  36.225  1.00  0.00     0.009 A 
ATOM     41  C   UNL A   1      41.104  36.586  35.933  1.00  0.00     0.001 A 
ATOM     42  C   UNL A   1      39.743  35.073  37.231  1.00  0.00     0.001 A 
ATOM     43  C   UNL A   1      40.387  36.302  37.092  1.00  0.00     0.000 A 
ENDBRANCH  24  38
BRANCH  25  44
ATOM     44  C   UNL A   1      40.561  26.760  28.302  1.00  0.00    -0.014 A 
ATOM     45  C   UNL A   1      41.096  26.939  27.019  1.00  0.00     0.009 A 
ATOM     46  C   UNL A   1      39.936  25.526  28.535  1.00  0.00     0.009 A 
ATOM     47  C   UNL A   1      40.880  25.994  25.998  1.00  0.00     0.001 A 
ATOM     48  C   UNL A   1      39.757  24.553  27.545  1.00  0.00     0.001 A 
ATOM     49  C   UNL A   1      40.196  24.808  26.258  1.00  0.00     0.000 A 
ENDBRANCH  25  44
BRANCH  37  50
ATOM     50  C   UNL A   1      45.009  28.998  33.205  1.00  0.00    -0.014 A 
ATOM     51  C   UNL A   1      45.072  27.977  34.162  1.00  0.00     0.009 A 
ATOM     52  C   UNL A   1      46.193  29.473  32.619  1.00  0.00     0.009 A 
ATOM     53  C   UNL A   1      46.310  27.450  34.534  1.00  0.00     0.001 A 
ATOM     54  C   UNL A   1      47.423  28.928  32.974  1.00  0.00     0.001 A 
ATOM     55  C   UNL A   1      47.481  27.920  33.935  1.00  0.00     0.000 A 
ENDBRANCH  37  50
ENDBRANCH  11  12
ENDBRANCH   4   6
ENDBRANCH   3   4
ENDBRANCH   2   3
ENDBRANCH   1   2
BRANCH   1  56
ATOM     56  O   UNL A   1      31.747  29.496  27.253  1.00  0.00    -0.462 OA
BRANCH  56  57
ATOM     57  C   UNL A   1      32.370  28.380  26.767  1.00  0.00     0.310 C 
ATOM     58  O   UNL A   1      33.566  28.154  26.909  1.00  0.00    -0.252 OA
BRANCH  57  59
ATOM     59  C   UNL A   1      31.430  27.547  25.908  1.00  0.00     0.115 C 
ATOM     60  C   UNL A   1      31.392  28.263  24.514  1.00  0.00     0.004 C 
ATOM     61  C   UNL A   1      31.906  26.100  25.549  1.00  0.00     0.096 C 
ATOM     62  C   UNL A   1      32.759  28.414  23.820  1.00  0.00     0.005 C 
ATOM     63  C   UNL A   1      30.843  27.145  23.668  1.00  0.00     0.009 C 
ATOM     64  C   UNL A   1      31.964  26.160  24.017  1.00  0.00     0.003 C 
ATOM     65  C   UNL A   1      33.210  26.964  23.607  1.00  0.00     0.005 C 
BRANCH  61  66
ATOM     66  C   UNL A   1      31.218  24.805  26.097  1.00  0.00     0.229 C 
ATOM     67  O   UNL A   1      30.207  24.964  26.805  1.00  0.00    -0.274 OA
ATOM     68  N   UNL A   1      31.546  23.501  25.865  1.00  0.00    -0.317 N 
ATOM     69  H   UNL A   1      30.811  22.859  25.997  1.00  0.00     0.170 HD
BRANCH  68  70
ATOM     70  C   UNL A   1      32.732  22.947  25.478  1.00  0.00     0.108 A 
ATOM     71  S   UNL A   1      33.766  22.310  26.710  1.00  0.00    -0.122 S 
ATOM     72  C   UNL A   1      33.133  22.306  24.306  1.00  0.00     0.078 A 
ATOM     73  C   UNL A   1      35.047  22.420  25.590  1.00  0.00     0.011 A 
ATOM     74  C   UNL A   1      34.548  22.583  24.305  1.00  0.00    -0.019 A 
ATOM     75  C   UNL A   1      36.478  22.513  25.996  1.00  0.00     0.047 C 
ATOM     76  C   UNL A   1      35.432  23.100  23.223  1.00  0.00     0.037 C 
ATOM     77  C   UNL A   1      37.249  23.368  24.978  1.00  0.00     0.006 C 
ATOM     78  C   UNL A   1      36.924  22.956  23.540  1.00  0.00     0.005 C 
BRANCH  72  79
ATOM     79  C   UNL A   1      32.176  21.793  23.323  1.00  0.00     0.254 C 
ATOM     80  O   UNL A   1      31.361  22.555  22.799  1.00  0.00    -0.269 OA
ATOM     81  N   UNL A   1      32.024  20.441  23.080  1.00  0.00    -0.349 N 
ATOM     82  H   UNL A   1      31.268  20.225  22.487  1.00  0.00     0.164 HD
BRANCH  81  83
ATOM     83  C   UNL A   1      32.769  19.276  23.535  1.00  0.00     0.082 C 
ATOM     84  C   UNL A   1      32.390  18.751  24.918  1.00  0.00     0.025 C 
ATOM     85  C   UNL A   1      32.696  18.083  22.570  1.00  0.00     0.025 C 
ATOM     86  C   UNL A   1      33.474  17.776  25.374  1.00  0.00     0.002 C 
ATOM     87  C   UNL A   1      33.684  16.979  22.974  1.00  0.00     0.002 C 
ATOM     88  C   UNL A   1      33.559  16.573  24.443  1.00  0.00     0.000 C 
ENDBRANCH  81  83
ENDBRANCH  72  79
ENDBRANCH  68  70
ENDBRANCH  61  66
ENDBRANCH  57  59
ENDBRANCH  56  57
ENDBRANCH   1  56
TORSDOF 15
ENDMDL
