MODEL 1
REMARK VINA RESULT:     -11.1      0.000      0.000
REMARK SMILES [NH3+][C@]1(C(=O)OCCOC(=O)c2ccc(-c3c4nc(c(-c5ccccc5)c5ccc([nH]5)c(-c5ccccc5)c5nc(c(-c6ccccc6)c6ccc3[nH]6)C=C5)C=C4)cc2)CC[C@@H](Sc2cc3ccccc3[nH]2)C1
REMARK SMILES IDX 6 1 5 2 3 3 4 4 2 5 59 6 72 7 60 8 61 9 1 10 62 14 63 15
REMARK SMILES IDX 64 16 71 17 65 18 70 19 66 21 69 22 67 23 68 24 7 25 8 26
REMARK SMILES IDX 9 27 10 28 11 29 12 30 58 31 13 32 57 33 14 34 15 35 16 36
REMARK SMILES IDX 51 37 17 38 56 39 50 40 52 41 18 42 55 43 49 44 48 45 19 47
REMARK SMILES IDX 41 48 26 49 40 50 27 51 30 52 39 53 53 54 28 55 29 56 38 58
REMARK SMILES IDX 54 59 31 60 20 61 21 62 25 63 22 64 24 65 23 66 42 67 43 68
REMARK SMILES IDX 47 69 44 70 46 71 45 72 32 73 33 74 37 75 34 76 36 77 35 78
REMARK H PARENT 1 11 1 12 1 13 71 20 52 46 30 57
REMARK Flexibility Score: inf
ROOT
ATOM      1  C   UNL A   1      36.913  22.587  23.396  1.00  0.00     0.274 C 
ENDROOT
BRANCH   1   2
ATOM      2  O   UNL A   1      36.193  23.718  23.925  1.00  0.00    -0.457 OA
BRANCH   2   3
ATOM      3  C   UNL A   1      34.896  23.839  23.521  1.00  0.00     0.368 C 
ATOM      4  O   UNL A   1      34.514  23.650  22.371  1.00  0.00    -0.245 OA
BRANCH   3   5
ATOM      5  C   UNL A   1      33.960  24.238  24.689  1.00  0.00     0.193 C 
ATOM      6  C   UNL A   1      32.602  23.530  24.536  1.00  0.00     0.082 C 
ATOM      7  C   UNL A   1      34.527  23.757  26.033  1.00  0.00     0.096 C 
ATOM      8  C   UNL A   1      32.136  23.247  25.952  1.00  0.00     0.022 C 
ATOM      9  C   UNL A   1      33.410  22.969  26.731  1.00  0.00     0.060 C 
BRANCH   5  10
ATOM     10  N   UNL A   1      33.759  25.707  24.773  1.00  0.00    -0.343 N 
ATOM     11  H   UNL A   1      34.281  26.165  24.026  1.00  0.00     0.345 HD
ATOM     12  H   UNL A   1      34.090  26.045  25.677  1.00  0.00     0.345 HD
ATOM     13  H   UNL A   1      32.766  25.920  24.673  1.00  0.00     0.345 HD
ENDBRANCH   5  10
BRANCH   9  14
ATOM     14  S   UNL A   1      33.960  21.272  26.986  1.00  0.00    -0.105 SA
BRANCH  14  15
ATOM     15  C   UNL A   1      33.250  20.221  25.818  1.00  0.00     0.073 A 
ATOM     16  C   UNL A   1      33.564  19.986  24.496  1.00  0.00     0.043 A 
ATOM     17  N   UNL A   1      32.603  19.112  26.289  1.00  0.00    -0.350 N 
ATOM     18  C   UNL A   1      33.541  18.562  24.349  1.00  0.00     0.001 A 
ATOM     19  C   UNL A   1      32.980  18.036  25.513  1.00  0.00     0.046 A 
ATOM     20  H   UNL A   1      31.977  19.085  27.048  1.00  0.00     0.167 HD
ATOM     21  C   UNL A   1      34.070  17.670  23.398  1.00  0.00     0.010 A 
ATOM     22  C   UNL A   1      32.948  16.669  25.802  1.00  0.00     0.027 A 
ATOM     23  C   UNL A   1      34.096  16.302  23.696  1.00  0.00     0.001 A 
ATOM     24  C   UNL A   1      33.558  15.812  24.885  1.00  0.00     0.002 A 
ENDBRANCH  14  15
ENDBRANCH   9  14
ENDBRANCH   3   5
ENDBRANCH   2   3
ENDBRANCH   1   2
BRANCH   1  25
ATOM     25  C   UNL A   1      36.941  21.417  24.378  1.00  0.00     0.275 C 
BRANCH  25  26
ATOM     26  O   UNL A   1      37.367  21.839  25.687  1.00  0.00    -0.458 OA
BRANCH  26  27
ATOM     27  C   UNL A   1      38.668  21.609  25.973  1.00  0.00     0.338 C 
ATOM     28  O   UNL A   1      39.321  20.615  25.713  1.00  0.00    -0.246 OA
BRANCH  27  29
ATOM     29  C   UNL A   1      39.247  22.785  26.641  1.00  0.00     0.060 A 
ATOM     30  C   UNL A   1      38.690  24.034  26.387  1.00  0.00     0.016 A 
ATOM     31  C   UNL A   1      40.433  22.677  27.370  1.00  0.00     0.016 A 
ATOM     32  C   UNL A   1      39.363  25.187  26.785  1.00  0.00     0.010 A 
ATOM     33  C   UNL A   1      41.072  23.840  27.829  1.00  0.00     0.010 A 
ATOM     34  C   UNL A   1      40.565  25.110  27.501  1.00  0.00    -0.014 A 
BRANCH  34  35
ATOM     35  C   UNL A   1      41.307  26.366  27.805  1.00  0.00     0.031 A 
ATOM     36  C   UNL A   1      42.571  26.700  27.056  1.00  0.00     0.074 A 
ATOM     37  C   UNL A   1      40.803  27.258  28.683  1.00  0.00     0.049 A 
ATOM     38  N   UNL A   1      43.371  27.727  27.203  1.00  0.00    -0.248 NA
ATOM     39  C   UNL A   1      43.005  25.749  26.020  1.00  0.00     0.031 C 
ATOM     40  C   UNL A   1      39.557  27.089  29.430  1.00  0.00     0.029 A 
ATOM     41  N   UNL A   1      41.241  28.509  29.048  1.00  0.00    -0.354 N 
ATOM     42  C   UNL A   1      44.444  27.496  26.351  1.00  0.00     0.074 A 
ATOM     43  C   UNL A   1      44.178  26.253  25.661  1.00  0.00     0.031 C 
ATOM     44  C   UNL A   1      39.274  28.233  30.072  1.00  0.00     0.029 A 
ATOM     45  C   UNL A   1      40.349  29.194  29.841  1.00  0.00     0.049 A 
ATOM     46  H   UNL A   1      42.109  28.879  28.769  1.00  0.00     0.167 HD
ATOM     47  C   UNL A   1      45.564  28.239  26.183  1.00  0.00     0.031 A 
ATOM     48  C   UNL A   1      40.384  30.457  30.310  1.00  0.00     0.031 A 
ATOM     49  C   UNL A   1      45.798  29.511  26.813  1.00  0.00     0.049 A 
ATOM     50  C   UNL A   1      41.593  31.304  30.023  1.00  0.00     0.074 A 
ATOM     51  C   UNL A   1      46.917  30.322  26.739  1.00  0.00     0.029 A 
ATOM     52  N   UNL A   1      44.875  30.175  27.605  1.00  0.00    -0.354 N 
ATOM     53  N   UNL A   1      42.631  31.040  29.267  1.00  0.00    -0.248 NA
ATOM     54  C   UNL A   1      41.644  32.622  30.675  1.00  0.00     0.031 C 
ATOM     55  C   UNL A   1      46.682  31.466  27.510  1.00  0.00     0.029 A 
ATOM     56  C   UNL A   1      45.401  31.382  28.031  1.00  0.00     0.049 A 
ATOM     57  H   UNL A   1      43.978  29.838  27.831  1.00  0.00     0.167 HD
ATOM     58  C   UNL A   1      43.463  32.147  29.368  1.00  0.00     0.074 A 
ATOM     59  C   UNL A   1      42.777  33.116  30.198  1.00  0.00     0.031 C 
ATOM     60  C   UNL A   1      44.703  32.331  28.855  1.00  0.00     0.031 A 
BRANCH  47  61
ATOM     61  C   UNL A   1      46.665  27.646  25.351  1.00  0.00    -0.014 A 
ATOM     62  C   UNL A   1      46.863  28.000  24.009  1.00  0.00     0.009 A 
ATOM     63  C   UNL A   1      47.538  26.721  25.948  1.00  0.00     0.009 A 
ATOM     64  C   UNL A   1      47.898  27.414  23.273  1.00  0.00     0.001 A 
ATOM     65  C   UNL A   1      48.583  26.156  25.218  1.00  0.00     0.001 A 
ATOM     66  C   UNL A   1      48.758  26.498  23.878  1.00  0.00     0.000 A 
ENDBRANCH  47  61
BRANCH  48  67
ATOM     67  C   UNL A   1      39.232  31.024  31.067  1.00  0.00    -0.014 A 
ATOM     68  C   UNL A   1      38.209  31.701  30.381  1.00  0.00     0.009 A 
ATOM     69  C   UNL A   1      39.131  30.897  32.461  1.00  0.00     0.009 A 
ATOM     70  C   UNL A   1      37.114  32.231  31.068  1.00  0.00     0.001 A 
ATOM     71  C   UNL A   1      38.016  31.394  33.142  1.00  0.00     0.001 A 
ATOM     72  C   UNL A   1      37.011  32.063  32.446  1.00  0.00     0.000 A 
ENDBRANCH  48  67
BRANCH  60  73
ATOM     73  C   UNL A   1      45.393  33.618  29.204  1.00  0.00    -0.014 A 
ATOM     74  C   UNL A   1      46.203  33.703  30.349  1.00  0.00     0.009 A 
ATOM     75  C   UNL A   1      45.248  34.746  28.384  1.00  0.00     0.009 A 
ATOM     76  C   UNL A   1      46.820  34.908  30.689  1.00  0.00     0.001 A 
ATOM     77  C   UNL A   1      45.885  35.943  28.716  1.00  0.00     0.001 A 
ATOM     78  C   UNL A   1      46.661  36.026  29.872  1.00  0.00     0.000 A 
ENDBRANCH  60  73
ENDBRANCH  34  35
ENDBRANCH  27  29
ENDBRANCH  26  27
ENDBRANCH  25  26
ENDBRANCH   1  25
TORSDOF 14
ENDMDL
MODEL 2
REMARK VINA RESULT:     -10.8      4.132      7.731
REMARK SMILES [NH3+][C@]1(C(=O)OCCOC(=O)c2ccc(-c3c4nc(c(-c5ccccc5)c5ccc([nH]5)c(-c5ccccc5)c5nc(c(-c6ccccc6)c6ccc3[nH]6)C=C5)C=C4)cc2)CC[C@@H](Sc2cc3ccccc3[nH]2)C1
REMARK SMILES IDX 6 1 5 2 3 3 4 4 2 5 59 6 72 7 60 8 61 9 1 10 62 14 63 15
REMARK SMILES IDX 64 16 71 17 65 18 70 19 66 21 69 22 67 23 68 24 7 25 8 26
REMARK SMILES IDX 9 27 10 28 11 29 12 30 58 31 13 32 57 33 14 34 15 35 16 36
REMARK SMILES IDX 51 37 17 38 56 39 50 40 52 41 18 42 55 43 49 44 48 45 19 47
REMARK SMILES IDX 41 48 26 49 40 50 27 51 30 52 39 53 53 54 28 55 29 56 38 58
REMARK SMILES IDX 54 59 31 60 20 61 21 62 25 63 22 64 24 65 23 66 42 67 43 68
REMARK SMILES IDX 47 69 44 70 46 71 45 72 32 73 33 74 37 75 34 76 36 77 35 78
REMARK H PARENT 1 11 1 12 1 13 71 20 52 46 30 57
REMARK Flexibility Score: inf
ROOT
ATOM      1  C   UNL A   1      40.343  21.571  26.109  1.00  0.00     0.274 C 
ENDROOT
BRANCH   1   2
ATOM      2  O   UNL A   1      38.944  21.718  26.421  1.00  0.00    -0.457 OA
BRANCH   2   3
ATOM      3  C   UNL A   1      38.073  21.296  25.459  1.00  0.00     0.368 C 
ATOM      4  O   UNL A   1      38.113  20.189  24.934  1.00  0.00    -0.245 OA
BRANCH   3   5
ATOM      5  C   UNL A   1      37.021  22.379  25.115  1.00  0.00     0.193 C 
ATOM      6  C   UNL A   1      35.975  21.804  24.143  1.00  0.00     0.082 C 
ATOM      7  C   UNL A   1      36.235  22.798  26.367  1.00  0.00     0.096 C 
ATOM      8  C   UNL A   1      34.668  22.479  24.516  1.00  0.00     0.022 C 
ATOM      9  C   UNL A   1      34.745  22.669  26.022  1.00  0.00     0.060 C 
BRANCH   5  10
ATOM     10  N   UNL A   1      37.639  23.598  24.530  1.00  0.00    -0.343 N 
ATOM     11  H   UNL A   1      38.172  23.343  23.699  1.00  0.00     0.345 HD
ATOM     12  H   UNL A   1      38.260  24.026  25.216  1.00  0.00     0.345 HD
ATOM     13  H   UNL A   1      36.906  24.260  24.274  1.00  0.00     0.345 HD
ENDBRANCH   5  10
BRANCH   9  14
ATOM     14  S   UNL A   1      33.989  21.462  27.125  1.00  0.00    -0.105 SA
BRANCH  14  15
ATOM     15  C   UNL A   1      32.921  20.427  26.251  1.00  0.00     0.073 A 
ATOM     16  C   UNL A   1      32.337  20.563  25.010  1.00  0.00     0.043 A 
ATOM     17  N   UNL A   1      32.979  19.090  26.534  1.00  0.00    -0.350 N 
ATOM     18  C   UNL A   1      32.512  19.294  24.369  1.00  0.00     0.001 A 
ATOM     19  C   UNL A   1      32.967  18.401  25.339  1.00  0.00     0.046 A 
ATOM     20  H   UNL A   1      33.020  18.689  27.432  1.00  0.00     0.167 HD
ATOM     21  C   UNL A   1      32.460  18.861  23.031  1.00  0.00     0.010 A 
ATOM     22  C   UNL A   1      33.408  17.107  25.048  1.00  0.00     0.027 A 
ATOM     23  C   UNL A   1      32.950  17.587  22.714  1.00  0.00     0.001 A 
ATOM     24  C   UNL A   1      33.430  16.732  23.704  1.00  0.00     0.002 A 
ENDBRANCH  14  15
ENDBRANCH   9  14
ENDBRANCH   3   5
ENDBRANCH   2   3
ENDBRANCH   1   2
BRANCH   1  25
ATOM     25  C   UNL A   1      41.125  22.856  26.375  1.00  0.00     0.275 C 
BRANCH  25  26
ATOM     26  O   UNL A   1      40.258  24.005  26.396  1.00  0.00    -0.458 OA
BRANCH  26  27
ATOM     27  C   UNL A   1      40.851  25.182  26.092  1.00  0.00     0.338 C 
ATOM     28  O   UNL A   1      41.598  25.418  25.160  1.00  0.00    -0.246 OA
BRANCH  27  29
ATOM     29  C   UNL A   1      40.435  26.214  27.055  1.00  0.00     0.060 A 
ATOM     30  C   UNL A   1      40.971  27.492  26.932  1.00  0.00     0.016 A 
ATOM     31  C   UNL A   1      39.663  25.878  28.169  1.00  0.00     0.016 A 
ATOM     32  C   UNL A   1      40.810  28.413  27.963  1.00  0.00     0.010 A 
ATOM     33  C   UNL A   1      39.446  26.833  29.174  1.00  0.00     0.010 A 
ATOM     34  C   UNL A   1      40.057  28.097  29.102  1.00  0.00    -0.014 A 
BRANCH  34  35
ATOM     35  C   UNL A   1      40.008  29.071  30.229  1.00  0.00     0.031 A 
ATOM     36  C   UNL A   1      38.896  30.084  30.307  1.00  0.00     0.074 A 
ATOM     37  C   UNL A   1      40.903  28.992  31.236  1.00  0.00     0.049 A 
ATOM     38  N   UNL A   1      38.702  31.031  31.191  1.00  0.00    -0.248 NA
ATOM     39  C   UNL A   1      37.877  30.041  29.246  1.00  0.00     0.031 C 
ATOM     40  C   UNL A   1      41.992  28.019  31.317  1.00  0.00     0.029 A 
ATOM     41  N   UNL A   1      41.000  29.697  32.413  1.00  0.00    -0.354 N 
ATOM     42  C   UNL A   1      37.602  31.752  30.740  1.00  0.00     0.074 A 
ATOM     43  C   UNL A   1      37.146  31.111  29.526  1.00  0.00     0.031 C 
ATOM     44  C   UNL A   1      42.573  28.113  32.523  1.00  0.00     0.029 A 
ATOM     45  C   UNL A   1      41.946  29.196  33.276  1.00  0.00     0.049 A 
ATOM     46  H   UNL A   1      40.446  30.484  32.616  1.00  0.00     0.167 HD
ATOM     47  C   UNL A   1      37.044  32.864  31.274  1.00  0.00     0.031 A 
ATOM     48  C   UNL A   1      42.259  29.555  34.538  1.00  0.00     0.031 A 
ATOM     49  C   UNL A   1      37.451  33.460  32.519  1.00  0.00     0.049 A 
ATOM     50  C   UNL A   1      41.551  30.731  35.154  1.00  0.00     0.074 A 
ATOM     51  C   UNL A   1      36.976  34.610  33.125  1.00  0.00     0.029 A 
ATOM     52  N   UNL A   1      38.407  32.927  33.368  1.00  0.00    -0.354 N 
ATOM     53  N   UNL A   1      40.556  31.441  34.681  1.00  0.00    -0.248 NA
ATOM     54  C   UNL A   1      42.027  31.167  36.476  1.00  0.00     0.031 C 
ATOM     55  C   UNL A   1      37.666  34.788  34.330  1.00  0.00     0.029 A 
ATOM     56  C   UNL A   1      38.542  33.727  34.489  1.00  0.00     0.049 A 
ATOM     57  H   UNL A   1      38.916  32.101  33.198  1.00  0.00     0.167 HD
ATOM     58  C   UNL A   1      40.302  32.416  35.635  1.00  0.00     0.074 A 
ATOM     59  C   UNL A   1      41.195  32.163  36.746  1.00  0.00     0.031 C 
ATOM     60  C   UNL A   1      39.435  33.457  35.582  1.00  0.00     0.031 A 
BRANCH  47  61
ATOM     61  C   UNL A   1      35.991  33.563  30.463  1.00  0.00    -0.014 A 
ATOM     62  C   UNL A   1      36.242  34.051  29.173  1.00  0.00     0.009 A 
ATOM     63  C   UNL A   1      34.706  33.711  31.010  1.00  0.00     0.009 A 
ATOM     64  C   UNL A   1      35.231  34.702  28.460  1.00  0.00     0.001 A 
ATOM     65  C   UNL A   1      33.693  34.340  30.287  1.00  0.00     0.001 A 
ATOM     66  C   UNL A   1      33.958  34.842  29.014  1.00  0.00     0.000 A 
ENDBRANCH  47  61
BRANCH  48  67
ATOM     67  C   UNL A   1      43.258  28.781  35.328  1.00  0.00    -0.014 A 
ATOM     68  C   UNL A   1      44.620  29.118  35.253  1.00  0.00     0.009 A 
ATOM     69  C   UNL A   1      42.877  27.715  36.157  1.00  0.00     0.009 A 
ATOM     70  C   UNL A   1      45.575  28.414  35.992  1.00  0.00     0.001 A 
ATOM     71  C   UNL A   1      43.828  27.037  36.925  1.00  0.00     0.001 A 
ATOM     72  C   UNL A   1      45.175  27.384  36.840  1.00  0.00     0.000 A 
ENDBRANCH  48  67
BRANCH  60  73
ATOM     73  C   UNL A   1      39.441  34.400  36.750  1.00  0.00    -0.014 A 
ATOM     74  C   UNL A   1      38.728  34.088  37.920  1.00  0.00     0.009 A 
ATOM     75  C   UNL A   1      40.168  35.597  36.692  1.00  0.00     0.009 A 
ATOM     76  C   UNL A   1      38.709  34.979  38.994  1.00  0.00     0.001 A 
ATOM     77  C   UNL A   1      40.165  36.475  37.778  1.00  0.00     0.001 A 
ATOM     78  C   UNL A   1      39.428  36.170  38.922  1.00  0.00     0.000 A 
ENDBRANCH  60  73
ENDBRANCH  34  35
ENDBRANCH  27  29
ENDBRANCH  26  27
ENDBRANCH  25  26
ENDBRANCH   1  25
TORSDOF 14
ENDMDL
MODEL 3
REMARK VINA RESULT:     -10.8      0.403      6.027
REMARK SMILES [NH3+][C@]1(C(=O)OCCOC(=O)c2ccc(-c3c4nc(c(-c5ccccc5)c5ccc([nH]5)c(-c5ccccc5)c5nc(c(-c6ccccc6)c6ccc3[nH]6)C=C5)C=C4)cc2)CC[C@@H](Sc2cc3ccccc3[nH]2)C1
REMARK SMILES IDX 6 1 5 2 3 3 4 4 2 5 59 6 72 7 60 8 61 9 1 10 62 14 63 15
REMARK SMILES IDX 64 16 71 17 65 18 70 19 66 21 69 22 67 23 68 24 7 25 8 26
REMARK SMILES IDX 9 27 10 28 11 29 12 30 58 31 13 32 57 33 14 34 15 35 16 36
REMARK SMILES IDX 51 37 17 38 56 39 50 40 52 41 18 42 55 43 49 44 48 45 19 47
REMARK SMILES IDX 41 48 26 49 40 50 27 51 30 52 39 53 53 54 28 55 29 56 38 58
REMARK SMILES IDX 54 59 31 60 20 61 21 62 25 63 22 64 24 65 23 66 42 67 43 68
REMARK SMILES IDX 47 69 44 70 46 71 45 72 32 73 33 74 37 75 34 76 36 77 35 78
REMARK H PARENT 1 11 1 12 1 13 71 20 52 46 30 57
REMARK Flexibility Score: inf
ROOT
ATOM      1  C   UNL A   1      36.663  22.292  23.525  1.00  0.00     0.274 C 
ENDROOT
BRANCH   1   2
ATOM      2  O   UNL A   1      36.203  23.485  24.189  1.00  0.00    -0.457 OA
BRANCH   2   3
ATOM      3  C   UNL A   1      35.014  23.989  23.750  1.00  0.00     0.368 C 
ATOM      4  O   UNL A   1      34.727  24.141  22.568  1.00  0.00    -0.245 OA
BRANCH   3   5
ATOM      5  C   UNL A   1      34.065  24.340  24.923  1.00  0.00     0.193 C 
ATOM      6  C   UNL A   1      32.707  23.644  24.723  1.00  0.00     0.082 C 
ATOM      7  C   UNL A   1      34.615  23.799  26.252  1.00  0.00     0.096 C 
ATOM      8  C   UNL A   1      32.224  23.301  26.121  1.00  0.00     0.022 C 
ATOM      9  C   UNL A   1      33.488  22.985  26.902  1.00  0.00     0.060 C 
BRANCH   5  10
ATOM     10  N   UNL A   1      33.867  25.805  25.068  1.00  0.00    -0.343 N 
ATOM     11  H   UNL A   1      34.674  26.211  25.541  1.00  0.00     0.345 HD
ATOM     12  H   UNL A   1      33.026  25.981  25.617  1.00  0.00     0.345 HD
ATOM     13  H   UNL A   1      33.766  26.227  24.145  1.00  0.00     0.345 HD
ENDBRANCH   5  10
BRANCH   9  14
ATOM     14  S   UNL A   1      34.031  21.277  27.090  1.00  0.00    -0.105 SA
BRANCH  14  15
ATOM     15  C   UNL A   1      33.368  20.288  25.842  1.00  0.00     0.073 A 
ATOM     16  C   UNL A   1      33.805  20.028  24.561  1.00  0.00     0.043 A 
ATOM     17  N   UNL A   1      32.583  19.238  26.230  1.00  0.00    -0.350 N 
ATOM     18  C   UNL A   1      33.680  18.610  24.400  1.00  0.00     0.001 A 
ATOM     19  C   UNL A   1      32.953  18.133  25.491  1.00  0.00     0.046 A 
ATOM     20  H   UNL A   1      31.877  19.264  26.915  1.00  0.00     0.167 HD
ATOM     21  C   UNL A   1      34.235  17.676  23.505  1.00  0.00     0.010 A 
ATOM     22  C   UNL A   1      32.775  16.775  25.763  1.00  0.00     0.027 A 
ATOM     23  C   UNL A   1      34.114  16.311  23.793  1.00  0.00     0.001 A 
ATOM     24  C   UNL A   1      33.409  15.869  24.911  1.00  0.00     0.002 A 
ENDBRANCH  14  15
ENDBRANCH   9  14
ENDBRANCH   3   5
ENDBRANCH   2   3
ENDBRANCH   1   2
BRANCH   1  25
ATOM     25  C   UNL A   1      37.193  21.256  24.515  1.00  0.00     0.275 C 
BRANCH  25  26
ATOM     26  O   UNL A   1      37.574  21.866  25.763  1.00  0.00    -0.458 OA
BRANCH  26  27
ATOM     27  C   UNL A   1      38.854  21.655  26.143  1.00  0.00     0.338 C 
ATOM     28  O   UNL A   1      39.497  20.626  26.045  1.00  0.00    -0.246 OA
BRANCH  27  29
ATOM     29  C   UNL A   1      39.425  22.898  26.685  1.00  0.00     0.060 A 
ATOM     30  C   UNL A   1      38.902  24.112  26.254  1.00  0.00     0.016 A 
ATOM     31  C   UNL A   1      40.576  22.867  27.474  1.00  0.00     0.016 A 
ATOM     32  C   UNL A   1      39.577  25.297  26.535  1.00  0.00     0.010 A 
ATOM     33  C   UNL A   1      41.215  24.070  27.813  1.00  0.00     0.010 A 
ATOM     34  C   UNL A   1      40.746  25.295  27.308  1.00  0.00    -0.014 A 
BRANCH  34  35
ATOM     35  C   UNL A   1      41.496  26.570  27.487  1.00  0.00     0.031 A 
ATOM     36  C   UNL A   1      41.033  27.586  28.499  1.00  0.00     0.074 A 
ATOM     37  C   UNL A   1      42.647  26.782  26.816  1.00  0.00     0.049 A 
ATOM     38  N   UNL A   1      41.534  28.764  28.775  1.00  0.00    -0.248 NA
ATOM     39  C   UNL A   1      39.842  27.244  29.292  1.00  0.00     0.031 C 
ATOM     40  C   UNL A   1      43.242  25.854  25.854  1.00  0.00     0.029 A 
ATOM     41  N   UNL A   1      43.554  27.813  26.886  1.00  0.00    -0.354 N 
ATOM     42  C   UNL A   1      40.668  29.338  29.697  1.00  0.00     0.074 A 
ATOM     43  C   UNL A   1      39.631  28.366  29.965  1.00  0.00     0.031 C 
ATOM     44  C   UNL A   1      44.460  26.301  25.512  1.00  0.00     0.029 A 
ATOM     45  C   UNL A   1      44.708  27.579  26.174  1.00  0.00     0.049 A 
ATOM     46  H   UNL A   1      43.393  28.639  27.396  1.00  0.00     0.167 HD
ATOM     47  C   UNL A   1      40.717  30.575  30.247  1.00  0.00     0.031 A 
ATOM     48  C   UNL A   1      45.843  28.302  26.081  1.00  0.00     0.031 A 
ATOM     49  C   UNL A   1      41.786  31.515  30.037  1.00  0.00     0.049 A 
ATOM     50  C   UNL A   1      45.917  29.628  26.787  1.00  0.00     0.074 A 
ATOM     51  C   UNL A   1      41.908  32.808  30.516  1.00  0.00     0.029 A 
ATOM     52  N   UNL A   1      42.937  31.246  29.315  1.00  0.00    -0.354 N 
ATOM     53  N   UNL A   1      45.055  30.183  27.603  1.00  0.00    -0.248 NA
ATOM     54  C   UNL A   1      47.120  30.439  26.538  1.00  0.00     0.031 C 
ATOM     55  C   UNL A   1      43.124  33.332  30.060  1.00  0.00     0.029 A 
ATOM     56  C   UNL A   1      43.772  32.349  29.329  1.00  0.00     0.049 A 
ATOM     57  H   UNL A   1      43.131  30.395  28.859  1.00  0.00     0.167 HD
ATOM     58  C   UNL A   1      45.601  31.412  27.949  1.00  0.00     0.074 A 
ATOM     59  C   UNL A   1      46.900  31.490  27.314  1.00  0.00     0.031 C 
ATOM     60  C   UNL A   1      45.060  32.407  28.693  1.00  0.00     0.031 A 
BRANCH  47  61
ATOM     61  C   UNL A   1      39.531  31.017  31.056  1.00  0.00    -0.014 A 
ATOM     62  C   UNL A   1      39.470  30.848  32.446  1.00  0.00     0.009 A 
ATOM     63  C   UNL A   1      38.459  31.639  30.396  1.00  0.00     0.009 A 
ATOM     64  C   UNL A   1      38.340  31.269  33.155  1.00  0.00     0.001 A 
ATOM     65  C   UNL A   1      37.343  32.078  31.109  1.00  0.00     0.001 A 
ATOM     66  C   UNL A   1      37.282  31.886  32.488  1.00  0.00     0.000 A 
ENDBRANCH  47  61
BRANCH  48  67
ATOM     67  C   UNL A   1      47.019  27.784  25.326  1.00  0.00    -0.014 A 
ATOM     68  C   UNL A   1      47.090  27.961  23.934  1.00  0.00     0.009 A 
ATOM     69  C   UNL A   1      48.074  27.120  25.971  1.00  0.00     0.009 A 
ATOM     70  C   UNL A   1      48.188  27.493  23.207  1.00  0.00     0.001 A 
ATOM     71  C   UNL A   1      49.189  26.687  25.248  1.00  0.00     0.001 A 
ATOM     72  C   UNL A   1      49.244  26.871  23.867  1.00  0.00     0.000 A 
ENDBRANCH  48  67
BRANCH  60  73
ATOM     73  C   UNL A   1      45.869  33.664  28.829  1.00  0.00    -0.014 A 
ATOM     74  C   UNL A   1      46.774  33.815  29.893  1.00  0.00     0.009 A 
ATOM     75  C   UNL A   1      45.740  34.696  27.889  1.00  0.00     0.009 A 
ATOM     76  C   UNL A   1      47.504  34.996  30.037  1.00  0.00     0.001 A 
ATOM     77  C   UNL A   1      46.489  35.866  28.023  1.00  0.00     0.001 A 
ATOM     78  C   UNL A   1      47.361  36.019  29.102  1.00  0.00     0.000 A 
ENDBRANCH  60  73
ENDBRANCH  34  35
ENDBRANCH  27  29
ENDBRANCH  26  27
ENDBRANCH  25  26
ENDBRANCH   1  25
TORSDOF 14
ENDMDL
