MODEL 1
REMARK VINA RESULT:      -8.8      0.000      0.000
REMARK SMILES C[C@H](C(=O)OCCOC(=O)c1ccc(-c2c3nc(c(-c4ccccc4)c4ccc([nH]4)c(-c4ccccc4)c4nc(c(-c5ccccc5)c5ccc2[nH]5)C=C4)C=C3)cc1)[C@@H](C)Nc1ccccc1Oc1ccccc1
REMARK SMILES IDX 5 1 3 2 4 3 2 4 1 5 59 6 60 7 61 8 62 10 63 11 67 12 64 13
REMARK SMILES IDX 66 14 65 15 68 16 69 17 70 18 74 19 71 20 73 21 72 22 6 23
REMARK SMILES IDX 7 24 8 25 9 26 10 27 11 28 12 29 58 30 13 31 57 32 14 33
REMARK SMILES IDX 15 34 16 35 51 36 17 37 56 38 50 39 52 40 18 41 55 42 49 43
REMARK SMILES IDX 48 44 19 46 41 47 26 48 40 49 27 50 30 51 39 52 53 53 28 54
REMARK SMILES IDX 29 55 38 57 54 58 31 59 20 60 21 61 25 62 22 63 24 64 23 65
REMARK SMILES IDX 42 66 43 67 47 68 44 69 46 70 45 71 32 72 33 73 37 74 34 75
REMARK SMILES IDX 36 76 35 77
REMARK H PARENT 61 9 52 45 30 56
REMARK Flexibility Score: inf
ROOT
ATOM      1  O   UNL A   1      33.163  34.804  30.160  1.00  0.00    -0.462 OA
ENDROOT
BRANCH   1   2
ATOM      2  C   UNL A   1      33.797  34.447  31.311  1.00  0.00     0.310 C 
ATOM      3  O   UNL A   1      33.955  33.297  31.699  1.00  0.00    -0.252 OA
BRANCH   2   4
ATOM      4  C   UNL A   1      34.299  35.656  32.085  1.00  0.00     0.118 C 
ATOM      5  C   UNL A   1      33.178  36.272  32.919  1.00  0.00     0.022 C 
BRANCH   4   6
ATOM      6  C   UNL A   1      35.523  35.228  32.908  1.00  0.00     0.090 C 
ATOM      7  C   UNL A   1      35.075  34.702  34.280  1.00  0.00     0.031 C 
BRANCH   6   8
ATOM      8  N   UNL A   1      36.265  34.165  32.249  1.00  0.00    -0.379 N 
ATOM      9  H   UNL A   1      35.737  33.391  31.947  1.00  0.00     0.160 HD
BRANCH   8  10
ATOM     10  C   UNL A   1      37.628  34.111  31.994  1.00  0.00     0.078 A 
ATOM     11  C   UNL A   1      37.965  33.758  30.664  1.00  0.00     0.029 A 
ATOM     12  C   UNL A   1      38.703  34.442  32.845  1.00  0.00     0.150 A 
ATOM     13  C   UNL A   1      39.280  33.741  30.192  1.00  0.00     0.002 A 
ATOM     14  C   UNL A   1      40.029  34.408  32.365  1.00  0.00     0.049 A 
ATOM     15  C   UNL A   1      40.319  34.060  31.049  1.00  0.00     0.004 A 
BRANCH  12  16
ATOM     16  O   UNL A   1      38.639  34.969  34.117  1.00  0.00    -0.455 OA
BRANCH  16  17
ATOM     17  C   UNL A   1      38.570  34.182  35.239  1.00  0.00     0.127 A 
ATOM     18  C   UNL A   1      38.796  34.884  36.434  1.00  0.00     0.047 A 
ATOM     19  C   UNL A   1      38.243  32.831  35.284  1.00  0.00     0.047 A 
ATOM     20  C   UNL A   1      38.602  34.269  37.667  1.00  0.00     0.004 A 
ATOM     21  C   UNL A   1      38.059  32.210  36.525  1.00  0.00     0.004 A 
ATOM     22  C   UNL A   1      38.217  32.932  37.711  1.00  0.00     0.000 A 
ENDBRANCH  16  17
ENDBRANCH  12  16
ENDBRANCH   8  10
ENDBRANCH   6   8
ENDBRANCH   4   6
ENDBRANCH   2   4
ENDBRANCH   1   2
BRANCH   1  23
ATOM     23  C   UNL A   1      33.978  35.067  28.996  1.00  0.00     0.274 C 
BRANCH  23  24
ATOM     24  C   UNL A   1      33.819  33.926  27.996  1.00  0.00     0.275 C 
BRANCH  24  25
ATOM     25  O   UNL A   1      34.904  33.013  28.213  1.00  0.00    -0.458 OA
BRANCH  25  26
ATOM     26  C   UNL A   1      34.606  31.697  28.148  1.00  0.00     0.338 C 
ATOM     27  O   UNL A   1      33.549  31.185  27.818  1.00  0.00    -0.246 OA
BRANCH  26  28
ATOM     28  C   UNL A   1      35.821  30.934  28.475  1.00  0.00     0.060 A 
ATOM     29  C   UNL A   1      35.726  29.848  29.345  1.00  0.00     0.016 A 
ATOM     30  C   UNL A   1      37.067  31.355  28.022  1.00  0.00     0.016 A 
ATOM     31  C   UNL A   1      36.872  29.251  29.853  1.00  0.00     0.010 A 
ATOM     32  C   UNL A   1      38.215  30.672  28.439  1.00  0.00     0.010 A 
ATOM     33  C   UNL A   1      38.133  29.637  29.390  1.00  0.00    -0.014 A 
BRANCH  33  34
ATOM     34  C   UNL A   1      39.361  28.996  29.930  1.00  0.00     0.031 A 
ATOM     35  C   UNL A   1      39.981  29.521  31.196  1.00  0.00     0.074 A 
ATOM     36  C   UNL A   1      39.920  27.939  29.308  1.00  0.00     0.049 A 
ATOM     37  N   UNL A   1      41.170  29.293  31.692  1.00  0.00    -0.248 NA
ATOM     38  C   UNL A   1      39.158  30.438  32.004  1.00  0.00     0.031 C 
ATOM     39  C   UNL A   1      39.390  27.265  28.120  1.00  0.00     0.029 A 
ATOM     40  N   UNL A   1      41.064  27.236  29.601  1.00  0.00    -0.354 N 
ATOM     41  C   UNL A   1      41.268  30.098  32.820  1.00  0.00     0.074 A 
ATOM     42  C   UNL A   1      40.014  30.808  32.947  1.00  0.00     0.031 C 
ATOM     43  C   UNL A   1      40.178  26.224  27.815  1.00  0.00     0.029 A 
ATOM     44  C   UNL A   1      41.326  26.223  28.711  1.00  0.00     0.049 A 
ATOM     45  H   UNL A   1      41.639  27.439  30.372  1.00  0.00     0.167 HD
ATOM     46  C   UNL A   1      42.319  30.244  33.661  1.00  0.00     0.031 A 
ATOM     47  C   UNL A   1      42.398  25.419  28.587  1.00  0.00     0.031 A 
ATOM     48  C   UNL A   1      43.543  29.497  33.556  1.00  0.00     0.049 A 
ATOM     49  C   UNL A   1      43.563  25.615  29.510  1.00  0.00     0.074 A 
ATOM     50  C   UNL A   1      44.680  29.581  34.341  1.00  0.00     0.029 A 
ATOM     51  N   UNL A   1      43.777  28.504  32.617  1.00  0.00    -0.354 N 
ATOM     52  N   UNL A   1      43.696  26.464  30.499  1.00  0.00    -0.248 NA
ATOM     53  C   UNL A   1      44.738  24.764  29.279  1.00  0.00     0.031 C 
ATOM     54  C   UNL A   1      45.612  28.654  33.860  1.00  0.00     0.029 A 
ATOM     55  C   UNL A   1      45.039  27.967  32.802  1.00  0.00     0.049 A 
ATOM     56  H   UNL A   1      43.140  28.222  31.922  1.00  0.00     0.167 HD
ATOM     57  C   UNL A   1      44.969  26.253  31.009  1.00  0.00     0.074 A 
ATOM     58  C   UNL A   1      45.557  25.177  30.236  1.00  0.00     0.031 C 
ATOM     59  C   UNL A   1      45.601  26.901  32.016  1.00  0.00     0.031 A 
BRANCH  46  60
ATOM     60  C   UNL A   1      42.208  31.294  34.730  1.00  0.00    -0.014 A 
ATOM     61  C   UNL A   1      41.829  30.974  36.042  1.00  0.00     0.009 A 
ATOM     62  C   UNL A   1      42.502  32.630  34.413  1.00  0.00     0.009 A 
ATOM     63  C   UNL A   1      41.717  31.978  37.007  1.00  0.00     0.001 A 
ATOM     64  C   UNL A   1      42.414  33.627  35.385  1.00  0.00     0.001 A 
ATOM     65  C   UNL A   1      42.012  33.303  36.679  1.00  0.00     0.000 A 
ENDBRANCH  46  60
BRANCH  47  66
ATOM     66  C   UNL A   1      42.443  24.413  27.494  1.00  0.00    -0.014 A 
ATOM     67  C   UNL A   1      42.976  24.743  26.241  1.00  0.00     0.009 A 
ATOM     68  C   UNL A   1      41.973  23.107  27.709  1.00  0.00     0.009 A 
ATOM     69  C   UNL A   1      43.034  23.787  25.223  1.00  0.00     0.001 A 
ATOM     70  C   UNL A   1      42.060  22.146  26.701  1.00  0.00     0.001 A 
ATOM     71  C   UNL A   1      42.585  22.489  25.457  1.00  0.00     0.000 A 
ENDBRANCH  47  66
BRANCH  59  72
ATOM     72  C   UNL A   1      46.990  26.441  32.348  1.00  0.00    -0.014 A 
ATOM     73  C   UNL A   1      47.206  25.431  33.297  1.00  0.00     0.009 A 
ATOM     74  C   UNL A   1      48.089  27.010  31.688  1.00  0.00     0.009 A 
ATOM     75  C   UNL A   1      48.505  25.017  33.598  1.00  0.00     0.001 A 
ATOM     76  C   UNL A   1      49.383  26.581  31.977  1.00  0.00     0.001 A 
ATOM     77  C   UNL A   1      49.592  25.590  32.936  1.00  0.00     0.000 A 
ENDBRANCH  59  72
ENDBRANCH  33  34
ENDBRANCH  26  28
ENDBRANCH  25  26
ENDBRANCH  24  25
ENDBRANCH  23  24
ENDBRANCH   1  23
TORSDOF 16
ENDMDL
MODEL 2
REMARK VINA RESULT:      -8.8      4.472     10.073
REMARK SMILES C[C@H](C(=O)OCCOC(=O)c1ccc(-c2c3nc(c(-c4ccccc4)c4ccc([nH]4)c(-c4ccccc4)c4nc(c(-c5ccccc5)c5ccc2[nH]5)C=C4)C=C3)cc1)[C@@H](C)Nc1ccccc1Oc1ccccc1
REMARK SMILES IDX 5 1 3 2 4 3 2 4 1 5 59 6 60 7 61 8 62 10 63 11 67 12 64 13
REMARK SMILES IDX 66 14 65 15 68 16 69 17 70 18 74 19 71 20 73 21 72 22 6 23
REMARK SMILES IDX 7 24 8 25 9 26 10 27 11 28 12 29 58 30 13 31 57 32 14 33
REMARK SMILES IDX 15 34 16 35 51 36 17 37 56 38 50 39 52 40 18 41 55 42 49 43
REMARK SMILES IDX 48 44 19 46 41 47 26 48 40 49 27 50 30 51 39 52 53 53 28 54
REMARK SMILES IDX 29 55 38 57 54 58 31 59 20 60 21 61 25 62 22 63 24 64 23 65
REMARK SMILES IDX 42 66 43 67 47 68 44 69 46 70 45 71 32 72 33 73 37 74 34 75
REMARK SMILES IDX 36 76 35 77
REMARK H PARENT 61 9 52 45 30 56
REMARK Flexibility Score: inf
ROOT
ATOM      1  O   UNL A   1      31.894  28.961  23.338  1.00  0.00    -0.462 OA
ENDROOT
BRANCH   1   2
ATOM      2  C   UNL A   1      31.847  27.865  22.531  1.00  0.00     0.310 C 
ATOM      3  O   UNL A   1      30.836  27.430  21.996  1.00  0.00    -0.252 OA
BRANCH   2   4
ATOM      4  C   UNL A   1      33.215  27.221  22.362  1.00  0.00     0.118 C 
ATOM      5  C   UNL A   1      34.327  28.253  22.534  1.00  0.00     0.022 C 
BRANCH   4   6
ATOM      6  C   UNL A   1      33.313  26.034  23.331  1.00  0.00     0.090 C 
ATOM      7  C   UNL A   1      34.025  26.466  24.621  1.00  0.00     0.031 C 
BRANCH   6   8
ATOM      8  N   UNL A   1      31.997  25.535  23.699  1.00  0.00    -0.379 N 
ATOM      9  H   UNL A   1      31.231  25.956  23.245  1.00  0.00     0.160 HD
BRANCH   8  10
ATOM     10  C   UNL A   1      31.691  24.537  24.613  1.00  0.00     0.078 A 
ATOM     11  C   UNL A   1      30.714  24.897  25.574  1.00  0.00     0.029 A 
ATOM     12  C   UNL A   1      32.152  23.204  24.657  1.00  0.00     0.150 A 
ATOM     13  C   UNL A   1      30.209  23.998  26.518  1.00  0.00     0.002 A 
ATOM     14  C   UNL A   1      31.648  22.308  25.623  1.00  0.00     0.049 A 
ATOM     15  C   UNL A   1      30.684  22.698  26.547  1.00  0.00     0.004 A 
BRANCH  12  16
ATOM     16  O   UNL A   1      32.965  22.563  23.749  1.00  0.00    -0.455 OA
BRANCH  16  17
ATOM     17  C   UNL A   1      34.324  22.461  23.918  1.00  0.00     0.127 A 
ATOM     18  C   UNL A   1      34.704  21.457  24.823  1.00  0.00     0.047 A 
ATOM     19  C   UNL A   1      35.299  23.191  23.247  1.00  0.00     0.047 A 
ATOM     20  C   UNL A   1      36.044  21.116  24.983  1.00  0.00     0.004 A 
ATOM     21  C   UNL A   1      36.647  22.856  23.418  1.00  0.00     0.004 A 
ATOM     22  C   UNL A   1      37.017  21.808  24.266  1.00  0.00     0.000 A 
ENDBRANCH  16  17
ENDBRANCH  12  16
ENDBRANCH   8  10
ENDBRANCH   6   8
ENDBRANCH   4   6
ENDBRANCH   2   4
ENDBRANCH   1   2
BRANCH   1  23
ATOM     23  C   UNL A   1      31.268  28.868  24.637  1.00  0.00     0.274 C 
BRANCH  23  24
ATOM     24  C   UNL A   1      31.416  30.198  25.369  1.00  0.00     0.275 C 
BRANCH  24  25
ATOM     25  O   UNL A   1      32.518  30.066  26.278  1.00  0.00    -0.458 OA
BRANCH  25  26
ATOM     26  C   UNL A   1      32.899  31.186  26.930  1.00  0.00     0.338 C 
ATOM     27  O   UNL A   1      32.253  32.207  27.104  1.00  0.00    -0.246 OA
BRANCH  26  28
ATOM     28  C   UNL A   1      34.240  30.958  27.492  1.00  0.00     0.060 A 
ATOM     29  C   UNL A   1      34.658  29.651  27.739  1.00  0.00     0.016 A 
ATOM     30  C   UNL A   1      35.037  32.029  27.884  1.00  0.00     0.016 A 
ATOM     31  C   UNL A   1      35.810  29.407  28.473  1.00  0.00     0.010 A 
ATOM     32  C   UNL A   1      36.260  31.778  28.515  1.00  0.00     0.010 A 
ATOM     33  C   UNL A   1      36.642  30.465  28.851  1.00  0.00    -0.014 A 
BRANCH  33  34
ATOM     34  C   UNL A   1      37.880  30.206  29.635  1.00  0.00     0.031 A 
ATOM     35  C   UNL A   1      39.011  29.437  29.009  1.00  0.00     0.074 A 
ATOM     36  C   UNL A   1      38.007  30.664  30.895  1.00  0.00     0.049 A 
ATOM     37  N   UNL A   1      40.048  28.880  29.579  1.00  0.00    -0.248 NA
ATOM     38  C   UNL A   1      38.960  29.257  27.548  1.00  0.00     0.031 C 
ATOM     39  C   UNL A   1      37.034  31.494  31.609  1.00  0.00     0.029 A 
ATOM     40  N   UNL A   1      39.025  30.500  31.803  1.00  0.00    -0.354 N 
ATOM     41  C   UNL A   1      40.725  28.216  28.564  1.00  0.00     0.074 A 
ATOM     42  C   UNL A   1      39.994  28.454  27.339  1.00  0.00     0.031 C 
ATOM     43  C   UNL A   1      37.519  31.803  32.819  1.00  0.00     0.029 A 
ATOM     44  C   UNL A   1      38.782  31.104  33.013  1.00  0.00     0.049 A 
ATOM     45  H   UNL A   1      39.849  29.998  31.606  1.00  0.00     0.167 HD
ATOM     46  C   UNL A   1      41.847  27.463  28.653  1.00  0.00     0.031 A 
ATOM     47  C   UNL A   1      39.465  31.055  34.172  1.00  0.00     0.031 A 
ATOM     48  C   UNL A   1      42.595  27.274  29.866  1.00  0.00     0.049 A 
ATOM     49  C   UNL A   1      40.688  30.193  34.258  1.00  0.00     0.074 A 
ATOM     50  C   UNL A   1      43.733  26.514  30.073  1.00  0.00     0.029 A 
ATOM     51  N   UNL A   1      42.292  27.880  31.076  1.00  0.00    -0.354 N 
ATOM     52  N   UNL A   1      41.254  29.470  33.322  1.00  0.00    -0.248 NA
ATOM     53  C   UNL A   1      41.349  30.113  35.568  1.00  0.00     0.031 C 
ATOM     54  C   UNL A   1      44.104  26.640  31.417  1.00  0.00     0.029 A 
ATOM     55  C   UNL A   1      43.220  27.510  32.035  1.00  0.00     0.049 A 
ATOM     56  H   UNL A   1      41.530  28.483  31.231  1.00  0.00     0.167 HD
ATOM     57  C   UNL A   1      42.336  28.847  33.928  1.00  0.00     0.074 A 
ATOM     58  C   UNL A   1      42.362  29.299  35.306  1.00  0.00     0.031 C 
ATOM     59  C   UNL A   1      43.220  27.970  33.398  1.00  0.00     0.031 A 
BRANCH  46  60
ATOM     60  C   UNL A   1      42.292  26.740  27.414  1.00  0.00    -0.014 A 
ATOM     61  C   UNL A   1      43.224  27.300  26.527  1.00  0.00     0.009 A 
ATOM     62  C   UNL A   1      41.775  25.464  27.141  1.00  0.00     0.009 A 
ATOM     63  C   UNL A   1      43.602  26.608  25.373  1.00  0.00     0.001 A 
ATOM     64  C   UNL A   1      42.173  24.764  26.001  1.00  0.00     0.001 A 
ATOM     65  C   UNL A   1      43.079  25.340  25.113  1.00  0.00     0.000 A 
ENDBRANCH  46  60
BRANCH  47  66
ATOM     66  C   UNL A   1      38.954  31.785  35.360  1.00  0.00    -0.014 A 
ATOM     67  C   UNL A   1      39.238  33.146  35.540  1.00  0.00     0.009 A 
ATOM     68  C   UNL A   1      38.156  31.128  36.311  1.00  0.00     0.009 A 
ATOM     69  C   UNL A   1      38.737  33.833  36.649  1.00  0.00     0.001 A 
ATOM     70  C   UNL A   1      37.633  31.822  37.403  1.00  0.00     0.001 A 
ATOM     71  C   UNL A   1      37.929  33.173  37.573  1.00  0.00     0.000 A 
ENDBRANCH  47  66
BRANCH  59  72
ATOM     72  C   UNL A   1      44.299  27.464  34.309  1.00  0.00    -0.014 A 
ATOM     73  C   UNL A   1      45.506  28.164  34.453  1.00  0.00     0.009 A 
ATOM     74  C   UNL A   1      44.094  26.289  35.046  1.00  0.00     0.009 A 
ATOM     75  C   UNL A   1      46.502  27.678  35.301  1.00  0.00     0.001 A 
ATOM     76  C   UNL A   1      45.083  25.817  35.908  1.00  0.00     0.001 A 
ATOM     77  C   UNL A   1      46.289  26.507  36.030  1.00  0.00     0.000 A 
ENDBRANCH  59  72
ENDBRANCH  33  34
ENDBRANCH  26  28
ENDBRANCH  25  26
ENDBRANCH  24  25
ENDBRANCH  23  24
ENDBRANCH   1  23
TORSDOF 16
ENDMDL
MODEL 3
REMARK VINA RESULT:      -8.6      4.364      8.015
REMARK SMILES C[C@H](C(=O)OCCOC(=O)c1ccc(-c2c3nc(c(-c4ccccc4)c4ccc([nH]4)c(-c4ccccc4)c4nc(c(-c5ccccc5)c5ccc2[nH]5)C=C4)C=C3)cc1)[C@@H](C)Nc1ccccc1Oc1ccccc1
REMARK SMILES IDX 5 1 3 2 4 3 2 4 1 5 59 6 60 7 61 8 62 10 63 11 67 12 64 13
REMARK SMILES IDX 66 14 65 15 68 16 69 17 70 18 74 19 71 20 73 21 72 22 6 23
REMARK SMILES IDX 7 24 8 25 9 26 10 27 11 28 12 29 58 30 13 31 57 32 14 33
REMARK SMILES IDX 15 34 16 35 51 36 17 37 56 38 50 39 52 40 18 41 55 42 49 43
REMARK SMILES IDX 48 44 19 46 41 47 26 48 40 49 27 50 30 51 39 52 53 53 28 54
REMARK SMILES IDX 29 55 38 57 54 58 31 59 20 60 21 61 25 62 22 63 24 64 23 65
REMARK SMILES IDX 42 66 43 67 47 68 44 69 46 70 45 71 32 72 33 73 37 74 34 75
REMARK SMILES IDX 36 76 35 77
REMARK H PARENT 61 9 52 45 30 56
REMARK Flexibility Score: inf
ROOT
ATOM      1  O   UNL A   1      32.321  29.271  25.075  1.00  0.00    -0.462 OA
ENDROOT
BRANCH   1   2
ATOM      2  C   UNL A   1      31.701  28.472  24.163  1.00  0.00     0.310 C 
ATOM      3  O   UNL A   1      30.510  28.191  24.170  1.00  0.00    -0.252 OA
BRANCH   2   4
ATOM      4  C   UNL A   1      32.667  27.950  23.110  1.00  0.00     0.118 C 
ATOM      5  C   UNL A   1      34.100  28.371  23.430  1.00  0.00     0.022 C 
BRANCH   4   6
ATOM      6  C   UNL A   1      32.477  26.431  22.992  1.00  0.00     0.090 C 
ATOM      7  C   UNL A   1      32.850  25.963  21.577  1.00  0.00     0.031 C 
BRANCH   6   8
ATOM      8  N   UNL A   1      33.323  25.711  23.931  1.00  0.00    -0.379 N 
ATOM      9  H   UNL A   1      34.282  25.933  23.906  1.00  0.00     0.160 HD
BRANCH   8  10
ATOM     10  C   UNL A   1      32.942  24.753  24.858  1.00  0.00     0.078 A 
ATOM     11  C   UNL A   1      31.842  25.123  25.670  1.00  0.00     0.029 A 
ATOM     12  C   UNL A   1      33.438  23.444  25.035  1.00  0.00     0.150 A 
ATOM     13  C   UNL A   1      31.255  24.257  26.597  1.00  0.00     0.002 A 
ATOM     14  C   UNL A   1      32.850  22.581  25.983  1.00  0.00     0.049 A 
ATOM     15  C   UNL A   1      31.767  22.981  26.760  1.00  0.00     0.004 A 
BRANCH  12  16
ATOM     16  O   UNL A   1      34.379  22.789  24.271  1.00  0.00    -0.455 OA
BRANCH  16  17
ATOM     17  C   UNL A   1      35.688  22.658  24.663  1.00  0.00     0.127 A 
ATOM     18  C   UNL A   1      36.158  23.741  25.424  1.00  0.00     0.047 A 
ATOM     19  C   UNL A   1      36.515  21.563  24.435  1.00  0.00     0.047 A 
ATOM     20  C   UNL A   1      37.408  23.689  26.035  1.00  0.00     0.004 A 
ATOM     21  C   UNL A   1      37.777  21.518  25.040  1.00  0.00     0.004 A 
ATOM     22  C   UNL A   1      38.213  22.568  25.854  1.00  0.00     0.000 A 
ENDBRANCH  16  17
ENDBRANCH  12  16
ENDBRANCH   8  10
ENDBRANCH   6   8
ENDBRANCH   4   6
ENDBRANCH   2   4
ENDBRANCH   1   2
BRANCH   1  23
ATOM     23  C   UNL A   1      31.882  29.192  26.449  1.00  0.00     0.274 C 
BRANCH  23  24
ATOM     24  C   UNL A   1      33.020  28.663  27.316  1.00  0.00     0.275 C 
BRANCH  24  25
ATOM     25  O   UNL A   1      34.201  29.398  26.966  1.00  0.00    -0.458 OA
BRANCH  25  26
ATOM     26  C   UNL A   1      34.656  30.279  27.883  1.00  0.00     0.338 C 
ATOM     27  O   UNL A   1      34.029  31.156  28.453  1.00  0.00    -0.246 OA
BRANCH  26  28
ATOM     28  C   UNL A   1      36.066  29.964  28.164  1.00  0.00     0.060 A 
ATOM     29  C   UNL A   1      37.010  30.113  27.149  1.00  0.00     0.016 A 
ATOM     30  C   UNL A   1      36.440  29.411  29.385  1.00  0.00     0.016 A 
ATOM     31  C   UNL A   1      38.296  29.613  27.303  1.00  0.00     0.010 A 
ATOM     32  C   UNL A   1      37.770  29.021  29.582  1.00  0.00     0.010 A 
ATOM     33  C   UNL A   1      38.703  29.082  28.530  1.00  0.00    -0.014 A 
BRANCH  33  34
ATOM     34  C   UNL A   1      40.081  28.549  28.699  1.00  0.00     0.031 A 
ATOM     35  C   UNL A   1      41.177  29.458  29.184  1.00  0.00     0.074 A 
ATOM     36  C   UNL A   1      40.359  27.257  28.437  1.00  0.00     0.049 A 
ATOM     37  N   UNL A   1      42.473  29.282  29.152  1.00  0.00    -0.248 NA
ATOM     38  C   UNL A   1      40.760  30.743  29.769  1.00  0.00     0.031 C 
ATOM     39  C   UNL A   1      39.388  26.235  28.039  1.00  0.00     0.029 A 
ATOM     40  N   UNL A   1      41.553  26.577  28.476  1.00  0.00    -0.354 N 
ATOM     41  C   UNL A   1      43.026  30.462  29.633  1.00  0.00     0.074 A 
ATOM     42  C   UNL A   1      41.927  31.341  29.968  1.00  0.00     0.031 C 
ATOM     43  C   UNL A   1      40.013  25.055  27.917  1.00  0.00     0.029 A 
ATOM     44  C   UNL A   1      41.442  25.257  28.115  1.00  0.00     0.049 A 
ATOM     45  H   UNL A   1      42.404  26.996  28.737  1.00  0.00     0.167 HD
ATOM     46  C   UNL A   1      44.334  30.786  29.766  1.00  0.00     0.031 A 
ATOM     47  C   UNL A   1      42.388  24.321  27.905  1.00  0.00     0.031 A 
ATOM     48  C   UNL A   1      45.419  29.887  29.478  1.00  0.00     0.049 A 
ATOM     49  C   UNL A   1      43.831  24.708  28.029  1.00  0.00     0.074 A 
ATOM     50  C   UNL A   1      46.781  30.119  29.557  1.00  0.00     0.029 A 
ATOM     51  N   UNL A   1      45.259  28.568  29.083  1.00  0.00    -0.354 N 
ATOM     52  N   UNL A   1      44.348  25.864  28.368  1.00  0.00    -0.248 NA
ATOM     53  C   UNL A   1      44.821  23.671  27.711  1.00  0.00     0.031 C 
ATOM     54  C   UNL A   1      47.446  28.945  29.184  1.00  0.00     0.029 A 
ATOM     55  C   UNL A   1      46.497  27.972  28.912  1.00  0.00     0.049 A 
ATOM     56  H   UNL A   1      44.394  28.120  28.944  1.00  0.00     0.167 HD
ATOM     57  C   UNL A   1      45.723  25.696  28.301  1.00  0.00     0.074 A 
ATOM     58  C   UNL A   1      45.960  24.318  27.917  1.00  0.00     0.031 C 
ATOM     59  C   UNL A   1      46.704  26.603  28.525  1.00  0.00     0.031 A 
BRANCH  46  60
ATOM     60  C   UNL A   1      44.657  32.192  30.184  1.00  0.00    -0.014 A 
ATOM     61  C   UNL A   1      44.788  33.229  29.249  1.00  0.00     0.009 A 
ATOM     62  C   UNL A   1      44.821  32.481  31.549  1.00  0.00     0.009 A 
ATOM     63  C   UNL A   1      45.108  34.522  29.671  1.00  0.00     0.001 A 
ATOM     64  C   UNL A   1      45.116  33.779  31.970  1.00  0.00     0.001 A 
ATOM     65  C   UNL A   1      45.269  34.796  31.030  1.00  0.00     0.000 A 
ENDBRANCH  46  60
BRANCH  47  66
ATOM     66  C   UNL A   1      41.991  22.955  27.477  1.00  0.00    -0.014 A 
ATOM     67  C   UNL A   1      41.554  22.011  28.417  1.00  0.00     0.009 A 
ATOM     68  C   UNL A   1      42.025  22.596  26.120  1.00  0.00     0.009 A 
ATOM     69  C   UNL A   1      41.163  20.734  28.007  1.00  0.00     0.001 A 
ATOM     70  C   UNL A   1      41.606  21.329  25.710  1.00  0.00     0.001 A 
ATOM     71  C   UNL A   1      41.181  20.398  26.654  1.00  0.00     0.000 A 
ENDBRANCH  47  66
BRANCH  59  72
ATOM     72  C   UNL A   1      48.116  26.120  28.380  1.00  0.00    -0.014 A 
ATOM     73  C   UNL A   1      48.831  25.641  29.488  1.00  0.00     0.009 A 
ATOM     74  C   UNL A   1      48.728  26.123  27.117  1.00  0.00     0.009 A 
ATOM     75  C   UNL A   1      50.147  25.199  29.338  1.00  0.00     0.001 A 
ATOM     76  C   UNL A   1      50.035  25.663  26.967  1.00  0.00     0.001 A 
ATOM     77  C   UNL A   1      50.746  25.208  28.078  1.00  0.00     0.000 A 
ENDBRANCH  59  72
ENDBRANCH  33  34
ENDBRANCH  26  28
ENDBRANCH  25  26
ENDBRANCH  24  25
ENDBRANCH  23  24
ENDBRANCH   1  23
TORSDOF 16
ENDMDL
