MODEL 1
REMARK VINA RESULT:     -10.6      0.000      0.000
REMARK SMILES Cc1cc(C(=O)N[C@@H]2CC2(C)C)sc1/C=C/C(=O)OCCOC(=O)c1ccc(-c2c3nc(c(-c4ccccc4)c4ccc([nH]4)c(-c4ccccc4)c4nc(c(-c5ccccc5)c5ccc2[nH]5)C=C4)C=C3)cc1
REMARK SMILES IDX 20 1 19 2 17 3 18 4 16 5 15 6 14 7 1 8 2 9 3 10 4 11 13 12
REMARK SMILES IDX 5 13 6 14 7 15 8 17 9 18 10 19 11 20 12 21 21 22 22 23 23 24
REMARK SMILES IDX 24 25 25 26 26 27 72 28 27 29 71 30 28 31 29 32 30 33 65 34
REMARK SMILES IDX 31 35 70 36 64 37 66 38 32 39 69 40 63 41 62 42 33 44 55 45
REMARK SMILES IDX 40 46 54 47 41 48 44 49 53 50 67 51 42 52 43 53 52 55 68 56
REMARK SMILES IDX 45 57 34 58 35 59 39 60 36 61 38 62 37 63 56 64 57 65 61 66
REMARK SMILES IDX 58 67 60 68 59 69 46 70 47 71 51 72 48 73 50 74 49 75
REMARK H PARENT 7 16 66 43 44 54
REMARK Flexibility Score: inf
ROOT
ATOM      1  C   UNL A   1      42.894  20.448  25.889  1.00  0.00     0.275 C 
ENDROOT
BRANCH   1   2
ATOM      2  O   UNL A   1      41.530  20.858  25.683  1.00  0.00    -0.459 OA
BRANCH   2   3
ATOM      3  C   UNL A   1      40.720  20.742  26.758  1.00  0.00     0.330 C 
ATOM      4  O   UNL A   1      40.982  20.163  27.804  1.00  0.00    -0.247 OA
BRANCH   3   5
ATOM      5  C   UNL A   1      39.447  21.459  26.592  1.00  0.00     0.095 C 
ATOM      6  C   UNL A   1      38.665  21.470  25.500  1.00  0.00     0.027 C 
BRANCH   6   7
ATOM      7  C   UNL A   1      37.476  22.251  25.535  1.00  0.00     0.031 A 
ATOM      8  C   UNL A   1      38.290  24.518  26.430  1.00  0.00     0.046 C 
ATOM      9  C   UNL A   1      37.282  23.589  25.839  1.00  0.00    -0.032 A 
ATOM     10  C   UNL A   1      35.981  24.010  25.395  1.00  0.00     0.029 A 
ATOM     11  C   UNL A   1      35.234  22.992  24.817  1.00  0.00     0.093 A 
ATOM     12  S   UNL A   1      35.951  21.510  25.224  1.00  0.00    -0.130 S 
BRANCH  11  13
ATOM     13  C   UNL A   1      33.952  23.161  24.163  1.00  0.00     0.261 C 
ATOM     14  O   UNL A   1      33.606  22.368  23.275  1.00  0.00    -0.268 OA
ATOM     15  N   UNL A   1      32.973  24.084  24.471  1.00  0.00    -0.348 N 
ATOM     16  H   UNL A   1      32.196  23.921  23.889  1.00  0.00     0.164 HD
BRANCH  15  17
ATOM     17  C   UNL A   1      32.675  25.189  25.326  1.00  0.00     0.088 C 
ATOM     18  C   UNL A   1      31.618  26.232  25.212  1.00  0.00     0.034 C 
ATOM     19  C   UNL A   1      33.074  26.643  25.145  1.00  0.00    -0.013 C 
ATOM     20  C   UNL A   1      33.582  27.422  26.336  1.00  0.00     0.013 C 
ATOM     21  C   UNL A   1      33.670  27.117  23.849  1.00  0.00     0.013 C 
ENDBRANCH  15  17
ENDBRANCH  11  13
ENDBRANCH   6   7
ENDBRANCH   3   5
ENDBRANCH   2   3
ENDBRANCH   1   2
BRANCH   1  22
ATOM     22  C   UNL A   1      43.872  21.470  25.300  1.00  0.00     0.275 C 
BRANCH  22  23
ATOM     23  O   UNL A   1      43.200  22.658  24.837  1.00  0.00    -0.458 OA
BRANCH  23  24
ATOM     24  C   UNL A   1      43.910  23.804  24.937  1.00  0.00     0.338 C 
ATOM     25  O   UNL A   1      44.858  24.151  24.247  1.00  0.00    -0.246 OA
BRANCH  24  26
ATOM     26  C   UNL A   1      43.310  24.676  25.960  1.00  0.00     0.060 A 
ATOM     27  C   UNL A   1      43.832  25.962  26.128  1.00  0.00     0.016 A 
ATOM     28  C   UNL A   1      42.290  24.210  26.795  1.00  0.00     0.016 A 
ATOM     29  C   UNL A   1      43.341  26.787  27.138  1.00  0.00     0.010 A 
ATOM     30  C   UNL A   1      41.800  25.039  27.810  1.00  0.00     0.010 A 
ATOM     31  C   UNL A   1      42.332  26.326  27.997  1.00  0.00    -0.014 A 
BRANCH  31  32
ATOM     32  C   UNL A   1      41.863  27.183  29.112  1.00  0.00     0.031 A 
ATOM     33  C   UNL A   1      42.611  27.202  30.415  1.00  0.00     0.074 A 
ATOM     34  C   UNL A   1      40.773  27.956  28.952  1.00  0.00     0.049 A 
ATOM     35  N   UNL A   1      42.343  27.864  31.513  1.00  0.00    -0.248 NA
ATOM     36  C   UNL A   1      43.818  26.365  30.494  1.00  0.00     0.031 C 
ATOM     37  C   UNL A   1      39.976  28.050  27.729  1.00  0.00     0.029 A 
ATOM     38  N   UNL A   1      40.148  28.809  29.828  1.00  0.00    -0.354 N 
ATOM     39  C   UNL A   1      43.341  27.519  32.416  1.00  0.00     0.074 A 
ATOM     40  C   UNL A   1      44.206  26.570  31.746  1.00  0.00     0.031 C 
ATOM     41  C   UNL A   1      38.968  28.915  27.932  1.00  0.00     0.029 A 
ATOM     42  C   UNL A   1      39.027  29.405  29.306  1.00  0.00     0.049 A 
ATOM     43  H   UNL A   1      40.472  28.975  30.742  1.00  0.00     0.167 HD
ATOM     44  C   UNL A   1      43.525  27.957  33.685  1.00  0.00     0.031 A 
ATOM     45  C   UNL A   1      38.136  30.237  29.877  1.00  0.00     0.031 A 
ATOM     46  C   UNL A   1      42.661  28.891  34.357  1.00  0.00     0.049 A 
ATOM     47  C   UNL A   1      38.324  30.655  31.308  1.00  0.00     0.074 A 
ATOM     48  C   UNL A   1      42.776  29.406  35.638  1.00  0.00     0.029 A 
ATOM     49  N   UNL A   1      41.516  29.444  33.806  1.00  0.00    -0.354 N 
ATOM     50  N   UNL A   1      39.287  30.342  32.140  1.00  0.00    -0.248 NA
ATOM     51  C   UNL A   1      37.303  31.548  31.876  1.00  0.00     0.031 C 
ATOM     52  C   UNL A   1      41.674  30.233  35.877  1.00  0.00     0.029 A 
ATOM     53  C   UNL A   1      40.902  30.275  34.728  1.00  0.00     0.049 A 
ATOM     54  H   UNL A   1      41.187  29.272  32.894  1.00  0.00     0.167 HD
ATOM     55  C   UNL A   1      39.002  31.016  33.321  1.00  0.00     0.074 A 
ATOM     56  C   UNL A   1      37.785  31.767  33.092  1.00  0.00     0.031 C 
ATOM     57  C   UNL A   1      39.688  31.014  34.490  1.00  0.00     0.031 A 
BRANCH  44  58
ATOM     58  C   UNL A   1      44.699  27.402  34.442  1.00  0.00    -0.014 A 
ATOM     59  C   UNL A   1      44.594  26.213  35.180  1.00  0.00     0.009 A 
ATOM     60  C   UNL A   1      45.937  28.063  34.387  1.00  0.00     0.009 A 
ATOM     61  C   UNL A   1      45.697  25.713  35.875  1.00  0.00     0.001 A 
ATOM     62  C   UNL A   1      47.044  27.547  35.063  1.00  0.00     0.001 A 
ATOM     63  C   UNL A   1      46.922  26.379  35.813  1.00  0.00     0.000 A 
ENDBRANCH  44  58
BRANCH  45  64
ATOM     64  C   UNL A   1      36.968  30.719  29.096  1.00  0.00    -0.014 A 
ATOM     65  C   UNL A   1      35.932  29.842  28.744  1.00  0.00     0.009 A 
ATOM     66  C   UNL A   1      36.888  32.062  28.693  1.00  0.00     0.009 A 
ATOM     67  C   UNL A   1      34.849  30.296  27.986  1.00  0.00     0.001 A 
ATOM     68  C   UNL A   1      35.792  32.519  27.960  1.00  0.00     0.001 A 
ATOM     69  C   UNL A   1      34.778  31.633  27.599  1.00  0.00     0.000 A 
ENDBRANCH  45  64
BRANCH  57  70
ATOM     70  C   UNL A   1      39.155  31.873  35.601  1.00  0.00    -0.014 A 
ATOM     71  C   UNL A   1      38.263  31.360  36.554  1.00  0.00     0.009 A 
ATOM     72  C   UNL A   1      39.581  33.205  35.713  1.00  0.00     0.009 A 
ATOM     73  C   UNL A   1      37.783  32.175  37.582  1.00  0.00     0.001 A 
ATOM     74  C   UNL A   1      39.120  34.010  36.757  1.00  0.00     0.001 A 
ATOM     75  C   UNL A   1      38.215  33.498  37.685  1.00  0.00     0.000 A 
ENDBRANCH  57  70
ENDBRANCH  31  32
ENDBRANCH  24  26
ENDBRANCH  23  24
ENDBRANCH  22  23
ENDBRANCH   1  22
TORSDOF 14
ENDMDL
MODEL 2
REMARK VINA RESULT:     -10.4      4.475      9.447
REMARK SMILES Cc1cc(C(=O)N[C@@H]2CC2(C)C)sc1/C=C/C(=O)OCCOC(=O)c1ccc(-c2c3nc(c(-c4ccccc4)c4ccc([nH]4)c(-c4ccccc4)c4nc(c(-c5ccccc5)c5ccc2[nH]5)C=C4)C=C3)cc1
REMARK SMILES IDX 20 1 19 2 17 3 18 4 16 5 15 6 14 7 1 8 2 9 3 10 4 11 13 12
REMARK SMILES IDX 5 13 6 14 7 15 8 17 9 18 10 19 11 20 12 21 21 22 22 23 23 24
REMARK SMILES IDX 24 25 25 26 26 27 72 28 27 29 71 30 28 31 29 32 30 33 65 34
REMARK SMILES IDX 31 35 70 36 64 37 66 38 32 39 69 40 63 41 62 42 33 44 55 45
REMARK SMILES IDX 40 46 54 47 41 48 44 49 53 50 67 51 42 52 43 53 52 55 68 56
REMARK SMILES IDX 45 57 34 58 35 59 39 60 36 61 38 62 37 63 56 64 57 65 61 66
REMARK SMILES IDX 58 67 60 68 59 69 46 70 47 71 51 72 48 73 50 74 49 75
REMARK H PARENT 7 16 66 43 44 54
REMARK Flexibility Score: inf
ROOT
ATOM      1  C   UNL A   1      33.350  36.319  28.818  1.00  0.00     0.275 C 
ENDROOT
BRANCH   1   2
ATOM      2  O   UNL A   1      33.213  34.894  28.672  1.00  0.00    -0.459 OA
BRANCH   2   3
ATOM      3  C   UNL A   1      34.365  34.217  28.476  1.00  0.00     0.330 C 
ATOM      4  O   UNL A   1      35.488  34.592  28.784  1.00  0.00    -0.247 OA
BRANCH   3   5
ATOM      5  C   UNL A   1      34.150  32.886  27.888  1.00  0.00     0.095 C 
ATOM      6  C   UNL A   1      34.425  31.700  28.456  1.00  0.00     0.027 C 
BRANCH   6   7
ATOM      7  C   UNL A   1      34.162  30.520  27.705  1.00  0.00     0.031 A 
ATOM      8  C   UNL A   1      36.450  29.352  27.626  1.00  0.00     0.046 C 
ATOM      9  C   UNL A   1      34.976  29.440  27.402  1.00  0.00    -0.032 A 
ATOM     10  C   UNL A   1      34.179  28.339  26.933  1.00  0.00     0.029 A 
ATOM     11  C   UNL A   1      32.822  28.627  26.861  1.00  0.00     0.093 A 
ATOM     12  S   UNL A   1      32.630  30.310  26.943  1.00  0.00    -0.130 S 
BRANCH  11  13
ATOM     13  C   UNL A   1      31.778  27.669  26.557  1.00  0.00     0.261 C 
ATOM     14  O   UNL A   1      31.052  27.243  27.466  1.00  0.00    -0.268 OA
ATOM     15  N   UNL A   1      31.406  27.208  25.310  1.00  0.00    -0.348 N 
ATOM     16  H   UNL A   1      30.634  26.607  25.417  1.00  0.00     0.164 HD
BRANCH  15  17
ATOM     17  C   UNL A   1      31.732  27.284  23.921  1.00  0.00     0.088 C 
ATOM     18  C   UNL A   1      31.499  26.302  22.826  1.00  0.00     0.034 C 
ATOM     19  C   UNL A   1      32.919  26.664  23.206  1.00  0.00    -0.013 C 
ATOM     20  C   UNL A   1      33.674  27.482  22.183  1.00  0.00     0.013 C 
ATOM     21  C   UNL A   1      33.796  25.663  23.905  1.00  0.00     0.013 C 
ENDBRANCH  15  17
ENDBRANCH  11  13
ENDBRANCH   6   7
ENDBRANCH   3   5
ENDBRANCH   2   3
ENDBRANCH   1   2
BRANCH   1  22
ATOM     22  C   UNL A   1      32.825  36.786  30.180  1.00  0.00     0.275 C 
BRANCH  22  23
ATOM     23  O   UNL A   1      32.481  35.679  31.036  1.00  0.00    -0.458 OA
BRANCH  23  24
ATOM     24  C   UNL A   1      32.722  35.867  32.354  1.00  0.00     0.338 C 
ATOM     25  O   UNL A   1      32.036  36.493  33.150  1.00  0.00    -0.246 OA
BRANCH  24  26
ATOM     26  C   UNL A   1      33.912  35.101  32.759  1.00  0.00     0.060 A 
ATOM     27  C   UNL A   1      35.169  35.691  32.597  1.00  0.00     0.016 A 
ATOM     28  C   UNL A   1      33.799  33.788  33.226  1.00  0.00     0.016 A 
ATOM     29  C   UNL A   1      36.321  34.967  32.897  1.00  0.00     0.010 A 
ATOM     30  C   UNL A   1      34.958  33.063  33.524  1.00  0.00     0.010 A 
ATOM     31  C   UNL A   1      36.226  33.643  33.347  1.00  0.00    -0.014 A 
BRANCH  31  32
ATOM     32  C   UNL A   1      37.457  32.856  33.597  1.00  0.00     0.031 A 
ATOM     33  C   UNL A   1      38.245  33.068  34.859  1.00  0.00     0.074 A 
ATOM     34  C   UNL A   1      37.864  31.941  32.698  1.00  0.00     0.049 A 
ATOM     35  N   UNL A   1      39.358  32.497  35.245  1.00  0.00    -0.248 NA
ATOM     36  C   UNL A   1      37.709  34.052  35.812  1.00  0.00     0.031 C 
ATOM     37  C   UNL A   1      37.174  31.620  31.449  1.00  0.00     0.029 A 
ATOM     38  N   UNL A   1      38.960  31.114  32.700  1.00  0.00    -0.354 N 
ATOM     39  C   UNL A   1      39.662  33.057  36.479  1.00  0.00     0.074 A 
ATOM     40  C   UNL A   1      38.630  34.031  36.767  1.00  0.00     0.031 C 
ATOM     41  C   UNL A   1      37.862  30.662  30.805  1.00  0.00     0.029 A 
ATOM     42  C   UNL A   1      39.057  30.331  31.576  1.00  0.00     0.049 A 
ATOM     43  H   UNL A   1      39.613  31.087  33.436  1.00  0.00     0.167 HD
ATOM     44  C   UNL A   1      40.703  32.782  37.302  1.00  0.00     0.031 A 
ATOM     45  C   UNL A   1      40.011  29.459  31.202  1.00  0.00     0.031 A 
ATOM     46  C   UNL A   1      41.737  31.824  37.014  1.00  0.00     0.049 A 
ATOM     47  C   UNL A   1      41.191  29.221  32.100  1.00  0.00     0.074 A 
ATOM     48  C   UNL A   1      42.824  31.465  37.795  1.00  0.00     0.029 A 
ATOM     49  N   UNL A   1      41.819  31.077  35.850  1.00  0.00    -0.354 N 
ATOM     50  N   UNL A   1      41.452  29.737  33.277  1.00  0.00    -0.248 NA
ATOM     51  C   UNL A   1      42.208  28.273  31.621  1.00  0.00     0.031 C 
ATOM     52  C   UNL A   1      43.588  30.536  37.080  1.00  0.00     0.029 A 
ATOM     53  C   UNL A   1      42.950  30.277  35.879  1.00  0.00     0.049 A 
ATOM     54  H   UNL A   1      41.170  31.109  35.110  1.00  0.00     0.167 HD
ATOM     55  C   UNL A   1      42.647  29.162  33.688  1.00  0.00     0.074 A 
ATOM     56  C   UNL A   1      43.053  28.245  32.642  1.00  0.00     0.031 C 
ATOM     57  C   UNL A   1      43.345  29.372  34.830  1.00  0.00     0.031 A 
BRANCH  44  58
ATOM     58  C   UNL A   1      40.789  33.555  38.588  1.00  0.00    -0.014 A 
ATOM     59  C   UNL A   1      41.472  34.779  38.658  1.00  0.00     0.009 A 
ATOM     60  C   UNL A   1      40.146  33.067  39.737  1.00  0.00     0.009 A 
ATOM     61  C   UNL A   1      41.538  35.483  39.863  1.00  0.00     0.001 A 
ATOM     62  C   UNL A   1      40.194  33.786  40.933  1.00  0.00     0.001 A 
ATOM     63  C   UNL A   1      40.896  34.988  40.997  1.00  0.00     0.000 A 
ENDBRANCH  44  58
BRANCH  45  64
ATOM     64  C   UNL A   1      39.900  28.755  29.898  1.00  0.00    -0.014 A 
ATOM     65  C   UNL A   1      39.344  27.469  29.824  1.00  0.00     0.009 A 
ATOM     66  C   UNL A   1      40.357  29.366  28.720  1.00  0.00     0.009 A 
ATOM     67  C   UNL A   1      39.268  26.802  28.599  1.00  0.00     0.001 A 
ATOM     68  C   UNL A   1      40.254  28.709  27.493  1.00  0.00     0.001 A 
ATOM     69  C   UNL A   1      39.718  27.423  27.435  1.00  0.00     0.000 A 
ENDBRANCH  45  64
BRANCH  57  70
ATOM     70  C   UNL A   1      44.603  28.575  35.023  1.00  0.00    -0.014 A 
ATOM     71  C   UNL A   1      45.844  29.053  34.576  1.00  0.00     0.009 A 
ATOM     72  C   UNL A   1      44.550  27.344  35.694  1.00  0.00     0.009 A 
ATOM     73  C   UNL A   1      47.003  28.298  34.769  1.00  0.00     0.001 A 
ATOM     74  C   UNL A   1      45.713  26.603  35.909  1.00  0.00     0.001 A 
ATOM     75  C   UNL A   1      46.937  27.076  35.439  1.00  0.00     0.000 A 
ENDBRANCH  57  70
ENDBRANCH  31  32
ENDBRANCH  24  26
ENDBRANCH  23  24
ENDBRANCH  22  23
ENDBRANCH   1  22
TORSDOF 14
ENDMDL
MODEL 3
REMARK VINA RESULT:     -10.4      3.572      4.949
REMARK SMILES Cc1cc(C(=O)N[C@@H]2CC2(C)C)sc1/C=C/C(=O)OCCOC(=O)c1ccc(-c2c3nc(c(-c4ccccc4)c4ccc([nH]4)c(-c4ccccc4)c4nc(c(-c5ccccc5)c5ccc2[nH]5)C=C4)C=C3)cc1
REMARK SMILES IDX 20 1 19 2 17 3 18 4 16 5 15 6 14 7 1 8 2 9 3 10 4 11 13 12
REMARK SMILES IDX 5 13 6 14 7 15 8 17 9 18 10 19 11 20 12 21 21 22 22 23 23 24
REMARK SMILES IDX 24 25 25 26 26 27 72 28 27 29 71 30 28 31 29 32 30 33 65 34
REMARK SMILES IDX 31 35 70 36 64 37 66 38 32 39 69 40 63 41 62 42 33 44 55 45
REMARK SMILES IDX 40 46 54 47 41 48 44 49 53 50 67 51 42 52 43 53 52 55 68 56
REMARK SMILES IDX 45 57 34 58 35 59 39 60 36 61 38 62 37 63 56 64 57 65 61 66
REMARK SMILES IDX 58 67 60 68 59 69 46 70 47 71 51 72 48 73 50 74 49 75
REMARK H PARENT 7 16 66 43 44 54
REMARK Flexibility Score: inf
ROOT
ATOM      1  C   UNL A   1      39.277  21.240  26.042  1.00  0.00     0.275 C 
ENDROOT
BRANCH   1   2
ATOM      2  O   UNL A   1      38.001  21.498  25.430  1.00  0.00    -0.459 OA
BRANCH   2   3
ATOM      3  C   UNL A   1      37.475  22.718  25.676  1.00  0.00     0.330 C 
ATOM      4  O   UNL A   1      38.099  23.740  25.924  1.00  0.00    -0.247 OA
BRANCH   3   5
ATOM      5  C   UNL A   1      36.009  22.740  25.552  1.00  0.00     0.095 C 
ATOM      6  C   UNL A   1      35.160  21.745  25.857  1.00  0.00     0.027 C 
BRANCH   6   7
ATOM      7  C   UNL A   1      33.769  21.961  25.643  1.00  0.00     0.031 A 
ATOM      8  C   UNL A   1      33.026  19.825  24.422  1.00  0.00     0.046 C 
ATOM      9  C   UNL A   1      32.796  21.127  25.114  1.00  0.00    -0.032 A 
ATOM     10  C   UNL A   1      31.489  21.640  25.426  1.00  0.00     0.029 A 
ATOM     11  C   UNL A   1      31.515  22.836  26.131  1.00  0.00     0.093 A 
ATOM     12  S   UNL A   1      33.072  23.495  26.005  1.00  0.00    -0.130 S 
BRANCH  11  13
ATOM     13  C   UNL A   1      30.356  23.502  26.692  1.00  0.00     0.261 C 
ATOM     14  O   UNL A   1      29.762  22.993  27.654  1.00  0.00    -0.268 OA
ATOM     15  N   UNL A   1      29.850  24.736  26.339  1.00  0.00    -0.348 N 
ATOM     16  H   UNL A   1      29.091  24.944  26.930  1.00  0.00     0.164 HD
BRANCH  15  17
ATOM     17  C   UNL A   1      30.023  25.822  25.427  1.00  0.00     0.088 C 
ATOM     18  C   UNL A   1      29.099  26.363  24.392  1.00  0.00     0.034 C 
ATOM     19  C   UNL A   1      30.419  25.757  23.962  1.00  0.00    -0.013 C 
ATOM     20  C   UNL A   1      31.438  26.738  23.429  1.00  0.00     0.013 C 
ATOM     21  C   UNL A   1      30.449  24.442  23.235  1.00  0.00     0.013 C 
ENDBRANCH  15  17
ENDBRANCH  11  13
ENDBRANCH   6   7
ENDBRANCH   3   5
ENDBRANCH   2   3
ENDBRANCH   1   2
BRANCH   1  22
ATOM     22  C   UNL A   1      39.768  19.825  25.721  1.00  0.00     0.275 C 
BRANCH  22  23
ATOM     23  O   UNL A   1      40.937  19.471  26.485  1.00  0.00    -0.458 OA
BRANCH  23  24
ATOM     24  C   UNL A   1      42.119  19.858  25.954  1.00  0.00     0.338 C 
ATOM     25  O   UNL A   1      42.784  19.265  25.117  1.00  0.00    -0.246 OA
BRANCH  24  26
ATOM     26  C   UNL A   1      42.476  21.197  26.452  1.00  0.00     0.060 A 
ATOM     27  C   UNL A   1      42.394  21.438  27.827  1.00  0.00     0.016 A 
ATOM     28  C   UNL A   1      42.820  22.225  25.570  1.00  0.00     0.016 A 
ATOM     29  C   UNL A   1      42.650  22.714  28.325  1.00  0.00     0.010 A 
ATOM     30  C   UNL A   1      43.074  23.506  26.074  1.00  0.00     0.010 A 
ATOM     31  C   UNL A   1      42.976  23.761  27.452  1.00  0.00    -0.014 A 
BRANCH  31  32
ATOM     32  C   UNL A   1      43.179  25.131  27.982  1.00  0.00     0.031 A 
ATOM     33  C   UNL A   1      44.557  25.602  28.349  1.00  0.00     0.074 A 
ATOM     34  C   UNL A   1      42.126  25.958  28.124  1.00  0.00     0.049 A 
ATOM     35  N   UNL A   1      44.932  26.752  28.850  1.00  0.00    -0.248 NA
ATOM     36  C   UNL A   1      45.659  24.655  28.120  1.00  0.00     0.031 C 
ATOM     37  C   UNL A   1      40.743  25.632  27.779  1.00  0.00     0.029 A 
ATOM     38  N   UNL A   1      42.061  27.245  28.599  1.00  0.00    -0.354 N 
ATOM     39  C   UNL A   1      46.309  26.666  29.006  1.00  0.00     0.074 A 
ATOM     40  C   UNL A   1      46.701  25.342  28.569  1.00  0.00     0.031 C 
ATOM     41  C   UNL A   1      39.965  26.693  28.051  1.00  0.00     0.029 A 
ATOM     42  C   UNL A   1      40.786  27.755  28.623  1.00  0.00     0.049 A 
ATOM     43  H   UNL A   1      42.852  27.751  28.894  1.00  0.00     0.167 HD
ATOM     44  C   UNL A   1      47.172  27.605  29.466  1.00  0.00     0.031 A 
ATOM     45  C   UNL A   1      40.330  28.938  29.073  1.00  0.00     0.031 A 
ATOM     46  C   UNL A   1      46.784  28.917  29.912  1.00  0.00     0.049 A 
ATOM     47  C   UNL A   1      41.298  29.938  29.642  1.00  0.00     0.074 A 
ATOM     48  C   UNL A   1      47.589  29.943  30.379  1.00  0.00     0.029 A 
ATOM     49  N   UNL A   1      45.480  29.383  29.954  1.00  0.00    -0.354 N 
ATOM     50  N   UNL A   1      42.601  29.853  29.758  1.00  0.00    -0.248 NA
ATOM     51  C   UNL A   1      40.730  31.201  30.136  1.00  0.00     0.031 C 
ATOM     52  C   UNL A   1      46.766  31.011  30.749  1.00  0.00     0.029 A 
ATOM     53  C   UNL A   1      45.454  30.671  30.463  1.00  0.00     0.049 A 
ATOM     54  H   UNL A   1      44.687  28.874  29.666  1.00  0.00     0.167 HD
ATOM     55  C   UNL A   1      43.011  31.056  30.317  1.00  0.00     0.074 A 
ATOM     56  C   UNL A   1      41.821  31.862  30.501  1.00  0.00     0.031 C 
ATOM     57  C   UNL A   1      44.263  31.460  30.645  1.00  0.00     0.031 A 
BRANCH  44  58
ATOM     58  C   UNL A   1      48.625  27.231  29.536  1.00  0.00    -0.014 A 
ATOM     59  C   UNL A   1      49.499  27.500  28.471  1.00  0.00     0.009 A 
ATOM     60  C   UNL A   1      49.134  26.631  30.699  1.00  0.00     0.009 A 
ATOM     61  C   UNL A   1      50.848  27.146  28.557  1.00  0.00     0.001 A 
ATOM     62  C   UNL A   1      50.487  26.301  30.791  1.00  0.00     0.001 A 
ATOM     63  C   UNL A   1      51.341  26.551  29.718  1.00  0.00     0.000 A 
ENDBRANCH  44  58
BRANCH  45  64
ATOM     64  C   UNL A   1      38.876  29.239  29.022  1.00  0.00    -0.014 A 
ATOM     65  C   UNL A   1      38.288  29.734  27.849  1.00  0.00     0.009 A 
ATOM     66  C   UNL A   1      38.070  29.038  30.154  1.00  0.00     0.009 A 
ATOM     67  C   UNL A   1      36.926  30.041  27.816  1.00  0.00     0.001 A 
ATOM     68  C   UNL A   1      36.704  29.319  30.110  1.00  0.00     0.001 A 
ATOM     69  C   UNL A   1      36.134  29.829  28.944  1.00  0.00     0.000 A 
ENDBRANCH  45  64
BRANCH  57  70
ATOM     70  C   UNL A   1      44.413  32.844  31.209  1.00  0.00    -0.014 A 
ATOM     71  C   UNL A   1      44.652  33.948  30.378  1.00  0.00     0.009 A 
ATOM     72  C   UNL A   1      44.278  33.048  32.591  1.00  0.00     0.009 A 
ATOM     73  C   UNL A   1      44.783  35.227  30.923  1.00  0.00     0.001 A 
ATOM     74  C   UNL A   1      44.384  34.331  33.131  1.00  0.00     0.001 A 
ATOM     75  C   UNL A   1      44.646  35.418  32.298  1.00  0.00     0.000 A 
ENDBRANCH  57  70
ENDBRANCH  31  32
ENDBRANCH  24  26
ENDBRANCH  23  24
ENDBRANCH  22  23
ENDBRANCH   1  22
TORSDOF 14
ENDMDL
