MODEL 1
REMARK VINA RESULT:     -11.6      0.000      0.000
REMARK SMILES O=C(OCCOC(=O)[C@H]1[C@@H](C(=O)Nc2ccccc2-c2ccccc2)[C@@H]2C=C[C@H]1O2)c1ccc(-c2c3nc(c(-c4ccccc4)c4ccc([nH]4)c(-c4ccccc4)c4nc(c(-c5ccccc5)c5ccc2[nH]5)C=C4)C=C3)cc1
REMARK SMILES IDX 5 1 4 2 3 3 2 4 1 5 31 6 32 7 78 8 33 9 77 10 34 11 35 12
REMARK SMILES IDX 36 13 71 14 37 15 76 16 70 17 72 18 38 19 75 20 69 21 68 22
REMARK SMILES IDX 39 24 61 25 46 26 60 27 47 28 50 29 59 30 73 31 48 32 49 33
REMARK SMILES IDX 58 35 74 36 51 37 40 38 41 39 45 40 42 41 44 42 43 43 62 44
REMARK SMILES IDX 63 45 67 46 64 47 66 48 65 49 52 50 53 51 57 52 54 53 56 54
REMARK SMILES IDX 55 55 6 56 7 57 8 58 9 59 10 60 29 61 26 62 28 63 30 64
REMARK SMILES IDX 27 65 11 66 12 67 13 68 14 70 15 71 19 72 16 73 18 74 17 75
REMARK SMILES IDX 20 76 21 77 25 78 22 79 24 80 23 81
REMARK H PARENT 72 23 50 34 13 69
REMARK Flexibility Score: inf
ROOT
ATOM      1  C   UNL A   1      33.998  28.408  25.749  1.00  0.00     0.274 C 
ENDROOT
BRANCH   1   2
ATOM      2  C   UNL A   1      33.296  29.704  26.161  1.00  0.00     0.275 C 
BRANCH   2   3
ATOM      3  O   UNL A   1      33.558  30.138  27.509  1.00  0.00    -0.458 OA
BRANCH   3   4
ATOM      4  C   UNL A   1      34.602  30.801  28.054  1.00  0.00     0.338 C 
ATOM      5  O   UNL A   1      34.510  32.019  28.203  1.00  0.00    -0.246 OA
BRANCH   4   6
ATOM      6  C   UNL A   1      35.912  30.171  28.430  1.00  0.00     0.060 A 
ATOM      7  C   UNL A   1      36.254  29.661  29.683  1.00  0.00     0.016 A 
ATOM      8  C   UNL A   1      36.881  30.087  27.410  1.00  0.00     0.016 A 
ATOM      9  C   UNL A   1      37.495  29.061  29.910  1.00  0.00     0.010 A 
ATOM     10  C   UNL A   1      38.120  29.473  27.623  1.00  0.00     0.010 A 
ATOM     11  C   UNL A   1      38.441  28.980  28.889  1.00  0.00    -0.014 A 
BRANCH  11  12
ATOM     12  C   UNL A   1      39.828  28.614  29.244  1.00  0.00     0.031 A 
ATOM     13  C   UNL A   1      40.311  27.253  28.845  1.00  0.00     0.074 A 
ATOM     14  C   UNL A   1      40.686  29.512  29.761  1.00  0.00     0.049 A 
ATOM     15  N   UNL A   1      41.512  26.748  28.927  1.00  0.00    -0.248 NA
ATOM     16  C   UNL A   1      39.312  26.352  28.245  1.00  0.00     0.031 C 
ATOM     17  C   UNL A   1      40.366  30.906  30.061  1.00  0.00     0.029 A 
ATOM     18  N   UNL A   1      42.016  29.396  30.081  1.00  0.00    -0.354 N 
ATOM     19  C   UNL A   1      41.415  25.480  28.372  1.00  0.00     0.074 A 
ATOM     20  C   UNL A   1      40.031  25.267  28.019  1.00  0.00     0.031 C 
ATOM     21  C   UNL A   1      41.484  31.515  30.489  1.00  0.00     0.029 A 
ATOM     22  C   UNL A   1      42.568  30.555  30.565  1.00  0.00     0.049 A 
ATOM     23  H   UNL A   1      42.526  28.560  29.973  1.00  0.00     0.167 HD
ATOM     24  C   UNL A   1      42.398  24.580  28.150  1.00  0.00     0.031 A 
ATOM     25  C   UNL A   1      43.802  30.832  31.026  1.00  0.00     0.031 A 
ATOM     26  C   UNL A   1      43.766  24.784  28.533  1.00  0.00     0.049 A 
ATOM     27  C   UNL A   1      44.842  29.758  30.933  1.00  0.00     0.074 A 
ATOM     28  C   UNL A   1      44.839  23.925  28.393  1.00  0.00     0.029 A 
ATOM     29  N   UNL A   1      44.244  25.931  29.153  1.00  0.00    -0.354 N 
ATOM     30  N   UNL A   1      44.736  28.563  30.405  1.00  0.00    -0.248 NA
ATOM     31  C   UNL A   1      46.174  30.076  31.460  1.00  0.00     0.031 C 
ATOM     32  C   UNL A   1      45.954  24.526  28.988  1.00  0.00     0.029 A 
ATOM     33  C   UNL A   1      45.591  25.788  29.435  1.00  0.00     0.049 A 
ATOM     34  H   UNL A   1      43.705  26.728  29.361  1.00  0.00     0.167 HD
ATOM     35  C   UNL A   1      45.999  28.002  30.490  1.00  0.00     0.074 A 
ATOM     36  C   UNL A   1      46.854  28.991  31.119  1.00  0.00     0.031 C 
ATOM     37  C   UNL A   1      46.417  26.783  30.071  1.00  0.00     0.031 A 
BRANCH  24  38
ATOM     38  C   UNL A   1      41.980  23.280  27.525  1.00  0.00    -0.014 A 
ATOM     39  C   UNL A   1      41.363  22.268  28.280  1.00  0.00     0.009 A 
ATOM     40  C   UNL A   1      42.282  23.037  26.178  1.00  0.00     0.009 A 
ATOM     41  C   UNL A   1      41.111  21.018  27.711  1.00  0.00     0.001 A 
ATOM     42  C   UNL A   1      41.999  21.798  25.603  1.00  0.00     0.001 A 
ATOM     43  C   UNL A   1      41.429  20.784  26.374  1.00  0.00     0.000 A 
ENDBRANCH  24  38
BRANCH  25  44
ATOM     44  C   UNL A   1      44.117  32.165  31.614  1.00  0.00    -0.014 A 
ATOM     45  C   UNL A   1      44.628  33.208  30.826  1.00  0.00     0.009 A 
ATOM     46  C   UNL A   1      43.923  32.396  32.987  1.00  0.00     0.009 A 
ATOM     47  C   UNL A   1      44.963  34.437  31.403  1.00  0.00     0.001 A 
ATOM     48  C   UNL A   1      44.232  33.635  33.557  1.00  0.00     0.001 A 
ATOM     49  C   UNL A   1      44.762  34.651  32.766  1.00  0.00     0.000 A 
ENDBRANCH  25  44
BRANCH  37  50
ATOM     50  C   UNL A   1      47.875  26.477  30.242  1.00  0.00    -0.014 A 
ATOM     51  C   UNL A   1      48.808  26.765  29.235  1.00  0.00     0.009 A 
ATOM     52  C   UNL A   1      48.320  25.911  31.447  1.00  0.00     0.009 A 
ATOM     53  C   UNL A   1      50.157  26.454  29.417  1.00  0.00     0.001 A 
ATOM     54  C   UNL A   1      49.672  25.636  31.641  1.00  0.00     0.001 A 
ATOM     55  C   UNL A   1      50.587  25.897  30.621  1.00  0.00     0.000 A 
ENDBRANCH  37  50
ENDBRANCH  11  12
ENDBRANCH   4   6
ENDBRANCH   3   4
ENDBRANCH   2   3
ENDBRANCH   1   2
BRANCH   1  56
ATOM     56  O   UNL A   1      33.619  27.272  26.536  1.00  0.00    -0.462 OA
BRANCH  56  57
ATOM     57  C   UNL A   1      32.315  26.879  26.412  1.00  0.00     0.312 C 
ATOM     58  O   UNL A   1      31.438  27.091  27.239  1.00  0.00    -0.252 OA
BRANCH  57  59
ATOM     59  C   UNL A   1      32.119  26.188  25.088  1.00  0.00     0.147 C 
ATOM     60  C   UNL A   1      32.069  24.637  25.131  1.00  0.00     0.129 C 
ATOM     61  C   UNL A   1      30.740  26.529  24.509  1.00  0.00     0.157 C 
ATOM     62  C   UNL A   1      30.655  24.367  24.583  1.00  0.00     0.155 C 
ATOM     63  C   UNL A   1      30.671  26.066  23.076  1.00  0.00     0.004 C 
ATOM     64  O   UNL A   1      29.928  25.497  25.115  1.00  0.00    -0.365 OA
ATOM     65  C   UNL A   1      30.615  24.730  23.124  1.00  0.00     0.004 C 
BRANCH  60  66
ATOM     66  C   UNL A   1      32.370  23.980  26.473  1.00  0.00     0.231 C 
ATOM     67  O   UNL A   1      31.681  24.197  27.474  1.00  0.00    -0.274 OA
ATOM     68  N   UNL A   1      33.454  23.166  26.642  1.00  0.00    -0.325 N 
ATOM     69  H   UNL A   1      33.388  22.559  27.415  1.00  0.00     0.169 HD
BRANCH  68  70
ATOM     70  C   UNL A   1      34.647  23.043  25.905  1.00  0.00     0.049 A 
ATOM     71  C   UNL A   1      35.650  23.958  26.261  1.00  0.00     0.027 A 
ATOM     72  C   UNL A   1      34.884  22.085  24.888  1.00  0.00     0.005 A 
ATOM     73  C   UNL A   1      36.925  23.866  25.709  1.00  0.00     0.002 A 
ATOM     74  C   UNL A   1      36.182  22.032  24.336  1.00  0.00     0.011 A 
ATOM     75  C   UNL A   1      37.195  22.894  24.756  1.00  0.00     0.001 A 
BRANCH  72  76
ATOM     76  C   UNL A   1      33.858  21.161  24.363  1.00  0.00    -0.016 A 
ATOM     77  C   UNL A   1      32.971  21.592  23.362  1.00  0.00     0.009 A 
ATOM     78  C   UNL A   1      33.801  19.809  24.752  1.00  0.00     0.009 A 
ATOM     79  C   UNL A   1      32.134  20.690  22.712  1.00  0.00     0.001 A 
ATOM     80  C   UNL A   1      32.981  18.899  24.082  1.00  0.00     0.001 A 
ATOM     81  C   UNL A   1      32.159  19.338  23.051  1.00  0.00     0.000 A 
ENDBRANCH  72  76
ENDBRANCH  68  70
ENDBRANCH  60  66
ENDBRANCH  57  59
ENDBRANCH  56  57
ENDBRANCH   1  56
TORSDOF 14
ENDMDL
MODEL 2
REMARK VINA RESULT:     -11.5      1.027      5.862
REMARK SMILES O=C(OCCOC(=O)[C@H]1[C@@H](C(=O)Nc2ccccc2-c2ccccc2)[C@@H]2C=C[C@H]1O2)c1ccc(-c2c3nc(c(-c4ccccc4)c4ccc([nH]4)c(-c4ccccc4)c4nc(c(-c5ccccc5)c5ccc2[nH]5)C=C4)C=C3)cc1
REMARK SMILES IDX 5 1 4 2 3 3 2 4 1 5 31 6 32 7 78 8 33 9 77 10 34 11 35 12
REMARK SMILES IDX 36 13 71 14 37 15 76 16 70 17 72 18 38 19 75 20 69 21 68 22
REMARK SMILES IDX 39 24 61 25 46 26 60 27 47 28 50 29 59 30 73 31 48 32 49 33
REMARK SMILES IDX 58 35 74 36 51 37 40 38 41 39 45 40 42 41 44 42 43 43 62 44
REMARK SMILES IDX 63 45 67 46 64 47 66 48 65 49 52 50 53 51 57 52 54 53 56 54
REMARK SMILES IDX 55 55 6 56 7 57 8 58 9 59 10 60 29 61 26 62 28 63 30 64
REMARK SMILES IDX 27 65 11 66 12 67 13 68 14 70 15 71 19 72 16 73 18 74 17 75
REMARK SMILES IDX 20 76 21 77 25 78 22 79 24 80 23 81
REMARK H PARENT 72 23 50 34 13 69
REMARK Flexibility Score: inf
ROOT
ATOM      1  C   UNL A   1      33.915  28.607  25.860  1.00  0.00     0.274 C 
ENDROOT
BRANCH   1   2
ATOM      2  C   UNL A   1      33.147  29.909  26.099  1.00  0.00     0.275 C 
BRANCH   2   3
ATOM      3  O   UNL A   1      33.362  30.518  27.385  1.00  0.00    -0.458 OA
BRANCH   3   4
ATOM      4  C   UNL A   1      34.449  31.108  27.932  1.00  0.00     0.338 C 
ATOM      5  O   UNL A   1      34.431  32.327  28.101  1.00  0.00    -0.246 OA
BRANCH   4   6
ATOM      6  C   UNL A   1      35.721  30.394  28.286  1.00  0.00     0.060 A 
ATOM      7  C   UNL A   1      35.993  29.736  29.486  1.00  0.00     0.016 A 
ATOM      8  C   UNL A   1      36.730  30.390  27.301  1.00  0.00     0.016 A 
ATOM      9  C   UNL A   1      37.204  29.071  29.692  1.00  0.00     0.010 A 
ATOM     10  C   UNL A   1      37.940  29.713  27.492  1.00  0.00     0.010 A 
ATOM     11  C   UNL A   1      38.190  29.071  28.707  1.00  0.00    -0.014 A 
BRANCH  11  12
ATOM     12  C   UNL A   1      39.549  28.619  29.073  1.00  0.00     0.031 A 
ATOM     13  C   UNL A   1      40.327  29.468  30.032  1.00  0.00     0.074 A 
ATOM     14  C   UNL A   1      40.020  27.417  28.697  1.00  0.00     0.049 A 
ATOM     15  N   UNL A   1      41.477  29.226  30.601  1.00  0.00    -0.248 NA
ATOM     16  C   UNL A   1      39.713  30.748  30.423  1.00  0.00     0.031 C 
ATOM     17  C   UNL A   1      39.294  26.446  27.880  1.00  0.00     0.029 A 
ATOM     18  N   UNL A   1      41.204  26.788  28.994  1.00  0.00    -0.354 N 
ATOM     19  C   UNL A   1      41.711  30.312  31.431  1.00  0.00     0.074 A 
ATOM     20  C   UNL A   1      40.624  31.243  31.243  1.00  0.00     0.031 C 
ATOM     21  C   UNL A   1      40.043  25.337  27.775  1.00  0.00     0.029 A 
ATOM     22  C   UNL A   1      41.315  25.537  28.442  1.00  0.00     0.049 A 
ATOM     23  H   UNL A   1      41.906  27.196  29.551  1.00  0.00     0.167 HD
ATOM     24  C   UNL A   1      42.731  30.507  32.296  1.00  0.00     0.031 A 
ATOM     25  C   UNL A   1      42.318  24.641  28.458  1.00  0.00     0.031 A 
ATOM     26  C   UNL A   1      43.827  29.595  32.455  1.00  0.00     0.049 A 
ATOM     27  C   UNL A   1      43.525  24.953  29.288  1.00  0.00     0.074 A 
ATOM     28  C   UNL A   1      44.934  29.708  33.274  1.00  0.00     0.029 A 
ATOM     29  N   UNL A   1      43.958  28.399  31.760  1.00  0.00    -0.354 N 
ATOM     30  N   UNL A   1      43.733  25.985  30.069  1.00  0.00    -0.248 NA
ATOM     31  C   UNL A   1      44.614  23.970  29.273  1.00  0.00     0.031 C 
ATOM     32  C   UNL A   1      45.769  28.613  33.025  1.00  0.00     0.029 A 
ATOM     33  C   UNL A   1      45.147  27.782  32.105  1.00  0.00     0.049 A 
ATOM     34  H   UNL A   1      43.302  28.043  31.118  1.00  0.00     0.167 HD
ATOM     35  C   UNL A   1      44.955  25.755  30.679  1.00  0.00     0.074 A 
ATOM     36  C   UNL A   1      45.438  24.483  30.176  1.00  0.00     0.031 C 
ATOM     37  C   UNL A   1      45.611  26.521  31.584  1.00  0.00     0.031 A 
BRANCH  24  38
ATOM     38  C   UNL A   1      42.711  31.796  33.067  1.00  0.00    -0.014 A 
ATOM     39  C   UNL A   1      42.083  31.892  34.321  1.00  0.00     0.009 A 
ATOM     40  C   UNL A   1      43.258  32.950  32.490  1.00  0.00     0.009 A 
ATOM     41  C   UNL A   1      41.956  33.131  34.953  1.00  0.00     0.001 A 
ATOM     42  C   UNL A   1      43.159  34.181  33.139  1.00  0.00     0.001 A 
ATOM     43  C   UNL A   1      42.493  34.274  34.361  1.00  0.00     0.000 A 
ENDBRANCH  24  38
BRANCH  25  44
ATOM     44  C   UNL A   1      42.229  23.379  27.667  1.00  0.00    -0.014 A 
ATOM     45  C   UNL A   1      41.677  22.212  28.216  1.00  0.00     0.009 A 
ATOM     46  C   UNL A   1      42.720  23.334  26.351  1.00  0.00     0.009 A 
ATOM     47  C   UNL A   1      41.644  21.024  27.477  1.00  0.00     0.001 A 
ATOM     48  C   UNL A   1      42.661  22.154  25.604  1.00  0.00     0.001 A 
ATOM     49  C   UNL A   1      42.133  20.997  26.172  1.00  0.00     0.000 A 
ENDBRANCH  25  44
BRANCH  37  50
ATOM     50  C   UNL A   1      46.900  25.974  32.119  1.00  0.00    -0.014 A 
ATOM     51  C   UNL A   1      48.121  26.200  31.465  1.00  0.00     0.009 A 
ATOM     52  C   UNL A   1      46.890  25.240  33.315  1.00  0.00     0.009 A 
ATOM     53  C   UNL A   1      49.303  25.664  31.979  1.00  0.00     0.001 A 
ATOM     54  C   UNL A   1      48.076  24.738  33.846  1.00  0.00     0.001 A 
ATOM     55  C   UNL A   1      49.279  24.940  33.171  1.00  0.00     0.000 A 
ENDBRANCH  37  50
ENDBRANCH  11  12
ENDBRANCH   4   6
ENDBRANCH   3   4
ENDBRANCH   2   3
ENDBRANCH   1   2
BRANCH   1  56
ATOM     56  O   UNL A   1      33.490  27.524  26.697  1.00  0.00    -0.462 OA
BRANCH  56  57
ATOM     57  C   UNL A   1      32.202  27.104  26.505  1.00  0.00     0.312 C 
ATOM     58  O   UNL A   1      31.299  27.216  27.323  1.00  0.00    -0.252 OA
BRANCH  57  59
ATOM     59  C   UNL A   1      32.061  26.527  25.121  1.00  0.00     0.147 C 
ATOM     60  C   UNL A   1      31.957  24.980  25.036  1.00  0.00     0.129 C 
ATOM     61  C   UNL A   1      30.730  26.964  24.495  1.00  0.00     0.157 C 
ATOM     62  C   UNL A   1      30.570  24.808  24.391  1.00  0.00     0.155 C 
ATOM     63  C   UNL A   1      30.729  26.618  23.028  1.00  0.00     0.004 C 
ATOM     64  O   UNL A   1      29.850  25.919  24.971  1.00  0.00    -0.365 OA
ATOM     65  C   UNL A   1      30.626  25.285  22.966  1.00  0.00     0.004 C 
BRANCH  60  66
ATOM     66  C   UNL A   1      32.158  24.210  26.335  1.00  0.00     0.231 C 
ATOM     67  O   UNL A   1      31.426  24.380  27.315  1.00  0.00    -0.274 OA
ATOM     68  N   UNL A   1      33.195  23.335  26.493  1.00  0.00    -0.325 N 
ATOM     69  H   UNL A   1      33.063  22.674  27.212  1.00  0.00     0.169 HD
BRANCH  68  70
ATOM     70  C   UNL A   1      34.420  23.213  25.810  1.00  0.00     0.049 A 
ATOM     71  C   UNL A   1      35.392  24.154  26.182  1.00  0.00     0.027 A 
ATOM     72  C   UNL A   1      34.715  22.233  24.830  1.00  0.00     0.005 A 
ATOM     73  C   UNL A   1      36.691  24.070  25.686  1.00  0.00     0.002 A 
ATOM     74  C   UNL A   1      36.035  22.189  24.333  1.00  0.00     0.011 A 
ATOM     75  C   UNL A   1      37.016  23.078  24.770  1.00  0.00     0.001 A 
BRANCH  72  76
ATOM     76  C   UNL A   1      33.725  21.279  24.288  1.00  0.00    -0.016 A 
ATOM     77  C   UNL A   1      32.851  21.679  23.264  1.00  0.00     0.009 A 
ATOM     78  C   UNL A   1      33.696  19.928  24.685  1.00  0.00     0.009 A 
ATOM     79  C   UNL A   1      32.053  20.751  22.602  1.00  0.00     0.001 A 
ATOM     80  C   UNL A   1      32.917  18.992  24.003  1.00  0.00     0.001 A 
ATOM     81  C   UNL A   1      32.107  19.402  22.950  1.00  0.00     0.000 A 
ENDBRANCH  72  76
ENDBRANCH  68  70
ENDBRANCH  60  66
ENDBRANCH  57  59
ENDBRANCH  56  57
ENDBRANCH   1  56
TORSDOF 14
ENDMDL
MODEL 3
REMARK VINA RESULT:     -11.4      2.603      7.400
REMARK SMILES O=C(OCCOC(=O)[C@H]1[C@@H](C(=O)Nc2ccccc2-c2ccccc2)[C@@H]2C=C[C@H]1O2)c1ccc(-c2c3nc(c(-c4ccccc4)c4ccc([nH]4)c(-c4ccccc4)c4nc(c(-c5ccccc5)c5ccc2[nH]5)C=C4)C=C3)cc1
REMARK SMILES IDX 5 1 4 2 3 3 2 4 1 5 31 6 32 7 78 8 33 9 77 10 34 11 35 12
REMARK SMILES IDX 36 13 71 14 37 15 76 16 70 17 72 18 38 19 75 20 69 21 68 22
REMARK SMILES IDX 39 24 61 25 46 26 60 27 47 28 50 29 59 30 73 31 48 32 49 33
REMARK SMILES IDX 58 35 74 36 51 37 40 38 41 39 45 40 42 41 44 42 43 43 62 44
REMARK SMILES IDX 63 45 67 46 64 47 66 48 65 49 52 50 53 51 57 52 54 53 56 54
REMARK SMILES IDX 55 55 6 56 7 57 8 58 9 59 10 60 29 61 26 62 28 63 30 64
REMARK SMILES IDX 27 65 11 66 12 67 13 68 14 70 15 71 19 72 16 73 18 74 17 75
REMARK SMILES IDX 20 76 21 77 25 78 22 79 24 80 23 81
REMARK H PARENT 72 23 50 34 13 69
REMARK Flexibility Score: inf
ROOT
ATOM      1  C   UNL A   1      36.934  22.411  24.041  1.00  0.00     0.274 C 
ENDROOT
BRANCH   1   2
ATOM      2  C   UNL A   1      37.600  21.372  24.945  1.00  0.00     0.275 C 
BRANCH   2   3
ATOM      3  O   UNL A   1      38.267  21.907  26.104  1.00  0.00    -0.458 OA
BRANCH   3   4
ATOM      4  C   UNL A   1      39.471  22.503  26.254  1.00  0.00     0.338 C 
ATOM      5  O   UNL A   1      40.484  21.845  26.021  1.00  0.00    -0.246 OA
BRANCH   4   6
ATOM      6  C   UNL A   1      39.674  23.901  26.760  1.00  0.00     0.060 A 
ATOM      7  C   UNL A   1      40.319  24.939  26.085  1.00  0.00     0.016 A 
ATOM      8  C   UNL A   1      39.155  24.186  28.039  1.00  0.00     0.016 A 
ATOM      9  C   UNL A   1      40.418  26.217  26.640  1.00  0.00     0.010 A 
ATOM     10  C   UNL A   1      39.235  25.467  28.597  1.00  0.00     0.010 A 
ATOM     11  C   UNL A   1      39.895  26.484  27.904  1.00  0.00    -0.014 A 
BRANCH  11  12
ATOM     12  C   UNL A   1      40.277  27.746  28.570  1.00  0.00     0.031 A 
ATOM     13  C   UNL A   1      41.718  27.927  28.939  1.00  0.00     0.074 A 
ATOM     14  C   UNL A   1      39.411  28.767  28.702  1.00  0.00     0.049 A 
ATOM     15  N   UNL A   1      42.322  28.985  29.411  1.00  0.00    -0.248 NA
ATOM     16  C   UNL A   1      42.603  26.771  28.718  1.00  0.00     0.031 C 
ATOM     17  C   UNL A   1      38.021  28.755  28.253  1.00  0.00     0.029 A 
ATOM     18  N   UNL A   1      39.589  30.030  29.211  1.00  0.00    -0.354 N 
ATOM     19  C   UNL A   1      43.657  28.626  29.524  1.00  0.00     0.074 A 
ATOM     20  C   UNL A   1      43.765  27.239  29.136  1.00  0.00     0.031 C 
ATOM     21  C   UNL A   1      37.491  29.968  28.480  1.00  0.00     0.029 A 
ATOM     22  C   UNL A   1      38.463  30.811  29.149  1.00  0.00     0.049 A 
ATOM     23  H   UNL A   1      40.444  30.345  29.584  1.00  0.00     0.167 HD
ATOM     24  C   UNL A   1      44.707  29.391  29.892  1.00  0.00     0.031 A 
ATOM     25  C   UNL A   1      38.219  32.062  29.580  1.00  0.00     0.031 A 
ATOM     26  C   UNL A   1      44.589  30.760  30.308  1.00  0.00     0.049 A 
ATOM     27  C   UNL A   1      39.364  32.843  30.151  1.00  0.00     0.074 A 
ATOM     28  C   UNL A   1      45.580  31.621  30.738  1.00  0.00     0.029 A 
ATOM     29  N   UNL A   1      43.392  31.462  30.359  1.00  0.00    -0.354 N 
ATOM     30  N   UNL A   1      40.622  32.490  30.250  1.00  0.00    -0.248 NA
ATOM     31  C   UNL A   1      39.070  34.197  30.631  1.00  0.00     0.031 C 
ATOM     32  C   UNL A   1      44.973  32.824  31.115  1.00  0.00     0.029 A 
ATOM     33  C   UNL A   1      43.614  32.737  30.850  1.00  0.00     0.049 A 
ATOM     34  H   UNL A   1      42.515  31.107  30.087  1.00  0.00     0.167 HD
ATOM     35  C   UNL A   1      41.283  33.595  30.759  1.00  0.00     0.074 A 
ATOM     36  C   UNL A   1      40.283  34.630  30.944  1.00  0.00     0.031 C 
ATOM     37  C   UNL A   1      42.601  33.745  31.035  1.00  0.00     0.031 A 
BRANCH  24  38
ATOM     38  C   UNL A   1      46.047  28.713  29.916  1.00  0.00    -0.014 A 
ATOM     39  C   UNL A   1      46.534  28.092  31.079  1.00  0.00     0.009 A 
ATOM     40  C   UNL A   1      46.867  28.769  28.781  1.00  0.00     0.009 A 
ATOM     41  C   UNL A   1      47.837  27.592  31.119  1.00  0.00     0.001 A 
ATOM     42  C   UNL A   1      48.156  28.239  28.813  1.00  0.00     0.001 A 
ATOM     43  C   UNL A   1      48.647  27.667  29.987  1.00  0.00     0.000 A 
ENDBRANCH  24  38
BRANCH  25  44
ATOM     44  C   UNL A   1      36.851  32.648  29.493  1.00  0.00    -0.014 A 
ATOM     45  C   UNL A   1      36.442  33.383  28.370  1.00  0.00     0.009 A 
ATOM     46  C   UNL A   1      35.945  32.489  30.556  1.00  0.00     0.009 A 
ATOM     47  C   UNL A   1      35.171  33.966  28.325  1.00  0.00     0.001 A 
ATOM     48  C   UNL A   1      34.665  33.048  30.498  1.00  0.00     0.001 A 
ATOM     49  C   UNL A   1      34.283  33.796  29.387  1.00  0.00     0.000 A 
ENDBRANCH  25  44
BRANCH  37  50
ATOM     50  C   UNL A   1      43.037  35.094  31.522  1.00  0.00    -0.014 A 
ATOM     51  C   UNL A   1      43.007  35.427  32.884  1.00  0.00     0.009 A 
ATOM     52  C   UNL A   1      43.510  36.037  30.597  1.00  0.00     0.009 A 
ATOM     53  C   UNL A   1      43.404  36.697  33.306  1.00  0.00     0.001 A 
ATOM     54  C   UNL A   1      43.941  37.292  31.025  1.00  0.00     0.001 A 
ATOM     55  C   UNL A   1      43.876  37.624  32.377  1.00  0.00     0.000 A 
ENDBRANCH  37  50
ENDBRANCH  11  12
ENDBRANCH   4   6
ENDBRANCH   3   4
ENDBRANCH   2   3
ENDBRANCH   1   2
BRANCH   1  56
ATOM     56  O   UNL A   1      35.532  22.577  24.289  1.00  0.00    -0.462 OA
BRANCH  56  57
ATOM     57  C   UNL A   1      35.203  23.586  25.152  1.00  0.00     0.312 C 
ATOM     58  O   UNL A   1      35.986  24.422  25.584  1.00  0.00    -0.252 OA
BRANCH  57  59
ATOM     59  C   UNL A   1      33.728  23.533  25.451  1.00  0.00     0.147 C 
ATOM     60  C   UNL A   1      32.826  24.458  24.589  1.00  0.00     0.129 C 
ATOM     61  C   UNL A   1      33.165  22.146  25.114  1.00  0.00     0.157 C 
ATOM     62  C   UNL A   1      31.916  23.428  23.895  1.00  0.00     0.155 C 
ATOM     63  C   UNL A   1      31.771  22.022  25.673  1.00  0.00     0.004 C 
ATOM     64  O   UNL A   1      32.830  22.322  23.717  1.00  0.00    -0.365 OA
ATOM     65  C   UNL A   1      31.000  22.812  24.916  1.00  0.00     0.004 C 
BRANCH  60  66
ATOM     66  C   UNL A   1      33.538  25.420  23.646  1.00  0.00     0.231 C 
ATOM     67  O   UNL A   1      34.230  25.020  22.705  1.00  0.00    -0.274 OA
ATOM     68  N   UNL A   1      33.489  26.772  23.835  1.00  0.00    -0.325 N 
ATOM     69  H   UNL A   1      33.696  27.302  23.031  1.00  0.00     0.169 HD
BRANCH  68  70
ATOM     70  C   UNL A   1      33.194  27.541  24.977  1.00  0.00     0.049 A 
ATOM     71  C   UNL A   1      34.256  27.669  25.885  1.00  0.00     0.027 A 
ATOM     72  C   UNL A   1      31.952  28.172  25.239  1.00  0.00     0.005 A 
ATOM     73  C   UNL A   1      34.150  28.509  26.991  1.00  0.00     0.002 A 
ATOM     74  C   UNL A   1      31.872  28.999  26.380  1.00  0.00     0.011 A 
ATOM     75  C   UNL A   1      32.961  29.184  27.231  1.00  0.00     0.001 A 
BRANCH  72  76
ATOM     76  C   UNL A   1      30.743  27.999  24.408  1.00  0.00    -0.016 A 
ATOM     77  C   UNL A   1      29.993  26.814  24.496  1.00  0.00     0.009 A 
ATOM     78  C   UNL A   1      30.239  29.035  23.598  1.00  0.00     0.009 A 
ATOM     79  C   UNL A   1      28.749  26.708  23.881  1.00  0.00     0.001 A 
ATOM     80  C   UNL A   1      28.980  28.939  23.003  1.00  0.00     0.001 A 
ATOM     81  C   UNL A   1      28.228  27.780  23.158  1.00  0.00     0.000 A 
ENDBRANCH  72  76
ENDBRANCH  68  70
ENDBRANCH  60  66
ENDBRANCH  57  59
ENDBRANCH  56  57
ENDBRANCH   1  56
TORSDOF 14
ENDMDL
