MODEL 1
REMARK VINA RESULT:     -12.8      0.000      0.000
REMARK SMILES Cc1cc2c(=O)cc(-c3ccc(F)cc3)oc2c(C(=O)OCCOC(=O)c2ccc(-c3c4nc(c(-c5ccccc5)c5ccc([nH]5)c(-c5ccccc5)c5nc(c(-c6ccccc6)c6ccc3[nH]6)C=C5)C=C4)cc2)c1C
REMARK SMILES IDX 23 1 22 2 21 3 19 4 20 5 18 6 1 7 2 8 3 9 75 10 4 11 76 12
REMARK SMILES IDX 5 13 17 14 6 15 7 16 16 17 8 18 9 19 10 20 15 21 11 22 14 23
REMARK SMILES IDX 12 24 13 25 24 26 25 27 26 28 27 29 28 30 74 31 29 32 73 33
REMARK SMILES IDX 30 34 31 35 32 36 67 37 33 38 72 39 66 40 68 41 34 42 71 43
REMARK SMILES IDX 65 44 64 45 35 47 57 48 42 49 56 50 43 51 46 52 55 53 69 54
REMARK SMILES IDX 44 55 45 56 54 58 70 59 47 60 36 61 37 62 41 63 38 64 40 65
REMARK SMILES IDX 39 66 58 67 59 68 63 69 60 70 62 71 61 72 48 73 49 74 53 75
REMARK SMILES IDX 50 76 52 77 51 78
REMARK H PARENT 68 46 46 57
REMARK Flexibility Score: inf
ROOT
ATOM      1  C   UNL A   1      35.620  21.898  23.929  1.00  0.00     0.275 C 
ENDROOT
BRANCH   1   2
ATOM      2  C   UNL A   1      35.955  23.244  23.285  1.00  0.00     0.275 C 
BRANCH   2   3
ATOM      3  O   UNL A   1      35.350  24.317  24.029  1.00  0.00    -0.458 OA
BRANCH   3   4
ATOM      4  C   UNL A   1      34.219  24.856  23.518  1.00  0.00     0.342 C 
ATOM      5  O   UNL A   1      33.993  25.028  22.330  1.00  0.00    -0.246 OA
BRANCH   4   6
ATOM      6  C   UNL A   1      33.242  25.179  24.604  1.00  0.00     0.106 A 
ATOM      7  C   UNL A   1      31.887  28.056  26.795  1.00  0.00     0.044 C 
ATOM      8  C   UNL A   1      32.118  26.708  26.163  1.00  0.00    -0.046 A 
ATOM      9  C   UNL A   1      31.303  25.649  26.581  1.00  0.00     0.019 A 
ATOM     10  C   UNL A   1      33.093  26.486  25.156  1.00  0.00    -0.030 A 
ATOM     11  C   UNL A   1      31.460  24.378  26.035  1.00  0.00     0.066 A 
ATOM     12  C   UNL A   1      33.974  27.630  24.712  1.00  0.00     0.046 C 
ATOM     13  C   UNL A   1      30.624  23.278  26.525  1.00  0.00     0.193 A 
ATOM     14  C   UNL A   1      32.416  24.129  25.054  1.00  0.00     0.153 A 
ATOM     15  O   UNL A   1      29.745  23.438  27.362  1.00  0.00    -0.289 OA
ATOM     16  C   UNL A   1      30.909  21.947  25.983  1.00  0.00     0.100 A 
ATOM     17  O   UNL A   1      32.589  22.865  24.533  1.00  0.00    -0.455 OA
ATOM     18  C   UNL A   1      31.848  21.811  25.038  1.00  0.00     0.138 A 
BRANCH  18  19
ATOM     19  C   UNL A   1      32.194  20.482  24.463  1.00  0.00     0.018 A 
ATOM     20  C   UNL A   1      32.987  19.335  25.485  1.00  0.00     0.015 A 
ATOM     21  C   UNL A   1      31.946  20.266  22.847  1.00  0.00     0.015 A 
ATOM     22  C   UNL A   1      33.589  17.833  25.032  1.00  0.00     0.040 A 
ATOM     23  C   UNL A   1      32.552  18.853  22.138  1.00  0.00     0.040 A 
ATOM     24  C   UNL A   1      33.486  17.442  23.373  1.00  0.00     0.123 A 
ATOM     25  F   UNL A   1      33.979  16.194  23.107  1.00  0.00    -0.207 F 
ENDBRANCH  18  19
ENDBRANCH   4   6
ENDBRANCH   3   4
ENDBRANCH   2   3
ENDBRANCH   1   2
BRANCH   1  26
ATOM     26  O   UNL A   1      36.221  21.781  25.233  1.00  0.00    -0.458 OA
BRANCH  26  27
ATOM     27  C   UNL A   1      37.502  21.328  25.260  1.00  0.00     0.338 C 
ATOM     28  O   UNL A   1      37.971  20.415  24.604  1.00  0.00    -0.246 OA
BRANCH  27  29
ATOM     29  C   UNL A   1      38.316  22.247  26.090  1.00  0.00     0.060 A 
ATOM     30  C   UNL A   1      37.917  23.563  26.334  1.00  0.00     0.016 A 
ATOM     31  C   UNL A   1      39.559  21.799  26.553  1.00  0.00     0.016 A 
ATOM     32  C   UNL A   1      38.831  24.470  26.875  1.00  0.00     0.010 A 
ATOM     33  C   UNL A   1      40.468  22.706  27.109  1.00  0.00     0.010 A 
ATOM     34  C   UNL A   1      40.159  24.076  27.143  1.00  0.00    -0.014 A 
BRANCH  34  35
ATOM     35  C   UNL A   1      41.188  25.127  27.458  1.00  0.00     0.031 A 
ATOM     36  C   UNL A   1      42.639  25.268  26.746  1.00  0.00     0.074 A 
ATOM     37  C   UNL A   1      40.700  26.108  28.263  1.00  0.00     0.049 A 
ATOM     38  N   UNL A   1      43.282  26.860  26.829  1.00  0.00    -0.248 NA
ATOM     39  C   UNL A   1      44.094  24.217  25.465  1.00  0.00     0.031 C 
ATOM     40  C   UNL A   1      39.361  26.043  28.872  1.00  0.00     0.029 A 
ATOM     41  N   UNL A   1      41.173  27.345  28.671  1.00  0.00    -0.354 N 
ATOM     42  C   UNL A   1      44.835  26.984  25.863  1.00  0.00     0.074 A 
ATOM     43  C   UNL A   1      45.227  25.308  25.051  1.00  0.00     0.031 C 
ATOM     44  C   UNL A   1      39.103  27.183  29.517  1.00  0.00     0.029 A 
ATOM     45  C   UNL A   1      40.258  28.070  29.420  1.00  0.00     0.049 A 
ATOM     46  H   UNL A   1      42.073  27.677  28.450  1.00  0.00     0.167 HD
ATOM     47  C   UNL A   1      45.781  27.950  25.783  1.00  0.00     0.031 A 
ATOM     48  C   UNL A   1      40.257  29.305  29.976  1.00  0.00     0.031 A 
ATOM     49  C   UNL A   1      45.792  29.184  26.496  1.00  0.00     0.049 A 
ATOM     50  C   UNL A   1      41.394  30.269  29.784  1.00  0.00     0.074 A 
ATOM     51  C   UNL A   1      46.813  30.120  26.525  1.00  0.00     0.029 A 
ATOM     52  N   UNL A   1      44.780  29.653  27.315  1.00  0.00    -0.354 N 
ATOM     53  N   UNL A   1      42.486  30.142  29.074  1.00  0.00    -0.248 NA
ATOM     54  C   UNL A   1      41.265  31.575  30.455  1.00  0.00     0.031 C 
ATOM     55  C   UNL A   1      46.452  31.129  27.409  1.00  0.00     0.029 A 
ATOM     56  C   UNL A   1      45.160  30.878  27.839  1.00  0.00     0.049 A 
ATOM     57  H   UNL A   1      43.929  29.191  27.495  1.00  0.00     0.167 HD
ATOM     58  C   UNL A   1      43.149  31.361  29.182  1.00  0.00     0.074 A 
ATOM     59  C   UNL A   1      42.334  32.219  30.009  1.00  0.00     0.031 C 
ATOM     60  C   UNL A   1      44.332  31.733  28.643  1.00  0.00     0.031 A 
BRANCH  47  61
ATOM     61  C   UNL A   1      46.993  27.585  24.968  1.00  0.00    -0.014 A 
ATOM     62  C   UNL A   1      47.057  27.951  23.612  1.00  0.00     0.009 A 
ATOM     63  C   UNL A   1      48.074  26.887  25.531  1.00  0.00     0.009 A 
ATOM     64  C   UNL A   1      48.174  27.633  22.838  1.00  0.00     0.001 A 
ATOM     65  C   UNL A   1      49.209  26.608  24.765  1.00  0.00     0.001 A 
ATOM     66  C   UNL A   1      49.256  26.975  23.419  1.00  0.00     0.000 A 
ENDBRANCH  47  61
BRANCH  48  67
ATOM     67  C   UNL A   1      39.056  29.726  30.772  1.00  0.00    -0.014 A 
ATOM     68  C   UNL A   1      38.991  29.465  32.152  1.00  0.00     0.009 A 
ATOM     69  C   UNL A   1      37.948  30.324  30.149  1.00  0.00     0.009 A 
ATOM     70  C   UNL A   1      37.830  29.743  32.878  1.00  0.00     0.001 A 
ATOM     71  C   UNL A   1      36.804  30.641  30.888  1.00  0.00     0.001 A 
ATOM     72  C   UNL A   1      36.739  30.334  32.247  1.00  0.00     0.000 A 
ENDBRANCH  48  67
BRANCH  60  73
ATOM     73  C   UNL A   1      44.833  33.136  28.874  1.00  0.00    -0.014 A 
ATOM     74  C   UNL A   1      44.500  34.144  27.950  1.00  0.00     0.009 A 
ATOM     75  C   UNL A   1      45.745  33.434  29.897  1.00  0.00     0.009 A 
ATOM     76  C   UNL A   1      45.081  35.408  28.033  1.00  0.00     0.001 A 
ATOM     77  C   UNL A   1      46.300  34.713  29.999  1.00  0.00     0.001 A 
ATOM     78  C   UNL A   1      45.978  35.694  29.061  1.00  0.00     0.000 A 
ENDBRANCH  60  73
ENDBRANCH  34  35
ENDBRANCH  27  29
ENDBRANCH  26  27
ENDBRANCH   1  26
TORSDOF 12
ENDMDL
MODEL 2
REMARK VINA RESULT:     -12.6      4.355      9.307
REMARK SMILES Cc1cc2c(=O)cc(-c3ccc(F)cc3)oc2c(C(=O)OCCOC(=O)c2ccc(-c3c4nc(c(-c5ccccc5)c5ccc([nH]5)c(-c5ccccc5)c5nc(c(-c6ccccc6)c6ccc3[nH]6)C=C5)C=C4)cc2)c1C
REMARK SMILES IDX 23 1 22 2 21 3 19 4 20 5 18 6 1 7 2 8 3 9 75 10 4 11 76 12
REMARK SMILES IDX 5 13 17 14 6 15 7 16 16 17 8 18 9 19 10 20 15 21 11 22 14 23
REMARK SMILES IDX 12 24 13 25 24 26 25 27 26 28 27 29 28 30 74 31 29 32 73 33
REMARK SMILES IDX 30 34 31 35 32 36 67 37 33 38 72 39 66 40 68 41 34 42 71 43
REMARK SMILES IDX 65 44 64 45 35 47 57 48 42 49 56 50 43 51 46 52 55 53 69 54
REMARK SMILES IDX 44 55 45 56 54 58 70 59 47 60 36 61 37 62 41 63 38 64 40 65
REMARK SMILES IDX 39 66 58 67 59 68 63 69 60 70 62 71 61 72 48 73 49 74 53 75
REMARK SMILES IDX 50 76 52 77 51 78
REMARK H PARENT 68 46 46 57
REMARK Flexibility Score: inf
ROOT
ATOM      1  C   UNL A   1      31.449  28.643  26.253  1.00  0.00     0.275 C 
ENDROOT
BRANCH   1   2
ATOM      2  C   UNL A   1      31.109  27.297  26.894  1.00  0.00     0.275 C 
BRANCH   2   3
ATOM      3  O   UNL A   1      32.219  26.390  26.765  1.00  0.00    -0.458 OA
BRANCH   3   4
ATOM      4  C   UNL A   1      31.929  25.107  26.449  1.00  0.00     0.342 C 
ATOM      5  O   UNL A   1      31.091  24.413  27.004  1.00  0.00    -0.246 OA
BRANCH   4   6
ATOM      6  C   UNL A   1      32.743  24.648  25.280  1.00  0.00     0.106 A 
ATOM      7  C   UNL A   1      35.648  22.319  24.253  1.00  0.00     0.044 C 
ATOM      8  C   UNL A   1      34.512  23.309  24.226  1.00  0.00    -0.046 A 
ATOM      9  C   UNL A   1      34.124  23.816  22.980  1.00  0.00     0.019 A 
ATOM     10  C   UNL A   1      33.813  23.711  25.394  1.00  0.00    -0.030 A 
ATOM     11  C   UNL A   1      33.080  24.731  22.883  1.00  0.00     0.066 A 
ATOM     12  C   UNL A   1      34.238  23.165  26.737  1.00  0.00     0.046 C 
ATOM     13  C   UNL A   1      32.726  25.281  21.570  1.00  0.00     0.193 A 
ATOM     14  C   UNL A   1      32.384  25.152  24.013  1.00  0.00     0.153 A 
ATOM     15  O   UNL A   1      33.277  24.927  20.536  1.00  0.00    -0.289 OA
ATOM     16  C   UNL A   1      31.687  26.313  21.551  1.00  0.00     0.100 A 
ATOM     17  O   UNL A   1      31.367  26.077  23.919  1.00  0.00    -0.455 OA
ATOM     18  C   UNL A   1      31.073  26.648  22.693  1.00  0.00     0.138 A 
BRANCH  18  19
ATOM     19  C   UNL A   1      30.024  27.702  22.739  1.00  0.00     0.018 A 
ATOM     20  C   UNL A   1      30.497  29.336  22.433  1.00  0.00     0.015 A 
ATOM     21  C   UNL A   1      28.518  27.253  23.242  1.00  0.00     0.015 A 
ATOM     22  C   UNL A   1      29.528  30.703  22.556  1.00  0.00     0.040 A 
ATOM     23  C   UNL A   1      27.383  28.478  23.526  1.00  0.00     0.040 A 
ATOM     24  C   UNL A   1      27.937  30.458  23.128  1.00  0.00     0.123 A 
ATOM     25  F   UNL A   1      27.221  31.623  23.171  1.00  0.00    -0.207 F 
ENDBRANCH  18  19
ENDBRANCH   4   6
ENDBRANCH   3   4
ENDBRANCH   2   3
ENDBRANCH   1   2
BRANCH   1  26
ATOM     26  O   UNL A   1      31.590  29.673  27.251  1.00  0.00    -0.458 OA
BRANCH  26  27
ATOM     27  C   UNL A   1      32.147  30.838  26.828  1.00  0.00     0.338 C 
ATOM     28  O   UNL A   1      31.571  31.787  26.328  1.00  0.00    -0.246 OA
BRANCH  27  29
ATOM     29  C   UNL A   1      33.569  30.865  27.242  1.00  0.00     0.060 A 
ATOM     30  C   UNL A   1      34.334  29.698  27.314  1.00  0.00     0.016 A 
ATOM     31  C   UNL A   1      34.117  32.083  27.660  1.00  0.00     0.016 A 
ATOM     32  C   UNL A   1      35.568  29.724  27.968  1.00  0.00     0.010 A 
ATOM     33  C   UNL A   1      35.361  32.109  28.301  1.00  0.00     0.010 A 
ATOM     34  C   UNL A   1      36.029  30.907  28.583  1.00  0.00    -0.014 A 
BRANCH  34  35
ATOM     35  C   UNL A   1      37.212  30.839  29.510  1.00  0.00     0.031 A 
ATOM     36  C   UNL A   1      37.238  31.366  31.044  1.00  0.00     0.074 A 
ATOM     37  C   UNL A   1      38.225  30.083  29.007  1.00  0.00     0.049 A 
ATOM     38  N   UNL A   1      38.439  30.597  32.004  1.00  0.00    -0.248 NA
ATOM     39  C   UNL A   1      36.147  32.594  32.515  1.00  0.00     0.031 C 
ATOM     40  C   UNL A   1      38.202  29.534  27.641  1.00  0.00     0.029 A 
ATOM     41  N   UNL A   1      39.403  29.580  29.532  1.00  0.00    -0.354 N 
ATOM     42  C   UNL A   1      38.300  31.115  33.757  1.00  0.00     0.074 A 
ATOM     43  C   UNL A   1      36.846  32.326  33.959  1.00  0.00     0.031 C 
ATOM     44  C   UNL A   1      39.262  28.745  27.456  1.00  0.00     0.029 A 
ATOM     45  C   UNL A   1      40.086  28.742  28.662  1.00  0.00     0.049 A 
ATOM     46  H   UNL A   1      39.727  29.796  30.436  1.00  0.00     0.167 HD
ATOM     47  C   UNL A   1      39.113  30.935  34.825  1.00  0.00     0.031 A 
ATOM     48  C   UNL A   1      41.219  28.007  28.750  1.00  0.00     0.031 A 
ATOM     49  C   UNL A   1      40.367  30.258  34.829  1.00  0.00     0.049 A 
ATOM     50  C   UNL A   1      42.010  27.906  30.023  1.00  0.00     0.074 A 
ATOM     51  C   UNL A   1      41.267  30.180  35.878  1.00  0.00     0.029 A 
ATOM     52  N   UNL A   1      40.919  29.575  33.760  1.00  0.00    -0.354 N 
ATOM     53  N   UNL A   1      41.764  28.418  31.202  1.00  0.00    -0.248 NA
ATOM     54  C   UNL A   1      43.230  27.078  29.973  1.00  0.00     0.031 C 
ATOM     55  C   UNL A   1      42.396  29.503  35.433  1.00  0.00     0.029 A 
ATOM     56  C   UNL A   1      42.148  29.062  34.144  1.00  0.00     0.049 A 
ATOM     57  H   UNL A   1      40.506  29.469  32.873  1.00  0.00     0.167 HD
ATOM     58  C   UNL A   1      42.772  27.944  32.036  1.00  0.00     0.074 A 
ATOM     59  C   UNL A   1      43.622  27.092  31.239  1.00  0.00     0.031 C 
ATOM     60  C   UNL A   1      42.975  28.197  33.349  1.00  0.00     0.031 A 
BRANCH  47  61
ATOM     61  C   UNL A   1      38.689  31.662  36.073  1.00  0.00    -0.014 A 
ATOM     62  C   UNL A   1      39.163  32.964  36.315  1.00  0.00     0.009 A 
ATOM     63  C   UNL A   1      37.822  31.074  37.008  1.00  0.00     0.009 A 
ATOM     64  C   UNL A   1      38.777  33.663  37.460  1.00  0.00     0.001 A 
ATOM     65  C   UNL A   1      37.403  31.793  38.131  1.00  0.00     0.001 A 
ATOM     66  C   UNL A   1      37.885  33.083  38.360  1.00  0.00     0.000 A 
ENDBRANCH  47  61
BRANCH  48  67
ATOM     67  C   UNL A   1      41.665  27.239  27.539  1.00  0.00    -0.014 A 
ATOM     68  C   UNL A   1      41.303  25.890  27.380  1.00  0.00     0.009 A 
ATOM     69  C   UNL A   1      42.505  27.826  26.578  1.00  0.00     0.009 A 
ATOM     70  C   UNL A   1      41.811  25.133  26.321  1.00  0.00     0.001 A 
ATOM     71  C   UNL A   1      42.977  27.077  25.495  1.00  0.00     0.001 A 
ATOM     72  C   UNL A   1      42.645  25.728  25.377  1.00  0.00     0.000 A 
ENDBRANCH  48  67
BRANCH  60  73
ATOM     73  C   UNL A   1      44.129  27.530  34.054  1.00  0.00    -0.014 A 
ATOM     74  C   UNL A   1      43.925  26.286  34.677  1.00  0.00     0.009 A 
ATOM     75  C   UNL A   1      45.357  28.183  34.237  1.00  0.00     0.009 A 
ATOM     76  C   UNL A   1      44.913  25.719  35.481  1.00  0.00     0.001 A 
ATOM     77  C   UNL A   1      46.359  27.597  35.015  1.00  0.00     0.001 A 
ATOM     78  C   UNL A   1      46.132  26.374  35.647  1.00  0.00     0.000 A 
ENDBRANCH  60  73
ENDBRANCH  34  35
ENDBRANCH  27  29
ENDBRANCH  26  27
ENDBRANCH   1  26
TORSDOF 12
ENDMDL
MODEL 3
REMARK VINA RESULT:     -12.2      3.458      7.497
REMARK SMILES Cc1cc2c(=O)cc(-c3ccc(F)cc3)oc2c(C(=O)OCCOC(=O)c2ccc(-c3c4nc(c(-c5ccccc5)c5ccc([nH]5)c(-c5ccccc5)c5nc(c(-c6ccccc6)c6ccc3[nH]6)C=C5)C=C4)cc2)c1C
REMARK SMILES IDX 23 1 22 2 21 3 19 4 20 5 18 6 1 7 2 8 3 9 75 10 4 11 76 12
REMARK SMILES IDX 5 13 17 14 6 15 7 16 16 17 8 18 9 19 10 20 15 21 11 22 14 23
REMARK SMILES IDX 12 24 13 25 24 26 25 27 26 28 27 29 28 30 74 31 29 32 73 33
REMARK SMILES IDX 30 34 31 35 32 36 67 37 33 38 72 39 66 40 68 41 34 42 71 43
REMARK SMILES IDX 65 44 64 45 35 47 57 48 42 49 56 50 43 51 46 52 55 53 69 54
REMARK SMILES IDX 44 55 45 56 54 58 70 59 47 60 36 61 37 62 41 63 38 64 40 65
REMARK SMILES IDX 39 66 58 67 59 68 63 69 60 70 62 71 61 72 48 73 49 74 53 75
REMARK SMILES IDX 50 76 52 77 51 78
REMARK H PARENT 68 46 46 57
REMARK Flexibility Score: inf
ROOT
ATOM      1  C   UNL A   1      32.661  29.177  26.908  1.00  0.00     0.275 C 
ENDROOT
BRANCH   1   2
ATOM      2  C   UNL A   1      31.885  27.865  27.023  1.00  0.00     0.275 C 
BRANCH   2   3
ATOM      3  O   UNL A   1      32.776  26.744  26.868  1.00  0.00    -0.458 OA
BRANCH   3   4
ATOM      4  C   UNL A   1      32.239  25.594  26.399  1.00  0.00     0.342 C 
ATOM      5  O   UNL A   1      31.278  25.015  26.882  1.00  0.00    -0.246 OA
BRANCH   4   6
ATOM      6  C   UNL A   1      32.950  25.137  25.165  1.00  0.00     0.106 A 
ATOM      7  C   UNL A   1      35.834  22.899  23.903  1.00  0.00     0.044 C 
ATOM      8  C   UNL A   1      34.660  23.842  23.969  1.00  0.00    -0.046 A 
ATOM      9  C   UNL A   1      34.128  24.298  22.757  1.00  0.00     0.019 A 
ATOM     10  C   UNL A   1      34.065  24.247  25.192  1.00  0.00    -0.030 A 
ATOM     11  C   UNL A   1      33.041  25.167  22.745  1.00  0.00     0.066 A 
ATOM     12  C   UNL A   1      34.645  23.756  26.498  1.00  0.00     0.046 C 
ATOM     13  C   UNL A   1      32.534  25.667  21.463  1.00  0.00     0.193 A 
ATOM     14  C   UNL A   1      32.445  25.591  23.929  1.00  0.00     0.153 A 
ATOM     15  O   UNL A   1      32.993  25.307  20.386  1.00  0.00    -0.289 OA
ATOM     16  C   UNL A   1      31.455  26.655  21.525  1.00  0.00     0.100 A 
ATOM     17  O   UNL A   1      31.384  26.472  23.918  1.00  0.00    -0.455 OA
ATOM     18  C   UNL A   1      30.945  26.997  22.716  1.00  0.00     0.138 A 
BRANCH  18  19
ATOM     19  C   UNL A   1      29.861  28.008  22.843  1.00  0.00     0.018 A 
ATOM     20  C   UNL A   1      30.306  29.679  22.863  1.00  0.00     0.015 A 
ATOM     21  C   UNL A   1      28.334  27.453  23.123  1.00  0.00     0.015 A 
ATOM     22  C   UNL A   1      29.284  30.987  23.127  1.00  0.00     0.040 A 
ATOM     23  C   UNL A   1      27.138  28.591  23.505  1.00  0.00     0.040 A 
ATOM     24  C   UNL A   1      27.659  30.619  23.501  1.00  0.00     0.123 A 
ATOM     25  F   UNL A   1      26.904  31.747  23.675  1.00  0.00    -0.207 F 
ENDBRANCH  18  19
ENDBRANCH   4   6
ENDBRANCH   3   4
ENDBRANCH   2   3
ENDBRANCH   1   2
BRANCH   1  26
ATOM     26  O   UNL A   1      33.909  29.108  27.625  1.00  0.00    -0.458 OA
BRANCH  26  27
ATOM     27  C   UNL A   1      34.506  30.298  27.897  1.00  0.00     0.338 C 
ATOM     28  O   UNL A   1      33.962  31.382  28.014  1.00  0.00    -0.246 OA
BRANCH  27  29
ATOM     29  C   UNL A   1      35.931  30.055  28.219  1.00  0.00     0.060 A 
ATOM     30  C   UNL A   1      36.936  30.207  27.260  1.00  0.00     0.016 A 
ATOM     31  C   UNL A   1      36.251  29.568  29.492  1.00  0.00     0.016 A 
ATOM     32  C   UNL A   1      38.214  29.704  27.518  1.00  0.00     0.010 A 
ATOM     33  C   UNL A   1      37.536  29.079  29.752  1.00  0.00     0.010 A 
ATOM     34  C   UNL A   1      38.485  29.016  28.719  1.00  0.00    -0.014 A 
BRANCH  34  35
ATOM     35  C   UNL A   1      39.772  28.248  28.851  1.00  0.00     0.031 A 
ATOM     36  C   UNL A   1      39.977  26.682  28.479  1.00  0.00     0.074 A 
ATOM     37  C   UNL A   1      40.835  29.056  29.114  1.00  0.00     0.049 A 
ATOM     38  N   UNL A   1      41.610  26.280  28.120  1.00  0.00    -0.248 NA
ATOM     39  C   UNL A   1      38.900  24.812  28.027  1.00  0.00     0.031 C 
ATOM     40  C   UNL A   1      40.689  30.494  29.390  1.00  0.00     0.029 A 
ATOM     41  N   UNL A   1      42.206  28.865  29.139  1.00  0.00    -0.354 N 
ATOM     42  C   UNL A   1      41.740  24.543  27.547  1.00  0.00     0.074 A 
ATOM     43  C   UNL A   1      40.013  23.744  27.509  1.00  0.00     0.031 C 
ATOM     44  C   UNL A   1      41.895  31.056  29.501  1.00  0.00     0.029 A 
ATOM     45  C   UNL A   1      42.926  30.032  29.349  1.00  0.00     0.049 A 
ATOM     46  H   UNL A   1      42.631  27.984  29.020  1.00  0.00     0.167 HD
ATOM     47  C   UNL A   1      42.804  23.734  27.334  1.00  0.00     0.031 A 
ATOM     48  C   UNL A   1      44.244  30.335  29.403  1.00  0.00     0.031 A 
ATOM     49  C   UNL A   1      44.175  24.070  27.534  1.00  0.00     0.049 A 
ATOM     50  C   UNL A   1      45.311  29.312  29.133  1.00  0.00     0.074 A 
ATOM     51  C   UNL A   1      45.262  23.215  27.448  1.00  0.00     0.029 A 
ATOM     52  N   UNL A   1      44.659  25.319  27.878  1.00  0.00    -0.354 N 
ATOM     53  N   UNL A   1      45.194  28.057  28.780  1.00  0.00    -0.248 NA
ATOM     54  C   UNL A   1      46.706  29.778  29.237  1.00  0.00     0.031 C 
ATOM     55  C   UNL A   1      46.403  23.927  27.801  1.00  0.00     0.029 A 
ATOM     56  C   UNL A   1      46.038  25.248  27.993  1.00  0.00     0.049 A 
ATOM     57  H   UNL A   1      44.112  26.126  28.019  1.00  0.00     0.167 HD
ATOM     58  C   UNL A   1      46.494  27.599  28.583  1.00  0.00     0.074 A 
ATOM     59  C   UNL A   1      47.382  28.709  28.838  1.00  0.00     0.031 C 
ATOM     60  C   UNL A   1      46.913  26.364  28.224  1.00  0.00     0.031 A 
BRANCH  47  61
ATOM     61  C   UNL A   1      42.459  22.307  27.001  1.00  0.00    -0.014 A 
ATOM     62  C   UNL A   1      42.737  21.805  25.717  1.00  0.00     0.009 A 
ATOM     63  C   UNL A   1      41.868  21.454  27.946  1.00  0.00     0.009 A 
ATOM     64  C   UNL A   1      42.436  20.484  25.386  1.00  0.00     0.001 A 
ATOM     65  C   UNL A   1      41.607  20.118  27.625  1.00  0.00     0.001 A 
ATOM     66  C   UNL A   1      41.885  19.636  26.345  1.00  0.00     0.000 A 
ENDBRANCH  47  61
BRANCH  48  67
ATOM     67  C   UNL A   1      44.637  31.753  29.702  1.00  0.00    -0.014 A 
ATOM     68  C   UNL A   1      44.842  32.669  28.655  1.00  0.00     0.009 A 
ATOM     69  C   UNL A   1      44.876  32.176  31.020  1.00  0.00     0.009 A 
ATOM     70  C   UNL A   1      45.324  33.955  28.915  1.00  0.00     0.001 A 
ATOM     71  C   UNL A   1      45.316  33.477  31.280  1.00  0.00     0.001 A 
ATOM     72  C   UNL A   1      45.558  34.359  30.227  1.00  0.00     0.000 A 
ENDBRANCH  48  67
BRANCH  60  73
ATOM     73  C   UNL A   1      48.388  26.117  28.035  1.00  0.00    -0.014 A 
ATOM     74  C   UNL A   1      49.178  25.793  29.153  1.00  0.00     0.009 A 
ATOM     75  C   UNL A   1      49.023  26.351  26.806  1.00  0.00     0.009 A 
ATOM     76  C   UNL A   1      50.567  25.727  29.051  1.00  0.00     0.001 A 
ATOM     77  C   UNL A   1      50.412  26.249  26.698  1.00  0.00     0.001 A 
ATOM     78  C   UNL A   1      51.183  25.950  27.822  1.00  0.00     0.000 A 
ENDBRANCH  60  73
ENDBRANCH  34  35
ENDBRANCH  27  29
ENDBRANCH  26  27
ENDBRANCH   1  26
TORSDOF 12
ENDMDL
