MODEL 1
REMARK VINA RESULT:     -10.5      0.000      0.000
REMARK SMILES O=C(OCCOC(=O)[C@H](Cc1ccc(O)cc1)NC(=O)c1ccc(Cl)s1)c1ccc(-c2c3nc(c(-c4ccccc4)c4ccc([nH]4)c(-c4ccccc4)c4nc(c(-c5ccccc5)c5ccc2[nH]5)C=C4)C=C3)cc1
REMARK SMILES IDX 5 1 4 2 3 3 2 4 1 5 27 6 28 7 74 8 29 9 73 10 30 11 31 12
REMARK SMILES IDX 32 13 67 14 33 15 72 16 66 17 68 18 34 19 71 20 65 21 64 22
REMARK SMILES IDX 35 24 57 25 42 26 56 27 43 28 46 29 55 30 69 31 44 32 45 33
REMARK SMILES IDX 54 35 70 36 47 37 36 38 37 39 41 40 38 41 40 42 39 43 58 44
REMARK SMILES IDX 59 45 63 46 60 47 62 48 61 49 48 50 49 51 53 52 50 53 52 54
REMARK SMILES IDX 51 55 6 56 7 57 8 58 9 59 18 60 19 61 20 63 21 64 22 65
REMARK SMILES IDX 26 66 23 67 24 68 25 69 10 70 11 71 12 72 17 73 13 74 16 75
REMARK SMILES IDX 14 76 15 77
REMARK H PARENT 68 23 46 34 18 62 15 78
REMARK Flexibility Score: inf
ROOT
ATOM      1  C   UNL A   1      37.348  21.851  25.229  1.00  0.00     0.274 C 
ENDROOT
BRANCH   1   2
ATOM      2  C   UNL A   1      37.845  20.444  24.857  1.00  0.00     0.275 C 
BRANCH   2   3
ATOM      3  O   UNL A   1      38.641  19.773  25.850  1.00  0.00    -0.458 OA
BRANCH   3   4
ATOM      4  C   UNL A   1      39.996  19.797  25.922  1.00  0.00     0.338 C 
ATOM      5  O   UNL A   1      40.668  18.822  25.609  1.00  0.00    -0.246 OA
BRANCH   4   6
ATOM      6  C   UNL A   1      40.664  20.946  26.584  1.00  0.00     0.060 A 
ATOM      7  C   UNL A   1      40.959  21.046  27.951  1.00  0.00     0.016 A 
ATOM      8  C   UNL A   1      41.057  21.967  25.730  1.00  0.00     0.016 A 
ATOM      9  C   UNL A   1      41.728  22.125  28.443  1.00  0.00     0.010 A 
ATOM     10  C   UNL A   1      41.843  22.999  26.223  1.00  0.00     0.010 A 
ATOM     11  C   UNL A   1      42.190  23.112  27.571  1.00  0.00    -0.014 A 
BRANCH  11  12
ATOM     12  C   UNL A   1      42.809  24.412  27.955  1.00  0.00     0.031 A 
ATOM     13  C   UNL A   1      41.876  25.580  28.192  1.00  0.00     0.074 A 
ATOM     14  C   UNL A   1      44.128  24.670  27.822  1.00  0.00     0.049 A 
ATOM     15  N   UNL A   1      42.154  26.826  28.475  1.00  0.00    -0.248 NA
ATOM     16  C   UNL A   1      40.435  25.310  28.027  1.00  0.00     0.031 C 
ATOM     17  C   UNL A   1      45.158  23.721  27.401  1.00  0.00     0.029 A 
ATOM     18  N   UNL A   1      44.816  25.855  27.971  1.00  0.00    -0.354 N 
ATOM     19  C   UNL A   1      40.929  27.478  28.534  1.00  0.00     0.074 A 
ATOM     20  C   UNL A   1      39.916  26.518  28.160  1.00  0.00     0.031 C 
ATOM     21  C   UNL A   1      46.335  24.368  27.292  1.00  0.00     0.029 A 
ATOM     22  C   UNL A   1      46.155  25.770  27.667  1.00  0.00     0.049 A 
ATOM     23  H   UNL A   1      44.386  26.689  28.268  1.00  0.00     0.167 HD
ATOM     24  C   UNL A   1      40.654  28.745  28.918  1.00  0.00     0.031 A 
ATOM     25  C   UNL A   1      47.128  26.706  27.711  1.00  0.00     0.031 A 
ATOM     26  C   UNL A   1      41.648  29.707  29.300  1.00  0.00     0.049 A 
ATOM     27  C   UNL A   1      46.823  28.095  28.224  1.00  0.00     0.074 A 
ATOM     28  C   UNL A   1      41.465  30.951  29.877  1.00  0.00     0.029 A 
ATOM     29  N   UNL A   1      43.009  29.542  29.121  1.00  0.00    -0.354 N 
ATOM     30  N   UNL A   1      45.670  28.627  28.544  1.00  0.00    -0.248 NA
ATOM     31  C   UNL A   1      47.972  28.992  28.443  1.00  0.00     0.031 C 
ATOM     32  C   UNL A   1      42.718  31.558  30.014  1.00  0.00     0.029 A 
ATOM     33  C   UNL A   1      43.680  30.665  29.575  1.00  0.00     0.049 A 
ATOM     34  H   UNL A   1      43.437  28.747  28.730  1.00  0.00     0.167 HD
ATOM     35  C   UNL A   1      45.962  29.886  29.064  1.00  0.00     0.074 A 
ATOM     36  C   UNL A   1      47.398  30.044  29.011  1.00  0.00     0.031 C 
ATOM     37  C   UNL A   1      45.110  30.815  29.560  1.00  0.00     0.031 A 
BRANCH  24  38
ATOM     38  C   UNL A   1      39.208  29.142  29.019  1.00  0.00    -0.014 A 
ATOM     39  C   UNL A   1      38.535  29.677  27.906  1.00  0.00     0.009 A 
ATOM     40  C   UNL A   1      38.489  28.912  30.200  1.00  0.00     0.009 A 
ATOM     41  C   UNL A   1      37.184  30.010  27.986  1.00  0.00     0.001 A 
ATOM     42  C   UNL A   1      37.127  29.212  30.266  1.00  0.00     0.001 A 
ATOM     43  C   UNL A   1      36.478  29.769  29.164  1.00  0.00     0.000 A 
ENDBRANCH  24  38
BRANCH  25  44
ATOM     44  C   UNL A   1      48.533  26.359  27.362  1.00  0.00    -0.014 A 
ATOM     45  C   UNL A   1      49.003  26.549  26.051  1.00  0.00     0.009 A 
ATOM     46  C   UNL A   1      49.383  25.766  28.307  1.00  0.00     0.009 A 
ATOM     47  C   UNL A   1      50.275  26.110  25.680  1.00  0.00     0.001 A 
ATOM     48  C   UNL A   1      50.666  25.349  27.936  1.00  0.00     0.001 A 
ATOM     49  C   UNL A   1      51.106  25.510  26.623  1.00  0.00     0.000 A 
ENDBRANCH  25  44
BRANCH  37  50
ATOM     50  C   UNL A   1      45.691  32.053  30.188  1.00  0.00    -0.014 A 
ATOM     51  C   UNL A   1      46.033  32.110  31.547  1.00  0.00     0.009 A 
ATOM     52  C   UNL A   1      45.956  33.170  29.376  1.00  0.00     0.009 A 
ATOM     53  C   UNL A   1      46.597  33.272  32.085  1.00  0.00     0.001 A 
ATOM     54  C   UNL A   1      46.547  34.316  29.909  1.00  0.00     0.001 A 
ATOM     55  C   UNL A   1      46.858  34.369  31.265  1.00  0.00     0.000 A 
ENDBRANCH  37  50
ENDBRANCH  11  12
ENDBRANCH   4   6
ENDBRANCH   3   4
ENDBRANCH   2   3
ENDBRANCH   1   2
BRANCH   1  56
ATOM     56  O   UNL A   1      36.010  22.125  24.768  1.00  0.00    -0.461 OA
BRANCH  56  57
ATOM     57  C   UNL A   1      35.889  22.937  23.677  1.00  0.00     0.329 C 
ATOM     58  O   UNL A   1      36.667  22.937  22.737  1.00  0.00    -0.250 OA
BRANCH  57  59
ATOM     59  C   UNL A   1      34.596  23.809  23.724  1.00  0.00     0.197 C 
BRANCH  59  60
ATOM     60  N   UNL A   1      33.470  22.852  23.878  1.00  0.00    -0.338 N 
ATOM     61  C   UNL A   1      32.361  22.741  24.682  1.00  0.00     0.262 C 
ATOM     62  H   UNL A   1      33.537  22.105  23.241  1.00  0.00     0.164 HD
ATOM     63  O   UNL A   1      32.185  21.580  25.073  1.00  0.00    -0.268 OA
BRANCH  61  64
ATOM     64  C   UNL A   1      31.381  23.802  24.945  1.00  0.00     0.093 A 
ATOM     65  C   UNL A   1      30.881  24.450  26.068  1.00  0.00     0.027 A 
ATOM     66  S   UNL A   1      30.691  24.543  23.519  1.00  0.00    -0.118 S 
ATOM     67  C   UNL A   1      30.174  25.665  25.750  1.00  0.00     0.033 A 
ATOM     68  C   UNL A   1      29.996  25.796  24.400  1.00  0.00     0.094 A 
ATOM     69  Cl  UNL A   1      29.162  27.058  23.583  1.00  0.00    -0.072 Cl
ENDBRANCH  61  64
ENDBRANCH  59  60
BRANCH  59  70
ATOM     70  C   UNL A   1      34.693  24.690  24.988  1.00  0.00     0.072 C 
BRANCH  70  71
ATOM     71  C   UNL A   1      34.084  26.074  24.910  1.00  0.00    -0.045 A 
ATOM     72  C   UNL A   1      33.729  26.586  23.652  1.00  0.00     0.007 A 
ATOM     73  C   UNL A   1      33.773  26.840  26.041  1.00  0.00     0.007 A 
ATOM     74  C   UNL A   1      33.118  27.837  23.529  1.00  0.00     0.046 A 
ATOM     75  C   UNL A   1      33.182  28.100  25.921  1.00  0.00     0.046 A 
ATOM     76  C   UNL A   1      32.856  28.588  24.668  1.00  0.00     0.115 A 
BRANCH  76  77
ATOM     77  O   UNL A   1      32.259  29.810  24.598  1.00  0.00    -0.508 OA
ATOM     78  H   UNL A   1      31.681  30.009  23.888  1.00  0.00     0.293 HD
ENDBRANCH  76  77
ENDBRANCH  70  71
ENDBRANCH  59  70
ENDBRANCH  57  59
ENDBRANCH  56  57
ENDBRANCH   1  56
TORSDOF 16
ENDMDL
MODEL 2
REMARK VINA RESULT:     -10.3      2.292      6.956
REMARK SMILES O=C(OCCOC(=O)[C@H](Cc1ccc(O)cc1)NC(=O)c1ccc(Cl)s1)c1ccc(-c2c3nc(c(-c4ccccc4)c4ccc([nH]4)c(-c4ccccc4)c4nc(c(-c5ccccc5)c5ccc2[nH]5)C=C4)C=C3)cc1
REMARK SMILES IDX 5 1 4 2 3 3 2 4 1 5 27 6 28 7 74 8 29 9 73 10 30 11 31 12
REMARK SMILES IDX 32 13 67 14 33 15 72 16 66 17 68 18 34 19 71 20 65 21 64 22
REMARK SMILES IDX 35 24 57 25 42 26 56 27 43 28 46 29 55 30 69 31 44 32 45 33
REMARK SMILES IDX 54 35 70 36 47 37 36 38 37 39 41 40 38 41 40 42 39 43 58 44
REMARK SMILES IDX 59 45 63 46 60 47 62 48 61 49 48 50 49 51 53 52 50 53 52 54
REMARK SMILES IDX 51 55 6 56 7 57 8 58 9 59 18 60 19 61 20 63 21 64 22 65
REMARK SMILES IDX 26 66 23 67 24 68 25 69 10 70 11 71 12 72 17 73 13 74 16 75
REMARK SMILES IDX 14 76 15 77
REMARK H PARENT 68 23 46 34 18 62 15 78
REMARK Flexibility Score: inf
ROOT
ATOM      1  C   UNL A   1      34.053  28.552  25.772  1.00  0.00     0.274 C 
ENDROOT
BRANCH   1   2
ATOM      2  C   UNL A   1      33.233  29.725  26.333  1.00  0.00     0.275 C 
BRANCH   2   3
ATOM      3  O   UNL A   1      33.583  30.165  27.658  1.00  0.00    -0.458 OA
BRANCH   3   4
ATOM      4  C   UNL A   1      34.630  30.969  27.970  1.00  0.00     0.338 C 
ATOM      5  O   UNL A   1      34.623  32.161  27.689  1.00  0.00    -0.246 OA
BRANCH   4   6
ATOM      6  C   UNL A   1      35.887  30.357  28.470  1.00  0.00     0.060 A 
ATOM      7  C   UNL A   1      36.098  29.857  29.763  1.00  0.00     0.016 A 
ATOM      8  C   UNL A   1      36.901  30.247  27.528  1.00  0.00     0.016 A 
ATOM      9  C   UNL A   1      37.288  29.165  30.081  1.00  0.00     0.010 A 
ATOM     10  C   UNL A   1      38.047  29.532  27.846  1.00  0.00     0.010 A 
ATOM     11  C   UNL A   1      38.276  28.986  29.111  1.00  0.00    -0.014 A 
BRANCH  11  12
ATOM     12  C   UNL A   1      39.662  28.488  29.340  1.00  0.00     0.031 A 
ATOM     13  C   UNL A   1      40.696  29.499  29.783  1.00  0.00     0.074 A 
ATOM     14  C   UNL A   1      40.094  27.284  28.907  1.00  0.00     0.049 A 
ATOM     15  N   UNL A   1      41.979  29.345  29.992  1.00  0.00    -0.248 NA
ATOM     16  C   UNL A   1      40.225  30.886  29.953  1.00  0.00     0.031 C 
ATOM     17  C   UNL A   1      39.282  26.252  28.264  1.00  0.00     0.029 A 
ATOM     18  N   UNL A   1      41.367  26.756  28.893  1.00  0.00    -0.354 N 
ATOM     19  C   UNL A   1      42.456  30.605  30.329  1.00  0.00     0.074 A 
ATOM     20  C   UNL A   1      41.354  31.529  30.200  1.00  0.00     0.031 C 
ATOM     21  C   UNL A   1      40.082  25.235  27.886  1.00  0.00     0.029 A 
ATOM     22  C   UNL A   1      41.458  25.523  28.290  1.00  0.00     0.049 A 
ATOM     23  H   UNL A   1      42.144  27.222  29.279  1.00  0.00     0.167 HD
ATOM     24  C   UNL A   1      43.686  30.962  30.764  1.00  0.00     0.031 A 
ATOM     25  C   UNL A   1      42.520  24.709  28.108  1.00  0.00     0.031 A 
ATOM     26  C   UNL A   1      44.788  30.055  30.906  1.00  0.00     0.049 A 
ATOM     27  C   UNL A   1      43.871  25.084  28.674  1.00  0.00     0.074 A 
ATOM     28  C   UNL A   1      46.015  30.278  31.508  1.00  0.00     0.029 A 
ATOM     29  N   UNL A   1      44.807  28.761  30.420  1.00  0.00    -0.354 N 
ATOM     30  N   UNL A   1      44.249  26.198  29.250  1.00  0.00    -0.248 NA
ATOM     31  C   UNL A   1      44.925  24.055  28.623  1.00  0.00     0.031 C 
ATOM     32  C   UNL A   1      46.792  29.126  31.353  1.00  0.00     0.029 A 
ATOM     33  C   UNL A   1      46.027  28.171  30.707  1.00  0.00     0.049 A 
ATOM     34  H   UNL A   1      44.065  28.324  29.943  1.00  0.00     0.167 HD
ATOM     35  C   UNL A   1      45.553  25.977  29.687  1.00  0.00     0.074 A 
ATOM     36  C   UNL A   1      45.906  24.629  29.305  1.00  0.00     0.031 C 
ATOM     37  C   UNL A   1      46.372  26.818  30.364  1.00  0.00     0.031 A 
BRANCH  24  38
ATOM     38  C   UNL A   1      43.883  32.390  31.193  1.00  0.00    -0.014 A 
ATOM     39  C   UNL A   1      44.429  33.333  30.305  1.00  0.00     0.009 A 
ATOM     40  C   UNL A   1      43.452  32.817  32.457  1.00  0.00     0.009 A 
ATOM     41  C   UNL A   1      44.576  34.665  30.688  1.00  0.00     0.001 A 
ATOM     42  C   UNL A   1      43.566  34.159  32.824  1.00  0.00     0.001 A 
ATOM     43  C   UNL A   1      44.137  35.079  31.944  1.00  0.00     0.000 A 
ENDBRANCH  24  38
BRANCH  25  44
ATOM     44  C   UNL A   1      42.359  23.384  27.447  1.00  0.00    -0.014 A 
ATOM     45  C   UNL A   1      41.976  22.261  28.200  1.00  0.00     0.009 A 
ATOM     46  C   UNL A   1      42.663  23.218  26.088  1.00  0.00     0.009 A 
ATOM     47  C   UNL A   1      41.945  20.992  27.619  1.00  0.00     0.001 A 
ATOM     48  C   UNL A   1      42.608  21.947  25.504  1.00  0.00     0.001 A 
ATOM     49  C   UNL A   1      42.262  20.835  26.272  1.00  0.00     0.000 A 
ENDBRANCH  25  44
BRANCH  37  50
ATOM     50  C   UNL A   1      47.700  26.292  30.839  1.00  0.00    -0.014 A 
ATOM     51  C   UNL A   1      47.875  25.764  32.126  1.00  0.00     0.009 A 
ATOM     52  C   UNL A   1      48.786  26.274  29.947  1.00  0.00     0.009 A 
ATOM     53  C   UNL A   1      49.119  25.260  32.519  1.00  0.00     0.001 A 
ATOM     54  C   UNL A   1      50.017  25.742  30.331  1.00  0.00     0.001 A 
ATOM     55  C   UNL A   1      50.185  25.244  31.621  1.00  0.00     0.000 A 
ENDBRANCH  37  50
ENDBRANCH  11  12
ENDBRANCH   4   6
ENDBRANCH   3   4
ENDBRANCH   2   3
ENDBRANCH   1   2
BRANCH   1  56
ATOM     56  O   UNL A   1      33.368  27.286  25.853  1.00  0.00    -0.461 OA
BRANCH  56  57
ATOM     57  C   UNL A   1      33.248  26.576  24.692  1.00  0.00     0.329 C 
ATOM     58  O   UNL A   1      33.101  27.085  23.594  1.00  0.00    -0.250 OA
BRANCH  57  59
ATOM     59  C   UNL A   1      33.403  25.040  24.916  1.00  0.00     0.197 C 
BRANCH  59  60
ATOM     60  N   UNL A   1      32.064  24.456  24.647  1.00  0.00    -0.338 N 
ATOM     61  C   UNL A   1      31.567  23.385  23.946  1.00  0.00     0.262 C 
ATOM     62  H   UNL A   1      31.347  24.971  25.086  1.00  0.00     0.164 HD
ATOM     63  O   UNL A   1      30.544  23.677  23.313  1.00  0.00    -0.268 OA
BRANCH  61  64
ATOM     64  C   UNL A   1      32.056  22.003  24.027  1.00  0.00     0.093 A 
ATOM     65  C   UNL A   1      32.491  21.150  25.034  1.00  0.00     0.027 A 
ATOM     66  S   UNL A   1      32.031  21.119  22.518  1.00  0.00    -0.118 S 
ATOM     67  C   UNL A   1      32.542  19.770  24.621  1.00  0.00     0.033 A 
ATOM     68  C   UNL A   1      32.333  19.647  23.275  1.00  0.00     0.094 A 
ATOM     69  Cl  UNL A   1      32.361  18.198  22.351  1.00  0.00    -0.072 Cl
ENDBRANCH  61  64
ENDBRANCH  59  60
BRANCH  59  70
ATOM     70  C   UNL A   1      34.403  24.529  23.856  1.00  0.00     0.072 C 
BRANCH  70  71
ATOM     71  C   UNL A   1      35.593  23.740  24.357  1.00  0.00    -0.045 A 
ATOM     72  C   UNL A   1      36.316  24.231  25.456  1.00  0.00     0.007 A 
ATOM     73  C   UNL A   1      35.963  22.493  23.835  1.00  0.00     0.007 A 
ATOM     74  C   UNL A   1      37.391  23.517  25.991  1.00  0.00     0.046 A 
ATOM     75  C   UNL A   1      37.051  21.786  24.352  1.00  0.00     0.046 A 
ATOM     76  C   UNL A   1      37.755  22.301  25.427  1.00  0.00     0.115 A 
BRANCH  76  77
ATOM     77  O   UNL A   1      38.794  21.567  25.915  1.00  0.00    -0.508 OA
ATOM     78  H   UNL A   1      39.227  20.945  25.365  1.00  0.00     0.293 HD
ENDBRANCH  76  77
ENDBRANCH  70  71
ENDBRANCH  59  70
ENDBRANCH  57  59
ENDBRANCH  56  57
ENDBRANCH   1  56
TORSDOF 16
ENDMDL
MODEL 3
REMARK VINA RESULT:     -10.2      3.074      7.142
REMARK SMILES O=C(OCCOC(=O)[C@H](Cc1ccc(O)cc1)NC(=O)c1ccc(Cl)s1)c1ccc(-c2c3nc(c(-c4ccccc4)c4ccc([nH]4)c(-c4ccccc4)c4nc(c(-c5ccccc5)c5ccc2[nH]5)C=C4)C=C3)cc1
REMARK SMILES IDX 5 1 4 2 3 3 2 4 1 5 27 6 28 7 74 8 29 9 73 10 30 11 31 12
REMARK SMILES IDX 32 13 67 14 33 15 72 16 66 17 68 18 34 19 71 20 65 21 64 22
REMARK SMILES IDX 35 24 57 25 42 26 56 27 43 28 46 29 55 30 69 31 44 32 45 33
REMARK SMILES IDX 54 35 70 36 47 37 36 38 37 39 41 40 38 41 40 42 39 43 58 44
REMARK SMILES IDX 59 45 63 46 60 47 62 48 61 49 48 50 49 51 53 52 50 53 52 54
REMARK SMILES IDX 51 55 6 56 7 57 8 58 9 59 18 60 19 61 20 63 21 64 22 65
REMARK SMILES IDX 26 66 23 67 24 68 25 69 10 70 11 71 12 72 17 73 13 74 16 75
REMARK SMILES IDX 14 76 15 77
REMARK H PARENT 68 23 46 34 18 62 15 78
REMARK Flexibility Score: inf
ROOT
ATOM      1  C   UNL A   1      36.285  21.816  24.684  1.00  0.00     0.274 C 
ENDROOT
BRANCH   1   2
ATOM      2  C   UNL A   1      37.764  21.697  25.087  1.00  0.00     0.275 C 
BRANCH   2   3
ATOM      3  O   UNL A   1      38.245  22.676  26.025  1.00  0.00    -0.458 OA
BRANCH   3   4
ATOM      4  C   UNL A   1      39.548  22.979  26.250  1.00  0.00     0.338 C 
ATOM      5  O   UNL A   1      40.419  22.119  26.206  1.00  0.00    -0.246 OA
BRANCH   4   6
ATOM      6  C   UNL A   1      39.899  24.329  26.760  1.00  0.00     0.060 A 
ATOM      7  C   UNL A   1      40.669  25.287  26.085  1.00  0.00     0.016 A 
ATOM      8  C   UNL A   1      39.356  24.647  27.997  1.00  0.00     0.016 A 
ATOM      9  C   UNL A   1      40.815  26.591  26.608  1.00  0.00     0.010 A 
ATOM     10  C   UNL A   1      39.477  25.943  28.478  1.00  0.00     0.010 A 
ATOM     11  C   UNL A   1      40.204  26.934  27.815  1.00  0.00    -0.014 A 
BRANCH  11  12
ATOM     12  C   UNL A   1      40.441  28.176  28.606  1.00  0.00     0.031 A 
ATOM     13  C   UNL A   1      41.611  28.172  29.566  1.00  0.00     0.074 A 
ATOM     14  C   UNL A   1      39.527  29.163  28.722  1.00  0.00     0.049 A 
ATOM     15  N   UNL A   1      42.001  29.092  30.410  1.00  0.00    -0.248 NA
ATOM     16  C   UNL A   1      42.411  26.934  29.617  1.00  0.00     0.031 C 
ATOM     17  C   UNL A   1      38.241  29.239  28.030  1.00  0.00     0.029 A 
ATOM     18  N   UNL A   1      39.528  30.276  29.535  1.00  0.00    -0.354 N 
ATOM     19  C   UNL A   1      43.092  28.548  31.076  1.00  0.00     0.074 A 
ATOM     20  C   UNL A   1      43.241  27.189  30.614  1.00  0.00     0.031 C 
ATOM     21  C   UNL A   1      37.565  30.317  28.474  1.00  0.00     0.029 A 
ATOM     22  C   UNL A   1      38.380  31.030  29.457  1.00  0.00     0.049 A 
ATOM     23  H   UNL A   1      40.283  30.510  30.121  1.00  0.00     0.167 HD
ATOM     24  C   UNL A   1      43.935  29.139  31.954  1.00  0.00     0.031 A 
ATOM     25  C   UNL A   1      38.036  32.176  30.084  1.00  0.00     0.031 A 
ATOM     26  C   UNL A   1      43.805  30.490  32.417  1.00  0.00     0.049 A 
ATOM     27  C   UNL A   1      39.023  32.868  30.997  1.00  0.00     0.074 A 
ATOM     28  C   UNL A   1      44.703  31.237  33.159  1.00  0.00     0.029 A 
ATOM     29  N   UNL A   1      42.697  31.290  32.201  1.00  0.00    -0.354 N 
ATOM     30  N   UNL A   1      40.196  32.460  31.413  1.00  0.00    -0.248 NA
ATOM     31  C   UNL A   1      38.659  34.215  31.474  1.00  0.00     0.031 C 
ATOM     32  C   UNL A   1      44.122  32.480  33.425  1.00  0.00     0.029 A 
ATOM     33  C   UNL A   1      42.888  32.524  32.799  1.00  0.00     0.049 A 
ATOM     34  H   UNL A   1      41.894  31.022  31.699  1.00  0.00     0.167 HD
ATOM     35  C   UNL A   1      40.734  33.522  32.136  1.00  0.00     0.074 A 
ATOM     36  C   UNL A   1      39.760  34.589  32.112  1.00  0.00     0.031 C 
ATOM     37  C   UNL A   1      41.940  33.604  32.748  1.00  0.00     0.031 A 
BRANCH  24  38
ATOM     38  C   UNL A   1      45.125  28.343  32.416  1.00  0.00    -0.014 A 
ATOM     39  C   UNL A   1      46.324  28.362  31.682  1.00  0.00     0.009 A 
ATOM     40  C   UNL A   1      45.078  27.634  33.624  1.00  0.00     0.009 A 
ATOM     41  C   UNL A   1      47.440  27.656  32.129  1.00  0.00     0.001 A 
ATOM     42  C   UNL A   1      46.208  26.958  34.087  1.00  0.00     0.001 A 
ATOM     43  C   UNL A   1      47.384  26.962  33.336  1.00  0.00     0.000 A 
ENDBRANCH  24  38
BRANCH  25  44
ATOM     44  C   UNL A   1      36.730  32.833  29.805  1.00  0.00    -0.014 A 
ATOM     45  C   UNL A   1      35.624  32.588  30.637  1.00  0.00     0.009 A 
ATOM     46  C   UNL A   1      36.558  33.638  28.669  1.00  0.00     0.009 A 
ATOM     47  C   UNL A   1      34.364  33.096  30.314  1.00  0.00     0.001 A 
ATOM     48  C   UNL A   1      35.298  34.164  28.362  1.00  0.00     0.001 A 
ATOM     49  C   UNL A   1      34.201  33.882  29.176  1.00  0.00     0.000 A 
ENDBRANCH  25  44
BRANCH  37  50
ATOM     50  C   UNL A   1      42.342  34.919  33.359  1.00  0.00    -0.014 A 
ATOM     51  C   UNL A   1      43.111  35.861  32.661  1.00  0.00     0.009 A 
ATOM     52  C   UNL A   1      41.885  35.241  34.648  1.00  0.00     0.009 A 
ATOM     53  C   UNL A   1      43.440  37.084  33.255  1.00  0.00     0.001 A 
ATOM     54  C   UNL A   1      42.188  36.473  35.227  1.00  0.00     0.001 A 
ATOM     55  C   UNL A   1      42.974  37.390  34.533  1.00  0.00     0.000 A 
ENDBRANCH  37  50
ENDBRANCH  11  12
ENDBRANCH   4   6
ENDBRANCH   3   4
ENDBRANCH   2   3
ENDBRANCH   1   2
BRANCH   1  56
ATOM     56  O   UNL A   1      35.854  23.178  24.492  1.00  0.00    -0.461 OA
BRANCH  56  57
ATOM     57  C   UNL A   1      34.993  23.688  25.422  1.00  0.00     0.329 C 
ATOM     58  O   UNL A   1      34.965  23.337  26.590  1.00  0.00    -0.250 OA
BRANCH  57  59
ATOM     59  C   UNL A   1      34.104  24.833  24.846  1.00  0.00     0.197 C 
BRANCH  59  60
ATOM     60  N   UNL A   1      33.231  24.192  23.829  1.00  0.00    -0.338 N 
ATOM     61  C   UNL A   1      31.892  24.193  23.522  1.00  0.00     0.262 C 
ATOM     62  H   UNL A   1      33.746  23.617  23.217  1.00  0.00     0.164 HD
ATOM     63  O   UNL A   1      31.476  23.061  23.247  1.00  0.00    -0.268 OA
BRANCH  61  64
ATOM     64  C   UNL A   1      31.047  25.385  23.370  1.00  0.00     0.093 A 
ATOM     65  C   UNL A   1      29.883  25.871  23.953  1.00  0.00     0.027 A 
ATOM     66  S   UNL A   1      31.647  26.579  22.242  1.00  0.00    -0.118 S 
ATOM     67  C   UNL A   1      29.654  27.267  23.675  1.00  0.00     0.033 A 
ATOM     68  C   UNL A   1      30.537  27.738  22.744  1.00  0.00     0.094 A 
ATOM     69  Cl  UNL A   1      30.593  29.322  22.080  1.00  0.00    -0.072 Cl
ENDBRANCH  61  64
ENDBRANCH  59  60
BRANCH  59  70
ATOM     70  C   UNL A   1      33.232  25.355  26.008  1.00  0.00     0.072 C 
BRANCH  70  71
ATOM     71  C   UNL A   1      32.868  26.824  25.988  1.00  0.00    -0.045 A 
ATOM     72  C   UNL A   1      33.547  27.678  25.103  1.00  0.00     0.007 A 
ATOM     73  C   UNL A   1      31.822  27.367  26.747  1.00  0.00     0.007 A 
ATOM     74  C   UNL A   1      33.215  29.031  25.008  1.00  0.00     0.046 A 
ATOM     75  C   UNL A   1      31.501  28.724  26.672  1.00  0.00     0.046 A 
ATOM     76  C   UNL A   1      32.197  29.545  25.802  1.00  0.00     0.115 A 
BRANCH  76  77
ATOM     77  O   UNL A   1      31.835  30.857  25.742  1.00  0.00    -0.508 OA
ATOM     78  H   UNL A   1      31.011  31.132  26.092  1.00  0.00     0.293 HD
ENDBRANCH  76  77
ENDBRANCH  70  71
ENDBRANCH  59  70
ENDBRANCH  57  59
ENDBRANCH  56  57
ENDBRANCH   1  56
TORSDOF 16
ENDMDL
