MODEL 1
REMARK VINA RESULT:      -9.1      0.000      0.000
REMARK SMILES Cn1nc(C(=O)OCCOC(=O)c2ccc(-c3c4nc(c(-c5ccccc5)c5ccc([nH]5)c(-c5ccccc5)c5nc(c(-c6ccccc6)c6ccc3[nH]6)C=C5)C=C4)cc2)cc1C1CC1
REMARK SMILES IDX 9 1 8 2 7 3 5 4 6 5 4 6 1 7 2 8 3 9 62 10 61 11 63 12 64 13
REMARK SMILES IDX 65 14 10 15 11 16 12 17 13 18 14 19 60 20 15 21 59 22 16 23
REMARK SMILES IDX 17 24 18 25 53 26 19 27 58 28 52 29 54 30 20 31 57 32 51 33
REMARK SMILES IDX 50 34 21 36 43 37 28 38 42 39 29 40 32 41 41 42 55 43 30 44
REMARK SMILES IDX 31 45 40 47 56 48 33 49 22 50 23 51 27 52 24 53 26 54 25 55
REMARK SMILES IDX 44 56 45 57 49 58 46 59 48 60 47 61 34 62 35 63 39 64 36 65
REMARK SMILES IDX 38 66 37 67
REMARK H PARENT 54 35 32 46
REMARK Flexibility Score: inf
ROOT
ATOM      1  C   UNL A   1      32.555  36.403  29.879  1.00  0.00     0.275 C 
ENDROOT
BRANCH   1   2
ATOM      2  C   UNL A   1      33.599  35.782  28.940  1.00  0.00     0.275 C 
BRANCH   2   3
ATOM      3  O   UNL A   1      33.723  34.359  29.127  1.00  0.00    -0.457 OA
BRANCH   3   4
ATOM      4  C   UNL A   1      34.956  33.836  28.831  1.00  0.00     0.358 C 
ATOM      5  O   UNL A   1      36.009  34.399  29.094  1.00  0.00    -0.244 OA
BRANCH   4   6
ATOM      6  C   UNL A   1      34.876  32.492  28.232  1.00  0.00     0.170 A 
ATOM      7  C   UNL A   1      36.535  29.505  27.599  1.00  0.00     0.174 C 
ATOM      8  N   UNL A   1      35.555  30.563  27.611  1.00  0.00    -0.272 N 
ATOM      9  N   UNL A   1      35.990  31.769  28.017  1.00  0.00    -0.166 NA
ATOM     10  C   UNL A   1      34.216  30.553  27.334  1.00  0.00     0.042 A 
ATOM     11  C   UNL A   1      33.737  31.761  27.808  1.00  0.00     0.061 A 
BRANCH  10  12
ATOM     12  C   UNL A   1      33.324  29.530  26.648  1.00  0.00     0.038 C 
ATOM     13  C   UNL A   1      32.655  28.481  27.512  1.00  0.00     0.010 C 
ATOM     14  C   UNL A   1      31.826  29.506  26.814  1.00  0.00     0.010 C 
ENDBRANCH  10  12
ENDBRANCH   4   6
ENDBRANCH   3   4
ENDBRANCH   2   3
ENDBRANCH   1   2
BRANCH   1  15
ATOM     15  O   UNL A   1      33.077  36.640  31.201  1.00  0.00    -0.458 OA
BRANCH  15  16
ATOM     16  C   UNL A   1      32.713  35.731  32.138  1.00  0.00     0.338 C 
ATOM     17  O   UNL A   1      31.580  35.471  32.505  1.00  0.00    -0.246 OA
BRANCH  16  18
ATOM     18  C   UNL A   1      33.892  34.974  32.592  1.00  0.00     0.060 A 
ATOM     19  C   UNL A   1      35.148  35.524  32.336  1.00  0.00     0.016 A 
ATOM     20  C   UNL A   1      33.788  33.712  33.178  1.00  0.00     0.016 A 
ATOM     21  C   UNL A   1      36.308  34.831  32.662  1.00  0.00     0.010 A 
ATOM     22  C   UNL A   1      34.957  33.007  33.504  1.00  0.00     0.010 A 
ATOM     23  C   UNL A   1      36.224  33.560  33.240  1.00  0.00    -0.014 A 
BRANCH  23  24
ATOM     24  C   UNL A   1      37.473  32.808  33.510  1.00  0.00     0.031 A 
ATOM     25  C   UNL A   1      38.205  33.011  34.805  1.00  0.00     0.074 A 
ATOM     26  C   UNL A   1      37.917  31.901  32.621  1.00  0.00     0.049 A 
ATOM     27  N   UNL A   1      39.329  32.476  35.212  1.00  0.00    -0.248 NA
ATOM     28  C   UNL A   1      37.591  33.933  35.774  1.00  0.00     0.031 C 
ATOM     29  C   UNL A   1      37.259  31.562  31.358  1.00  0.00     0.029 A 
ATOM     30  N   UNL A   1      39.022  31.089  32.652  1.00  0.00    -0.354 N 
ATOM     31  C   UNL A   1      39.567  33.010  36.471  1.00  0.00     0.074 A 
ATOM     32  C   UNL A   1      38.478  33.919  36.759  1.00  0.00     0.031 C 
ATOM     33  C   UNL A   1      37.970  30.605  30.738  1.00  0.00     0.029 A 
ATOM     34  C   UNL A   1      39.153  30.297  31.538  1.00  0.00     0.049 A 
ATOM     35  H   UNL A   1      39.661  31.074  33.401  1.00  0.00     0.167 HD
ATOM     36  C   UNL A   1      40.601  32.765  37.311  1.00  0.00     0.031 A 
ATOM     37  C   UNL A   1      40.128  29.437  31.188  1.00  0.00     0.031 A 
ATOM     38  C   UNL A   1      41.680  31.857  37.031  1.00  0.00     0.049 A 
ATOM     39  C   UNL A   1      41.299  29.236  32.110  1.00  0.00     0.074 A 
ATOM     40  C   UNL A   1      42.773  31.545  37.823  1.00  0.00     0.029 A 
ATOM     41  N   UNL A   1      41.803  31.113  35.868  1.00  0.00    -0.354 N 
ATOM     42  N   UNL A   1      41.520  29.759  33.291  1.00  0.00    -0.248 NA
ATOM     43  C   UNL A   1      42.358  28.328  31.646  1.00  0.00     0.031 C 
ATOM     44  C   UNL A   1      43.579  30.642  37.120  1.00  0.00     0.029 A 
ATOM     45  C   UNL A   1      42.963  30.359  35.912  1.00  0.00     0.049 A 
ATOM     46  H   UNL A   1      41.161  31.121  35.123  1.00  0.00     0.167 HD
ATOM     47  C   UNL A   1      42.731  29.230  33.719  1.00  0.00     0.074 A 
ATOM     48  C   UNL A   1      43.188  28.332  32.679  1.00  0.00     0.031 C 
ATOM     49  C   UNL A   1      43.404  29.470  34.870  1.00  0.00     0.031 A 
BRANCH  36  50
ATOM     50  C   UNL A   1      40.634  33.526  38.605  1.00  0.00    -0.014 A 
ATOM     51  C   UNL A   1      41.261  34.777  38.702  1.00  0.00     0.009 A 
ATOM     52  C   UNL A   1      39.990  32.997  39.735  1.00  0.00     0.009 A 
ATOM     53  C   UNL A   1      41.264  35.472  39.913  1.00  0.00     0.001 A 
ATOM     54  C   UNL A   1      39.975  33.705  40.938  1.00  0.00     0.001 A 
ATOM     55  C   UNL A   1      40.618  34.938  41.028  1.00  0.00     0.000 A 
ENDBRANCH  36  50
BRANCH  37  56
ATOM     56  C   UNL A   1      40.064  28.726  29.885  1.00  0.00    -0.014 A 
ATOM     57  C   UNL A   1      39.505  27.442  29.796  1.00  0.00     0.009 A 
ATOM     58  C   UNL A   1      40.579  29.325  28.725  1.00  0.00     0.009 A 
ATOM     59  C   UNL A   1      39.486  26.764  28.574  1.00  0.00     0.001 A 
ATOM     60  C   UNL A   1      40.535  28.655  27.501  1.00  0.00     0.001 A 
ATOM     61  C   UNL A   1      39.996  27.372  27.429  1.00  0.00     0.000 A 
ENDBRANCH  37  56
BRANCH  49  62
ATOM     62  C   UNL A   1      44.691  28.726  35.076  1.00  0.00    -0.014 A 
ATOM     63  C   UNL A   1      45.918  29.274  34.673  1.00  0.00     0.009 A 
ATOM     64  C   UNL A   1      44.678  27.476  35.714  1.00  0.00     0.009 A 
ATOM     65  C   UNL A   1      47.106  28.570  34.879  1.00  0.00     0.001 A 
ATOM     66  C   UNL A   1      45.869  26.786  35.940  1.00  0.00     0.001 A 
ATOM     67  C   UNL A   1      47.081  27.329  35.516  1.00  0.00     0.000 A 
ENDBRANCH  49  62
ENDBRANCH  23  24
ENDBRANCH  16  18
ENDBRANCH  15  16
ENDBRANCH   1  15
TORSDOF 12
ENDMDL
MODEL 2
REMARK VINA RESULT:      -8.9      8.043     13.110
REMARK SMILES Cn1nc(C(=O)OCCOC(=O)c2ccc(-c3c4nc(c(-c5ccccc5)c5ccc([nH]5)c(-c5ccccc5)c5nc(c(-c6ccccc6)c6ccc3[nH]6)C=C5)C=C4)cc2)cc1C1CC1
REMARK SMILES IDX 9 1 8 2 7 3 5 4 6 5 4 6 1 7 2 8 3 9 62 10 61 11 63 12 64 13
REMARK SMILES IDX 65 14 10 15 11 16 12 17 13 18 14 19 60 20 15 21 59 22 16 23
REMARK SMILES IDX 17 24 18 25 53 26 19 27 58 28 52 29 54 30 20 31 57 32 51 33
REMARK SMILES IDX 50 34 21 36 43 37 28 38 42 39 29 40 32 41 41 42 55 43 30 44
REMARK SMILES IDX 31 45 40 47 56 48 33 49 22 50 23 51 27 52 24 53 26 54 25 55
REMARK SMILES IDX 44 56 45 57 49 58 46 59 48 60 47 61 34 62 35 63 39 64 36 65
REMARK SMILES IDX 38 66 37 67
REMARK H PARENT 54 35 32 46
REMARK Flexibility Score: inf
ROOT
ATOM      1  C   UNL A   1      43.215  18.864  25.690  1.00  0.00     0.275 C 
ENDROOT
BRANCH   1   2
ATOM      2  C   UNL A   1      41.753  19.205  26.013  1.00  0.00     0.275 C 
BRANCH   2   3
ATOM      3  O   UNL A   1      41.608  19.808  27.312  1.00  0.00    -0.457 OA
BRANCH   3   4
ATOM      4  C   UNL A   1      41.768  21.170  27.346  1.00  0.00     0.358 C 
ATOM      5  O   UNL A   1      42.842  21.718  27.554  1.00  0.00    -0.244 OA
BRANCH   4   6
ATOM      6  C   UNL A   1      40.527  21.899  27.030  1.00  0.00     0.170 A 
ATOM      7  C   UNL A   1      38.835  24.930  27.182  1.00  0.00     0.174 C 
ATOM      8  N   UNL A   1      39.158  23.539  26.982  1.00  0.00    -0.272 N 
ATOM      9  N   UNL A   1      40.273  23.096  27.589  1.00  0.00    -0.166 NA
ATOM     10  C   UNL A   1      38.556  22.575  26.221  1.00  0.00     0.042 A 
ATOM     11  C   UNL A   1      39.464  21.534  26.166  1.00  0.00     0.061 A 
BRANCH  10  12
ATOM     12  C   UNL A   1      37.195  22.513  25.544  1.00  0.00     0.038 C 
ATOM     13  C   UNL A   1      36.947  23.432  24.366  1.00  0.00     0.010 C 
ATOM     14  C   UNL A   1      36.993  21.956  24.159  1.00  0.00     0.010 C 
ENDBRANCH  10  12
ENDBRANCH   4   6
ENDBRANCH   3   4
ENDBRANCH   2   3
ENDBRANCH   1   2
BRANCH   1  15
ATOM     15  O   UNL A   1      43.608  19.313  24.379  1.00  0.00    -0.458 OA
BRANCH  15  16
ATOM     16  C   UNL A   1      44.917  19.640  24.248  1.00  0.00     0.338 C 
ATOM     17  O   UNL A   1      45.810  18.930  23.816  1.00  0.00    -0.246 OA
BRANCH  16  18
ATOM     18  C   UNL A   1      45.120  21.058  24.591  1.00  0.00     0.060 A 
ATOM     19  C   UNL A   1      45.797  21.342  25.777  1.00  0.00     0.016 A 
ATOM     20  C   UNL A   1      44.589  22.095  23.823  1.00  0.00     0.016 A 
ATOM     21  C   UNL A   1      45.956  22.654  26.208  1.00  0.00     0.010 A 
ATOM     22  C   UNL A   1      44.744  23.420  24.257  1.00  0.00     0.010 A 
ATOM     23  C   UNL A   1      45.422  23.706  25.457  1.00  0.00    -0.014 A 
BRANCH  23  24
ATOM     24  C   UNL A   1      45.539  25.091  25.973  1.00  0.00     0.031 A 
ATOM     25  C   UNL A   1      46.855  25.810  25.901  1.00  0.00     0.074 A 
ATOM     26  C   UNL A   1      44.451  25.724  26.452  1.00  0.00     0.049 A 
ATOM     27  N   UNL A   1      47.168  27.007  26.330  1.00  0.00    -0.248 NA
ATOM     28  C   UNL A   1      47.966  25.091  25.256  1.00  0.00     0.031 C 
ATOM     29  C   UNL A   1      43.103  25.160  26.512  1.00  0.00     0.029 A 
ATOM     30  N   UNL A   1      44.310  26.988  26.967  1.00  0.00    -0.354 N 
ATOM     31  C   UNL A   1      48.512  27.177  26.027  1.00  0.00     0.074 A 
ATOM     32  C   UNL A   1      48.960  25.958  25.388  1.00  0.00     0.031 C 
ATOM     33  C   UNL A   1      42.268  26.078  27.028  1.00  0.00     0.029 A 
ATOM     34  C   UNL A   1      43.030  27.275  27.374  1.00  0.00     0.049 A 
ATOM     35  H   UNL A   1      45.055  27.628  27.038  1.00  0.00     0.167 HD
ATOM     36  C   UNL A   1      49.302  28.252  26.262  1.00  0.00     0.031 A 
ATOM     37  C   UNL A   1      42.532  28.370  27.978  1.00  0.00     0.031 A 
ATOM     38  C   UNL A   1      48.857  29.467  26.891  1.00  0.00     0.049 A 
ATOM     39  C   UNL A   1      43.447  29.521  28.289  1.00  0.00     0.074 A 
ATOM     40  C   UNL A   1      49.588  30.610  27.171  1.00  0.00     0.029 A 
ATOM     41  N   UNL A   1      47.565  29.698  27.335  1.00  0.00    -0.354 N 
ATOM     42  N   UNL A   1      44.720  29.663  28.012  1.00  0.00    -0.248 NA
ATOM     43  C   UNL A   1      42.855  30.663  29.001  1.00  0.00     0.031 C 
ATOM     44  C   UNL A   1      48.745  31.518  27.823  1.00  0.00     0.029 A 
ATOM     45  C   UNL A   1      47.481  30.956  27.907  1.00  0.00     0.049 A 
ATOM     46  H   UNL A   1      46.819  29.062  27.257  1.00  0.00     0.167 HD
ATOM     47  C   UNL A   1      45.076  30.914  28.497  1.00  0.00     0.074 A 
ATOM     48  C   UNL A   1      43.881  31.499  29.071  1.00  0.00     0.031 C 
ATOM     49  C   UNL A   1      46.286  31.523  28.472  1.00  0.00     0.031 A 
BRANCH  36  50
ATOM     50  C   UNL A   1      50.747  28.146  25.870  1.00  0.00    -0.014 A 
ATOM     51  C   UNL A   1      51.714  27.669  26.767  1.00  0.00     0.009 A 
ATOM     52  C   UNL A   1      51.138  28.491  24.567  1.00  0.00     0.009 A 
ATOM     53  C   UNL A   1      53.050  27.563  26.373  1.00  0.00     0.001 A 
ATOM     54  C   UNL A   1      52.470  28.364  24.169  1.00  0.00     0.001 A 
ATOM     55  C   UNL A   1      53.426  27.907  25.075  1.00  0.00     0.000 A 
ENDBRANCH  36  50
BRANCH  37  56
ATOM     56  C   UNL A   1      41.099  28.418  28.370  1.00  0.00    -0.014 A 
ATOM     57  C   UNL A   1      40.672  27.884  29.595  1.00  0.00     0.009 A 
ATOM     58  C   UNL A   1      40.148  28.984  27.506  1.00  0.00     0.009 A 
ATOM     59  C   UNL A   1      39.317  27.897  29.936  1.00  0.00     0.001 A 
ATOM     60  C   UNL A   1      38.799  29.018  27.862  1.00  0.00     0.001 A 
ATOM     61  C   UNL A   1      38.383  28.467  29.072  1.00  0.00     0.000 A 
ENDBRANCH  37  56
BRANCH  49  62
ATOM     62  C   UNL A   1      46.369  32.904  29.055  1.00  0.00    -0.014 A 
ATOM     63  C   UNL A   1      46.126  34.039  28.269  1.00  0.00     0.009 A 
ATOM     64  C   UNL A   1      46.660  33.066  30.419  1.00  0.00     0.009 A 
ATOM     65  C   UNL A   1      46.201  35.315  28.832  1.00  0.00     0.001 A 
ATOM     66  C   UNL A   1      46.711  34.341  30.984  1.00  0.00     0.001 A 
ATOM     67  C   UNL A   1      46.489  35.465  30.188  1.00  0.00     0.000 A 
ENDBRANCH  49  62
ENDBRANCH  23  24
ENDBRANCH  16  18
ENDBRANCH  15  16
ENDBRANCH   1  15
TORSDOF 12
ENDMDL
MODEL 3
REMARK VINA RESULT:      -8.8      6.683     11.325
REMARK SMILES Cn1nc(C(=O)OCCOC(=O)c2ccc(-c3c4nc(c(-c5ccccc5)c5ccc([nH]5)c(-c5ccccc5)c5nc(c(-c6ccccc6)c6ccc3[nH]6)C=C5)C=C4)cc2)cc1C1CC1
REMARK SMILES IDX 9 1 8 2 7 3 5 4 6 5 4 6 1 7 2 8 3 9 62 10 61 11 63 12 64 13
REMARK SMILES IDX 65 14 10 15 11 16 12 17 13 18 14 19 60 20 15 21 59 22 16 23
REMARK SMILES IDX 17 24 18 25 53 26 19 27 58 28 52 29 54 30 20 31 57 32 51 33
REMARK SMILES IDX 50 34 21 36 43 37 28 38 42 39 29 40 32 41 41 42 55 43 30 44
REMARK SMILES IDX 31 45 40 47 56 48 33 49 22 50 23 51 27 52 24 53 26 54 25 55
REMARK SMILES IDX 44 56 45 57 49 58 46 59 48 60 47 61 34 62 35 63 39 64 36 65
REMARK SMILES IDX 38 66 37 67
REMARK H PARENT 54 35 32 46
REMARK Flexibility Score: inf
ROOT
ATOM      1  C   UNL A   1      39.410  19.767  25.482  1.00  0.00     0.275 C 
ENDROOT
BRANCH   1   2
ATOM      2  C   UNL A   1      38.761  21.133  25.744  1.00  0.00     0.275 C 
BRANCH   2   3
ATOM      3  O   UNL A   1      37.626  21.370  24.891  1.00  0.00    -0.457 OA
BRANCH   3   4
ATOM      4  C   UNL A   1      36.544  21.950  25.505  1.00  0.00     0.358 C 
ATOM      5  O   UNL A   1      36.598  23.016  26.101  1.00  0.00    -0.244 OA
BRANCH   4   6
ATOM      6  C   UNL A   1      35.298  21.189  25.303  1.00  0.00     0.170 A 
ATOM      7  C   UNL A   1      31.829  21.309  25.150  1.00  0.00     0.174 C 
ATOM      8  N   UNL A   1      33.193  20.842  25.190  1.00  0.00    -0.272 N 
ATOM      9  N   UNL A   1      34.108  21.721  25.635  1.00  0.00    -0.166 NA
ATOM     10  C   UNL A   1      33.751  19.658  24.792  1.00  0.00     0.042 A 
ATOM     11  C   UNL A   1      35.114  19.886  24.774  1.00  0.00     0.061 A 
BRANCH  10  12
ATOM     12  C   UNL A   1      33.140  18.311  24.439  1.00  0.00     0.038 C 
ATOM     13  C   UNL A   1      32.463  18.171  23.091  1.00  0.00     0.010 C 
ATOM     14  C   UNL A   1      33.711  17.405  23.378  1.00  0.00     0.010 C 
ENDBRANCH  10  12
ENDBRANCH   4   6
ENDBRANCH   3   4
ENDBRANCH   2   3
ENDBRANCH   1   2
BRANCH   1  15
ATOM     15  O   UNL A   1      40.438  19.453  26.442  1.00  0.00    -0.458 OA
BRANCH  15  16
ATOM     16  C   UNL A   1      41.704  19.717  26.040  1.00  0.00     0.338 C 
ATOM     17  O   UNL A   1      42.396  19.038  25.300  1.00  0.00    -0.246 OA
BRANCH  16  18
ATOM     18  C   UNL A   1      42.122  21.043  26.527  1.00  0.00     0.060 A 
ATOM     19  C   UNL A   1      41.994  21.297  27.893  1.00  0.00     0.016 A 
ATOM     20  C   UNL A   1      42.550  22.054  25.665  1.00  0.00     0.016 A 
ATOM     21  C   UNL A   1      42.291  22.551  28.414  1.00  0.00     0.010 A 
ATOM     22  C   UNL A   1      42.846  23.322  26.188  1.00  0.00     0.010 A 
ATOM     23  C   UNL A   1      42.710  23.580  27.565  1.00  0.00    -0.014 A 
BRANCH  23  24
ATOM     24  C   UNL A   1      42.949  24.929  28.132  1.00  0.00     0.031 A 
ATOM     25  C   UNL A   1      44.341  25.347  28.510  1.00  0.00     0.074 A 
ATOM     26  C   UNL A   1      41.928  25.798  28.251  1.00  0.00     0.049 A 
ATOM     27  N   UNL A   1      44.749  26.468  29.051  1.00  0.00    -0.248 NA
ATOM     28  C   UNL A   1      45.418  24.382  28.238  1.00  0.00     0.031 C 
ATOM     29  C   UNL A   1      40.544  25.537  27.856  1.00  0.00     0.029 A 
ATOM     30  N   UNL A   1      41.904  27.084  28.729  1.00  0.00    -0.354 N 
ATOM     31  C   UNL A   1      46.122  26.335  29.205  1.00  0.00     0.074 A 
ATOM     32  C   UNL A   1      46.479  25.022  28.710  1.00  0.00     0.031 C 
ATOM     33  C   UNL A   1      39.806  26.633  28.100  1.00  0.00     0.029 A 
ATOM     34  C   UNL A   1      40.655  27.653  28.709  1.00  0.00     0.049 A 
ATOM     35  H   UNL A   1      42.705  27.554  29.056  1.00  0.00     0.167 HD
ATOM     36  C   UNL A   1      47.005  27.226  29.714  1.00  0.00     0.031 A 
ATOM     37  C   UNL A   1      40.236  28.854  29.151  1.00  0.00     0.031 A 
ATOM     38  C   UNL A   1      46.655  28.533  30.200  1.00  0.00     0.049 A 
ATOM     39  C   UNL A   1      41.227  29.797  29.774  1.00  0.00     0.074 A 
ATOM     40  C   UNL A   1      47.484  29.506  30.734  1.00  0.00     0.029 A 
ATOM     41  N   UNL A   1      45.370  29.053  30.209  1.00  0.00    -0.354 N 
ATOM     42  N   UNL A   1      42.521  29.653  29.928  1.00  0.00    -0.248 NA
ATOM     43  C   UNL A   1      40.698  31.068  30.290  1.00  0.00     0.031 C 
ATOM     44  C   UNL A   1      46.692  30.599  31.106  1.00  0.00     0.029 A 
ATOM     45  C   UNL A   1      45.379  30.323  30.759  1.00  0.00     0.049 A 
ATOM     46  H   UNL A   1      44.570  28.587  29.875  1.00  0.00     0.167 HD
ATOM     47  C   UNL A   1      42.962  30.819  30.539  1.00  0.00     0.074 A 
ATOM     48  C   UNL A   1      41.802  31.668  30.712  1.00  0.00     0.031 C 
ATOM     49  C   UNL A   1      44.217  31.155  30.924  1.00  0.00     0.031 A 
BRANCH  36  50
ATOM     50  C   UNL A   1      48.442  26.798  29.807  1.00  0.00    -0.014 A 
ATOM     51  C   UNL A   1      48.896  25.991  30.861  1.00  0.00     0.009 A 
ATOM     52  C   UNL A   1      49.343  27.176  28.800  1.00  0.00     0.009 A 
ATOM     53  C   UNL A   1      50.233  25.592  30.916  1.00  0.00     0.001 A 
ATOM     54  C   UNL A   1      50.674  26.758  28.847  1.00  0.00     0.001 A 
ATOM     55  C   UNL A   1      51.120  25.972  29.908  1.00  0.00     0.000 A 
ENDBRANCH  36  50
BRANCH  37  56
ATOM     56  C   UNL A   1      38.800  29.223  29.060  1.00  0.00    -0.014 A 
ATOM     57  C   UNL A   1      37.940  29.034  30.152  1.00  0.00     0.009 A 
ATOM     58  C   UNL A   1      38.278  29.750  27.867  1.00  0.00     0.009 A 
ATOM     59  C   UNL A   1      36.582  29.345  30.043  1.00  0.00     0.001 A 
ATOM     60  C   UNL A   1      36.927  30.083  27.770  1.00  0.00     0.001 A 
ATOM     61  C   UNL A   1      36.078  29.872  28.855  1.00  0.00     0.000 A 
ENDBRANCH  37  56
BRANCH  49  62
ATOM     62  C   UNL A   1      44.402  32.510  31.543  1.00  0.00    -0.014 A 
ATOM     63  C   UNL A   1      44.655  33.640  30.752  1.00  0.00     0.009 A 
ATOM     64  C   UNL A   1      44.287  32.661  32.933  1.00  0.00     0.009 A 
ATOM     65  C   UNL A   1      44.818  34.893  31.346  1.00  0.00     0.001 A 
ATOM     66  C   UNL A   1      44.427  33.918  33.522  1.00  0.00     0.001 A 
ATOM     67  C   UNL A   1      44.700  35.032  32.729  1.00  0.00     0.000 A 
ENDBRANCH  49  62
ENDBRANCH  23  24
ENDBRANCH  16  18
ENDBRANCH  15  16
ENDBRANCH   1  15
TORSDOF 12
ENDMDL
