MODEL 1
REMARK VINA RESULT:     -11.9      0.000      0.000
REMARK SMILES Cc1nc2sc3c(c2c2nc(CCC(=O)OCCOC(=O)c4ccc(-c5c6nc(c(-c7ccccc7)c7ccc([nH]7)c(-c7ccccc7)c7nc(c(-c8ccccc8)c8ccc5[nH]8)C=C7)C=C6)cc4)nn12)[C@@H](C)CCC3
REMARK SMILES IDX 17 1 16 2 14 3 15 4 13 5 12 6 11 7 1 8 2 9 3 10 71 11 4 12
REMARK SMILES IDX 9 13 70 14 5 15 8 16 10 17 6 18 7 19 76 20 72 21 75 22 73 23
REMARK SMILES IDX 74 24 18 25 19 26 20 27 21 28 22 29 23 30 69 31 24 32 68 33
REMARK SMILES IDX 25 34 26 35 27 36 62 37 28 38 67 39 61 40 63 41 29 42 66 43
REMARK SMILES IDX 60 44 59 45 30 47 52 48 37 49 51 50 38 51 41 52 50 53 64 54
REMARK SMILES IDX 39 55 40 56 49 58 65 59 42 60 31 61 32 62 36 63 33 64 35 65
REMARK SMILES IDX 34 66 53 67 54 68 58 69 55 70 57 71 56 72 43 73 44 74 48 75
REMARK SMILES IDX 45 76 47 77 46 78
REMARK H PARENT 63 46 41 57
REMARK Flexibility Score: inf
ROOT
ATOM      1  C   UNL A   1      41.450  19.707  26.903  1.00  0.00     0.274 C 
ENDROOT
BRANCH   1   2
ATOM      2  O   UNL A   1      40.411  20.362  26.152  1.00  0.00    -0.462 OA
BRANCH   2   3
ATOM      3  C   UNL A   1      39.975  21.556  26.628  1.00  0.00     0.306 C 
ATOM      4  O   UNL A   1      40.488  22.175  27.554  1.00  0.00    -0.252 OA
BRANCH   3   5
ATOM      5  C   UNL A   1      38.718  22.008  25.931  1.00  0.00     0.131 C 
BRANCH   5   6
ATOM      6  C   UNL A   1      38.024  20.921  25.123  1.00  0.00     0.091 C 
BRANCH   6   7
ATOM      7  C   UNL A   1      36.537  20.990  25.189  1.00  0.00     0.152 A 
ATOM      8  C   UNL A   1      33.438  18.262  24.655  1.00  0.00     0.090 C 
ATOM      9  C   UNL A   1      33.328  19.712  25.017  1.00  0.00     0.131 A 
ATOM     10  N   UNL A   1      32.164  20.283  25.203  1.00  0.00    -0.222 NA
ATOM     11  N   UNL A   1      34.537  20.406  25.138  1.00  0.00    -0.199 N 
ATOM     12  C   UNL A   1      32.194  21.630  25.470  1.00  0.00     0.129 A 
ATOM     13  C   UNL A   1      34.590  21.745  25.417  1.00  0.00     0.168 A 
ATOM     14  N   UNL A   1      35.777  19.902  24.972  1.00  0.00    -0.150 NA
ATOM     15  S   UNL A   1      30.756  22.528  25.702  1.00  0.00    -0.120 S 
ATOM     16  C   UNL A   1      33.303  22.459  25.568  1.00  0.00     0.060 A 
ATOM     17  N   UNL A   1      35.838  22.142  25.469  1.00  0.00    -0.211 NA
ATOM     18  C   UNL A   1      31.617  23.992  25.844  1.00  0.00     0.011 A 
ATOM     19  C   UNL A   1      32.986  23.838  25.714  1.00  0.00    -0.018 A 
ATOM     20  C   UNL A   1      30.920  25.302  26.028  1.00  0.00     0.047 C 
ATOM     21  C   UNL A   1      33.925  25.019  25.691  1.00  0.00     0.018 C 
ATOM     22  C   UNL A   1      31.891  26.315  26.648  1.00  0.00     0.006 C 
ATOM     23  C   UNL A   1      34.683  25.066  24.364  1.00  0.00     0.013 C 
ATOM     24  C   UNL A   1      33.193  26.380  25.847  1.00  0.00     0.008 C 
ENDBRANCH   6   7
ENDBRANCH   5   6
ENDBRANCH   3   5
ENDBRANCH   2   3
ENDBRANCH   1   2
BRANCH   1  25
ATOM     25  C   UNL A   1      42.688  19.412  26.065  1.00  0.00     0.275 C 
BRANCH  25  26
ATOM     26  O   UNL A   1      42.924  20.401  25.070  1.00  0.00    -0.458 OA
BRANCH  26  27
ATOM     27  C   UNL A   1      44.165  20.931  25.143  1.00  0.00     0.338 C 
ATOM     28  O   UNL A   1      45.237  20.381  24.987  1.00  0.00    -0.246 OA
BRANCH  27  29
ATOM     29  C   UNL A   1      44.070  22.275  25.678  1.00  0.00     0.060 A 
ATOM     30  C   UNL A   1      44.810  22.597  26.815  1.00  0.00     0.016 A 
ATOM     31  C   UNL A   1      43.077  23.113  25.156  1.00  0.00     0.016 A 
ATOM     32  C   UNL A   1      44.531  23.784  27.460  1.00  0.00     0.010 A 
ATOM     33  C   UNL A   1      42.792  24.288  25.804  1.00  0.00     0.010 A 
ATOM     34  C   UNL A   1      43.507  24.601  26.961  1.00  0.00    -0.014 A 
BRANCH  34  35
ATOM     35  C   UNL A   1      43.266  25.867  27.619  1.00  0.00     0.031 A 
ATOM     36  C   UNL A   1      44.250  26.933  27.311  1.00  0.00     0.074 A 
ATOM     37  C   UNL A   1      42.134  26.132  28.290  1.00  0.00     0.049 A 
ATOM     38  N   UNL A   1      44.999  27.587  28.134  1.00  0.00    -0.248 NA
ATOM     39  C   UNL A   1      44.473  27.260  25.894  1.00  0.00     0.031 C 
ATOM     40  C   UNL A   1      40.920  25.318  28.363  1.00  0.00     0.029 A 
ATOM     41  N   UNL A   1      41.796  27.275  28.942  1.00  0.00    -0.354 N 
ATOM     42  C   UNL A   1      45.690  28.514  27.362  1.00  0.00     0.074 A 
ATOM     43  C   UNL A   1      45.419  28.192  25.984  1.00  0.00     0.031 C 
ATOM     44  C   UNL A   1      39.910  26.086  28.828  1.00  0.00     0.029 A 
ATOM     45  C   UNL A   1      40.443  27.386  29.202  1.00  0.00     0.049 A 
ATOM     46  H   UNL A   1      42.454  27.959  29.206  1.00  0.00     0.167 HD
ATOM     47  C   UNL A   1      46.287  29.609  27.905  1.00  0.00     0.031 A 
ATOM     48  C   UNL A   1      39.802  28.499  29.623  1.00  0.00     0.031 A 
ATOM     49  C   UNL A   1      46.445  29.497  29.327  1.00  0.00     0.049 A 
ATOM     50  C   UNL A   1      40.813  29.424  30.191  1.00  0.00     0.074 A 
ATOM     51  C   UNL A   1      47.134  28.651  30.171  1.00  0.00     0.029 A 
ATOM     52  N   UNL A   1      45.538  30.167  30.111  1.00  0.00    -0.354 N 
ATOM     53  N   UNL A   1      41.473  29.191  31.289  1.00  0.00    -0.248 NA
ATOM     54  C   UNL A   1      41.369  30.468  29.345  1.00  0.00     0.031 C 
ATOM     55  C   UNL A   1      46.314  28.533  31.330  1.00  0.00     0.029 A 
ATOM     56  C   UNL A   1      45.180  29.325  31.132  1.00  0.00     0.049 A 
ATOM     57  H   UNL A   1      45.206  31.081  29.968  1.00  0.00     0.167 HD
ATOM     58  C   UNL A   1      42.726  29.750  31.080  1.00  0.00     0.074 A 
ATOM     59  C   UNL A   1      42.553  30.641  29.940  1.00  0.00     0.031 C 
ATOM     60  C   UNL A   1      43.839  29.224  31.671  1.00  0.00     0.031 A 
BRANCH  47  61
ATOM     61  C   UNL A   1      46.394  30.929  27.190  1.00  0.00    -0.014 A 
ATOM     62  C   UNL A   1      47.661  31.515  27.030  1.00  0.00     0.009 A 
ATOM     63  C   UNL A   1      45.278  31.741  26.912  1.00  0.00     0.009 A 
ATOM     64  C   UNL A   1      47.799  32.858  26.659  1.00  0.00     0.001 A 
ATOM     65  C   UNL A   1      45.412  33.068  26.497  1.00  0.00     0.001 A 
ATOM     66  C   UNL A   1      46.674  33.634  26.395  1.00  0.00     0.000 A 
ENDBRANCH  47  61
BRANCH  48  67
ATOM     67  C   UNL A   1      38.410  28.901  29.350  1.00  0.00    -0.014 A 
ATOM     68  C   UNL A   1      37.530  29.197  30.399  1.00  0.00     0.009 A 
ATOM     69  C   UNL A   1      38.002  29.219  28.040  1.00  0.00     0.009 A 
ATOM     70  C   UNL A   1      36.297  29.814  30.148  1.00  0.00     0.001 A 
ATOM     71  C   UNL A   1      36.769  29.823  27.788  1.00  0.00     0.001 A 
ATOM     72  C   UNL A   1      35.922  30.134  28.846  1.00  0.00     0.000 A 
ENDBRANCH  48  67
BRANCH  60  73
ATOM     73  C   UNL A   1      43.639  28.206  32.767  1.00  0.00    -0.014 A 
ATOM     74  C   UNL A   1      43.801  26.827  32.551  1.00  0.00     0.009 A 
ATOM     75  C   UNL A   1      43.450  28.658  34.081  1.00  0.00     0.009 A 
ATOM     76  C   UNL A   1      43.746  25.923  33.616  1.00  0.00     0.001 A 
ATOM     77  C   UNL A   1      43.417  27.756  35.149  1.00  0.00     0.001 A 
ATOM     78  C   UNL A   1      43.560  26.390  34.915  1.00  0.00     0.000 A 
ENDBRANCH  60  73
ENDBRANCH  34  35
ENDBRANCH  27  29
ENDBRANCH  26  27
ENDBRANCH  25  26
ENDBRANCH   1  25
TORSDOF 13
ENDMDL
MODEL 2
REMARK VINA RESULT:     -11.6      4.006      7.235
REMARK SMILES Cc1nc2sc3c(c2c2nc(CCC(=O)OCCOC(=O)c4ccc(-c5c6nc(c(-c7ccccc7)c7ccc([nH]7)c(-c7ccccc7)c7nc(c(-c8ccccc8)c8ccc5[nH]8)C=C7)C=C6)cc4)nn12)[C@@H](C)CCC3
REMARK SMILES IDX 17 1 16 2 14 3 15 4 13 5 12 6 11 7 1 8 2 9 3 10 71 11 4 12
REMARK SMILES IDX 9 13 70 14 5 15 8 16 10 17 6 18 7 19 76 20 72 21 75 22 73 23
REMARK SMILES IDX 74 24 18 25 19 26 20 27 21 28 22 29 23 30 69 31 24 32 68 33
REMARK SMILES IDX 25 34 26 35 27 36 62 37 28 38 67 39 61 40 63 41 29 42 66 43
REMARK SMILES IDX 60 44 59 45 30 47 52 48 37 49 51 50 38 51 41 52 50 53 64 54
REMARK SMILES IDX 39 55 40 56 49 58 65 59 42 60 31 61 32 62 36 63 33 64 35 65
REMARK SMILES IDX 34 66 53 67 54 68 58 69 55 70 57 71 56 72 43 73 44 74 48 75
REMARK SMILES IDX 45 76 47 77 46 78
REMARK H PARENT 63 46 41 57
REMARK Flexibility Score: inf
ROOT
ATOM      1  C   UNL A   1      46.651  26.219  27.519  1.00  0.00     0.274 C 
ENDROOT
BRANCH   1   2
ATOM      2  O   UNL A   1      45.660  27.260  27.427  1.00  0.00    -0.462 OA
BRANCH   2   3
ATOM      3  C   UNL A   1      45.271  27.623  26.178  1.00  0.00     0.306 C 
ATOM      4  O   UNL A   1      46.021  27.752  25.217  1.00  0.00    -0.252 OA
BRANCH   3   5
ATOM      5  C   UNL A   1      43.799  27.936  26.121  1.00  0.00     0.131 C 
BRANCH   5   6
ATOM      6  C   UNL A   1      43.042  27.190  25.031  1.00  0.00     0.091 C 
BRANCH   6   7
ATOM      7  C   UNL A   1      42.460  25.897  25.490  1.00  0.00     0.152 A 
ATOM      8  C   UNL A   1      39.116  24.797  27.712  1.00  0.00     0.090 C 
ATOM      9  C   UNL A   1      40.139  23.895  27.091  1.00  0.00     0.131 A 
ATOM     10  N   UNL A   1      40.062  22.593  27.209  1.00  0.00    -0.222 NA
ATOM     11  N   UNL A   1      41.169  24.529  26.387  1.00  0.00    -0.199 N 
ATOM     12  C   UNL A   1      41.093  21.879  26.647  1.00  0.00     0.129 A 
ATOM     13  C   UNL A   1      42.198  23.837  25.809  1.00  0.00     0.168 A 
ATOM     14  N   UNL A   1      41.325  25.857  26.208  1.00  0.00    -0.150 NA
ATOM     15  S   UNL A   1      41.158  20.172  26.747  1.00  0.00    -0.120 S 
ATOM     16  C   UNL A   1      42.202  22.366  25.970  1.00  0.00     0.060 A 
ATOM     17  N   UNL A   1      43.023  24.669  25.222  1.00  0.00    -0.211 NA
ATOM     18  C   UNL A   1      42.676  20.120  25.973  1.00  0.00     0.011 A 
ATOM     19  C   UNL A   1      43.162  21.371  25.635  1.00  0.00    -0.018 A 
ATOM     20  C   UNL A   1      43.407  18.834  25.756  1.00  0.00     0.047 C 
ATOM     21  C   UNL A   1      44.538  21.561  25.047  1.00  0.00     0.018 C 
ATOM     22  C   UNL A   1      44.416  19.006  24.614  1.00  0.00     0.006 C 
ATOM     23  C   UNL A   1      45.387  22.442  25.965  1.00  0.00     0.013 C 
ATOM     24  C   UNL A   1      45.307  20.226  24.856  1.00  0.00     0.008 C 
ENDBRANCH   6   7
ENDBRANCH   5   6
ENDBRANCH   3   5
ENDBRANCH   2   3
ENDBRANCH   1   2
BRANCH   1  25
ATOM     25  C   UNL A   1      46.214  25.065  28.412  1.00  0.00     0.275 C 
BRANCH  25  26
ATOM     26  O   UNL A   1      45.972  25.472  29.753  1.00  0.00    -0.458 OA
BRANCH  26  27
ATOM     27  C   UNL A   1      44.817  24.979  30.250  1.00  0.00     0.338 C 
ATOM     28  O   UNL A   1      44.506  23.821  30.445  1.00  0.00    -0.246 OA
BRANCH  27  29
ATOM     29  C   UNL A   1      43.843  26.051  30.325  1.00  0.00     0.060 A 
ATOM     30  C   UNL A   1      42.914  26.185  29.294  1.00  0.00     0.016 A 
ATOM     31  C   UNL A   1      44.024  27.023  31.316  1.00  0.00     0.016 A 
ATOM     32  C   UNL A   1      42.159  27.339  29.244  1.00  0.00     0.010 A 
ATOM     33  C   UNL A   1      43.281  28.175  31.258  1.00  0.00     0.010 A 
ATOM     34  C   UNL A   1      42.372  28.330  30.210  1.00  0.00    -0.014 A 
BRANCH  34  35
ATOM     35  C   UNL A   1      41.533  29.509  30.172  1.00  0.00     0.031 A 
ATOM     36  C   UNL A   1      42.250  30.782  29.920  1.00  0.00     0.074 A 
ATOM     37  C   UNL A   1      40.193  29.445  30.158  1.00  0.00     0.049 A 
ATOM     38  N   UNL A   1      42.283  31.838  30.662  1.00  0.00    -0.248 NA
ATOM     39  C   UNL A   1      43.093  30.858  28.716  1.00  0.00     0.031 C 
ATOM     40  C   UNL A   1      39.350  28.256  30.024  1.00  0.00     0.029 A 
ATOM     41  N   UNL A   1      39.307  30.475  30.122  1.00  0.00    -0.354 N 
ATOM     42  C   UNL A   1      43.034  32.772  29.957  1.00  0.00     0.074 A 
ATOM     43  C   UNL A   1      43.603  32.082  28.828  1.00  0.00     0.031 C 
ATOM     44  C   UNL A   1      38.097  28.647  29.698  1.00  0.00     0.029 A 
ATOM     45  C   UNL A   1      38.035  30.099  29.733  1.00  0.00     0.049 A 
ATOM     46  H   UNL A   1      39.549  31.402  30.352  1.00  0.00     0.167 HD
ATOM     47  C   UNL A   1      42.984  34.102  30.236  1.00  0.00     0.031 A 
ATOM     48  C   UNL A   1      37.027  30.934  29.392  1.00  0.00     0.031 A 
ATOM     49  C   UNL A   1      42.400  34.371  31.520  1.00  0.00     0.049 A 
ATOM     50  C   UNL A   1      37.344  32.279  29.929  1.00  0.00     0.074 A 
ATOM     51  C   UNL A   1      42.727  34.066  32.825  1.00  0.00     0.029 A 
ATOM     52  N   UNL A   1      41.090  34.782  31.538  1.00  0.00    -0.354 N 
ATOM     53  N   UNL A   1      37.370  32.566  31.198  1.00  0.00    -0.248 NA
ATOM     54  C   UNL A   1      37.994  33.250  29.062  1.00  0.00     0.031 C 
ATOM     55  C   UNL A   1      41.478  33.887  33.489  1.00  0.00     0.029 A 
ATOM     56  C   UNL A   1      40.464  34.108  32.554  1.00  0.00     0.049 A 
ATOM     57  H   UNL A   1      40.677  35.438  30.934  1.00  0.00     0.167 HD
ATOM     58  C   UNL A   1      38.375  33.513  31.332  1.00  0.00     0.074 A 
ATOM     59  C   UNL A   1      38.616  33.997  29.979  1.00  0.00     0.031 C 
ATOM     60  C   UNL A   1      39.107  33.606  32.482  1.00  0.00     0.031 A 
BRANCH  47  61
ATOM     61  C   UNL A   1      43.132  35.171  29.187  1.00  0.00    -0.014 A 
ATOM     62  C   UNL A   1      42.078  35.390  28.285  1.00  0.00     0.009 A 
ATOM     63  C   UNL A   1      44.366  35.778  28.883  1.00  0.00     0.009 A 
ATOM     64  C   UNL A   1      42.265  36.137  27.115  1.00  0.00     0.001 A 
ATOM     65  C   UNL A   1      44.544  36.562  27.741  1.00  0.00     0.001 A 
ATOM     66  C   UNL A   1      43.499  36.720  26.843  1.00  0.00     0.000 A 
ENDBRANCH  47  61
BRANCH  48  67
ATOM     67  C   UNL A   1      35.932  30.687  28.436  1.00  0.00    -0.014 A 
ATOM     68  C   UNL A   1      35.869  29.490  27.710  1.00  0.00     0.009 A 
ATOM     69  C   UNL A   1      34.809  31.536  28.402  1.00  0.00     0.009 A 
ATOM     70  C   UNL A   1      34.714  29.145  26.997  1.00  0.00     0.001 A 
ATOM     71  C   UNL A   1      33.662  31.198  27.682  1.00  0.00     0.001 A 
ATOM     72  C   UNL A   1      33.610  29.993  26.991  1.00  0.00     0.000 A 
ENDBRANCH  48  67
BRANCH  60  73
ATOM     73  C   UNL A   1      38.612  32.854  33.692  1.00  0.00    -0.014 A 
ATOM     74  C   UNL A   1      38.901  31.494  33.903  1.00  0.00     0.009 A 
ATOM     75  C   UNL A   1      37.987  33.569  34.724  1.00  0.00     0.009 A 
ATOM     76  C   UNL A   1      38.548  30.863  35.099  1.00  0.00     0.001 A 
ATOM     77  C   UNL A   1      37.653  32.943  35.928  1.00  0.00     0.001 A 
ATOM     78  C   UNL A   1      37.930  31.590  36.113  1.00  0.00     0.000 A 
ENDBRANCH  60  73
ENDBRANCH  34  35
ENDBRANCH  27  29
ENDBRANCH  26  27
ENDBRANCH  25  26
ENDBRANCH   1  25
TORSDOF 13
ENDMDL
MODEL 3
REMARK VINA RESULT:     -11.5      3.423      8.001
REMARK SMILES Cc1nc2sc3c(c2c2nc(CCC(=O)OCCOC(=O)c4ccc(-c5c6nc(c(-c7ccccc7)c7ccc([nH]7)c(-c7ccccc7)c7nc(c(-c8ccccc8)c8ccc5[nH]8)C=C7)C=C6)cc4)nn12)[C@@H](C)CCC3
REMARK SMILES IDX 17 1 16 2 14 3 15 4 13 5 12 6 11 7 1 8 2 9 3 10 71 11 4 12
REMARK SMILES IDX 9 13 70 14 5 15 8 16 10 17 6 18 7 19 76 20 72 21 75 22 73 23
REMARK SMILES IDX 74 24 18 25 19 26 20 27 21 28 22 29 23 30 69 31 24 32 68 33
REMARK SMILES IDX 25 34 26 35 27 36 62 37 28 38 67 39 61 40 63 41 29 42 66 43
REMARK SMILES IDX 60 44 59 45 30 47 52 48 37 49 51 50 38 51 41 52 50 53 64 54
REMARK SMILES IDX 39 55 40 56 49 58 65 59 42 60 31 61 32 62 36 63 33 64 35 65
REMARK SMILES IDX 34 66 53 67 54 68 58 69 55 70 57 71 56 72 43 73 44 74 48 75
REMARK SMILES IDX 45 76 47 77 46 78
REMARK H PARENT 63 46 41 57
REMARK Flexibility Score: inf
ROOT
ATOM      1  C   UNL A   1      33.067  29.547  26.561  1.00  0.00     0.274 C 
ENDROOT
BRANCH   1   2
ATOM      2  O   UNL A   1      33.070  29.193  25.165  1.00  0.00    -0.462 OA
BRANCH   2   3
ATOM      3  C   UNL A   1      32.778  27.903  24.862  1.00  0.00     0.306 C 
ATOM      4  O   UNL A   1      32.070  27.542  23.929  1.00  0.00    -0.252 OA
BRANCH   3   5
ATOM      5  C   UNL A   1      33.366  26.948  25.868  1.00  0.00     0.131 C 
BRANCH   5   6
ATOM      6  C   UNL A   1      32.707  25.576  25.888  1.00  0.00     0.091 C 
BRANCH   6   7
ATOM      7  C   UNL A   1      33.676  24.450  25.763  1.00  0.00     0.152 A 
ATOM      8  C   UNL A   1      37.812  24.079  26.060  1.00  0.00     0.090 C 
ATOM      9  C   UNL A   1      36.813  22.995  25.788  1.00  0.00     0.131 A 
ATOM     10  N   UNL A   1      37.187  21.753  25.603  1.00  0.00    -0.222 NA
ATOM     11  N   UNL A   1      35.473  23.394  25.744  1.00  0.00    -0.199 N 
ATOM     12  C   UNL A   1      36.183  20.864  25.302  1.00  0.00     0.129 A 
ATOM     13  C   UNL A   1      34.456  22.523  25.459  1.00  0.00     0.168 A 
ATOM     14  N   UNL A   1      34.996  24.642  25.928  1.00  0.00    -0.150 NA
ATOM     15  S   UNL A   1      36.512  19.214  24.997  1.00  0.00    -0.120 S 
ATOM     16  C   UNL A   1      34.825  21.120  25.171  1.00  0.00     0.060 A 
ATOM     17  N   UNL A   1      33.308  23.154  25.477  1.00  0.00    -0.211 NA
ATOM     18  C   UNL A   1      34.881  18.891  24.622  1.00  0.00     0.011 A 
ATOM     19  C   UNL A   1      34.067  20.007  24.711  1.00  0.00    -0.018 A 
ATOM     20  C   UNL A   1      34.425  17.536  24.184  1.00  0.00     0.047 C 
ATOM     21  C   UNL A   1      32.613  19.970  24.309  1.00  0.00     0.018 C 
ATOM     22  C   UNL A   1      32.919  17.397  24.438  1.00  0.00     0.006 C 
ATOM     23  C   UNL A   1      32.356  20.951  23.165  1.00  0.00     0.013 C 
ATOM     24  C   UNL A   1      32.153  18.569  23.822  1.00  0.00     0.008 C 
ENDBRANCH   6   7
ENDBRANCH   5   6
ENDBRANCH   3   5
ENDBRANCH   2   3
ENDBRANCH   1   2
BRANCH   1  25
ATOM     25  C   UNL A   1      33.811  30.847  26.842  1.00  0.00     0.275 C 
BRANCH  25  26
ATOM     26  O   UNL A   1      34.416  30.865  28.129  1.00  0.00    -0.458 OA
BRANCH  26  27
ATOM     27  C   UNL A   1      35.547  31.602  28.166  1.00  0.00     0.338 C 
ATOM     28  O   UNL A   1      35.746  32.713  27.715  1.00  0.00    -0.246 OA
BRANCH  27  29
ATOM     29  C   UNL A   1      36.633  30.770  28.647  1.00  0.00     0.060 A 
ATOM     30  C   UNL A   1      37.810  31.385  29.073  1.00  0.00     0.016 A 
ATOM     31  C   UNL A   1      36.525  29.387  28.456  1.00  0.00     0.016 A 
ATOM     32  C   UNL A   1      38.917  30.592  29.293  1.00  0.00     0.010 A 
ATOM     33  C   UNL A   1      37.630  28.601  28.664  1.00  0.00     0.010 A 
ATOM     34  C   UNL A   1      38.819  29.214  29.059  1.00  0.00    -0.014 A 
BRANCH  34  35
ATOM     35  C   UNL A   1      39.975  28.392  29.347  1.00  0.00     0.031 A 
ATOM     36  C   UNL A   1      40.329  28.285  30.782  1.00  0.00     0.074 A 
ATOM     37  C   UNL A   1      40.562  27.617  28.421  1.00  0.00     0.049 A 
ATOM     38  N   UNL A   1      41.442  28.603  31.354  1.00  0.00    -0.248 NA
ATOM     39  C   UNL A   1      39.279  27.828  31.707  1.00  0.00     0.031 C 
ATOM     40  C   UNL A   1      40.100  27.331  27.062  1.00  0.00     0.029 A 
ATOM     41  N   UNL A   1      41.643  26.807  28.572  1.00  0.00    -0.354 N 
ATOM     42  C   UNL A   1      41.293  28.255  32.692  1.00  0.00     0.074 A 
ATOM     43  C   UNL A   1      39.910  27.894  32.877  1.00  0.00     0.031 C 
ATOM     44  C   UNL A   1      40.765  26.250  26.597  1.00  0.00     0.029 A 
ATOM     45  C   UNL A   1      41.775  25.865  27.570  1.00  0.00     0.049 A 
ATOM     46  H   UNL A   1      42.274  26.886  29.324  1.00  0.00     0.167 HD
ATOM     47  C   UNL A   1      42.358  28.097  33.523  1.00  0.00     0.031 A 
ATOM     48  C   UNL A   1      42.607  24.800  27.582  1.00  0.00     0.031 A 
ATOM     49  C   UNL A   1      43.558  28.679  32.992  1.00  0.00     0.049 A 
ATOM     50  C   UNL A   1      43.657  25.050  28.598  1.00  0.00     0.074 A 
ATOM     51  C   UNL A   1      43.959  29.954  32.650  1.00  0.00     0.029 A 
ATOM     52  N   UNL A   1      44.463  27.824  32.412  1.00  0.00    -0.354 N 
ATOM     53  N   UNL A   1      44.571  25.970  28.486  1.00  0.00    -0.248 NA
ATOM     54  C   UNL A   1      43.486  24.509  29.938  1.00  0.00     0.031 C 
ATOM     55  C   UNL A   1      44.820  29.785  31.528  1.00  0.00     0.029 A 
ATOM     56  C   UNL A   1      44.906  28.417  31.258  1.00  0.00     0.049 A 
ATOM     57  H   UNL A   1      44.743  26.948  32.760  1.00  0.00     0.167 HD
ATOM     58  C   UNL A   1      44.797  26.414  29.781  1.00  0.00     0.074 A 
ATOM     59  C   UNL A   1      44.216  25.385  30.635  1.00  0.00     0.031 C 
ATOM     60  C   UNL A   1      45.178  27.701  30.029  1.00  0.00     0.031 A 
BRANCH  47  61
ATOM     61  C   UNL A   1      42.384  27.099  34.648  1.00  0.00    -0.014 A 
ATOM     62  C   UNL A   1      42.707  25.761  34.364  1.00  0.00     0.009 A 
ATOM     63  C   UNL A   1      41.843  27.365  35.920  1.00  0.00     0.009 A 
ATOM     64  C   UNL A   1      42.454  24.740  35.287  1.00  0.00     0.001 A 
ATOM     65  C   UNL A   1      41.631  26.355  36.862  1.00  0.00     0.001 A 
ATOM     66  C   UNL A   1      41.914  25.037  36.535  1.00  0.00     0.000 A 
ENDBRANCH  47  61
BRANCH  48  67
ATOM     67  C   UNL A   1      42.411  23.489  26.936  1.00  0.00    -0.014 A 
ATOM     68  C   UNL A   1      43.444  22.889  26.204  1.00  0.00     0.009 A 
ATOM     69  C   UNL A   1      41.275  22.711  27.229  1.00  0.00     0.009 A 
ATOM     70  C   UNL A   1      43.353  21.549  25.803  1.00  0.00     0.001 A 
ATOM     71  C   UNL A   1      41.179  21.380  26.821  1.00  0.00     0.001 A 
ATOM     72  C   UNL A   1      42.226  20.794  26.119  1.00  0.00     0.000 A 
ENDBRANCH  48  67
BRANCH  60  73
ATOM     73  C   UNL A   1      45.618  28.542  28.856  1.00  0.00    -0.014 A 
ATOM     74  C   UNL A   1      46.958  28.600  28.432  1.00  0.00     0.009 A 
ATOM     75  C   UNL A   1      44.640  29.154  28.058  1.00  0.00     0.009 A 
ATOM     76  C   UNL A   1      47.310  29.275  27.260  1.00  0.00     0.001 A 
ATOM     77  C   UNL A   1      44.991  29.810  26.875  1.00  0.00     0.001 A 
ATOM     78  C   UNL A   1      46.326  29.875  26.480  1.00  0.00     0.000 A 
ENDBRANCH  60  73
ENDBRANCH  34  35
ENDBRANCH  27  29
ENDBRANCH  26  27
ENDBRANCH  25  26
ENDBRANCH   1  25
TORSDOF 13
ENDMDL
