MODEL 1
REMARK VINA RESULT:      -9.7      0.000      0.000
REMARK SMILES O=C(OCCOC(=O)c1cc(-c2cccc(Cl)c2)ccc1Cl)c1ccc(-c2c3nc(c(-c4ccccc4)c4ccc([nH]4)c(-c4ccccc4)c4nc(c(-c5ccccc5)c5ccc2[nH]5)C=C4)C=C3)cc1
REMARK SMILES IDX 4 1 3 2 2 3 1 4 23 5 24 6 70 7 25 8 69 9 26 10 27 11 28 12
REMARK SMILES IDX 63 13 29 14 68 15 62 16 64 17 30 18 67 19 61 20 60 21 31 23
REMARK SMILES IDX 53 24 38 25 52 26 39 27 42 28 51 29 65 30 40 31 41 32 50 34
REMARK SMILES IDX 66 35 43 36 32 37 33 38 37 39 34 40 36 41 35 42 54 43 55 44
REMARK SMILES IDX 59 45 56 46 58 47 57 48 44 49 45 50 49 51 46 52 48 53 47 54
REMARK SMILES IDX 5 55 6 56 7 57 8 58 9 59 10 60 21 61 11 62 20 63 22 64 19 65
REMARK SMILES IDX 12 66 13 67 18 68 14 69 16 70 15 71 17 72
REMARK H PARENT 64 22 42 33
REMARK Flexibility Score: inf
ROOT
ATOM      1  C   UNL A   1      33.312  37.161  30.011  1.00  0.00     0.275 C 
ENDROOT
BRANCH   1   2
ATOM      2  O   UNL A   1      32.334  36.731  30.964  1.00  0.00    -0.458 OA
BRANCH   2   3
ATOM      3  C   UNL A   1      32.505  36.287  32.226  1.00  0.00     0.338 C 
ATOM      4  O   UNL A   1      31.858  36.833  33.120  1.00  0.00    -0.246 OA
BRANCH   3   5
ATOM      5  C   UNL A   1      33.516  35.250  32.642  1.00  0.00     0.060 A 
ATOM      6  C   UNL A   1      33.294  33.951  33.112  1.00  0.00     0.016 A 
ATOM      7  C   UNL A   1      34.850  35.643  32.478  1.00  0.00     0.016 A 
ATOM      8  C   UNL A   1      34.351  33.053  33.325  1.00  0.00     0.010 A 
ATOM      9  C   UNL A   1      35.905  34.747  32.634  1.00  0.00     0.010 A 
ATOM     10  C   UNL A   1      35.664  33.443  33.078  1.00  0.00    -0.014 A 
BRANCH  10  11
ATOM     11  C   UNL A   1      36.821  32.616  33.487  1.00  0.00     0.031 A 
ATOM     12  C   UNL A   1      37.604  33.087  34.678  1.00  0.00     0.074 A 
ATOM     13  C   UNL A   1      37.214  31.533  32.796  1.00  0.00     0.049 A 
ATOM     14  N   UNL A   1      38.749  32.665  35.139  1.00  0.00    -0.248 NA
ATOM     15  C   UNL A   1      37.014  34.202  35.441  1.00  0.00     0.031 C 
ATOM     16  C   UNL A   1      36.491  30.926  31.683  1.00  0.00     0.029 A 
ATOM     17  N   UNL A   1      38.353  30.775  32.901  1.00  0.00    -0.354 N 
ATOM     18  C   UNL A   1      39.011  33.465  36.241  1.00  0.00     0.074 A 
ATOM     19  C   UNL A   1      37.969  34.461  36.314  1.00  0.00     0.031 C 
ATOM     20  C   UNL A   1      37.247  29.957  31.138  1.00  0.00     0.029 A 
ATOM     21  C   UNL A   1      38.501  29.869  31.877  1.00  0.00     0.049 A 
ATOM     22  H   UNL A   1      39.000  30.871  33.637  1.00  0.00     0.167 HD
ATOM     23  C   UNL A   1      40.006  33.348  37.148  1.00  0.00     0.031 A 
ATOM     24  C   UNL A   1      39.544  29.076  31.564  1.00  0.00     0.031 A 
ATOM     25  C   UNL A   1      41.037  32.358  37.056  1.00  0.00     0.049 A 
ATOM     26  C   UNL A   1      40.718  29.035  32.502  1.00  0.00     0.074 A 
ATOM     27  C   UNL A   1      42.079  32.108  37.927  1.00  0.00     0.029 A 
ATOM     28  N   UNL A   1      41.155  31.456  36.007  1.00  0.00    -0.354 N 
ATOM     29  N   UNL A   1      40.928  29.749  33.583  1.00  0.00    -0.248 NA
ATOM     30  C   UNL A   1      41.767  28.048  32.217  1.00  0.00     0.031 C 
ATOM     31  C   UNL A   1      42.864  31.092  37.372  1.00  0.00     0.029 A 
ATOM     32  C   UNL A   1      42.271  30.663  36.193  1.00  0.00     0.049 A 
ATOM     33  H   UNL A   1      40.536  31.391  35.245  1.00  0.00     0.167 HD
ATOM     34  C   UNL A   1      42.093  29.248  34.149  1.00  0.00     0.074 A 
ATOM     35  C   UNL A   1      42.559  28.192  33.272  1.00  0.00     0.031 C 
ATOM     36  C   UNL A   1      42.700  29.608  35.307  1.00  0.00     0.031 A 
BRANCH  23  37
ATOM     37  C   UNL A   1      40.000  34.340  38.278  1.00  0.00    -0.014 A 
ATOM     38  C   UNL A   1      39.272  34.096  39.457  1.00  0.00     0.009 A 
ATOM     39  C   UNL A   1      40.652  35.571  38.126  1.00  0.00     0.009 A 
ATOM     40  C   UNL A   1      39.130  35.096  40.422  1.00  0.00     0.001 A 
ATOM     41  C   UNL A   1      40.542  36.554  39.111  1.00  0.00     0.001 A 
ATOM     42  C   UNL A   1      39.764  36.325  40.246  1.00  0.00     0.000 A 
ENDBRANCH  23  37
BRANCH  24  43
ATOM     43  C   UNL A   1      39.500  28.242  30.333  1.00  0.00    -0.014 A 
ATOM     44  C   UNL A   1      39.944  28.746  29.102  1.00  0.00     0.009 A 
ATOM     45  C   UNL A   1      39.034  26.918  30.391  1.00  0.00     0.009 A 
ATOM     46  C   UNL A   1      39.907  27.949  27.953  1.00  0.00     0.001 A 
ATOM     47  C   UNL A   1      39.016  26.117  29.245  1.00  0.00     0.001 A 
ATOM     48  C   UNL A   1      39.448  26.635  28.026  1.00  0.00     0.000 A 
ENDBRANCH  24  43
BRANCH  36  49
ATOM     49  C   UNL A   1      43.893  28.809  35.744  1.00  0.00    -0.014 A 
ATOM     50  C   UNL A   1      45.200  29.224  35.458  1.00  0.00     0.009 A 
ATOM     51  C   UNL A   1      43.693  27.682  36.557  1.00  0.00     0.009 A 
ATOM     52  C   UNL A   1      46.287  28.517  35.975  1.00  0.00     0.001 A 
ATOM     53  C   UNL A   1      44.779  26.996  37.096  1.00  0.00     0.001 A 
ATOM     54  C   UNL A   1      46.075  27.412  36.802  1.00  0.00     0.000 A 
ENDBRANCH  36  49
ENDBRANCH  10  11
ENDBRANCH   3   5
ENDBRANCH   2   3
ENDBRANCH   1   2
BRANCH   1  55
ATOM     55  C   UNL A   1      33.296  36.362  28.704  1.00  0.00     0.275 C 
BRANCH  55  56
ATOM     56  O   UNL A   1      34.418  35.472  28.560  1.00  0.00    -0.458 OA
BRANCH  56  57
ATOM     57  C   UNL A   1      34.286  34.224  29.089  1.00  0.00     0.339 C 
ATOM     58  O   UNL A   1      33.281  33.739  29.563  1.00  0.00    -0.246 OA
BRANCH  57  59
ATOM     59  C   UNL A   1      35.546  33.465  28.899  1.00  0.00     0.079 A 
ATOM     60  C   UNL A   1      36.744  34.004  29.425  1.00  0.00     0.026 A 
ATOM     61  C   UNL A   1      35.573  32.253  28.206  1.00  0.00     0.055 A 
ATOM     62  C   UNL A   1      37.963  33.303  29.325  1.00  0.00    -0.017 A 
ATOM     63  C   UNL A   1      36.777  31.560  28.089  1.00  0.00     0.022 A 
ATOM     64  Cl  UNL A   1      34.183  31.565  27.444  1.00  0.00    -0.083 Cl
ATOM     65  C   UNL A   1      37.944  32.062  28.668  1.00  0.00     0.010 A 
BRANCH  62  66
ATOM     66  C   UNL A   1      39.242  33.803  29.876  1.00  0.00    -0.017 A 
ATOM     67  C   UNL A   1      40.080  34.618  29.095  1.00  0.00     0.009 A 
ATOM     68  C   UNL A   1      39.720  33.425  31.139  1.00  0.00     0.029 A 
ATOM     69  C   UNL A   1      41.345  35.013  29.543  1.00  0.00     0.002 A 
ATOM     70  C   UNL A   1      40.993  33.799  31.580  1.00  0.00     0.041 A 
ATOM     71  C   UNL A   1      41.809  34.593  30.786  1.00  0.00     0.020 A 
ATOM     72  Cl  UNL A   1      41.563  33.241  33.106  1.00  0.00    -0.084 Cl
ENDBRANCH  62  66
ENDBRANCH  57  59
ENDBRANCH  56  57
ENDBRANCH  55  56
ENDBRANCH   1  55
TORSDOF 12
ENDMDL
MODEL 2
REMARK VINA RESULT:      -9.6      2.022      4.002
REMARK SMILES O=C(OCCOC(=O)c1cc(-c2cccc(Cl)c2)ccc1Cl)c1ccc(-c2c3nc(c(-c4ccccc4)c4ccc([nH]4)c(-c4ccccc4)c4nc(c(-c5ccccc5)c5ccc2[nH]5)C=C4)C=C3)cc1
REMARK SMILES IDX 4 1 3 2 2 3 1 4 23 5 24 6 70 7 25 8 69 9 26 10 27 11 28 12
REMARK SMILES IDX 63 13 29 14 68 15 62 16 64 17 30 18 67 19 61 20 60 21 31 23
REMARK SMILES IDX 53 24 38 25 52 26 39 27 42 28 51 29 65 30 40 31 41 32 50 34
REMARK SMILES IDX 66 35 43 36 32 37 33 38 37 39 34 40 36 41 35 42 54 43 55 44
REMARK SMILES IDX 59 45 56 46 58 47 57 48 44 49 45 50 49 51 46 52 48 53 47 54
REMARK SMILES IDX 5 55 6 56 7 57 8 58 9 59 10 60 21 61 11 62 20 63 22 64 19 65
REMARK SMILES IDX 12 66 13 67 18 68 14 69 16 70 15 71 17 72
REMARK H PARENT 64 22 42 33
REMARK Flexibility Score: inf
ROOT
ATOM      1  C   UNL A   1      33.101  36.402  29.911  1.00  0.00     0.275 C 
ENDROOT
BRANCH   1   2
ATOM      2  O   UNL A   1      32.443  36.673  31.153  1.00  0.00    -0.458 OA
BRANCH   2   3
ATOM      3  C   UNL A   1      32.836  36.384  32.411  1.00  0.00     0.338 C 
ATOM      4  O   UNL A   1      32.422  37.104  33.321  1.00  0.00    -0.246 OA
BRANCH   3   5
ATOM      5  C   UNL A   1      33.835  35.319  32.775  1.00  0.00     0.060 A 
ATOM      6  C   UNL A   1      33.600  34.014  33.223  1.00  0.00     0.016 A 
ATOM      7  C   UNL A   1      35.172  35.687  32.580  1.00  0.00     0.016 A 
ATOM      8  C   UNL A   1      34.644  33.090  33.387  1.00  0.00     0.010 A 
ATOM      9  C   UNL A   1      36.213  34.766  32.686  1.00  0.00     0.010 A 
ATOM     10  C   UNL A   1      35.956  33.458  33.110  1.00  0.00    -0.014 A 
BRANCH  10  11
ATOM     11  C   UNL A   1      37.107  32.600  33.468  1.00  0.00     0.031 A 
ATOM     12  C   UNL A   1      37.896  32.993  34.682  1.00  0.00     0.074 A 
ATOM     13  C   UNL A   1      37.490  31.556  32.713  1.00  0.00     0.049 A 
ATOM     14  N   UNL A   1      39.038  32.535  35.116  1.00  0.00    -0.248 NA
ATOM     15  C   UNL A   1      37.316  34.067  35.511  1.00  0.00     0.031 C 
ATOM     16  C   UNL A   1      36.761  31.021  31.568  1.00  0.00     0.029 A 
ATOM     17  N   UNL A   1      38.623  30.783  32.771  1.00  0.00    -0.354 N 
ATOM     18  C   UNL A   1      39.308  33.268  36.263  1.00  0.00     0.074 A 
ATOM     19  C   UNL A   1      38.275  34.266  36.396  1.00  0.00     0.031 C 
ATOM     20  C   UNL A   1      37.508  30.080  30.966  1.00  0.00     0.029 A 
ATOM     21  C   UNL A   1      38.762  29.938  31.696  1.00  0.00     0.049 A 
ATOM     22  H   UNL A   1      39.272  30.831  33.510  1.00  0.00     0.167 HD
ATOM     23  C   UNL A   1      40.303  33.089  37.160  1.00  0.00     0.031 A 
ATOM     24  C   UNL A   1      39.798  29.156  31.334  1.00  0.00     0.031 A 
ATOM     25  C   UNL A   1      41.326  32.098  37.007  1.00  0.00     0.049 A 
ATOM     26  C   UNL A   1      40.973  29.050  32.266  1.00  0.00     0.074 A 
ATOM     27  C   UNL A   1      42.367  31.788  37.860  1.00  0.00     0.029 A 
ATOM     28  N   UNL A   1      41.435  31.258  35.907  1.00  0.00    -0.354 N 
ATOM     29  N   UNL A   1      41.190  29.698  33.387  1.00  0.00    -0.248 NA
ATOM     30  C   UNL A   1      42.013  28.074  31.922  1.00  0.00     0.031 C 
ATOM     31  C   UNL A   1      43.143  30.800  37.245  1.00  0.00     0.029 A 
ATOM     32  C   UNL A   1      42.545  30.446  36.043  1.00  0.00     0.049 A 
ATOM     33  H   UNL A   1      40.814  31.242  35.143  1.00  0.00     0.167 HD
ATOM     34  C   UNL A   1      42.352  29.155  33.921  1.00  0.00     0.074 A 
ATOM     35  C   UNL A   1      42.808  28.148  32.983  1.00  0.00     0.031 C 
ATOM     36  C   UNL A   1      42.963  29.441  35.097  1.00  0.00     0.031 A 
BRANCH  23  37
ATOM     37  C   UNL A   1      40.307  34.013  38.345  1.00  0.00    -0.014 A 
ATOM     38  C   UNL A   1      39.525  33.741  39.483  1.00  0.00     0.009 A 
ATOM     39  C   UNL A   1      41.028  35.214  38.290  1.00  0.00     0.009 A 
ATOM     40  C   UNL A   1      39.399  34.689  40.501  1.00  0.00     0.001 A 
ATOM     41  C   UNL A   1      40.933  36.142  39.327  1.00  0.00     0.001 A 
ATOM     42  C   UNL A   1      40.103  35.890  40.420  1.00  0.00     0.000 A 
ENDBRANCH  23  37
BRANCH  24  43
ATOM     43  C   UNL A   1      39.745  28.396  30.057  1.00  0.00    -0.014 A 
ATOM     44  C   UNL A   1      40.130  28.990  28.847  1.00  0.00     0.009 A 
ATOM     45  C   UNL A   1      39.331  27.054  30.048  1.00  0.00     0.009 A 
ATOM     46  C   UNL A   1      40.086  28.263  27.652  1.00  0.00     0.001 A 
ATOM     47  C   UNL A   1      39.306  26.323  28.856  1.00  0.00     0.001 A 
ATOM     48  C   UNL A   1      39.679  26.930  27.659  1.00  0.00     0.000 A 
ENDBRANCH  24  43
BRANCH  36  49
ATOM     49  C   UNL A   1      44.151  28.608  35.484  1.00  0.00    -0.014 A 
ATOM     50  C   UNL A   1      45.453  28.968  35.113  1.00  0.00     0.009 A 
ATOM     51  C   UNL A   1      43.957  27.507  36.334  1.00  0.00     0.009 A 
ATOM     52  C   UNL A   1      46.542  28.232  35.584  1.00  0.00     0.001 A 
ATOM     53  C   UNL A   1      45.048  26.793  36.826  1.00  0.00     0.001 A 
ATOM     54  C   UNL A   1      46.339  27.154  36.449  1.00  0.00     0.000 A 
ENDBRANCH  36  49
ENDBRANCH  10  11
ENDBRANCH   3   5
ENDBRANCH   2   3
ENDBRANCH   1   2
BRANCH   1  55
ATOM     55  C   UNL A   1      32.812  35.006  29.349  1.00  0.00     0.275 C 
BRANCH  55  56
ATOM     56  O   UNL A   1      33.973  34.159  29.288  1.00  0.00    -0.458 OA
BRANCH  56  57
ATOM     57  C   UNL A   1      34.531  33.966  28.061  1.00  0.00     0.339 C 
ATOM     58  O   UNL A   1      34.853  34.825  27.267  1.00  0.00    -0.246 OA
BRANCH  57  59
ATOM     59  C   UNL A   1      34.813  32.524  27.860  1.00  0.00     0.079 A 
ATOM     60  C   UNL A   1      33.758  31.685  27.432  1.00  0.00     0.026 A 
ATOM     61  C   UNL A   1      36.079  31.985  28.098  1.00  0.00     0.055 A 
ATOM     62  C   UNL A   1      33.976  30.317  27.169  1.00  0.00    -0.017 A 
ATOM     63  C   UNL A   1      36.301  30.630  27.857  1.00  0.00     0.022 A 
ATOM     64  Cl  UNL A   1      37.402  32.908  28.717  1.00  0.00    -0.083 Cl
ATOM     65  C   UNL A   1      35.275  29.819  27.369  1.00  0.00     0.010 A 
BRANCH  62  66
ATOM     66  C   UNL A   1      32.920  29.395  26.696  1.00  0.00    -0.017 A 
ATOM     67  C   UNL A   1      32.550  28.283  27.474  1.00  0.00     0.009 A 
ATOM     68  C   UNL A   1      32.312  29.523  25.439  1.00  0.00     0.029 A 
ATOM     69  C   UNL A   1      31.638  27.332  27.005  1.00  0.00     0.002 A 
ATOM     70  C   UNL A   1      31.418  28.562  24.959  1.00  0.00     0.041 A 
ATOM     71  C   UNL A   1      31.078  27.464  25.738  1.00  0.00     0.020 A 
ATOM     72  Cl  UNL A   1      30.762  28.725  23.375  1.00  0.00    -0.084 Cl
ENDBRANCH  62  66
ENDBRANCH  57  59
ENDBRANCH  56  57
ENDBRANCH  55  56
ENDBRANCH   1  55
TORSDOF 12
ENDMDL
MODEL 3
REMARK VINA RESULT:      -9.5      3.865      6.727
REMARK SMILES O=C(OCCOC(=O)c1cc(-c2cccc(Cl)c2)ccc1Cl)c1ccc(-c2c3nc(c(-c4ccccc4)c4ccc([nH]4)c(-c4ccccc4)c4nc(c(-c5ccccc5)c5ccc2[nH]5)C=C4)C=C3)cc1
REMARK SMILES IDX 4 1 3 2 2 3 1 4 23 5 24 6 70 7 25 8 69 9 26 10 27 11 28 12
REMARK SMILES IDX 63 13 29 14 68 15 62 16 64 17 30 18 67 19 61 20 60 21 31 23
REMARK SMILES IDX 53 24 38 25 52 26 39 27 42 28 51 29 65 30 40 31 41 32 50 34
REMARK SMILES IDX 66 35 43 36 32 37 33 38 37 39 34 40 36 41 35 42 54 43 55 44
REMARK SMILES IDX 59 45 56 46 58 47 57 48 44 49 45 50 49 51 46 52 48 53 47 54
REMARK SMILES IDX 5 55 6 56 7 57 8 58 9 59 10 60 21 61 11 62 20 63 22 64 19 65
REMARK SMILES IDX 12 66 13 67 18 68 14 69 16 70 15 71 17 72
REMARK H PARENT 64 22 42 33
REMARK Flexibility Score: inf
ROOT
ATOM      1  C   UNL A   1      34.952  33.384  28.490  1.00  0.00     0.275 C 
ENDROOT
BRANCH   1   2
ATOM      2  O   UNL A   1      34.223  32.204  28.135  1.00  0.00    -0.458 OA
BRANCH   2   3
ATOM      3  C   UNL A   1      34.684  30.981  27.801  1.00  0.00     0.338 C 
ATOM      4  O   UNL A   1      33.965  30.268  27.100  1.00  0.00    -0.246 OA
BRANCH   3   5
ATOM      5  C   UNL A   1      35.963  30.376  28.316  1.00  0.00     0.060 A 
ATOM      6  C   UNL A   1      36.207  29.763  29.550  1.00  0.00     0.016 A 
ATOM      7  C   UNL A   1      37.022  30.393  27.400  1.00  0.00     0.016 A 
ATOM      8  C   UNL A   1      37.422  29.118  29.827  1.00  0.00     0.010 A 
ATOM      9  C   UNL A   1      38.214  29.711  27.640  1.00  0.00     0.010 A 
ATOM     10  C   UNL A   1      38.431  29.080  28.869  1.00  0.00    -0.014 A 
BRANCH  10  11
ATOM     11  C   UNL A   1      39.797  28.607  29.183  1.00  0.00     0.031 A 
ATOM     12  C   UNL A   1      40.758  29.621  29.731  1.00  0.00     0.074 A 
ATOM     13  C   UNL A   1      40.201  27.351  28.927  1.00  0.00     0.049 A 
ATOM     14  N   UNL A   1      42.045  29.528  29.921  1.00  0.00    -0.248 NA
ATOM     15  C   UNL A   1      40.180  30.927  30.098  1.00  0.00     0.031 C 
ATOM     16  C   UNL A   1      39.346  26.256  28.481  1.00  0.00     0.029 A 
ATOM     17  N   UNL A   1      41.456  26.795  28.960  1.00  0.00    -0.354 N 
ATOM     18  C   UNL A   1      42.424  30.763  30.427  1.00  0.00     0.074 A 
ATOM     19  C   UNL A   1      41.261  31.617  30.412  1.00  0.00     0.031 C 
ATOM     20  C   UNL A   1      40.109  25.190  28.182  1.00  0.00     0.029 A 
ATOM     21  C   UNL A   1      41.506  25.528  28.430  1.00  0.00     0.049 A 
ATOM     22  H   UNL A   1      42.243  27.260  29.328  1.00  0.00     0.167 HD
ATOM     23  C   UNL A   1      43.628  31.138  30.916  1.00  0.00     0.031 A 
ATOM     24  C   UNL A   1      42.564  24.741  28.157  1.00  0.00     0.031 A 
ATOM     25  C   UNL A   1      44.775  30.280  30.916  1.00  0.00     0.049 A 
ATOM     26  C   UNL A   1      43.930  25.209  28.579  1.00  0.00     0.074 A 
ATOM     27  C   UNL A   1      46.040  30.523  31.414  1.00  0.00     0.029 A 
ATOM     28  N   UNL A   1      44.788  29.002  30.372  1.00  0.00    -0.354 N 
ATOM     29  N   UNL A   1      44.272  26.355  29.121  1.00  0.00    -0.248 NA
ATOM     30  C   UNL A   1      45.041  24.266  28.410  1.00  0.00     0.031 C 
ATOM     31  C   UNL A   1      46.836  29.413  31.116  1.00  0.00     0.029 A 
ATOM     32  C   UNL A   1      46.049  28.452  30.496  1.00  0.00     0.049 A 
ATOM     33  H   UNL A   1      44.014  28.554  29.960  1.00  0.00     0.167 HD
ATOM     34  C   UNL A   1      45.622  26.242  29.427  1.00  0.00     0.074 A 
ATOM     35  C   UNL A   1      46.040  24.928  28.979  1.00  0.00     0.031 C 
ATOM     36  C   UNL A   1      46.430  27.133  30.053  1.00  0.00     0.031 A 
BRANCH  23  37
ATOM     37  C   UNL A   1      43.723  32.539  31.452  1.00  0.00    -0.014 A 
ATOM     38  C   UNL A   1      44.111  33.610  30.626  1.00  0.00     0.009 A 
ATOM     39  C   UNL A   1      43.512  32.777  32.817  1.00  0.00     0.009 A 
ATOM     40  C   UNL A   1      44.366  34.870  31.173  1.00  0.00     0.001 A 
ATOM     41  C   UNL A   1      43.728  34.048  33.353  1.00  0.00     0.001 A 
ATOM     42  C   UNL A   1      44.176  35.086  32.536  1.00  0.00     0.000 A 
ENDBRANCH  23  37
BRANCH  24  43
ATOM     43  C   UNL A   1      42.363  23.431  27.484  1.00  0.00    -0.014 A 
ATOM     44  C   UNL A   1      42.563  23.288  26.103  1.00  0.00     0.009 A 
ATOM     45  C   UNL A   1      41.992  22.300  28.232  1.00  0.00     0.009 A 
ATOM     46  C   UNL A   1      42.380  22.048  25.483  1.00  0.00     0.001 A 
ATOM     47  C   UNL A   1      41.829  21.057  27.613  1.00  0.00     0.001 A 
ATOM     48  C   UNL A   1      42.018  20.933  26.238  1.00  0.00     0.000 A 
ENDBRANCH  24  43
BRANCH  36  49
ATOM     49  C   UNL A   1      47.832  26.699  30.366  1.00  0.00    -0.014 A 
ATOM     50  C   UNL A   1      48.146  26.030  31.557  1.00  0.00     0.009 A 
ATOM     51  C   UNL A   1      48.827  26.867  29.390  1.00  0.00     0.009 A 
ATOM     52  C   UNL A   1      49.438  25.543  31.765  1.00  0.00     0.001 A 
ATOM     53  C   UNL A   1      50.107  26.353  29.588  1.00  0.00     0.001 A 
ATOM     54  C   UNL A   1      50.412  25.694  30.777  1.00  0.00     0.000 A 
ENDBRANCH  36  49
ENDBRANCH  10  11
ENDBRANCH   3   5
ENDBRANCH   2   3
ENDBRANCH   1   2
BRANCH   1  55
ATOM     55  C   UNL A   1      34.687  33.868  29.919  1.00  0.00     0.275 C 
BRANCH  55  56
ATOM     56  O   UNL A   1      35.584  33.304  30.893  1.00  0.00    -0.458 OA
BRANCH  56  57
ATOM     57  C   UNL A   1      35.034  32.884  32.066  1.00  0.00     0.339 C 
ATOM     58  O   UNL A   1      33.860  32.668  32.281  1.00  0.00    -0.246 OA
BRANCH  57  59
ATOM     59  C   UNL A   1      36.108  32.603  33.049  1.00  0.00     0.079 A 
ATOM     60  C   UNL A   1      37.018  31.555  32.772  1.00  0.00     0.026 A 
ATOM     61  C   UNL A   1      36.228  33.334  34.232  1.00  0.00     0.055 A 
ATOM     62  C   UNL A   1      38.093  31.276  33.640  1.00  0.00    -0.017 A 
ATOM     63  C   UNL A   1      37.279  33.056  35.104  1.00  0.00     0.022 A 
ATOM     64  Cl  UNL A   1      35.110  34.564  34.704  1.00  0.00    -0.083 Cl
ATOM     65  C   UNL A   1      38.214  32.066  34.795  1.00  0.00     0.010 A 
BRANCH  62  66
ATOM     66  C   UNL A   1      39.090  30.211  33.393  1.00  0.00    -0.017 A 
ATOM     67  C   UNL A   1      38.682  28.961  32.892  1.00  0.00     0.009 A 
ATOM     68  C   UNL A   1      40.445  30.352  33.723  1.00  0.00     0.029 A 
ATOM     69  C   UNL A   1      39.581  27.898  32.755  1.00  0.00     0.002 A 
ATOM     70  C   UNL A   1      41.341  29.285  33.608  1.00  0.00     0.041 A 
ATOM     71  C   UNL A   1      40.913  28.055  33.125  1.00  0.00     0.020 A 
ATOM     72  Cl  UNL A   1      42.977  29.489  34.103  1.00  0.00    -0.084 Cl
ENDBRANCH  62  66
ENDBRANCH  57  59
ENDBRANCH  56  57
ENDBRANCH  55  56
ENDBRANCH   1  55
TORSDOF 12
ENDMDL
