MODEL 1
REMARK VINA RESULT:      -9.6      0.000      0.000
REMARK SMILES O=C(OCCOC(=O)c1ccc(C[N@@H+](CC(F)(F)F)C2CC2)nc1)c1ccc(-c2c3nc(c(-c4ccccc4)c4ccc([nH]4)c(-c4ccccc4)c4nc(c(-c5ccccc5)c5ccc2[nH]5)C=C4)C=C3)cc1
REMARK SMILES IDX 5 1 4 2 3 3 2 4 1 5 25 6 26 7 72 8 27 9 71 10 28 11 29 12
REMARK SMILES IDX 30 13 65 14 31 15 70 16 64 17 66 18 32 19 69 20 63 21 62 22
REMARK SMILES IDX 33 24 55 25 40 26 54 27 41 28 44 29 53 30 67 31 42 32 43 33
REMARK SMILES IDX 52 35 68 36 45 37 34 38 35 39 39 40 36 41 38 42 37 43 56 44
REMARK SMILES IDX 57 45 61 46 58 47 60 48 59 49 46 50 47 51 51 52 48 53 50 54
REMARK SMILES IDX 49 55 6 56 7 57 8 58 9 59 10 60 24 61 11 62 23 63 12 64
REMARK SMILES IDX 13 65 14 66 15 68 16 69 17 70 18 71 19 72 20 73 21 74 22 75
REMARK H PARENT 66 23 44 34 14 67
REMARK Flexibility Score: inf
ROOT
ATOM      1  C   UNL A   1      32.490  30.693  26.643  1.00  0.00     0.275 C 
ENDROOT
BRANCH   1   2
ATOM      2  C   UNL A   1      31.646  31.891  27.080  1.00  0.00     0.275 C 
BRANCH   2   3
ATOM      3  O   UNL A   1      32.330  33.156  27.034  1.00  0.00    -0.458 OA
BRANCH   3   4
ATOM      4  C   UNL A   1      32.965  33.836  28.016  1.00  0.00     0.338 C 
ATOM      5  O   UNL A   1      32.495  34.907  28.398  1.00  0.00    -0.246 OA
BRANCH   4   6
ATOM      6  C   UNL A   1      34.300  33.441  28.562  1.00  0.00     0.060 A 
ATOM      7  C   UNL A   1      35.536  33.663  27.952  1.00  0.00     0.016 A 
ATOM      8  C   UNL A   1      34.286  32.749  29.788  1.00  0.00     0.016 A 
ATOM      9  C   UNL A   1      36.727  33.271  28.574  1.00  0.00     0.010 A 
ATOM     10  C   UNL A   1      35.472  32.361  30.417  1.00  0.00     0.010 A 
ATOM     11  C   UNL A   1      36.702  32.617  29.807  1.00  0.00    -0.014 A 
BRANCH  11  12
ATOM     12  C   UNL A   1      37.953  32.081  30.384  1.00  0.00     0.031 A 
ATOM     13  C   UNL A   1      38.456  30.755  29.901  1.00  0.00     0.074 A 
ATOM     14  C   UNL A   1      38.641  32.773  31.309  1.00  0.00     0.049 A 
ATOM     15  N   UNL A   1      39.555  30.126  30.226  1.00  0.00    -0.248 NA
ATOM     16  C   UNL A   1      37.634  30.064  28.895  1.00  0.00     0.031 C 
ATOM     17  C   UNL A   1      38.294  34.105  31.796  1.00  0.00     0.029 A 
ATOM     18  N   UNL A   1      39.765  32.443  32.021  1.00  0.00    -0.354 N 
ATOM     19  C   UNL A   1      39.580  28.993  29.428  1.00  0.00     0.074 A 
ATOM     20  C   UNL A   1      38.354  28.979  28.661  1.00  0.00     0.031 C 
ATOM     21  C   UNL A   1      39.129  34.442  32.793  1.00  0.00     0.029 A 
ATOM     22  C   UNL A   1      40.089  33.362  32.989  1.00  0.00     0.049 A 
ATOM     23  H   UNL A   1      40.289  31.625  31.855  1.00  0.00     0.167 HD
ATOM     24  C   UNL A   1      40.557  28.063  29.318  1.00  0.00     0.031 A 
ATOM     25  C   UNL A   1      41.052  33.332  33.927  1.00  0.00     0.031 A 
ATOM     26  C   UNL A   1      41.746  28.053  30.123  1.00  0.00     0.049 A 
ATOM     27  C   UNL A   1      42.045  32.205  33.903  1.00  0.00     0.074 A 
ATOM     28  C   UNL A   1      42.804  27.164  30.095  1.00  0.00     0.029 A 
ATOM     29  N   UNL A   1      42.016  28.971  31.129  1.00  0.00    -0.354 N 
ATOM     30  N   UNL A   1      42.106  31.182  33.082  1.00  0.00    -0.248 NA
ATOM     31  C   UNL A   1      43.127  32.251  34.893  1.00  0.00     0.031 C 
ATOM     32  C   UNL A   1      43.690  27.513  31.122  1.00  0.00     0.029 A 
ATOM     33  C   UNL A   1      43.207  28.649  31.755  1.00  0.00     0.049 A 
ATOM     34  H   UNL A   1      41.443  29.737  31.362  1.00  0.00     0.167 HD
ATOM     35  C   UNL A   1      43.260  30.492  33.423  1.00  0.00     0.074 A 
ATOM     36  C   UNL A   1      43.863  31.208  34.531  1.00  0.00     0.031 C 
ATOM     37  C   UNL A   1      43.785  29.378  32.856  1.00  0.00     0.031 A 
BRANCH  24  38
ATOM     38  C   UNL A   1      40.341  26.986  28.296  1.00  0.00    -0.014 A 
ATOM     39  C   UNL A   1      39.665  25.800  28.631  1.00  0.00     0.009 A 
ATOM     40  C   UNL A   1      40.857  27.134  27.002  1.00  0.00     0.009 A 
ATOM     41  C   UNL A   1      39.553  24.764  27.703  1.00  0.00     0.001 A 
ATOM     42  C   UNL A   1      40.721  26.104  26.067  1.00  0.00     0.001 A 
ATOM     43  C   UNL A   1      40.083  24.916  26.422  1.00  0.00     0.000 A 
ENDBRANCH  24  38
BRANCH  25  44
ATOM     44  C   UNL A   1      41.126  34.405  34.951  1.00  0.00    -0.014 A 
ATOM     45  C   UNL A   1      41.889  35.562  34.736  1.00  0.00     0.009 A 
ATOM     46  C   UNL A   1      40.424  34.270  36.160  1.00  0.00     0.009 A 
ATOM     47  C   UNL A   1      41.965  36.551  35.721  1.00  0.00     0.001 A 
ATOM     48  C   UNL A   1      40.486  35.271  37.134  1.00  0.00     0.001 A 
ATOM     49  C   UNL A   1      41.262  36.407  36.916  1.00  0.00     0.000 A 
ENDBRANCH  25  44
BRANCH  37  50
ATOM     50  C   UNL A   1      45.097  28.891  33.397  1.00  0.00    -0.014 A 
ATOM     51  C   UNL A   1      46.316  29.366  32.891  1.00  0.00     0.009 A 
ATOM     52  C   UNL A   1      45.107  27.980  34.464  1.00  0.00     0.009 A 
ATOM     53  C   UNL A   1      47.522  28.916  33.430  1.00  0.00     0.001 A 
ATOM     54  C   UNL A   1      46.314  27.553  35.018  1.00  0.00     0.001 A 
ATOM     55  C   UNL A   1      47.520  28.016  34.495  1.00  0.00     0.000 A 
ENDBRANCH  37  50
ENDBRANCH  11  12
ENDBRANCH   4   6
ENDBRANCH   3   4
ENDBRANCH   2   3
ENDBRANCH   1   2
BRANCH   1  56
ATOM     56  O   UNL A   1      31.827  29.434  26.829  1.00  0.00    -0.458 OA
BRANCH  56  57
ATOM     57  C   UNL A   1      31.598  28.734  25.686  1.00  0.00     0.339 C 
ATOM     58  O   UNL A   1      31.130  29.158  24.644  1.00  0.00    -0.246 OA
BRANCH  57  59
ATOM     59  C   UNL A   1      32.125  27.375  25.845  1.00  0.00     0.078 A 
ATOM     60  C   UNL A   1      33.462  27.063  25.634  1.00  0.00     0.019 A 
ATOM     61  C   UNL A   1      31.247  26.355  26.180  1.00  0.00     0.127 A 
ATOM     62  C   UNL A   1      33.861  25.732  25.732  1.00  0.00     0.031 A 
ATOM     63  N   UNL A   1      31.604  25.048  26.229  1.00  0.00    -0.254 NA
ATOM     64  C   UNL A   1      32.908  24.746  25.990  1.00  0.00     0.095 A 
BRANCH  64  65
ATOM     65  C   UNL A   1      33.336  23.283  26.043  1.00  0.00     0.320 C 
BRANCH  65  66
ATOM     66  N   UNL A   1      34.273  22.885  24.980  1.00  0.00    -0.320 N 
ATOM     67  H   UNL A   1      34.581  23.751  24.539  1.00  0.00     0.348 HD
BRANCH  66  68
ATOM     68  C   UNL A   1      35.564  22.374  25.479  1.00  0.00     0.379 C 
BRANCH  68  69
ATOM     69  C   UNL A   1      36.863  23.172  25.266  1.00  0.00     0.438 C 
ATOM     70  F   UNL A   1      37.059  23.527  23.979  1.00  0.00    -0.165 F 
ATOM     71  F   UNL A   1      36.833  24.317  25.992  1.00  0.00    -0.165 F 
ATOM     72  F   UNL A   1      37.953  22.478  25.667  1.00  0.00    -0.165 F 
ENDBRANCH  68  69
ENDBRANCH  66  68
BRANCH  66  73
ATOM     73  C   UNL A   1      33.666  22.268  23.797  1.00  0.00     0.185 C 
ATOM     74  C   UNL A   1      32.295  22.564  23.268  1.00  0.00     0.071 C 
ATOM     75  C   UNL A   1      33.501  23.045  22.518  1.00  0.00     0.071 C 
ENDBRANCH  66  73
ENDBRANCH  65  66
ENDBRANCH  64  65
ENDBRANCH  57  59
ENDBRANCH  56  57
ENDBRANCH   1  56
TORSDOF 16
ENDMDL
MODEL 2
REMARK VINA RESULT:      -9.5      1.450      6.331
REMARK SMILES O=C(OCCOC(=O)c1ccc(C[N@@H+](CC(F)(F)F)C2CC2)nc1)c1ccc(-c2c3nc(c(-c4ccccc4)c4ccc([nH]4)c(-c4ccccc4)c4nc(c(-c5ccccc5)c5ccc2[nH]5)C=C4)C=C3)cc1
REMARK SMILES IDX 5 1 4 2 3 3 2 4 1 5 25 6 26 7 72 8 27 9 71 10 28 11 29 12
REMARK SMILES IDX 30 13 65 14 31 15 70 16 64 17 66 18 32 19 69 20 63 21 62 22
REMARK SMILES IDX 33 24 55 25 40 26 54 27 41 28 44 29 53 30 67 31 42 32 43 33
REMARK SMILES IDX 52 35 68 36 45 37 34 38 35 39 39 40 36 41 38 42 37 43 56 44
REMARK SMILES IDX 57 45 61 46 58 47 60 48 59 49 46 50 47 51 51 52 48 53 50 54
REMARK SMILES IDX 49 55 6 56 7 57 8 58 9 59 10 60 24 61 11 62 23 63 12 64
REMARK SMILES IDX 13 65 14 66 15 68 16 69 17 70 18 71 19 72 20 73 21 74 22 75
REMARK H PARENT 66 23 44 34 14 67
REMARK Flexibility Score: inf
ROOT
ATOM      1  C   UNL A   1      32.463  31.097  26.627  1.00  0.00     0.275 C 
ENDROOT
BRANCH   1   2
ATOM      2  C   UNL A   1      31.560  32.184  27.212  1.00  0.00     0.275 C 
BRANCH   2   3
ATOM      3  O   UNL A   1      32.143  33.499  27.238  1.00  0.00    -0.458 OA
BRANCH   3   4
ATOM      4  C   UNL A   1      32.904  34.092  28.187  1.00  0.00     0.338 C 
ATOM      5  O   UNL A   1      32.542  35.172  28.650  1.00  0.00    -0.246 OA
BRANCH   4   6
ATOM      6  C   UNL A   1      34.251  33.588  28.597  1.00  0.00     0.060 A 
ATOM      7  C   UNL A   1      35.424  33.674  27.846  1.00  0.00     0.016 A 
ATOM      8  C   UNL A   1      34.313  32.935  29.843  1.00  0.00     0.016 A 
ATOM      9  C   UNL A   1      36.638  33.189  28.347  1.00  0.00     0.010 A 
ATOM     10  C   UNL A   1      35.523  32.454  30.352  1.00  0.00     0.010 A 
ATOM     11  C   UNL A   1      36.694  32.576  29.600  1.00  0.00    -0.014 A 
BRANCH  11  12
ATOM     12  C   UNL A   1      37.948  31.940  30.056  1.00  0.00     0.031 A 
ATOM     13  C   UNL A   1      38.830  32.691  31.006  1.00  0.00     0.074 A 
ATOM     14  C   UNL A   1      38.286  30.704  29.648  1.00  0.00     0.049 A 
ATOM     15  N   UNL A   1      39.940  32.303  31.577  1.00  0.00    -0.248 NA
ATOM     16  C   UNL A   1      38.386  34.040  31.392  1.00  0.00     0.031 C 
ATOM     17  C   UNL A   1      37.472  29.847  28.791  1.00  0.00     0.029 A 
ATOM     18  N   UNL A   1      39.414  29.961  29.882  1.00  0.00    -0.354 N 
ATOM     19  C   UNL A   1      40.299  33.339  32.426  1.00  0.00     0.074 A 
ATOM     20  C   UNL A   1      39.335  34.401  32.241  1.00  0.00     0.031 C 
ATOM     21  C   UNL A   1      38.163  28.735  28.492  1.00  0.00     0.029 A 
ATOM     22  C   UNL A   1      39.456  28.789  29.167  1.00  0.00     0.049 A 
ATOM     23  H   UNL A   1      40.127  30.242  30.501  1.00  0.00     0.167 HD
ATOM     24  C   UNL A   1      41.322  33.385  33.310  1.00  0.00     0.031 A 
ATOM     25  C   UNL A   1      40.429  27.867  29.067  1.00  0.00     0.031 A 
ATOM     26  C   UNL A   1      42.307  32.350  33.449  1.00  0.00     0.049 A 
ATOM     27  C   UNL A   1      41.646  28.009  29.937  1.00  0.00     0.074 A 
ATOM     28  C   UNL A   1      43.384  32.288  34.313  1.00  0.00     0.029 A 
ATOM     29  N   UNL A   1      42.346  31.200  32.671  1.00  0.00    -0.354 N 
ATOM     30  N   UNL A   1      41.930  28.953  30.803  1.00  0.00    -0.248 NA
ATOM     31  C   UNL A   1      42.648  26.939  29.858  1.00  0.00     0.031 C 
ATOM     32  C   UNL A   1      44.107  31.125  34.021  1.00  0.00     0.029 A 
ATOM     33  C   UNL A   1      43.451  30.439  33.009  1.00  0.00     0.049 A 
ATOM     34  H   UNL A   1      41.686  30.963  31.981  1.00  0.00     0.167 HD
ATOM     35  C   UNL A   1      43.117  28.566  31.409  1.00  0.00     0.074 A 
ATOM     36  C   UNL A   1      43.502  27.306  30.804  1.00  0.00     0.031 C 
ATOM     37  C   UNL A   1      43.812  29.188  32.393  1.00  0.00     0.031 A 
BRANCH  24  38
ATOM     38  C   UNL A   1      41.409  34.614  34.166  1.00  0.00    -0.014 A 
ATOM     39  C   UNL A   1      42.176  35.720  33.762  1.00  0.00     0.009 A 
ATOM     40  C   UNL A   1      40.759  34.653  35.407  1.00  0.00     0.009 A 
ATOM     41  C   UNL A   1      42.330  36.821  34.607  1.00  0.00     0.001 A 
ATOM     42  C   UNL A   1      40.895  35.766  36.240  1.00  0.00     0.001 A 
ATOM     43  C   UNL A   1      41.691  36.842  35.846  1.00  0.00     0.000 A 
ENDBRANCH  24  38
BRANCH  25  44
ATOM     44  C   UNL A   1      40.283  26.730  28.123  1.00  0.00    -0.014 A 
ATOM     45  C   UNL A   1      40.821  26.787  26.830  1.00  0.00     0.009 A 
ATOM     46  C   UNL A   1      39.595  25.572  28.522  1.00  0.00     0.009 A 
ATOM     47  C   UNL A   1      40.654  25.716  25.947  1.00  0.00     0.001 A 
ATOM     48  C   UNL A   1      39.447  24.495  27.643  1.00  0.00     0.001 A 
ATOM     49  C   UNL A   1      39.971  24.570  26.355  1.00  0.00     0.000 A 
ENDBRANCH  25  44
BRANCH  37  50
ATOM     50  C   UNL A   1      45.039  28.491  32.905  1.00  0.00    -0.014 A 
ATOM     51  C   UNL A   1      44.980  27.630  34.011  1.00  0.00     0.009 A 
ATOM     52  C   UNL A   1      46.260  28.662  32.234  1.00  0.00     0.009 A 
ATOM     53  C   UNL A   1      46.131  26.975  34.451  1.00  0.00     0.001 A 
ATOM     54  C   UNL A   1      47.402  27.984  32.660  1.00  0.00     0.001 A 
ATOM     55  C   UNL A   1      47.337  27.147  33.773  1.00  0.00     0.000 A 
ENDBRANCH  37  50
ENDBRANCH  11  12
ENDBRANCH   4   6
ENDBRANCH   3   4
ENDBRANCH   2   3
ENDBRANCH   1   2
BRANCH   1  56
ATOM     56  O   UNL A   1      31.842  29.804  26.586  1.00  0.00    -0.458 OA
BRANCH  56  57
ATOM     57  C   UNL A   1      31.449  29.396  25.351  1.00  0.00     0.339 C 
ATOM     58  O   UNL A   1      30.717  29.989  24.577  1.00  0.00    -0.246 OA
BRANCH  57  59
ATOM     59  C   UNL A   1      32.151  28.155  25.012  1.00  0.00     0.078 A 
ATOM     60  C   UNL A   1      33.149  27.618  25.815  1.00  0.00     0.019 A 
ATOM     61  C   UNL A   1      31.837  27.514  23.823  1.00  0.00     0.127 A 
ATOM     62  C   UNL A   1      33.818  26.476  25.378  1.00  0.00     0.031 A 
ATOM     63  N   UNL A   1      32.510  26.434  23.354  1.00  0.00    -0.254 NA
ATOM     64  C   UNL A   1      33.506  25.932  24.131  1.00  0.00     0.095 A 
BRANCH  64  65
ATOM     65  C   UNL A   1      34.277  24.716  23.629  1.00  0.00     0.320 C 
BRANCH  65  66
ATOM     66  N   UNL A   1      34.167  23.528  24.492  1.00  0.00    -0.320 N 
ATOM     67  H   UNL A   1      33.948  23.879  25.424  1.00  0.00     0.348 HD
BRANCH  66  68
ATOM     68  C   UNL A   1      32.969  22.708  24.233  1.00  0.00     0.379 C 
BRANCH  68  69
ATOM     69  C   UNL A   1      31.773  22.731  25.203  1.00  0.00     0.438 C 
ATOM     70  F   UNL A   1      31.385  21.498  25.591  1.00  0.00    -0.165 F 
ATOM     71  F   UNL A   1      32.096  23.417  26.327  1.00  0.00    -0.165 F 
ATOM     72  F   UNL A   1      30.696  23.344  24.660  1.00  0.00    -0.165 F 
ENDBRANCH  68  69
ENDBRANCH  66  68
BRANCH  66  73
ATOM     73  C   UNL A   1      35.433  22.867  24.825  1.00  0.00     0.185 C 
ATOM     74  C   UNL A   1      36.799  23.447  24.614  1.00  0.00     0.071 C 
ATOM     75  C   UNL A   1      36.253  23.315  26.005  1.00  0.00     0.071 C 
ENDBRANCH  66  73
ENDBRANCH  65  66
ENDBRANCH  64  65
ENDBRANCH  57  59
ENDBRANCH  56  57
ENDBRANCH   1  56
TORSDOF 16
ENDMDL
MODEL 3
REMARK VINA RESULT:      -9.4      0.493      6.107
REMARK SMILES O=C(OCCOC(=O)c1ccc(C[N@@H+](CC(F)(F)F)C2CC2)nc1)c1ccc(-c2c3nc(c(-c4ccccc4)c4ccc([nH]4)c(-c4ccccc4)c4nc(c(-c5ccccc5)c5ccc2[nH]5)C=C4)C=C3)cc1
REMARK SMILES IDX 5 1 4 2 3 3 2 4 1 5 25 6 26 7 72 8 27 9 71 10 28 11 29 12
REMARK SMILES IDX 30 13 65 14 31 15 70 16 64 17 66 18 32 19 69 20 63 21 62 22
REMARK SMILES IDX 33 24 55 25 40 26 54 27 41 28 44 29 53 30 67 31 42 32 43 33
REMARK SMILES IDX 52 35 68 36 45 37 34 38 35 39 39 40 36 41 38 42 37 43 56 44
REMARK SMILES IDX 57 45 61 46 58 47 60 48 59 49 46 50 47 51 51 52 48 53 50 54
REMARK SMILES IDX 49 55 6 56 7 57 8 58 9 59 10 60 24 61 11 62 23 63 12 64
REMARK SMILES IDX 13 65 14 66 15 68 16 69 17 70 18 71 19 72 20 73 21 74 22 75
REMARK H PARENT 66 23 44 34 14 67
REMARK Flexibility Score: inf
ROOT
ATOM      1  C   UNL A   1      32.742  30.932  26.788  1.00  0.00     0.275 C 
ENDROOT
BRANCH   1   2
ATOM      2  C   UNL A   1      31.717  31.990  27.197  1.00  0.00     0.275 C 
BRANCH   2   3
ATOM      3  O   UNL A   1      32.230  33.333  27.254  1.00  0.00    -0.458 OA
BRANCH   3   4
ATOM      4  C   UNL A   1      32.953  33.946  28.220  1.00  0.00     0.338 C 
ATOM      5  O   UNL A   1      32.567  35.031  28.653  1.00  0.00    -0.246 OA
BRANCH   4   6
ATOM      6  C   UNL A   1      34.288  33.458  28.685  1.00  0.00     0.060 A 
ATOM      7  C   UNL A   1      35.503  33.634  28.022  1.00  0.00     0.016 A 
ATOM      8  C   UNL A   1      34.293  32.723  29.885  1.00  0.00     0.016 A 
ATOM      9  C   UNL A   1      36.699  33.154  28.571  1.00  0.00     0.010 A 
ATOM     10  C   UNL A   1      35.483  32.246  30.441  1.00  0.00     0.010 A 
ATOM     11  C   UNL A   1      36.695  32.457  29.780  1.00  0.00    -0.014 A 
BRANCH  11  12
ATOM     12  C   UNL A   1      37.940  31.831  30.276  1.00  0.00     0.031 A 
ATOM     13  C   UNL A   1      38.729  32.541  31.333  1.00  0.00     0.074 A 
ATOM     14  C   UNL A   1      38.349  30.639  29.808  1.00  0.00     0.049 A 
ATOM     15  N   UNL A   1      39.813  32.150  31.949  1.00  0.00    -0.248 NA
ATOM     16  C   UNL A   1      38.211  33.845  31.779  1.00  0.00     0.031 C 
ATOM     17  C   UNL A   1      37.625  29.819  28.841  1.00  0.00     0.029 A 
ATOM     18  N   UNL A   1      39.486  29.919  30.066  1.00  0.00    -0.354 N 
ATOM     19  C   UNL A   1      40.077  33.134  32.890  1.00  0.00     0.074 A 
ATOM     20  C   UNL A   1      39.089  34.175  32.713  1.00  0.00     0.031 C 
ATOM     21  C   UNL A   1      38.375  28.754  28.515  1.00  0.00     0.029 A 
ATOM     22  C   UNL A   1      39.618  28.802  29.277  1.00  0.00     0.049 A 
ATOM     23  H   UNL A   1      40.146  30.177  30.750  1.00  0.00     0.167 HD
ATOM     24  C   UNL A   1      41.037  33.151  33.843  1.00  0.00     0.031 A 
ATOM     25  C   UNL A   1      40.629  27.921  29.181  1.00  0.00     0.031 A 
ATOM     26  C   UNL A   1      42.049  32.141  33.976  1.00  0.00     0.049 A 
ATOM     27  C   UNL A   1      41.780  28.040  30.140  1.00  0.00     0.074 A 
ATOM     28  C   UNL A   1      43.068  32.053  34.906  1.00  0.00     0.029 A 
ATOM     29  N   UNL A   1      42.182  31.051  33.127  1.00  0.00    -0.354 N 
ATOM     30  N   UNL A   1      41.972  28.929  31.085  1.00  0.00    -0.248 NA
ATOM     31  C   UNL A   1      42.824  27.011  30.055  1.00  0.00     0.031 C 
ATOM     32  C   UNL A   1      43.851  30.937  34.585  1.00  0.00     0.029 A 
ATOM     33  C   UNL A   1      43.289  30.303  33.486  1.00  0.00     0.049 A 
ATOM     34  H   UNL A   1      41.577  30.842  32.379  1.00  0.00     0.167 HD
ATOM     35  C   UNL A   1      43.130  28.539  31.742  1.00  0.00     0.074 A 
ATOM     36  C   UNL A   1      43.600  27.337  31.081  1.00  0.00     0.031 C 
ATOM     37  C   UNL A   1      43.736  29.112  32.811  1.00  0.00     0.031 A 
BRANCH  24  38
ATOM     38  C   UNL A   1      41.023  34.319  34.784  1.00  0.00    -0.014 A 
ATOM     39  C   UNL A   1      40.261  34.283  35.964  1.00  0.00     0.009 A 
ATOM     40  C   UNL A   1      41.739  35.482  34.470  1.00  0.00     0.009 A 
ATOM     41  C   UNL A   1      40.177  35.408  36.787  1.00  0.00     0.001 A 
ATOM     42  C   UNL A   1      41.672  36.598  35.308  1.00  0.00     0.001 A 
ATOM     43  C   UNL A   1      40.881  36.565  36.456  1.00  0.00     0.000 A 
ENDBRANCH  24  38
BRANCH  25  44
ATOM     44  C   UNL A   1      40.587  26.850  28.154  1.00  0.00    -0.014 A 
ATOM     45  C   UNL A   1      40.083  25.576  28.452  1.00  0.00     0.009 A 
ATOM     46  C   UNL A   1      41.058  27.106  26.855  1.00  0.00     0.009 A 
ATOM     47  C   UNL A   1      40.072  24.573  27.478  1.00  0.00     0.001 A 
ATOM     48  C   UNL A   1      41.026  26.108  25.878  1.00  0.00     0.001 A 
ATOM     49  C   UNL A   1      40.540  24.840  26.192  1.00  0.00     0.000 A 
ENDBRANCH  25  44
BRANCH  37  50
ATOM     50  C   UNL A   1      44.951  28.420  33.357  1.00  0.00    -0.014 A 
ATOM     51  C   UNL A   1      44.843  27.409  34.323  1.00  0.00     0.009 A 
ATOM     52  C   UNL A   1      46.218  28.755  32.855  1.00  0.00     0.009 A 
ATOM     53  C   UNL A   1      45.987  26.764  34.795  1.00  0.00     0.001 A 
ATOM     54  C   UNL A   1      47.357  28.089  33.309  1.00  0.00     0.001 A 
ATOM     55  C   UNL A   1      47.240  27.100  34.284  1.00  0.00     0.000 A 
ENDBRANCH  37  50
ENDBRANCH  11  12
ENDBRANCH   4   6
ENDBRANCH   3   4
ENDBRANCH   2   3
ENDBRANCH   1   2
BRANCH   1  56
ATOM     56  O   UNL A   1      32.260  29.588  26.931  1.00  0.00    -0.458 OA
BRANCH  56  57
ATOM     57  C   UNL A   1      31.711  29.054  25.809  1.00  0.00     0.339 C 
ATOM     58  O   UNL A   1      31.146  29.650  24.909  1.00  0.00    -0.246 OA
BRANCH  57  59
ATOM     59  C   UNL A   1      32.014  27.620  25.766  1.00  0.00     0.078 A 
ATOM     60  C   UNL A   1      31.022  26.647  25.752  1.00  0.00     0.019 A 
ATOM     61  C   UNL A   1      33.341  27.218  25.781  1.00  0.00     0.127 A 
ATOM     62  C   UNL A   1      31.400  25.306  25.790  1.00  0.00     0.031 A 
ATOM     63  N   UNL A   1      33.729  25.922  25.871  1.00  0.00    -0.254 NA
ATOM     64  C   UNL A   1      32.752  24.976  25.889  1.00  0.00     0.095 A 
BRANCH  64  65
ATOM     65  C   UNL A   1      33.162  23.510  25.986  1.00  0.00     0.320 C 
BRANCH  65  66
ATOM     66  N   UNL A   1      34.322  23.147  25.155  1.00  0.00    -0.320 N 
ATOM     67  H   UNL A   1      34.639  24.015  24.723  1.00  0.00     0.348 HD
BRANCH  66  68
ATOM     68  C   UNL A   1      35.524  22.788  25.930  1.00  0.00     0.379 C 
BRANCH  68  69
ATOM     69  C   UNL A   1      36.897  23.393  25.582  1.00  0.00     0.438 C 
ATOM     70  F   UNL A   1      37.188  24.492  26.308  1.00  0.00    -0.165 F 
ATOM     71  F   UNL A   1      37.879  22.490  25.820  1.00  0.00    -0.165 F 
ATOM     72  F   UNL A   1      36.981  23.734  24.276  1.00  0.00    -0.165 F 
ENDBRANCH  68  69
ENDBRANCH  66  68
BRANCH  66  73
ATOM     73  C   UNL A   1      34.016  22.414  23.923  1.00  0.00     0.185 C 
ATOM     74  C   UNL A   1      32.645  22.208  23.351  1.00  0.00     0.071 C 
ATOM     75  C   UNL A   1      33.602  23.143  22.673  1.00  0.00     0.071 C 
ENDBRANCH  66  73
ENDBRANCH  65  66
ENDBRANCH  64  65
ENDBRANCH  57  59
ENDBRANCH  56  57
ENDBRANCH   1  56
TORSDOF 16
ENDMDL
