MODEL 1
REMARK VINA RESULT:     -10.9      0.000      0.000
REMARK SMILES COC(=O)C[C@@H](NC(=O)c1ccccc1C(=O)OCCOC(=O)c1ccc(-c2c3nc(c(-c4ccccc4)c4ccc([nH]4)c(-c4ccccc4)c4nc(c(-c5ccccc5)c5ccc2[nH]5)C=C4)C=C3)cc1)c1cccc(C)c1C
REMARK SMILES IDX 18 1 16 2 17 3 15 4 10 5 11 6 12 7 14 8 13 9 8 10 7 11 9 13
REMARK SMILES IDX 6 14 5 15 3 16 4 17 2 18 1 19 72 20 73 21 78 22 74 23 76 24
REMARK SMILES IDX 79 25 75 26 77 27 19 28 20 29 21 30 22 31 23 32 24 33 25 34
REMARK SMILES IDX 71 35 26 36 70 37 27 38 28 39 29 40 64 41 30 42 69 43 63 44
REMARK SMILES IDX 65 45 31 46 68 47 62 48 61 49 32 51 54 52 39 53 53 54 40 55
REMARK SMILES IDX 43 56 52 57 66 58 41 59 42 60 51 62 67 63 44 64 33 65 34 66
REMARK SMILES IDX 38 67 35 68 37 69 36 70 55 71 56 72 60 73 57 74 59 75 58 76
REMARK SMILES IDX 45 77 46 78 50 79 47 80 49 81 48 82
REMARK H PARENT 7 12 65 50 43 61
REMARK Flexibility Score: inf
ROOT
ATOM      1  O   UNL A   1      32.287  27.742  25.687  1.00  0.00    -0.458 OA
ENDROOT
BRANCH   1   2
ATOM      2  C   UNL A   1      33.514  27.532  25.170  1.00  0.00     0.339 C 
ATOM      3  O   UNL A   1      34.325  28.393  24.878  1.00  0.00    -0.246 OA
BRANCH   2   4
ATOM      4  C   UNL A   1      33.805  26.127  24.904  1.00  0.00     0.072 A 
ATOM      5  C   UNL A   1      33.629  25.617  23.620  1.00  0.00     0.054 A 
ATOM      6  C   UNL A   1      34.175  24.360  23.287  1.00  0.00     0.015 A 
ATOM      7  C   UNL A   1      34.983  23.677  24.200  1.00  0.00     0.001 A 
ATOM      8  C   UNL A   1      34.583  25.415  25.834  1.00  0.00     0.016 A 
ATOM      9  C   UNL A   1      35.190  24.206  25.473  1.00  0.00     0.001 A 
BRANCH   5  10
ATOM     10  C   UNL A   1      33.024  26.365  22.508  1.00  0.00     0.252 C 
ATOM     11  N   UNL A   1      31.787  26.969  22.562  1.00  0.00    -0.345 N 
ATOM     12  H   UNL A   1      31.813  27.886  22.203  1.00  0.00     0.164 HD
ATOM     13  O   UNL A   1      33.764  26.624  21.560  1.00  0.00    -0.269 OA
BRANCH  11  14
ATOM     14  C   UNL A   1      30.402  26.596  23.030  1.00  0.00     0.124 C 
BRANCH  14  15
ATOM     15  C   UNL A   1      29.650  27.904  23.352  1.00  0.00     0.152 C 
BRANCH  15  16
ATOM     16  C   UNL A   1      29.619  28.952  22.265  1.00  0.00     0.307 C 
ATOM     17  O   UNL A   1      30.626  29.394  21.725  1.00  0.00    -0.252 OA
BRANCH  16  18
ATOM     18  O   UNL A   1      28.346  29.240  21.882  1.00  0.00    -0.469 OA
ATOM     19  C   UNL A   1      27.379  29.160  22.936  1.00  0.00     0.282 C 
ENDBRANCH  16  18
ENDBRANCH  15  16
ENDBRANCH  14  15
BRANCH  14  20
ATOM     20  C   UNL A   1      30.269  25.455  24.104  1.00  0.00    -0.022 A 
ATOM     21  C   UNL A   1      29.857  25.839  25.387  1.00  0.00     0.006 A 
ATOM     22  C   UNL A   1      30.738  24.108  24.026  1.00  0.00    -0.043 A 
ATOM     23  C   UNL A   1      30.148  25.151  26.562  1.00  0.00     0.001 A 
ATOM     24  C   UNL A   1      31.040  23.380  25.228  1.00  0.00    -0.048 A 
ATOM     25  C   UNL A   1      30.891  23.351  22.732  1.00  0.00     0.045 C 
ATOM     26  C   UNL A   1      30.795  23.944  26.484  1.00  0.00     0.004 A 
ATOM     27  C   UNL A   1      31.577  21.970  25.266  1.00  0.00     0.044 C 
ENDBRANCH  14  20
ENDBRANCH  11  14
ENDBRANCH   5  10
ENDBRANCH   2   4
ENDBRANCH   1   2
BRANCH   1  28
ATOM     28  C   UNL A   1      32.328  28.411  26.963  1.00  0.00     0.275 C 
BRANCH  28  29
ATOM     29  C   UNL A   1      31.909  29.885  26.888  1.00  0.00     0.275 C 
BRANCH  29  30
ATOM     30  O   UNL A   1      32.952  30.743  26.374  1.00  0.00    -0.458 OA
BRANCH  30  31
ATOM     31  C   UNL A   1      33.484  31.599  27.273  1.00  0.00     0.338 C 
ATOM     32  O   UNL A   1      32.947  32.581  27.766  1.00  0.00    -0.246 OA
BRANCH  31  33
ATOM     33  C   UNL A   1      34.855  31.217  27.650  1.00  0.00     0.060 A 
ATOM     34  C   UNL A   1      35.160  29.880  27.916  1.00  0.00     0.016 A 
ATOM     35  C   UNL A   1      35.764  32.218  27.983  1.00  0.00     0.016 A 
ATOM     36  C   UNL A   1      36.325  29.548  28.598  1.00  0.00     0.010 A 
ATOM     37  C   UNL A   1      36.974  31.875  28.593  1.00  0.00     0.010 A 
ATOM     38  C   UNL A   1      37.245  30.540  28.947  1.00  0.00    -0.014 A 
BRANCH  38  39
ATOM     39  C   UNL A   1      38.453  30.203  29.741  1.00  0.00     0.031 A 
ATOM     40  C   UNL A   1      39.534  29.353  29.128  1.00  0.00     0.074 A 
ATOM     41  C   UNL A   1      38.587  30.654  31.002  1.00  0.00     0.049 A 
ATOM     42  N   UNL A   1      40.546  28.757  29.703  1.00  0.00    -0.248 NA
ATOM     43  C   UNL A   1      39.455  29.136  27.674  1.00  0.00     0.031 C 
ATOM     44  C   UNL A   1      37.658  31.553  31.690  1.00  0.00     0.029 A 
ATOM     45  N   UNL A   1      39.561  30.407  31.936  1.00  0.00    -0.354 N 
ATOM     46  C   UNL A   1      41.187  28.045  28.696  1.00  0.00     0.074 A 
ATOM     47  C   UNL A   1      40.447  28.280  27.474  1.00  0.00     0.031 C 
ATOM     48  C   UNL A   1      38.112  31.792  32.929  1.00  0.00     0.029 A 
ATOM     49  C   UNL A   1      39.310  30.993  33.153  1.00  0.00     0.049 A 
ATOM     50  H   UNL A   1      40.362  29.865  31.752  1.00  0.00     0.167 HD
ATOM     51  C   UNL A   1      42.289  27.261  28.786  1.00  0.00     0.031 A 
ATOM     52  C   UNL A   1      39.937  30.854  34.336  1.00  0.00     0.031 A 
ATOM     53  C   UNL A   1      43.027  27.054  30.004  1.00  0.00     0.049 A 
ATOM     54  C   UNL A   1      41.110  29.921  34.431  1.00  0.00     0.074 A 
ATOM     55  C   UNL A   1      44.153  26.276  30.211  1.00  0.00     0.029 A 
ATOM     56  N   UNL A   1      42.715  27.639  31.223  1.00  0.00    -0.354 N 
ATOM     57  N   UNL A   1      41.672  29.202  33.489  1.00  0.00    -0.248 NA
ATOM     58  C   UNL A   1      41.728  29.775  35.755  1.00  0.00     0.031 C 
ATOM     59  C   UNL A   1      44.493  26.353  31.566  1.00  0.00     0.029 A 
ATOM     60  C   UNL A   1      43.618  27.229  32.189  1.00  0.00     0.049 A 
ATOM     61  H   UNL A   1      41.963  28.253  31.377  1.00  0.00     0.167 HD
ATOM     62  C   UNL A   1      42.725  28.536  34.102  1.00  0.00     0.074 A 
ATOM     63  C   UNL A   1      42.733  28.952  35.490  1.00  0.00     0.031 C 
ATOM     64  C   UNL A   1      43.607  27.657  33.564  1.00  0.00     0.031 A 
BRANCH  51  65
ATOM     65  C   UNL A   1      42.727  26.532  27.544  1.00  0.00    -0.014 A 
ATOM     66  C   UNL A   1      43.639  27.095  26.638  1.00  0.00     0.009 A 
ATOM     67  C   UNL A   1      42.230  25.244  27.288  1.00  0.00     0.009 A 
ATOM     68  C   UNL A   1      44.011  26.401  25.483  1.00  0.00     0.001 A 
ATOM     69  C   UNL A   1      42.628  24.539  26.150  1.00  0.00     0.001 A 
ATOM     70  C   UNL A   1      43.509  25.123  25.243  1.00  0.00     0.000 A 
ENDBRANCH  51  65
BRANCH  52  71
ATOM     71  C   UNL A   1      39.431  31.576  35.534  1.00  0.00    -0.014 A 
ATOM     72  C   UNL A   1      38.386  31.042  36.301  1.00  0.00     0.009 A 
ATOM     73  C   UNL A   1      39.997  32.803  35.920  1.00  0.00     0.009 A 
ATOM     74  C   UNL A   1      37.907  31.729  37.420  1.00  0.00     0.001 A 
ATOM     75  C   UNL A   1      39.539  33.469  37.057  1.00  0.00     0.001 A 
ATOM     76  C   UNL A   1      38.488  32.936  37.801  1.00  0.00     0.000 A 
ENDBRANCH  52  71
BRANCH  64  77
ATOM     77  C   UNL A   1      44.685  27.133  34.472  1.00  0.00    -0.014 A 
ATOM     78  C   UNL A   1      44.492  25.983  35.251  1.00  0.00     0.009 A 
ATOM     79  C   UNL A   1      45.923  27.792  34.523  1.00  0.00     0.009 A 
ATOM     80  C   UNL A   1      45.507  25.526  36.095  1.00  0.00     0.001 A 
ATOM     81  C   UNL A   1      46.947  27.313  35.342  1.00  0.00     0.001 A 
ATOM     82  C   UNL A   1      46.733  26.188  36.135  1.00  0.00     0.000 A 
ENDBRANCH  64  77
ENDBRANCH  38  39
ENDBRANCH  31  33
ENDBRANCH  30  31
ENDBRANCH  29  30
ENDBRANCH  28  29
ENDBRANCH   1  28
TORSDOF 17
ENDMDL
MODEL 2
REMARK VINA RESULT:     -10.8      2.486      6.680
REMARK SMILES COC(=O)C[C@@H](NC(=O)c1ccccc1C(=O)OCCOC(=O)c1ccc(-c2c3nc(c(-c4ccccc4)c4ccc([nH]4)c(-c4ccccc4)c4nc(c(-c5ccccc5)c5ccc2[nH]5)C=C4)C=C3)cc1)c1cccc(C)c1C
REMARK SMILES IDX 18 1 16 2 17 3 15 4 10 5 11 6 12 7 14 8 13 9 8 10 7 11 9 13
REMARK SMILES IDX 6 14 5 15 3 16 4 17 2 18 1 19 72 20 73 21 78 22 74 23 76 24
REMARK SMILES IDX 79 25 75 26 77 27 19 28 20 29 21 30 22 31 23 32 24 33 25 34
REMARK SMILES IDX 71 35 26 36 70 37 27 38 28 39 29 40 64 41 30 42 69 43 63 44
REMARK SMILES IDX 65 45 31 46 68 47 62 48 61 49 32 51 54 52 39 53 53 54 40 55
REMARK SMILES IDX 43 56 52 57 66 58 41 59 42 60 51 62 67 63 44 64 33 65 34 66
REMARK SMILES IDX 38 67 35 68 37 69 36 70 55 71 56 72 60 73 57 74 59 75 58 76
REMARK SMILES IDX 45 77 46 78 50 79 47 80 49 81 48 82
REMARK H PARENT 7 12 65 50 43 61
REMARK Flexibility Score: inf
ROOT
ATOM      1  O   UNL A   1      35.265  23.617  25.877  1.00  0.00    -0.458 OA
ENDROOT
BRANCH   1   2
ATOM      2  C   UNL A   1      34.227  22.861  26.282  1.00  0.00     0.339 C 
ATOM      3  O   UNL A   1      34.132  22.290  27.354  1.00  0.00    -0.246 OA
BRANCH   2   4
ATOM      4  C   UNL A   1      33.188  22.702  25.270  1.00  0.00     0.072 A 
ATOM      5  C   UNL A   1      31.945  23.300  25.457  1.00  0.00     0.054 A 
ATOM      6  C   UNL A   1      31.048  23.400  24.372  1.00  0.00     0.015 A 
ATOM      7  C   UNL A   1      31.442  23.004  23.092  1.00  0.00     0.001 A 
ATOM      8  C   UNL A   1      33.564  22.266  23.986  1.00  0.00     0.016 A 
ATOM      9  C   UNL A   1      32.702  22.440  22.897  1.00  0.00     0.001 A 
BRANCH   5  10
ATOM     10  C   UNL A   1      31.532  23.983  26.691  1.00  0.00     0.252 C 
ATOM     11  N   UNL A   1      31.285  25.335  26.784  1.00  0.00    -0.345 N 
ATOM     12  H   UNL A   1      30.448  25.520  27.268  1.00  0.00     0.164 HD
ATOM     13  O   UNL A   1      31.201  23.259  27.630  1.00  0.00    -0.269 OA
BRANCH  11  14
ATOM     14  C   UNL A   1      31.961  26.608  26.338  1.00  0.00     0.124 C 
BRANCH  14  15
ATOM     15  C   UNL A   1      31.567  27.719  27.332  1.00  0.00     0.152 C 
BRANCH  15  16
ATOM     16  C   UNL A   1      32.381  28.991  27.283  1.00  0.00     0.307 C 
ATOM     17  O   UNL A   1      31.906  30.085  27.005  1.00  0.00    -0.252 OA
BRANCH  16  18
ATOM     18  O   UNL A   1      33.657  28.786  27.707  1.00  0.00    -0.469 OA
ATOM     19  C   UNL A   1      34.664  29.213  26.783  1.00  0.00     0.282 C 
ENDBRANCH  16  18
ENDBRANCH  15  16
ENDBRANCH  14  15
BRANCH  14  20
ATOM     20  C   UNL A   1      31.870  26.996  24.816  1.00  0.00    -0.022 A 
ATOM     21  C   UNL A   1      30.744  27.729  24.417  1.00  0.00     0.006 A 
ATOM     22  C   UNL A   1      32.655  26.504  23.729  1.00  0.00    -0.043 A 
ATOM     23  C   UNL A   1      30.209  27.740  23.131  1.00  0.00     0.001 A 
ATOM     24  C   UNL A   1      32.121  26.510  22.395  1.00  0.00    -0.048 A 
ATOM     25  C   UNL A   1      34.072  26.012  23.879  1.00  0.00     0.045 C 
ATOM     26  C   UNL A   1      30.871  27.078  22.129  1.00  0.00     0.004 A 
ATOM     27  C   UNL A   1      32.842  25.980  21.179  1.00  0.00     0.044 C 
ENDBRANCH  14  20
ENDBRANCH  11  14
ENDBRANCH   5  10
ENDBRANCH   2   4
ENDBRANCH   1   2
BRANCH   1  28
ATOM     28  C   UNL A   1      36.498  22.874  25.798  1.00  0.00     0.275 C 
BRANCH  28  29
ATOM     29  C   UNL A   1      37.744  23.768  25.764  1.00  0.00     0.275 C 
BRANCH  29  30
ATOM     30  O   UNL A   1      38.844  23.235  26.534  1.00  0.00    -0.458 OA
BRANCH  30  31
ATOM     31  C   UNL A   1      39.949  24.010  26.567  1.00  0.00     0.338 C 
ATOM     32  O   UNL A   1      41.043  23.760  26.076  1.00  0.00    -0.246 OA
BRANCH  31  33
ATOM     33  C   UNL A   1      39.711  25.277  27.277  1.00  0.00     0.060 A 
ATOM     34  C   UNL A   1      40.327  26.451  26.839  1.00  0.00     0.016 A 
ATOM     35  C   UNL A   1      39.081  25.242  28.520  1.00  0.00     0.016 A 
ATOM     36  C   UNL A   1      40.400  27.560  27.675  1.00  0.00     0.010 A 
ATOM     37  C   UNL A   1      39.083  26.385  29.325  1.00  0.00     0.010 A 
ATOM     38  C   UNL A   1      39.782  27.540  28.928  1.00  0.00    -0.014 A 
BRANCH  38  39
ATOM     39  C   UNL A   1      39.921  28.691  29.855  1.00  0.00     0.031 A 
ATOM     40  C   UNL A   1      41.021  28.692  30.882  1.00  0.00     0.074 A 
ATOM     41  C   UNL A   1      39.070  29.733  29.780  1.00  0.00     0.049 A 
ATOM     42  N   UNL A   1      41.184  29.469  31.922  1.00  0.00    -0.248 NA
ATOM     43  C   UNL A   1      42.070  27.672  30.724  1.00  0.00     0.031 C 
ATOM     44  C   UNL A   1      38.012  29.900  28.781  1.00  0.00     0.029 A 
ATOM     45  N   UNL A   1      38.958  30.848  30.571  1.00  0.00    -0.354 N 
ATOM     46  C   UNL A   1      42.316  28.994  32.574  1.00  0.00     0.074 A 
ATOM     47  C   UNL A   1      42.797  27.859  31.815  1.00  0.00     0.031 C 
ATOM     48  C   UNL A   1      37.369  31.055  29.010  1.00  0.00     0.029 A 
ATOM     49  C   UNL A   1      37.906  31.659  30.223  1.00  0.00     0.049 A 
ATOM     50  H   UNL A   1      39.573  31.049  31.314  1.00  0.00     0.167 HD
ATOM     51  C   UNL A   1      42.895  29.460  33.707  1.00  0.00     0.031 A 
ATOM     52  C   UNL A   1      37.389  32.735  30.844  1.00  0.00     0.031 A 
ATOM     53  C   UNL A   1      42.418  30.604  34.439  1.00  0.00     0.049 A 
ATOM     54  C   UNL A   1      38.000  33.189  32.139  1.00  0.00     0.074 A 
ATOM     55  C   UNL A   1      42.924  31.159  35.602  1.00  0.00     0.029 A 
ATOM     56  N   UNL A   1      41.325  31.375  34.070  1.00  0.00    -0.354 N 
ATOM     57  N   UNL A   1      39.030  32.697  32.784  1.00  0.00    -0.248 NA
ATOM     58  C   UNL A   1      37.369  34.341  32.795  1.00  0.00     0.031 C 
ATOM     59  C   UNL A   1      42.107  32.237  35.961  1.00  0.00     0.029 A 
ATOM     60  C   UNL A   1      41.132  32.391  34.988  1.00  0.00     0.049 A 
ATOM     61  H   UNL A   1      40.770  31.220  33.273  1.00  0.00     0.167 HD
ATOM     62  C   UNL A   1      39.187  33.494  33.909  1.00  0.00     0.074 A 
ATOM     63  C   UNL A   1      38.156  34.512  33.848  1.00  0.00     0.031 C 
ATOM     64  C   UNL A   1      40.100  33.394  34.906  1.00  0.00     0.031 A 
BRANCH  51  65
ATOM     65  C   UNL A   1      44.076  28.699  34.248  1.00  0.00    -0.014 A 
ATOM     66  C   UNL A   1      45.396  29.098  33.987  1.00  0.00     0.009 A 
ATOM     67  C   UNL A   1      43.860  27.570  35.054  1.00  0.00     0.009 A 
ATOM     68  C   UNL A   1      46.472  28.359  34.486  1.00  0.00     0.001 A 
ATOM     69  C   UNL A   1      44.936  26.851  35.580  1.00  0.00     0.001 A 
ATOM     70  C   UNL A   1      46.241  27.240  35.285  1.00  0.00     0.000 A 
ENDBRANCH  51  65
BRANCH  52  71
ATOM     71  C   UNL A   1      36.198  33.421  30.274  1.00  0.00    -0.014 A 
ATOM     72  C   UNL A   1      35.008  33.512  31.009  1.00  0.00     0.009 A 
ATOM     73  C   UNL A   1      36.250  33.995  28.993  1.00  0.00     0.009 A 
ATOM     74  C   UNL A   1      33.889  34.148  30.466  1.00  0.00     0.001 A 
ATOM     75  C   UNL A   1      35.141  34.660  28.467  1.00  0.00     0.001 A 
ATOM     76  C   UNL A   1      33.958  34.727  29.200  1.00  0.00     0.000 A 
ENDBRANCH  52  71
BRANCH  64  77
ATOM     77  C   UNL A   1      40.056  34.446  35.979  1.00  0.00    -0.014 A 
ATOM     78  C   UNL A   1      39.321  34.259  37.159  1.00  0.00     0.009 A 
ATOM     79  C   UNL A   1      40.786  35.633  35.812  1.00  0.00     0.009 A 
ATOM     80  C   UNL A   1      39.287  35.258  38.134  1.00  0.00     0.001 A 
ATOM     81  C   UNL A   1      40.777  36.616  36.802  1.00  0.00     0.001 A 
ATOM     82  C   UNL A   1      40.019  36.432  37.956  1.00  0.00     0.000 A 
ENDBRANCH  64  77
ENDBRANCH  38  39
ENDBRANCH  31  33
ENDBRANCH  30  31
ENDBRANCH  29  30
ENDBRANCH  28  29
ENDBRANCH   1  28
TORSDOF 17
ENDMDL
MODEL 3
REMARK VINA RESULT:     -10.8      3.453      7.038
REMARK SMILES COC(=O)C[C@@H](NC(=O)c1ccccc1C(=O)OCCOC(=O)c1ccc(-c2c3nc(c(-c4ccccc4)c4ccc([nH]4)c(-c4ccccc4)c4nc(c(-c5ccccc5)c5ccc2[nH]5)C=C4)C=C3)cc1)c1cccc(C)c1C
REMARK SMILES IDX 18 1 16 2 17 3 15 4 10 5 11 6 12 7 14 8 13 9 8 10 7 11 9 13
REMARK SMILES IDX 6 14 5 15 3 16 4 17 2 18 1 19 72 20 73 21 78 22 74 23 76 24
REMARK SMILES IDX 79 25 75 26 77 27 19 28 20 29 21 30 22 31 23 32 24 33 25 34
REMARK SMILES IDX 71 35 26 36 70 37 27 38 28 39 29 40 64 41 30 42 69 43 63 44
REMARK SMILES IDX 65 45 31 46 68 47 62 48 61 49 32 51 54 52 39 53 53 54 40 55
REMARK SMILES IDX 43 56 52 57 66 58 41 59 42 60 51 62 67 63 44 64 33 65 34 66
REMARK SMILES IDX 38 67 35 68 37 69 36 70 55 71 56 72 60 73 57 74 59 75 58 76
REMARK SMILES IDX 45 77 46 78 50 79 47 80 49 81 48 82
REMARK H PARENT 7 12 65 50 43 61
REMARK Flexibility Score: inf
ROOT
ATOM      1  O   UNL A   1      33.049  27.835  25.497  1.00  0.00    -0.458 OA
ENDROOT
BRANCH   1   2
ATOM      2  C   UNL A   1      32.583  28.100  24.261  1.00  0.00     0.339 C 
ATOM      3  O   UNL A   1      32.839  29.088  23.597  1.00  0.00    -0.246 OA
BRANCH   2   4
ATOM      4  C   UNL A   1      31.643  27.101  23.763  1.00  0.00     0.072 A 
ATOM      5  C   UNL A   1      32.115  26.010  23.038  1.00  0.00     0.054 A 
ATOM      6  C   UNL A   1      31.268  24.906  22.808  1.00  0.00     0.015 A 
ATOM      7  C   UNL A   1      30.002  24.852  23.396  1.00  0.00     0.001 A 
ATOM      8  C   UNL A   1      30.351  27.061  24.317  1.00  0.00     0.016 A 
ATOM      9  C   UNL A   1      29.544  25.929  24.154  1.00  0.00     0.001 A 
BRANCH   5  10
ATOM     10  C   UNL A   1      33.509  25.848  22.600  1.00  0.00     0.252 C 
ATOM     11  N   UNL A   1      34.341  24.833  23.021  1.00  0.00    -0.345 N 
ATOM     12  H   UNL A   1      34.824  24.422  22.266  1.00  0.00     0.164 HD
ATOM     13  O   UNL A   1      33.869  26.549  21.655  1.00  0.00    -0.269 OA
BRANCH  11  14
ATOM     14  C   UNL A   1      34.705  24.184  24.332  1.00  0.00     0.124 C 
BRANCH  14  15
ATOM     15  C   UNL A   1      36.110  23.567  24.174  1.00  0.00     0.152 C 
BRANCH  15  16
ATOM     16  C   UNL A   1      36.871  23.281  25.447  1.00  0.00     0.307 C 
ATOM     17  O   UNL A   1      37.356  24.156  26.154  1.00  0.00    -0.252 OA
BRANCH  16  18
ATOM     18  O   UNL A   1      36.835  21.959  25.766  1.00  0.00    -0.469 OA
ATOM     19  C   UNL A   1      37.834  21.165  25.115  1.00  0.00     0.282 C 
ENDBRANCH  16  18
ENDBRANCH  15  16
ENDBRANCH  14  15
BRANCH  14  20
ATOM     20  C   UNL A   1      33.633  23.261  25.021  1.00  0.00    -0.022 A 
ATOM     21  C   UNL A   1      33.571  21.931  24.585  1.00  0.00     0.006 A 
ATOM     22  C   UNL A   1      32.548  23.645  25.865  1.00  0.00    -0.043 A 
ATOM     23  C   UNL A   1      32.444  21.116  24.657  1.00  0.00     0.001 A 
ATOM     24  C   UNL A   1      31.378  22.815  25.956  1.00  0.00    -0.048 A 
ATOM     25  C   UNL A   1      32.564  24.872  26.741  1.00  0.00     0.045 C 
ATOM     26  C   UNL A   1      31.323  21.584  25.294  1.00  0.00     0.004 A 
ATOM     27  C   UNL A   1      30.157  23.139  26.782  1.00  0.00     0.044 C 
ENDBRANCH  14  20
ENDBRANCH  11  14
ENDBRANCH   5  10
ENDBRANCH   2   4
ENDBRANCH   1   2
BRANCH   1  28
ATOM     28  C   UNL A   1      34.012  28.808  25.950  1.00  0.00     0.275 C 
BRANCH  28  29
ATOM     29  C   UNL A   1      33.638  29.451  27.292  1.00  0.00     0.275 C 
BRANCH  29  30
ATOM     30  O   UNL A   1      34.090  30.818  27.407  1.00  0.00    -0.458 OA
BRANCH  30  31
ATOM     31  C   UNL A   1      34.861  31.078  28.486  1.00  0.00     0.338 C 
ATOM     32  O   UNL A   1      34.653  31.909  29.360  1.00  0.00    -0.246 OA
BRANCH  31  33
ATOM     33  C   UNL A   1      36.046  30.207  28.536  1.00  0.00     0.060 A 
ATOM     34  C   UNL A   1      36.413  29.594  29.736  1.00  0.00     0.016 A 
ATOM     35  C   UNL A   1      36.927  30.207  27.456  1.00  0.00     0.016 A 
ATOM     36  C   UNL A   1      37.690  29.067  29.894  1.00  0.00     0.010 A 
ATOM     37  C   UNL A   1      38.180  29.603  27.589  1.00  0.00     0.010 A 
ATOM     38  C   UNL A   1      38.590  29.067  28.824  1.00  0.00    -0.014 A 
BRANCH  38  39
ATOM     39  C   UNL A   1      39.978  28.575  29.007  1.00  0.00     0.031 A 
ATOM     40  C   UNL A   1      41.039  29.513  29.517  1.00  0.00     0.074 A 
ATOM     41  C   UNL A   1      40.291  27.296  28.723  1.00  0.00     0.049 A 
ATOM     42  N   UNL A   1      42.339  29.364  29.534  1.00  0.00    -0.248 NA
ATOM     43  C   UNL A   1      40.574  30.795  30.070  1.00  0.00     0.031 C 
ATOM     44  C   UNL A   1      39.346  26.260  28.301  1.00  0.00     0.029 A 
ATOM     45  N   UNL A   1      41.503  26.653  28.738  1.00  0.00    -0.354 N 
ATOM     46  C   UNL A   1      42.849  30.554  30.039  1.00  0.00     0.074 A 
ATOM     47  C   UNL A   1      41.719  31.417  30.312  1.00  0.00     0.031 C 
ATOM     48  C   UNL A   1      40.010  25.110  28.111  1.00  0.00     0.029 A 
ATOM     49  C   UNL A   1      41.434  25.351  28.305  1.00  0.00     0.049 A 
ATOM     50  H   UNL A   1      42.340  27.082  29.030  1.00  0.00     0.167 HD
ATOM     51  C   UNL A   1      44.143  30.897  30.248  1.00  0.00     0.031 A 
ATOM     52  C   UNL A   1      42.412  24.467  28.034  1.00  0.00     0.031 A 
ATOM     53  C   UNL A   1      45.256  30.020  29.992  1.00  0.00     0.049 A 
ATOM     54  C   UNL A   1      43.842  24.893  28.201  1.00  0.00     0.074 A 
ATOM     55  C   UNL A   1      46.607  30.266  30.162  1.00  0.00     0.029 A 
ATOM     56  N   UNL A   1      45.141  28.721  29.519  1.00  0.00    -0.354 N 
ATOM     57  N   UNL A   1      44.319  26.041  28.617  1.00  0.00    -0.248 NA
ATOM     58  C   UNL A   1      44.868  23.903  27.850  1.00  0.00     0.031 C 
ATOM     59  C   UNL A   1      47.311  29.131  29.745  1.00  0.00     0.029 A 
ATOM     60  C   UNL A   1      46.397  28.157  29.378  1.00  0.00     0.049 A 
ATOM     61  H   UNL A   1      44.292  28.268  29.314  1.00  0.00     0.167 HD
ATOM     62  C   UNL A   1      45.701  25.903  28.602  1.00  0.00     0.074 A 
ATOM     63  C   UNL A   1      45.982  24.555  28.152  1.00  0.00     0.031 C 
ATOM     64  C   UNL A   1      46.653  26.812  28.930  1.00  0.00     0.031 A 
BRANCH  51  65
ATOM     65  C   UNL A   1      44.423  32.296  30.730  1.00  0.00    -0.014 A 
ATOM     66  C   UNL A   1      44.535  32.599  32.095  1.00  0.00     0.009 A 
ATOM     67  C   UNL A   1      44.600  33.326  29.793  1.00  0.00     0.009 A 
ATOM     68  C   UNL A   1      44.776  33.912  32.513  1.00  0.00     0.001 A 
ATOM     69  C   UNL A   1      44.872  34.631  30.210  1.00  0.00     0.001 A 
ATOM     70  C   UNL A   1      44.948  34.924  31.571  1.00  0.00     0.000 A 
ENDBRANCH  51  65
BRANCH  52  71
ATOM     71  C   UNL A   1      42.068  23.112  27.527  1.00  0.00    -0.014 A 
ATOM     72  C   UNL A   1      42.050  22.848  26.150  1.00  0.00     0.009 A 
ATOM     73  C   UNL A   1      41.762  22.071  28.421  1.00  0.00     0.009 A 
ATOM     74  C   UNL A   1      41.716  21.577  25.678  1.00  0.00     0.001 A 
ATOM     75  C   UNL A   1      41.463  20.793  27.946  1.00  0.00     0.001 A 
ATOM     76  C   UNL A   1      41.431  20.549  26.575  1.00  0.00     0.000 A 
ENDBRANCH  52  71
BRANCH  64  77
ATOM     77  C   UNL A   1      48.083  26.353  28.864  1.00  0.00    -0.014 A 
ATOM     78  C   UNL A   1      48.736  25.824  29.987  1.00  0.00     0.009 A 
ATOM     79  C   UNL A   1      48.776  26.430  27.646  1.00  0.00     0.009 A 
ATOM     80  C   UNL A   1      50.069  25.417  29.899  1.00  0.00     0.001 A 
ATOM     81  C   UNL A   1      50.097  25.992  27.553  1.00  0.00     0.001 A 
ATOM     82  C   UNL A   1      50.745  25.497  28.683  1.00  0.00     0.000 A 
ENDBRANCH  64  77
ENDBRANCH  38  39
ENDBRANCH  31  33
ENDBRANCH  30  31
ENDBRANCH  29  30
ENDBRANCH  28  29
ENDBRANCH   1  28
TORSDOF 17
ENDMDL
