MODEL 1
REMARK VINA RESULT:      -9.5      0.000      0.000
REMARK SMILES CC[C@@H](C)CN(CC)C(=O)N1CC[C@@](CC)(C(=O)OCCOC(=O)c2ccc(-c3c4nc(c(-c5ccccc5)c5ccc([nH]5)c(-c5ccccc5)c5nc(c(-c6ccccc6)c6ccc3[nH]6)C=C5)C=C4)cc2)C1
REMARK SMILES IDX 19 1 17 2 18 3 14 4 11 5 12 6 73 7 13 8 9 9 10 10 6 11 5 12
REMARK SMILES IDX 3 13 4 14 2 15 1 16 7 17 8 18 15 19 16 20 20 21 21 22 22 23
REMARK SMILES IDX 23 24 24 25 25 26 26 27 72 28 27 29 71 30 28 31 29 32 30 33
REMARK SMILES IDX 65 34 31 35 70 36 64 37 66 38 32 39 69 40 63 41 62 42 33 44
REMARK SMILES IDX 55 45 40 46 54 47 41 48 44 49 53 50 67 51 42 52 43 53 52 55
REMARK SMILES IDX 68 56 45 57 34 58 35 59 39 60 36 61 38 62 37 63 56 64 57 65
REMARK SMILES IDX 61 66 58 67 60 68 59 69 46 70 47 71 51 72 48 73 50 74 49 75
REMARK H PARENT 66 43 44 54
REMARK Flexibility Score: inf
ROOT
ATOM      1  O   UNL A   1      31.458  28.301  25.917  1.00  0.00    -0.462 OA
ENDROOT
BRANCH   1   2
ATOM      2  C   UNL A   1      32.015  27.146  25.462  1.00  0.00     0.314 C 
ATOM      3  O   UNL A   1      32.470  26.267  26.185  1.00  0.00    -0.252 OA
BRANCH   2   4
ATOM      4  C   UNL A   1      32.123  27.106  23.937  1.00  0.00     0.087 C 
ATOM      5  N   UNL A   1      32.795  25.048  22.872  1.00  0.00    -0.323 N 
ATOM      6  C   UNL A   1      31.374  24.959  23.130  1.00  0.00     0.122 C 
ATOM      7  C   UNL A   1      33.333  26.232  23.535  1.00  0.00     0.140 C 
ATOM      8  C   UNL A   1      30.947  26.415  23.217  1.00  0.00     0.042 C 
BRANCH   5   9
ATOM      9  C   UNL A   1      33.608  23.948  22.708  1.00  0.00     0.320 C 
ATOM     10  O   UNL A   1      33.622  23.343  21.639  1.00  0.00    -0.248 OA
BRANCH   9  11
ATOM     11  N   UNL A   1      34.297  23.477  23.811  1.00  0.00    -0.325 N 
BRANCH  11  12
ATOM     12  C   UNL A   1      33.556  22.680  24.803  1.00  0.00     0.124 C 
BRANCH  12  13
ATOM     13  C   UNL A   1      34.393  21.557  25.487  1.00  0.00     0.005 C 
ATOM     14  C   UNL A   1      33.711  20.206  25.239  1.00  0.00     0.009 C 
BRANCH  13  15
ATOM     15  C   UNL A   1      34.582  21.821  26.998  1.00  0.00     0.002 C 
ATOM     16  C   UNL A   1      33.304  21.990  27.809  1.00  0.00     0.004 C 
ENDBRANCH  13  15
ENDBRANCH  12  13
ENDBRANCH  11  12
BRANCH  11  17
ATOM     17  C   UNL A   1      35.716  23.707  24.083  1.00  0.00     0.118 C 
ATOM     18  C   UNL A   1      36.590  22.811  23.211  1.00  0.00     0.027 C 
ENDBRANCH  11  17
ENDBRANCH   9  11
ENDBRANCH   5   9
BRANCH   4  19
ATOM     19  C   UNL A   1      32.333  28.561  23.460  1.00  0.00     0.017 C 
ATOM     20  C   UNL A   1      33.771  28.894  23.082  1.00  0.00     0.005 C 
ENDBRANCH   4  19
ENDBRANCH   2   4
ENDBRANCH   1   2
BRANCH   1  21
ATOM     21  C   UNL A   1      31.901  28.788  27.204  1.00  0.00     0.274 C 
BRANCH  21  22
ATOM     22  C   UNL A   1      32.804  30.004  27.022  1.00  0.00     0.275 C 
BRANCH  22  23
ATOM     23  O   UNL A   1      34.119  29.654  27.478  1.00  0.00    -0.458 OA
BRANCH  23  24
ATOM     24  C   UNL A   1      34.776  30.575  28.219  1.00  0.00     0.338 C 
ATOM     25  O   UNL A   1      34.337  31.613  28.679  1.00  0.00    -0.246 OA
BRANCH  24  26
ATOM     26  C   UNL A   1      36.155  30.095  28.422  1.00  0.00     0.060 A 
ATOM     27  C   UNL A   1      37.060  30.168  27.367  1.00  0.00     0.016 A 
ATOM     28  C   UNL A   1      36.535  29.508  29.627  1.00  0.00     0.016 A 
ATOM     29  C   UNL A   1      38.327  29.613  27.492  1.00  0.00     0.010 A 
ATOM     30  C   UNL A   1      37.845  29.034  29.780  1.00  0.00     0.010 A 
ATOM     31  C   UNL A   1      38.755  29.067  28.705  1.00  0.00    -0.014 A 
BRANCH  31  32
ATOM     32  C   UNL A   1      40.138  28.535  28.844  1.00  0.00     0.031 A 
ATOM     33  C   UNL A   1      41.256  29.426  29.309  1.00  0.00     0.074 A 
ATOM     34  C   UNL A   1      40.406  27.246  28.552  1.00  0.00     0.049 A 
ATOM     35  N   UNL A   1      42.549  29.240  29.226  1.00  0.00    -0.248 NA
ATOM     36  C   UNL A   1      40.870  30.701  29.931  1.00  0.00     0.031 C 
ATOM     37  C   UNL A   1      39.420  26.229  28.180  1.00  0.00     0.029 A 
ATOM     38  N   UNL A   1      41.600  26.566  28.531  1.00  0.00    -0.354 N 
ATOM     39  C   UNL A   1      43.130  30.405  29.710  1.00  0.00     0.074 A 
ATOM     40  C   UNL A   1      42.048  31.286  30.100  1.00  0.00     0.031 C 
ATOM     41  C   UNL A   1      40.037  25.050  28.026  1.00  0.00     0.029 A 
ATOM     42  C   UNL A   1      41.473  25.251  28.160  1.00  0.00     0.049 A 
ATOM     43  H   UNL A   1      42.463  26.982  28.760  1.00  0.00     0.167 HD
ATOM     44  C   UNL A   1      44.447  30.713  29.801  1.00  0.00     0.031 A 
ATOM     45  C   UNL A   1      42.403  24.318  27.887  1.00  0.00     0.031 A 
ATOM     46  C   UNL A   1      45.516  29.808  29.466  1.00  0.00     0.049 A 
ATOM     47  C   UNL A   1      43.850  24.702  27.912  1.00  0.00     0.074 A 
ATOM     48  C   UNL A   1      46.883  30.015  29.550  1.00  0.00     0.029 A 
ATOM     49  N   UNL A   1      45.337  28.515  28.999  1.00  0.00    -0.354 N 
ATOM     50  N   UNL A   1      44.393  25.840  28.265  1.00  0.00    -0.248 NA
ATOM     51  C   UNL A   1      44.808  23.688  27.454  1.00  0.00     0.031 C 
ATOM     52  C   UNL A   1      47.530  28.862  29.090  1.00  0.00     0.029 A 
ATOM     53  C   UNL A   1      46.566  27.922  28.762  1.00  0.00     0.049 A 
ATOM     54  H   UNL A   1      44.464  28.082  28.856  1.00  0.00     0.167 HD
ATOM     55  C   UNL A   1      45.757  25.686  28.066  1.00  0.00     0.074 A 
ATOM     56  C   UNL A   1      45.960  24.333  27.583  1.00  0.00     0.031 C 
ATOM     57  C   UNL A   1      46.750  26.587  28.259  1.00  0.00     0.031 A 
BRANCH  44  58
ATOM     58  C   UNL A   1      44.804  32.113  30.219  1.00  0.00    -0.014 A 
ATOM     59  C   UNL A   1      44.925  33.158  29.292  1.00  0.00     0.009 A 
ATOM     60  C   UNL A   1      44.998  32.389  31.583  1.00  0.00     0.009 A 
ATOM     61  C   UNL A   1      45.271  34.443  29.720  1.00  0.00     0.001 A 
ATOM     62  C   UNL A   1      45.316  33.678  32.010  1.00  0.00     0.001 A 
ATOM     63  C   UNL A   1      45.462  34.703  31.077  1.00  0.00     0.000 A 
ENDBRANCH  44  58
BRANCH  45  64
ATOM     64  C   UNL A   1      41.975  22.955  27.484  1.00  0.00    -0.014 A 
ATOM     65  C   UNL A   1      41.734  21.973  28.456  1.00  0.00     0.009 A 
ATOM     66  C   UNL A   1      41.755  22.644  26.132  1.00  0.00     0.009 A 
ATOM     67  C   UNL A   1      41.274  20.708  28.080  1.00  0.00     0.001 A 
ATOM     68  C   UNL A   1      41.269  21.390  25.763  1.00  0.00     0.001 A 
ATOM     69  C   UNL A   1      41.031  20.422  26.736  1.00  0.00     0.000 A 
ENDBRANCH  45  64
BRANCH  57  70
ATOM     70  C   UNL A   1      48.144  26.129  27.948  1.00  0.00    -0.014 A 
ATOM     71  C   UNL A   1      48.931  25.506  28.928  1.00  0.00     0.009 A 
ATOM     72  C   UNL A   1      48.669  26.308  26.660  1.00  0.00     0.009 A 
ATOM     73  C   UNL A   1      50.230  25.091  28.628  1.00  0.00     0.001 A 
ATOM     74  C   UNL A   1      49.960  25.873  26.357  1.00  0.00     0.001 A 
ATOM     75  C   UNL A   1      50.742  25.272  27.343  1.00  0.00     0.000 A 
ENDBRANCH  57  70
ENDBRANCH  31  32
ENDBRANCH  24  26
ENDBRANCH  23  24
ENDBRANCH  22  23
ENDBRANCH  21  22
ENDBRANCH   1  21
TORSDOF 18
ENDMDL
MODEL 2
REMARK VINA RESULT:      -9.3      2.469      7.119
REMARK SMILES CC[C@@H](C)CN(CC)C(=O)N1CC[C@@](CC)(C(=O)OCCOC(=O)c2ccc(-c3c4nc(c(-c5ccccc5)c5ccc([nH]5)c(-c5ccccc5)c5nc(c(-c6ccccc6)c6ccc3[nH]6)C=C5)C=C4)cc2)C1
REMARK SMILES IDX 19 1 17 2 18 3 14 4 11 5 12 6 73 7 13 8 9 9 10 10 6 11 5 12
REMARK SMILES IDX 3 13 4 14 2 15 1 16 7 17 8 18 15 19 16 20 20 21 21 22 22 23
REMARK SMILES IDX 23 24 24 25 25 26 26 27 72 28 27 29 71 30 28 31 29 32 30 33
REMARK SMILES IDX 65 34 31 35 70 36 64 37 66 38 32 39 69 40 63 41 62 42 33 44
REMARK SMILES IDX 55 45 40 46 54 47 41 48 44 49 53 50 67 51 42 52 43 53 52 55
REMARK SMILES IDX 68 56 45 57 34 58 35 59 39 60 36 61 38 62 37 63 56 64 57 65
REMARK SMILES IDX 61 66 58 67 60 68 59 69 46 70 47 71 51 72 48 73 50 74 49 75
REMARK H PARENT 66 43 44 54
REMARK Flexibility Score: inf
ROOT
ATOM      1  O   UNL A   1      35.617  23.708  23.995  1.00  0.00    -0.462 OA
ENDROOT
BRANCH   1   2
ATOM      2  C   UNL A   1      34.324  23.763  23.574  1.00  0.00     0.314 C 
ATOM      3  O   UNL A   1      33.927  23.321  22.503  1.00  0.00    -0.252 OA
BRANCH   2   4
ATOM      4  C   UNL A   1      33.427  24.546  24.534  1.00  0.00     0.087 C 
ATOM      5  N   UNL A   1      32.457  26.625  23.784  1.00  0.00    -0.323 N 
ATOM      6  C   UNL A   1      31.612  25.553  23.303  1.00  0.00     0.122 C 
ATOM      7  C   UNL A   1      33.679  26.060  24.346  1.00  0.00     0.140 C 
ATOM      8  C   UNL A   1      31.913  24.416  24.266  1.00  0.00     0.042 C 
BRANCH   5   9
ATOM      9  C   UNL A   1      32.504  27.874  23.206  1.00  0.00     0.320 C 
ATOM     10  O   UNL A   1      33.464  28.199  22.512  1.00  0.00    -0.248 OA
BRANCH   9  11
ATOM     11  N   UNL A   1      31.513  28.782  23.534  1.00  0.00    -0.325 N 
BRANCH  11  12
ATOM     12  C   UNL A   1      30.326  28.858  22.665  1.00  0.00     0.124 C 
BRANCH  12  13
ATOM     13  C   UNL A   1      28.966  28.835  23.425  1.00  0.00     0.005 C 
ATOM     14  C   UNL A   1      28.451  27.391  23.482  1.00  0.00     0.009 C 
BRANCH  13  15
ATOM     15  C   UNL A   1      27.927  29.774  22.770  1.00  0.00     0.002 C 
ATOM     16  C   UNL A   1      27.662  31.084  23.500  1.00  0.00     0.004 C 
ENDBRANCH  13  15
ENDBRANCH  12  13
ENDBRANCH  11  12
BRANCH  11  17
ATOM     17  C   UNL A   1      31.543  29.687  24.683  1.00  0.00     0.118 C 
ATOM     18  C   UNL A   1      31.819  28.919  25.973  1.00  0.00     0.027 C 
ENDBRANCH  11  17
ENDBRANCH   9  11
ENDBRANCH   5   9
BRANCH   4  19
ATOM     19  C   UNL A   1      33.810  24.114  25.967  1.00  0.00     0.017 C 
ATOM     20  C   UNL A   1      33.287  22.739  26.366  1.00  0.00     0.005 C 
ENDBRANCH   4  19
ENDBRANCH   2   4
ENDBRANCH   1   2
BRANCH   1  21
ATOM     21  C   UNL A   1      36.414  22.592  23.540  1.00  0.00     0.274 C 
BRANCH  21  22
ATOM     22  C   UNL A   1      36.320  21.440  24.535  1.00  0.00     0.275 C 
BRANCH  22  23
ATOM     23  O   UNL A   1      36.981  21.841  25.744  1.00  0.00    -0.458 OA
BRANCH  23  24
ATOM     24  C   UNL A   1      38.265  21.444  25.900  1.00  0.00     0.338 C 
ATOM     25  O   UNL A   1      38.740  20.348  25.666  1.00  0.00    -0.246 OA
BRANCH  24  26
ATOM     26  C   UNL A   1      39.041  22.599  26.387  1.00  0.00     0.060 A 
ATOM     27  C   UNL A   1      38.579  23.885  26.123  1.00  0.00     0.016 A 
ATOM     28  C   UNL A   1      40.258  22.416  27.041  1.00  0.00     0.016 A 
ATOM     29  C   UNL A   1      39.350  24.989  26.462  1.00  0.00     0.010 A 
ATOM     30  C   UNL A   1      40.987  23.535  27.465  1.00  0.00     0.010 A 
ATOM     31  C   UNL A   1      40.547  24.839  27.166  1.00  0.00    -0.014 A 
BRANCH  31  32
ATOM     32  C   UNL A   1      41.331  26.034  27.581  1.00  0.00     0.031 A 
ATOM     33  C   UNL A   1      40.753  27.028  28.550  1.00  0.00     0.074 A 
ATOM     34  C   UNL A   1      42.570  26.242  27.091  1.00  0.00     0.049 A 
ATOM     35  N   UNL A   1      41.145  28.250  28.812  1.00  0.00    -0.248 NA
ATOM     36  C   UNL A   1      39.567  26.601  29.308  1.00  0.00     0.031 C 
ATOM     37  C   UNL A   1      43.311  25.328  26.219  1.00  0.00     0.029 A 
ATOM     38  N   UNL A   1      43.434  27.297  27.268  1.00  0.00    -0.354 N 
ATOM     39  C   UNL A   1      40.210  28.763  29.703  1.00  0.00     0.074 A 
ATOM     40  C   UNL A   1      39.241  27.714  29.948  1.00  0.00     0.031 C 
ATOM     41  C   UNL A   1      44.531  25.831  25.986  1.00  0.00     0.029 A 
ATOM     42  C   UNL A   1      44.614  27.157  26.582  1.00  0.00     0.049 A 
ATOM     43  H   UNL A   1      43.226  28.077  27.832  1.00  0.00     0.167 HD
ATOM     44  C   UNL A   1      40.161  30.002  30.249  1.00  0.00     0.031 A 
ATOM     45  C   UNL A   1      45.629  28.018  26.388  1.00  0.00     0.031 A 
ATOM     46  C   UNL A   1      41.162  31.018  30.045  1.00  0.00     0.049 A 
ATOM     47  C   UNL A   1      45.517  29.410  26.929  1.00  0.00     0.074 A 
ATOM     48  C   UNL A   1      41.217  32.296  30.576  1.00  0.00     0.029 A 
ATOM     49  N   UNL A   1      42.294  30.863  29.259  1.00  0.00    -0.354 N 
ATOM     50  N   UNL A   1      44.577  29.928  27.680  1.00  0.00    -0.248 NA
ATOM     51  C   UNL A   1      46.581  30.349  26.553  1.00  0.00     0.031 C 
ATOM     52  C   UNL A   1      42.361  32.929  30.073  1.00  0.00     0.029 A 
ATOM     53  C   UNL A   1      43.040  32.030  29.267  1.00  0.00     0.049 A 
ATOM     54  H   UNL A   1      42.532  30.043  28.768  1.00  0.00     0.167 HD
ATOM     55  C   UNL A   1      44.930  31.256  27.864  1.00  0.00     0.074 A 
ATOM     56  C   UNL A   1      46.184  31.458  27.163  1.00  0.00     0.031 C 
ATOM     57  C   UNL A   1      44.269  32.223  28.545  1.00  0.00     0.031 A 
BRANCH  44  58
ATOM     58  C   UNL A   1      38.948  30.352  31.066  1.00  0.00    -0.014 A 
ATOM     59  C   UNL A   1      37.783  30.869  30.483  1.00  0.00     0.009 A 
ATOM     60  C   UNL A   1      38.974  30.132  32.453  1.00  0.00     0.009 A 
ATOM     61  C   UNL A   1      36.680  31.193  31.279  1.00  0.00     0.001 A 
ATOM     62  C   UNL A   1      37.863  30.431  33.242  1.00  0.00     0.001 A 
ATOM     63  C   UNL A   1      36.720  30.970  32.656  1.00  0.00     0.000 A 
ENDBRANCH  44  58
BRANCH  45  64
ATOM     64  C   UNL A   1      46.797  27.601  25.572  1.00  0.00    -0.014 A 
ATOM     65  C   UNL A   1      46.789  27.781  24.182  1.00  0.00     0.009 A 
ATOM     66  C   UNL A   1      47.944  27.067  26.184  1.00  0.00     0.009 A 
ATOM     67  C   UNL A   1      47.911  27.443  23.421  1.00  0.00     0.001 A 
ATOM     68  C   UNL A   1      49.073  26.757  25.425  1.00  0.00     0.001 A 
ATOM     69  C   UNL A   1      49.055  26.943  24.044  1.00  0.00     0.000 A 
ENDBRANCH  45  64
BRANCH  57  70
ATOM     70  C   UNL A   1      44.899  33.584  28.564  1.00  0.00    -0.014 A 
ATOM     71  C   UNL A   1      44.561  34.547  27.601  1.00  0.00     0.009 A 
ATOM     72  C   UNL A   1      45.826  33.912  29.564  1.00  0.00     0.009 A 
ATOM     73  C   UNL A   1      45.160  35.807  27.626  1.00  0.00     0.001 A 
ATOM     74  C   UNL A   1      46.408  35.180  29.599  1.00  0.00     0.001 A 
ATOM     75  C   UNL A   1      46.080  36.124  28.626  1.00  0.00     0.000 A 
ENDBRANCH  57  70
ENDBRANCH  31  32
ENDBRANCH  24  26
ENDBRANCH  23  24
ENDBRANCH  22  23
ENDBRANCH  21  22
ENDBRANCH   1  21
TORSDOF 18
ENDMDL
MODEL 3
REMARK VINA RESULT:      -9.3      3.697      6.941
REMARK SMILES CC[C@@H](C)CN(CC)C(=O)N1CC[C@@](CC)(C(=O)OCCOC(=O)c2ccc(-c3c4nc(c(-c5ccccc5)c5ccc([nH]5)c(-c5ccccc5)c5nc(c(-c6ccccc6)c6ccc3[nH]6)C=C5)C=C4)cc2)C1
REMARK SMILES IDX 19 1 17 2 18 3 14 4 11 5 12 6 73 7 13 8 9 9 10 10 6 11 5 12
REMARK SMILES IDX 3 13 4 14 2 15 1 16 7 17 8 18 15 19 16 20 20 21 21 22 22 23
REMARK SMILES IDX 23 24 24 25 25 26 26 27 72 28 27 29 71 30 28 31 29 32 30 33
REMARK SMILES IDX 65 34 31 35 70 36 64 37 66 38 32 39 69 40 63 41 62 42 33 44
REMARK SMILES IDX 55 45 40 46 54 47 41 48 44 49 53 50 67 51 42 52 43 53 52 55
REMARK SMILES IDX 68 56 45 57 34 58 35 59 39 60 36 61 38 62 37 63 56 64 57 65
REMARK SMILES IDX 61 66 58 67 60 68 59 69 46 70 47 71 51 72 48 73 50 74 49 75
REMARK H PARENT 66 43 44 54
REMARK Flexibility Score: inf
ROOT
ATOM      1  O   UNL A   1      32.439  27.841  24.848  1.00  0.00    -0.462 OA
ENDROOT
BRANCH   1   2
ATOM      2  C   UNL A   1      31.961  26.592  25.103  1.00  0.00     0.314 C 
ATOM      3  O   UNL A   1      31.338  26.284  26.111  1.00  0.00    -0.252 OA
BRANCH   2   4
ATOM      4  C   UNL A   1      32.387  25.573  24.044  1.00  0.00     0.087 C 
ATOM      5  N   UNL A   1      31.802  23.254  24.362  1.00  0.00    -0.323 N 
ATOM      6  C   UNL A   1      30.655  23.915  23.777  1.00  0.00     0.122 C 
ATOM      7  C   UNL A   1      32.794  24.255  24.742  1.00  0.00     0.140 C 
ATOM      8  C   UNL A   1      31.267  25.122  23.085  1.00  0.00     0.042 C 
BRANCH   5   9
ATOM      9  C   UNL A   1      31.718  22.088  25.090  1.00  0.00     0.320 C 
ATOM     10  O   UNL A   1      30.939  22.005  26.037  1.00  0.00    -0.248 OA
BRANCH   9  11
ATOM     11  N   UNL A   1      32.618  21.076  24.808  1.00  0.00    -0.325 N 
BRANCH  11  12
ATOM     12  C   UNL A   1      33.782  20.917  25.696  1.00  0.00     0.124 C 
BRANCH  12  13
ATOM     13  C   UNL A   1      35.126  21.434  25.101  1.00  0.00     0.005 C 
ATOM     14  C   UNL A   1      36.102  20.257  24.977  1.00  0.00     0.009 C 
BRANCH  13  15
ATOM     15  C   UNL A   1      35.730  22.575  25.952  1.00  0.00     0.002 C 
ATOM     16  C   UNL A   1      36.879  23.344  25.314  1.00  0.00     0.004 C 
ENDBRANCH  13  15
ENDBRANCH  12  13
ENDBRANCH  11  12
BRANCH  11  17
ATOM     17  C   UNL A   1      32.516  20.142  23.688  1.00  0.00     0.118 C 
ATOM     18  C   UNL A   1      32.780  18.710  24.148  1.00  0.00     0.027 C 
ENDBRANCH  11  17
ENDBRANCH   9  11
ENDBRANCH   5   9
BRANCH   4  19
ATOM     19  C   UNL A   1      33.596  26.177  23.295  1.00  0.00     0.017 C 
ATOM     20  C   UNL A   1      33.340  26.459  21.820  1.00  0.00     0.005 C 
ENDBRANCH   4  19
ENDBRANCH   2   4
ENDBRANCH   1   2
BRANCH   1  21
ATOM     21  C   UNL A   1      31.494  28.827  24.374  1.00  0.00     0.274 C 
BRANCH  21  22
ATOM     22  C   UNL A   1      31.398  29.980  25.367  1.00  0.00     0.275 C 
BRANCH  22  23
ATOM     23  O   UNL A   1      32.604  30.000  26.145  1.00  0.00    -0.458 OA
BRANCH  23  24
ATOM     24  C   UNL A   1      32.871  31.135  26.830  1.00  0.00     0.338 C 
ATOM     25  O   UNL A   1      32.179  32.133  26.921  1.00  0.00    -0.246 OA
BRANCH  24  26
ATOM     26  C   UNL A   1      34.169  30.960  27.508  1.00  0.00     0.060 A 
ATOM     27  C   UNL A   1      34.681  29.676  27.671  1.00  0.00     0.016 A 
ATOM     28  C   UNL A   1      34.846  32.053  28.045  1.00  0.00     0.016 A 
ATOM     29  C   UNL A   1      35.838  29.472  28.411  1.00  0.00     0.010 A 
ATOM     30  C   UNL A   1      36.063  31.852  28.709  1.00  0.00     0.010 A 
ATOM     31  C   UNL A   1      36.567  30.553  28.914  1.00  0.00    -0.014 A 
BRANCH  31  32
ATOM     32  C   UNL A   1      37.841  30.324  29.648  1.00  0.00     0.031 A 
ATOM     33  C   UNL A   1      38.971  29.570  29.003  1.00  0.00     0.074 A 
ATOM     34  C   UNL A   1      37.998  30.788  30.905  1.00  0.00     0.049 A 
ATOM     35  N   UNL A   1      40.026  29.029  29.557  1.00  0.00    -0.248 NA
ATOM     36  C   UNL A   1      38.893  29.383  27.546  1.00  0.00     0.031 C 
ATOM     37  C   UNL A   1      37.038  31.617  31.637  1.00  0.00     0.029 A 
ATOM     38  N   UNL A   1      39.037  30.631  31.791  1.00  0.00    -0.354 N 
ATOM     39  C   UNL A   1      40.695  28.371  28.533  1.00  0.00     0.074 A 
ATOM     40  C   UNL A   1      39.934  28.594  27.321  1.00  0.00     0.031 C 
ATOM     41  C   UNL A   1      37.555  31.943  32.831  1.00  0.00     0.029 A 
ATOM     42  C   UNL A   1      38.821  31.243  33.000  1.00  0.00     0.049 A 
ATOM     43  H   UNL A   1      39.857  30.129  31.578  1.00  0.00     0.167 HD
ATOM     44  C   UNL A   1      41.831  27.635  28.607  1.00  0.00     0.031 A 
ATOM     45  C   UNL A   1      39.520  31.198  34.149  1.00  0.00     0.031 A 
ATOM     46  C   UNL A   1      42.611  27.468  29.806  1.00  0.00     0.049 A 
ATOM     47  C   UNL A   1      40.724  30.312  34.235  1.00  0.00     0.074 A 
ATOM     48  C   UNL A   1      43.792  26.765  29.979  1.00  0.00     0.029 A 
ATOM     49  N   UNL A   1      42.298  28.028  31.035  1.00  0.00    -0.354 N 
ATOM     50  N   UNL A   1      41.293  29.603  33.292  1.00  0.00    -0.248 NA
ATOM     51  C   UNL A   1      41.353  30.183  35.555  1.00  0.00     0.031 C 
ATOM     52  C   UNL A   1      44.167  26.862  31.324  1.00  0.00     0.029 A 
ATOM     53  C   UNL A   1      43.245  27.663  31.978  1.00  0.00     0.049 A 
ATOM     54  H   UNL A   1      41.517  28.601  31.212  1.00  0.00     0.167 HD
ATOM     55  C   UNL A   1      42.343  28.935  33.904  1.00  0.00     0.074 A 
ATOM     56  C   UNL A   1      42.347  29.344  35.295  1.00  0.00     0.031 C 
ATOM     57  C   UNL A   1      43.220  28.057  33.362  1.00  0.00     0.031 A 
BRANCH  44  58
ATOM     58  C   UNL A   1      42.260  26.896  27.370  1.00  0.00    -0.014 A 
ATOM     59  C   UNL A   1      41.811  25.599  27.085  1.00  0.00     0.009 A 
ATOM     60  C   UNL A   1      43.118  27.533  26.459  1.00  0.00     0.009 A 
ATOM     61  C   UNL A   1      42.243  24.941  25.929  1.00  0.00     0.001 A 
ATOM     62  C   UNL A   1      43.526  26.885  25.292  1.00  0.00     0.001 A 
ATOM     63  C   UNL A   1      43.096  25.586  25.033  1.00  0.00     0.000 A 
ENDBRANCH  44  58
BRANCH  45  64
ATOM     64  C   UNL A   1      39.036  31.957  35.329  1.00  0.00    -0.014 A 
ATOM     65  C   UNL A   1      39.394  33.302  35.500  1.00  0.00     0.009 A 
ATOM     66  C   UNL A   1      38.174  31.357  36.262  1.00  0.00     0.009 A 
ATOM     67  C   UNL A   1      38.890  34.033  36.579  1.00  0.00     0.001 A 
ATOM     68  C   UNL A   1      37.651  32.098  37.323  1.00  0.00     0.001 A 
ATOM     69  C   UNL A   1      38.011  33.434  37.482  1.00  0.00     0.000 A 
ENDBRANCH  45  64
BRANCH  57  70
ATOM     70  C   UNL A   1      44.257  27.485  34.282  1.00  0.00    -0.014 A 
ATOM     71  C   UNL A   1      44.033  26.274  34.955  1.00  0.00     0.009 A 
ATOM     72  C   UNL A   1      45.475  28.155  34.466  1.00  0.00     0.009 A 
ATOM     73  C   UNL A   1      45.004  25.757  35.814  1.00  0.00     0.001 A 
ATOM     74  C   UNL A   1      46.452  27.625  35.310  1.00  0.00     0.001 A 
ATOM     75  C   UNL A   1      46.213  26.431  35.989  1.00  0.00     0.000 A 
ENDBRANCH  57  70
ENDBRANCH  31  32
ENDBRANCH  24  26
ENDBRANCH  23  24
ENDBRANCH  22  23
ENDBRANCH  21  22
ENDBRANCH   1  21
TORSDOF 18
ENDMDL
