MODEL 1
REMARK VINA RESULT:     -10.5      0.000      0.000
REMARK SMILES CC[C@H](C)[C@H](C(=O)OCCOC(=O)c1ccc(-c2c3nc(c(-c4ccccc4)c4ccc([nH]4)c(-c4ccccc4)c4nc(c(-c5ccccc5)c5ccc2[nH]5)C=C4)C=C3)cc1)N1C(=O)/C(=C/c2ccc(C)o2)SC1=S
REMARK SMILES IDX 9 1 8 2 6 3 7 4 5 5 3 6 4 7 2 8 1 9 62 10 63 11 74 12 64 13
REMARK SMILES IDX 65 14 73 15 75 16 66 17 67 18 68 19 72 20 69 21 70 22 71 23
REMARK SMILES IDX 10 24 11 25 12 26 13 27 14 28 15 29 61 30 16 31 60 32 17 33
REMARK SMILES IDX 18 34 19 35 54 36 20 37 59 38 53 39 55 40 21 41 58 42 52 43
REMARK SMILES IDX 51 44 22 46 44 47 29 48 43 49 30 50 33 51 42 52 56 53 31 54
REMARK SMILES IDX 32 55 41 57 57 58 34 59 23 60 24 61 28 62 25 63 27 64 26 65
REMARK SMILES IDX 45 66 46 67 50 68 47 69 49 70 48 71 35 72 36 73 40 74 37 75
REMARK SMILES IDX 39 76 38 77
REMARK H PARENT 55 45 33 56
REMARK Flexibility Score: inf
ROOT
ATOM      1  C   UNL A   1      36.434  21.669  24.810  1.00  0.00     0.274 C 
ENDROOT
BRANCH   1   2
ATOM      2  O   UNL A   1      35.127  22.231  24.558  1.00  0.00    -0.461 OA
BRANCH   2   3
ATOM      3  C   UNL A   1      34.994  22.957  23.416  1.00  0.00     0.329 C 
ATOM      4  O   UNL A   1      35.860  23.051  22.554  1.00  0.00    -0.250 OA
BRANCH   3   5
ATOM      5  C   UNL A   1      33.652  23.706  23.316  1.00  0.00     0.204 C 
BRANCH   5   6
ATOM      6  C   UNL A   1      32.511  22.838  23.995  1.00  0.00     0.020 C 
ATOM      7  C   UNL A   1      31.161  23.556  23.845  1.00  0.00     0.010 C 
BRANCH   6   8
ATOM      8  C   UNL A   1      32.473  21.353  23.566  1.00  0.00     0.002 C 
ATOM      9  C   UNL A   1      31.981  21.098  22.145  1.00  0.00     0.004 C 
ENDBRANCH   6   8
ENDBRANCH   5   6
BRANCH   5  10
ATOM     10  N   UNL A   1      33.781  25.129  23.747  1.00  0.00    -0.278 N 
ATOM     11  C   UNL A   1      33.813  25.432  25.105  1.00  0.00     0.267 C 
ATOM     12  C   UNL A   1      33.340  26.213  22.993  1.00  0.00     0.149 C 
ATOM     13  O   UNL A   1      33.701  24.651  26.040  1.00  0.00    -0.268 OA
ATOM     14  C   UNL A   1      33.770  26.899  25.327  1.00  0.00     0.084 C 
ATOM     15  S   UNL A   1      33.735  27.706  23.820  1.00  0.00    -0.054 SA
ATOM     16  S   UNL A   1      32.485  26.290  21.561  1.00  0.00    -0.052 S 
ATOM     17  C   UNL A   1      33.658  27.443  26.546  1.00  0.00     0.068 C 
BRANCH  17  18
ATOM     18  C   UNL A   1      33.497  28.842  26.700  1.00  0.00     0.128 A 
ATOM     19  C   UNL A   1      34.356  29.767  27.283  1.00  0.00     0.050 A 
ATOM     20  O   UNL A   1      32.353  29.503  26.333  1.00  0.00    -0.462 OA
ATOM     21  C   UNL A   1      33.681  31.007  27.332  1.00  0.00     0.046 A 
ATOM     22  C   UNL A   1      32.457  30.792  26.746  1.00  0.00     0.101 A 
ATOM     23  C   UNL A   1      31.276  31.647  26.526  1.00  0.00     0.087 C 
ENDBRANCH  17  18
ENDBRANCH   5  10
ENDBRANCH   3   5
ENDBRANCH   2   3
ENDBRANCH   1   2
BRANCH   1  24
ATOM     24  C   UNL A   1      37.105  22.236  26.068  1.00  0.00     0.275 C 
BRANCH  24  25
ATOM     25  O   UNL A   1      38.122  23.196  25.726  1.00  0.00    -0.458 OA
BRANCH  25  26
ATOM     26  C   UNL A   1      39.253  23.160  26.467  1.00  0.00     0.338 C 
ATOM     27  O   UNL A   1      39.973  22.203  26.679  1.00  0.00    -0.246 OA
BRANCH  26  28
ATOM     28  C   UNL A   1      39.531  24.506  26.988  1.00  0.00     0.060 A 
ATOM     29  C   UNL A   1      40.248  25.430  26.217  1.00  0.00     0.016 A 
ATOM     30  C   UNL A   1      39.141  24.815  28.289  1.00  0.00     0.016 A 
ATOM     31  C   UNL A   1      40.567  26.680  26.735  1.00  0.00     0.010 A 
ATOM     32  C   UNL A   1      39.467  26.064  28.812  1.00  0.00     0.010 A 
ATOM     33  C   UNL A   1      40.184  26.994  28.039  1.00  0.00    -0.014 A 
BRANCH  33  34
ATOM     34  C   UNL A   1      40.568  28.276  28.654  1.00  0.00     0.031 A 
ATOM     35  C   UNL A   1      41.919  28.397  29.283  1.00  0.00     0.074 A 
ATOM     36  C   UNL A   1      39.675  29.278  28.715  1.00  0.00     0.049 A 
ATOM     37  N   UNL A   1      42.360  29.296  30.121  1.00  0.00    -0.248 NA
ATOM     38  C   UNL A   1      42.900  27.358  28.929  1.00  0.00     0.031 C 
ATOM     39  C   UNL A   1      38.364  29.288  28.065  1.00  0.00     0.029 A 
ATOM     40  N   UNL A   1      39.727  30.467  29.394  1.00  0.00    -0.354 N 
ATOM     41  C   UNL A   1      43.660  28.913  30.423  1.00  0.00     0.074 A 
ATOM     42  C   UNL A   1      43.936  27.704  29.678  1.00  0.00     0.031 C 
ATOM     43  C   UNL A   1      37.718  30.414  28.410  1.00  0.00     0.029 A 
ATOM     44  C   UNL A   1      38.547  31.164  29.348  1.00  0.00     0.049 A 
ATOM     45  H   UNL A   1      40.530  30.787  29.866  1.00  0.00     0.167 HD
ATOM     46  C   UNL A   1      44.531  29.517  31.263  1.00  0.00     0.031 A 
ATOM     47  C   UNL A   1      38.162  32.255  30.036  1.00  0.00     0.031 A 
ATOM     48  C   UNL A   1      44.226  30.708  32.008  1.00  0.00     0.049 A 
ATOM     49  C   UNL A   1      39.114  32.855  31.033  1.00  0.00     0.074 A 
ATOM     50  C   UNL A   1      45.021  31.394  32.907  1.00  0.00     0.029 A 
ATOM     51  N   UNL A   1      43.020  31.388  31.933  1.00  0.00    -0.354 N 
ATOM     52  N   UNL A   1      40.327  32.471  31.351  1.00  0.00    -0.248 NA
ATOM     53  C   UNL A   1      38.641  34.034  31.771  1.00  0.00     0.031 C 
ATOM     54  C   UNL A   1      44.282  32.474  33.402  1.00  0.00     0.029 A 
ATOM     55  C   UNL A   1      43.045  32.484  32.776  1.00  0.00     0.049 A 
ATOM     56  H   UNL A   1      42.259  31.129  31.365  1.00  0.00     0.167 HD
ATOM     57  C   UNL A   1      40.776  33.379  32.300  1.00  0.00     0.074 A 
ATOM     58  C   UNL A   1      39.704  34.332  32.505  1.00  0.00     0.031 C 
ATOM     59  C   UNL A   1      41.968  33.425  32.941  1.00  0.00     0.031 A 
BRANCH  46  60
ATOM     60  C   UNL A   1      45.871  28.868  31.449  1.00  0.00    -0.014 A 
ATOM     61  C   UNL A   1      46.055  27.826  32.371  1.00  0.00     0.009 A 
ATOM     62  C   UNL A   1      46.962  29.291  30.674  1.00  0.00     0.009 A 
ATOM     63  C   UNL A   1      47.313  27.242  32.534  1.00  0.00     0.001 A 
ATOM     64  C   UNL A   1      48.213  28.689  30.822  1.00  0.00     0.001 A 
ATOM     65  C   UNL A   1      48.389  27.671  31.758  1.00  0.00     0.000 A 
ENDBRANCH  46  60
BRANCH  47  66
ATOM     66  C   UNL A   1      36.803  32.818  29.839  1.00  0.00    -0.014 A 
ATOM     67  C   UNL A   1      35.751  32.444  30.687  1.00  0.00     0.009 A 
ATOM     68  C   UNL A   1      36.549  33.732  28.803  1.00  0.00     0.009 A 
ATOM     69  C   UNL A   1      34.468  32.958  30.490  1.00  0.00     0.001 A 
ATOM     70  C   UNL A   1      35.271  34.263  28.625  1.00  0.00     0.001 A 
ATOM     71  C   UNL A   1      34.229  33.870  29.463  1.00  0.00     0.000 A 
ENDBRANCH  47  66
BRANCH  59  72
ATOM     72  C   UNL A   1      42.201  34.581  33.868  1.00  0.00    -0.014 A 
ATOM     73  C   UNL A   1      42.708  35.802  33.401  1.00  0.00     0.009 A 
ATOM     74  C   UNL A   1      41.850  34.455  35.222  1.00  0.00     0.009 A 
ATOM     75  C   UNL A   1      42.877  36.873  34.281  1.00  0.00     0.001 A 
ATOM     76  C   UNL A   1      42.000  35.534  36.092  1.00  0.00     0.001 A 
ATOM     77  C   UNL A   1      42.518  36.740  35.623  1.00  0.00     0.000 A 
ENDBRANCH  59  72
ENDBRANCH  33  34
ENDBRANCH  26  28
ENDBRANCH  25  26
ENDBRANCH  24  25
ENDBRANCH   1  24
TORSDOF 15
ENDMDL
MODEL 2
REMARK VINA RESULT:     -10.5      2.973      8.391
REMARK SMILES CC[C@H](C)[C@H](C(=O)OCCOC(=O)c1ccc(-c2c3nc(c(-c4ccccc4)c4ccc([nH]4)c(-c4ccccc4)c4nc(c(-c5ccccc5)c5ccc2[nH]5)C=C4)C=C3)cc1)N1C(=O)/C(=C/c2ccc(C)o2)SC1=S
REMARK SMILES IDX 9 1 8 2 6 3 7 4 5 5 3 6 4 7 2 8 1 9 62 10 63 11 74 12 64 13
REMARK SMILES IDX 65 14 73 15 75 16 66 17 67 18 68 19 72 20 69 21 70 22 71 23
REMARK SMILES IDX 10 24 11 25 12 26 13 27 14 28 15 29 61 30 16 31 60 32 17 33
REMARK SMILES IDX 18 34 19 35 54 36 20 37 59 38 53 39 55 40 21 41 58 42 52 43
REMARK SMILES IDX 51 44 22 46 44 47 29 48 43 49 30 50 33 51 42 52 56 53 31 54
REMARK SMILES IDX 32 55 41 57 57 58 34 59 23 60 24 61 28 62 25 63 27 64 26 65
REMARK SMILES IDX 45 66 46 67 50 68 47 69 49 70 48 71 35 72 36 73 40 74 37 75
REMARK SMILES IDX 39 76 38 77
REMARK H PARENT 55 45 33 56
REMARK Flexibility Score: inf
ROOT
ATOM      1  C   UNL A   1      33.250  28.759  25.699  1.00  0.00     0.274 C 
ENDROOT
BRANCH   1   2
ATOM      2  O   UNL A   1      31.847  28.430  25.582  1.00  0.00    -0.461 OA
BRANCH   2   3
ATOM      3  C   UNL A   1      31.401  27.408  26.360  1.00  0.00     0.329 C 
ATOM      4  O   UNL A   1      31.103  27.522  27.543  1.00  0.00    -0.250 OA
BRANCH   3   5
ATOM      5  C   UNL A   1      31.345  26.055  25.627  1.00  0.00     0.204 C 
BRANCH   5   6
ATOM      6  C   UNL A   1      31.025  26.298  24.093  1.00  0.00     0.020 C 
ATOM      7  C   UNL A   1      30.790  24.949  23.397  1.00  0.00     0.010 C 
BRANCH   6   8
ATOM      8  C   UNL A   1      29.919  27.341  23.811  1.00  0.00     0.002 C 
ATOM      9  C   UNL A   1      30.113  28.170  22.545  1.00  0.00     0.004 C 
ENDBRANCH   6   8
ENDBRANCH   5   6
BRANCH   5  10
ATOM     10  N   UNL A   1      32.526  25.201  25.955  1.00  0.00    -0.278 N 
ATOM     11  C   UNL A   1      33.711  25.369  25.245  1.00  0.00     0.267 C 
ATOM     12  C   UNL A   1      32.433  23.922  26.496  1.00  0.00     0.149 C 
ATOM     13  O   UNL A   1      33.911  26.135  24.311  1.00  0.00    -0.268 OA
ATOM     14  C   UNL A   1      34.700  24.320  25.597  1.00  0.00     0.084 C 
ATOM     15  S   UNL A   1      34.039  23.288  26.791  1.00  0.00    -0.054 SA
ATOM     16  S   UNL A   1      31.115  22.945  26.809  1.00  0.00    -0.052 S 
ATOM     17  C   UNL A   1      35.868  24.184  24.957  1.00  0.00     0.068 C 
BRANCH  17  18
ATOM     18  C   UNL A   1      36.726  23.093  25.246  1.00  0.00     0.128 A 
ATOM     19  C   UNL A   1      37.955  23.090  25.896  1.00  0.00     0.050 A 
ATOM     20  O   UNL A   1      36.470  21.816  24.820  1.00  0.00    -0.462 OA
ATOM     21  C   UNL A   1      38.486  21.784  25.798  1.00  0.00     0.046 A 
ATOM     22  C   UNL A   1      37.544  21.044  25.125  1.00  0.00     0.101 A 
ATOM     23  C   UNL A   1      37.500  19.646  24.659  1.00  0.00     0.087 C 
ENDBRANCH  17  18
ENDBRANCH   5  10
ENDBRANCH   3   5
ENDBRANCH   2   3
ENDBRANCH   1   2
BRANCH   1  24
ATOM     24  C   UNL A   1      33.514  29.969  26.604  1.00  0.00     0.275 C 
BRANCH  24  25
ATOM     25  O   UNL A   1      34.193  29.576  27.812  1.00  0.00    -0.458 OA
BRANCH  25  26
ATOM     26  C   UNL A   1      35.054  30.479  28.335  1.00  0.00     0.338 C 
ATOM     27  O   UNL A   1      34.819  31.625  28.667  1.00  0.00    -0.246 OA
BRANCH  26  28
ATOM     28  C   UNL A   1      36.375  29.853  28.486  1.00  0.00     0.060 A 
ATOM     29  C   UNL A   1      36.772  29.326  29.722  1.00  0.00     0.016 A 
ATOM     30  C   UNL A   1      37.252  29.868  27.404  1.00  0.00     0.016 A 
ATOM     31  C   UNL A   1      38.046  28.794  29.882  1.00  0.00     0.010 A 
ATOM     32  C   UNL A   1      38.531  29.342  27.566  1.00  0.00     0.010 A 
ATOM     33  C   UNL A   1      38.931  28.810  28.804  1.00  0.00    -0.014 A 
BRANCH  33  34
ATOM     34  C   UNL A   1      40.315  28.327  28.951  1.00  0.00     0.031 A 
ATOM     35  C   UNL A   1      41.393  29.315  29.260  1.00  0.00     0.074 A 
ATOM     36  C   UNL A   1      40.595  27.033  28.723  1.00  0.00     0.049 A 
ATOM     37  N   UNL A   1      42.687  29.184  29.147  1.00  0.00    -0.248 NA
ATOM     38  C   UNL A   1      40.952  30.631  29.751  1.00  0.00     0.031 C 
ATOM     39  C   UNL A   1      39.607  25.978  28.493  1.00  0.00     0.029 A 
ATOM     40  N   UNL A   1      41.803  26.399  28.606  1.00  0.00    -0.354 N 
ATOM     41  C   UNL A   1      43.217  30.413  29.519  1.00  0.00     0.074 A 
ATOM     42  C   UNL A   1      42.106  31.273  29.863  1.00  0.00     0.031 C 
ATOM     43  C   UNL A   1      40.253  24.831  28.224  1.00  0.00     0.029 A 
ATOM     44  C   UNL A   1      41.688  25.093  28.204  1.00  0.00     0.049 A 
ATOM     45  H   UNL A   1      42.666  26.837  28.793  1.00  0.00     0.167 HD
ATOM     46  C   UNL A   1      44.517  30.783  29.551  1.00  0.00     0.031 A 
ATOM     47  C   UNL A   1      42.638  24.226  27.806  1.00  0.00     0.031 A 
ATOM     48  C   UNL A   1      45.603  29.914  29.186  1.00  0.00     0.049 A 
ATOM     49  C   UNL A   1      44.067  24.689  27.761  1.00  0.00     0.074 A 
ATOM     50  C   UNL A   1      46.958  30.188  29.156  1.00  0.00     0.029 A 
ATOM     51  N   UNL A   1      45.447  28.596  28.785  1.00  0.00    -0.354 N 
ATOM     52  N   UNL A   1      44.565  25.862  28.072  1.00  0.00    -0.248 NA
ATOM     53  C   UNL A   1      45.064  23.711  27.303  1.00  0.00     0.031 C 
ATOM     54  C   UNL A   1      47.621  29.042  28.704  1.00  0.00     0.029 A 
ATOM     55  C   UNL A   1      46.682  28.042  28.499  1.00  0.00     0.049 A 
ATOM     56  H   UNL A   1      44.586  28.123  28.715  1.00  0.00     0.167 HD
ATOM     57  C   UNL A   1      45.936  25.754  27.880  1.00  0.00     0.074 A 
ATOM     58  C   UNL A   1      46.189  24.401  27.426  1.00  0.00     0.031 C 
ATOM     59  C   UNL A   1      46.900  26.686  28.069  1.00  0.00     0.031 A 
BRANCH  46  60
ATOM     60  C   UNL A   1      44.821  32.197  29.951  1.00  0.00    -0.014 A 
ATOM     61  C   UNL A   1      44.877  33.227  29.001  1.00  0.00     0.009 A 
ATOM     62  C   UNL A   1      45.035  32.506  31.304  1.00  0.00     0.009 A 
ATOM     63  C   UNL A   1      45.170  34.534  29.394  1.00  0.00     0.001 A 
ATOM     64  C   UNL A   1      45.304  33.818  31.697  1.00  0.00     0.001 A 
ATOM     65  C   UNL A   1      45.380  34.829  30.740  1.00  0.00     0.000 A 
ENDBRANCH  46  60
BRANCH  47  66
ATOM     66  C   UNL A   1      42.262  22.856  27.376  1.00  0.00    -0.014 A 
ATOM     67  C   UNL A   1      41.789  21.925  28.312  1.00  0.00     0.009 A 
ATOM     68  C   UNL A   1      42.374  22.470  26.030  1.00  0.00     0.009 A 
ATOM     69  C   UNL A   1      41.453  20.630  27.913  1.00  0.00     0.001 A 
ATOM     70  C   UNL A   1      42.013  21.182  25.630  1.00  0.00     0.001 A 
ATOM     71  C   UNL A   1      41.561  20.261  26.573  1.00  0.00     0.000 A 
ENDBRANCH  47  66
BRANCH  59  72
ATOM     72  C   UNL A   1      48.320  26.254  27.852  1.00  0.00    -0.014 A 
ATOM     73  C   UNL A   1      49.062  25.643  28.872  1.00  0.00     0.009 A 
ATOM     74  C   UNL A   1      48.899  26.414  26.583  1.00  0.00     0.009 A 
ATOM     75  C   UNL A   1      50.368  25.215  28.630  1.00  0.00     0.001 A 
ATOM     76  C   UNL A   1      50.197  25.966  26.338  1.00  0.00     0.001 A 
ATOM     77  C   UNL A   1      50.932  25.372  27.362  1.00  0.00     0.000 A 
ENDBRANCH  59  72
ENDBRANCH  33  34
ENDBRANCH  26  28
ENDBRANCH  25  26
ENDBRANCH  24  25
ENDBRANCH   1  24
TORSDOF 15
ENDMDL
MODEL 3
REMARK VINA RESULT:     -10.4      1.650      2.203
REMARK SMILES CC[C@H](C)[C@H](C(=O)OCCOC(=O)c1ccc(-c2c3nc(c(-c4ccccc4)c4ccc([nH]4)c(-c4ccccc4)c4nc(c(-c5ccccc5)c5ccc2[nH]5)C=C4)C=C3)cc1)N1C(=O)/C(=C/c2ccc(C)o2)SC1=S
REMARK SMILES IDX 9 1 8 2 6 3 7 4 5 5 3 6 4 7 2 8 1 9 62 10 63 11 74 12 64 13
REMARK SMILES IDX 65 14 73 15 75 16 66 17 67 18 68 19 72 20 69 21 70 22 71 23
REMARK SMILES IDX 10 24 11 25 12 26 13 27 14 28 15 29 61 30 16 31 60 32 17 33
REMARK SMILES IDX 18 34 19 35 54 36 20 37 59 38 53 39 55 40 21 41 58 42 52 43
REMARK SMILES IDX 51 44 22 46 44 47 29 48 43 49 30 50 33 51 42 52 56 53 31 54
REMARK SMILES IDX 32 55 41 57 57 58 34 59 23 60 24 61 28 62 25 63 27 64 26 65
REMARK SMILES IDX 45 66 46 67 50 68 47 69 49 70 48 71 35 72 36 73 40 74 37 75
REMARK SMILES IDX 39 76 38 77
REMARK H PARENT 55 45 33 56
REMARK Flexibility Score: inf
ROOT
ATOM      1  C   UNL A   1      36.408  21.306  25.286  1.00  0.00     0.274 C 
ENDROOT
BRANCH   1   2
ATOM      2  O   UNL A   1      35.458  21.682  24.264  1.00  0.00    -0.461 OA
BRANCH   2   3
ATOM      3  C   UNL A   1      34.289  22.225  24.699  1.00  0.00     0.329 C 
ATOM      4  O   UNL A   1      34.155  22.804  25.771  1.00  0.00    -0.250 OA
BRANCH   3   5
ATOM      5  C   UNL A   1      33.111  22.008  23.732  1.00  0.00     0.204 C 
BRANCH   5   6
ATOM      6  C   UNL A   1      32.364  20.659  24.104  1.00  0.00     0.020 C 
ATOM      7  C   UNL A   1      32.251  19.773  22.854  1.00  0.00     0.010 C 
BRANCH   6   8
ATOM      8  C   UNL A   1      32.926  19.917  25.339  1.00  0.00     0.002 C 
ATOM      9  C   UNL A   1      33.054  18.405  25.187  1.00  0.00     0.004 C 
ENDBRANCH   6   8
ENDBRANCH   5   6
BRANCH   5  10
ATOM     10  N   UNL A   1      32.277  23.239  23.593  1.00  0.00    -0.278 N 
ATOM     11  C   UNL A   1      32.792  24.342  22.918  1.00  0.00     0.267 C 
ATOM     12  C   UNL A   1      31.286  23.611  24.496  1.00  0.00     0.149 C 
ATOM     13  O   UNL A   1      33.911  24.457  22.435  1.00  0.00    -0.268 OA
ATOM     14  C   UNL A   1      31.889  25.512  23.038  1.00  0.00     0.084 C 
ATOM     15  S   UNL A   1      30.503  25.077  23.941  1.00  0.00    -0.054 SA
ATOM     16  S   UNL A   1      30.820  22.958  25.961  1.00  0.00    -0.052 S 
ATOM     17  C   UNL A   1      32.219  26.730  22.588  1.00  0.00     0.068 C 
BRANCH  17  18
ATOM     18  C   UNL A   1      31.377  27.843  22.834  1.00  0.00     0.128 A 
ATOM     19  C   UNL A   1      31.421  28.765  23.874  1.00  0.00     0.050 A 
ATOM     20  O   UNL A   1      30.282  28.130  22.062  1.00  0.00    -0.462 OA
ATOM     21  C   UNL A   1      30.278  29.589  23.764  1.00  0.00     0.046 A 
ATOM     22  C   UNL A   1      29.609  29.156  22.644  1.00  0.00     0.101 A 
ATOM     23  C   UNL A   1      28.339  29.551  22.008  1.00  0.00     0.087 C 
ENDBRANCH  17  18
ENDBRANCH   5  10
ENDBRANCH   3   5
ENDBRANCH   2   3
ENDBRANCH   1   2
BRANCH   1  24
ATOM     24  C   UNL A   1      37.796  21.925  25.078  1.00  0.00     0.275 C 
BRANCH  24  25
ATOM     25  O   UNL A   1      38.056  22.956  26.050  1.00  0.00    -0.458 OA
BRANCH  25  26
ATOM     26  C   UNL A   1      39.317  23.015  26.537  1.00  0.00     0.338 C 
ATOM     27  O   UNL A   1      40.143  22.123  26.571  1.00  0.00    -0.246 OA
BRANCH  26  28
ATOM     28  C   UNL A   1      39.584  24.377  27.020  1.00  0.00     0.060 A 
ATOM     29  C   UNL A   1      40.265  25.294  26.210  1.00  0.00     0.016 A 
ATOM     30  C   UNL A   1      39.221  24.710  28.323  1.00  0.00     0.016 A 
ATOM     31  C   UNL A   1      40.575  26.561  26.691  1.00  0.00     0.010 A 
ATOM     32  C   UNL A   1      39.537  25.975  28.808  1.00  0.00     0.010 A 
ATOM     33  C   UNL A   1      40.219  26.899  27.996  1.00  0.00    -0.014 A 
BRANCH  33  34
ATOM     34  C   UNL A   1      40.595  28.202  28.572  1.00  0.00     0.031 A 
ATOM     35  C   UNL A   1      41.955  28.357  29.174  1.00  0.00     0.074 A 
ATOM     36  C   UNL A   1      39.689  29.193  28.623  1.00  0.00     0.049 A 
ATOM     37  N   UNL A   1      42.397  29.283  29.982  1.00  0.00    -0.248 NA
ATOM     38  C   UNL A   1      42.944  27.323  28.829  1.00  0.00     0.031 C 
ATOM     39  C   UNL A   1      38.367  29.168  27.996  1.00  0.00     0.029 A 
ATOM     40  N   UNL A   1      39.736  30.399  29.271  1.00  0.00    -0.354 N 
ATOM     41  C   UNL A   1      43.707  28.926  30.270  1.00  0.00     0.074 A 
ATOM     42  C   UNL A   1      43.987  27.702  29.551  1.00  0.00     0.031 C 
ATOM     43  C   UNL A   1      37.712  30.294  28.323  1.00  0.00     0.029 A 
ATOM     44  C   UNL A   1      38.546  31.079  29.227  1.00  0.00     0.049 A 
ATOM     45  H   UNL A   1      40.543  30.742  29.721  1.00  0.00     0.167 HD
ATOM     46  C   UNL A   1      44.585  29.563  31.080  1.00  0.00     0.031 A 
ATOM     47  C   UNL A   1      38.158  32.182  29.894  1.00  0.00     0.031 A 
ATOM     48  C   UNL A   1      44.275  30.768  31.799  1.00  0.00     0.049 A 
ATOM     49  C   UNL A   1      39.118  32.820  30.859  1.00  0.00     0.074 A 
ATOM     50  C   UNL A   1      45.076  31.488  32.667  1.00  0.00     0.029 A 
ATOM     51  N   UNL A   1      43.058  31.430  31.728  1.00  0.00    -0.354 N 
ATOM     52  N   UNL A   1      40.341  32.460  31.166  1.00  0.00    -0.248 NA
ATOM     53  C   UNL A   1      38.641  34.011  31.575  1.00  0.00     0.031 C 
ATOM     54  C   UNL A   1      44.330  32.569  33.147  1.00  0.00     0.029 A 
ATOM     55  C   UNL A   1      43.082  32.547  32.542  1.00  0.00     0.049 A 
ATOM     56  H   UNL A   1      42.291  31.146  31.180  1.00  0.00     0.167 HD
ATOM     57  C   UNL A   1      40.793  33.398  32.084  1.00  0.00     0.074 A 
ATOM     58  C   UNL A   1      39.712  34.342  32.283  1.00  0.00     0.031 C 
ATOM     59  C   UNL A   1      41.996  33.477  32.702  1.00  0.00     0.031 A 
BRANCH  46  60
ATOM     60  C   UNL A   1      45.936  28.936  31.258  1.00  0.00    -0.014 A 
ATOM     61  C   UNL A   1      46.172  27.984  32.261  1.00  0.00     0.009 A 
ATOM     62  C   UNL A   1      46.986  29.291  30.397  1.00  0.00     0.009 A 
ATOM     63  C   UNL A   1      47.440  27.420  32.415  1.00  0.00     0.001 A 
ATOM     64  C   UNL A   1      48.247  28.709  30.538  1.00  0.00     0.001 A 
ATOM     65  C   UNL A   1      48.475  27.780  31.552  1.00  0.00     0.000 A 
ENDBRANCH  46  60
BRANCH  47  66
ATOM     66  C   UNL A   1      36.787  32.721  29.707  1.00  0.00    -0.014 A 
ATOM     67  C   UNL A   1      36.513  33.610  28.658  1.00  0.00     0.009 A 
ATOM     68  C   UNL A   1      35.747  32.351  30.574  1.00  0.00     0.009 A 
ATOM     69  C   UNL A   1      35.229  34.133  28.492  1.00  0.00     0.001 A 
ATOM     70  C   UNL A   1      34.458  32.856  30.390  1.00  0.00     0.001 A 
ATOM     71  C   UNL A   1      34.202  33.753  29.354  1.00  0.00     0.000 A 
ENDBRANCH  47  66
BRANCH  59  72
ATOM     72  C   UNL A   1      42.228  34.659  33.595  1.00  0.00    -0.014 A 
ATOM     73  C   UNL A   1      42.772  35.853  33.101  1.00  0.00     0.009 A 
ATOM     74  C   UNL A   1      41.839  34.588  34.943  1.00  0.00     0.009 A 
ATOM     75  C   UNL A   1      42.940  36.950  33.948  1.00  0.00     0.001 A 
ATOM     76  C   UNL A   1      41.989  35.692  35.780  1.00  0.00     0.001 A 
ATOM     77  C   UNL A   1      42.544  36.871  35.284  1.00  0.00     0.000 A 
ENDBRANCH  59  72
ENDBRANCH  33  34
ENDBRANCH  26  28
ENDBRANCH  25  26
ENDBRANCH  24  25
ENDBRANCH   1  24
TORSDOF 15
ENDMDL
