MODEL 1
REMARK VINA RESULT:     -13.1      0.000      0.000
REMARK SMILES Cc1ccccc1NC(=S)NN1C(=O)CS[C@H]1c1ccccc1C(=O)OCCOC(=O)c1ccc(-c2c3nc(c(-c4ccccc4)c4ccc([nH]4)c(-c4ccccc4)c4nc(c(-c5ccccc5)c5ccc2[nH]5)C=C4)C=C3)cc1
REMARK SMILES IDX 26 1 24 2 25 3 23 4 18 5 19 6 20 7 22 8 21 9 17 10 12 11
REMARK SMILES IDX 13 12 14 13 15 14 16 15 11 16 9 18 10 19 8 20 7 22 1 23 2 24
REMARK SMILES IDX 3 25 4 26 6 27 5 28 27 29 28 30 29 31 30 32 31 33 32 34
REMARK SMILES IDX 33 35 79 36 34 37 78 38 35 39 36 40 37 41 72 42 38 43 77 44
REMARK SMILES IDX 71 45 73 46 39 47 76 48 70 49 69 50 40 52 62 53 47 54 61 55
REMARK SMILES IDX 48 56 51 57 60 58 74 59 49 60 50 61 59 63 75 64 52 65 41 66
REMARK SMILES IDX 42 67 46 68 43 69 45 70 44 71 63 72 64 73 68 74 65 75 67 76
REMARK SMILES IDX 66 77 53 78 54 79 58 80 55 81 57 82 56 83
REMARK H PARENT 11 17 8 21 73 51 51 62
REMARK Flexibility Score: inf
ROOT
ATOM      1  O   UNL A   1      40.767  28.602  35.137  1.00  0.00    -0.458 OA
ENDROOT
BRANCH   1   2
ATOM      2  C   UNL A   1      39.753  29.981  34.706  1.00  0.00     0.338 C 
ATOM      3  O   UNL A   1      39.443  30.298  35.879  1.00  0.00    -0.246 OA
BRANCH   2   4
ATOM      4  C   UNL A   1      39.652  30.944  32.747  1.00  0.00     0.066 A 
ATOM      5  C   UNL A   1      38.270  31.821  32.249  1.00  0.00     0.001 A 
ATOM      6  C   UNL A   1      38.140  32.523  31.027  1.00  0.00     0.008 A 
ATOM      7  C   UNL A   1      39.102  32.374  30.055  1.00  0.00     0.000 A 
ATOM      8  C   UNL A   1      40.467  30.887  31.510  1.00  0.00     0.016 A 
ATOM      9  C   UNL A   1      40.181  31.526  30.263  1.00  0.00     0.001 A 
BRANCH   5  10
ATOM     10  C   UNL A   1      36.722  31.851  33.186  1.00  0.00     0.197 C 
ATOM     11  N   UNL A   1      36.454  32.885  34.506  1.00  0.00    -0.236 N 
ATOM     12  C   UNL A   1      35.647  34.144  33.807  1.00  0.00     0.252 C 
ATOM     13  O   UNL A   1      35.938  35.348  33.766  1.00  0.00    -0.272 OA
ATOM     14  C   UNL A   1      34.686  33.719  32.770  1.00  0.00     0.174 C 
ATOM     15  S   UNL A   1      35.388  32.359  31.892  1.00  0.00    -0.120 SA
BRANCH  11  16
ATOM     16  N   UNL A   1      37.616  32.965  36.125  1.00  0.00    -0.270 N 
ATOM     17  H   UNL A   1      37.246  32.434  36.867  1.00  0.00     0.191 HD
BRANCH  16  18
ATOM     18  C   UNL A   1      39.096  33.723  36.558  1.00  0.00     0.189 C 
ATOM     19  S   UNL A   1      39.156  34.532  38.039  1.00  0.00    -0.039 S 
BRANCH  18  20
ATOM     20  N   UNL A   1      40.520  33.302  35.905  1.00  0.00    -0.331 N 
ATOM     21  H   UNL A   1      40.915  32.554  36.410  1.00  0.00     0.169 HD
BRANCH  20  22
ATOM     22  C   UNL A   1      41.469  33.711  34.723  1.00  0.00     0.043 A 
ATOM     23  C   UNL A   1      43.501  32.228  35.287  1.00  0.00     0.046 C 
ATOM     24  C   UNL A   1      42.593  32.946  34.336  1.00  0.00    -0.028 A 
ATOM     25  C   UNL A   1      43.058  32.978  32.976  1.00  0.00     0.005 A 
ATOM     26  C   UNL A   1      42.463  33.776  32.010  1.00  0.00     0.000 A 
ATOM     27  C   UNL A   1      41.221  34.761  33.816  1.00  0.00     0.026 A 
ATOM     28  C   UNL A   1      41.573  34.721  32.452  1.00  0.00     0.002 A 
ENDBRANCH  20  22
ENDBRANCH  18  20
ENDBRANCH  16  18
ENDBRANCH  11  16
ENDBRANCH   5  10
ENDBRANCH   2   4
ENDBRANCH   1   2
BRANCH   1  29
ATOM     29  C   UNL A   1      41.867  27.284  34.383  1.00  0.00     0.275 C 
BRANCH  29  30
ATOM     30  C   UNL A   1      42.648  25.692  35.479  1.00  0.00     0.275 C 
BRANCH  30  31
ATOM     31  O   UNL A   1      42.631  23.995  34.721  1.00  0.00    -0.458 OA
BRANCH  31  32
ATOM     32  C   UNL A   1      43.674  23.145  34.038  1.00  0.00     0.338 C 
ATOM     33  O   UNL A   1      44.140  22.163  34.610  1.00  0.00    -0.246 OA
BRANCH  32  34
ATOM     34  C   UNL A   1      44.299  23.500  32.527  1.00  0.00     0.060 A 
ATOM     35  C   UNL A   1      45.877  24.361  32.318  1.00  0.00     0.016 A 
ATOM     36  C   UNL A   1      43.335  23.388  30.884  1.00  0.00     0.016 A 
ATOM     37  C   UNL A   1      46.226  25.103  30.668  1.00  0.00     0.010 A 
ATOM     38  C   UNL A   1      43.828  24.015  29.398  1.00  0.00     0.010 A 
ATOM     39  C   UNL A   1      45.155  24.938  29.249  1.00  0.00    -0.014 A 
BRANCH  39  40
ATOM     40  C   UNL A   1      44.373  26.010  28.409  1.00  0.00     0.031 A 
ATOM     41  C   UNL A   1      44.483  27.525  28.969  1.00  0.00     0.074 A 
ATOM     42  C   UNL A   1      44.052  25.656  27.123  1.00  0.00     0.049 A 
ATOM     43  N   UNL A   1      43.473  28.278  29.279  1.00  0.00    -0.248 NA
ATOM     44  C   UNL A   1      45.737  28.288  29.445  1.00  0.00     0.031 C 
ATOM     45  C   UNL A   1      43.591  26.376  25.931  1.00  0.00     0.029 A 
ATOM     46  N   UNL A   1      43.963  24.335  26.680  1.00  0.00    -0.354 N 
ATOM     47  C   UNL A   1      44.001  29.574  29.355  1.00  0.00     0.074 A 
ATOM     48  C   UNL A   1      45.294  29.448  29.899  1.00  0.00     0.031 C 
ATOM     49  C   UNL A   1      42.909  25.518  25.129  1.00  0.00     0.029 A 
ATOM     50  C   UNL A   1      42.972  24.185  25.713  1.00  0.00     0.049 A 
ATOM     51  H   UNL A   1      44.530  23.600  27.010  1.00  0.00     0.167 HD
ATOM     52  C   UNL A   1      43.595  30.536  28.471  1.00  0.00     0.031 A 
ATOM     53  C   UNL A   1      41.938  23.381  26.093  1.00  0.00     0.031 A 
ATOM     54  C   UNL A   1      42.571  29.974  27.593  1.00  0.00     0.049 A 
ATOM     55  C   UNL A   1      40.913  24.276  26.775  1.00  0.00     0.074 A 
ATOM     56  C   UNL A   1      42.486  29.707  26.241  1.00  0.00     0.029 A 
ATOM     57  N   UNL A   1      41.575  29.216  28.189  1.00  0.00    -0.354 N 
ATOM     58  N   UNL A   1      41.151  25.513  27.136  1.00  0.00    -0.248 NA
ATOM     59  C   UNL A   1      39.515  23.915  26.971  1.00  0.00     0.031 C 
ATOM     60  C   UNL A   1      41.467  28.710  26.066  1.00  0.00     0.029 A 
ATOM     61  C   UNL A   1      40.957  28.363  27.308  1.00  0.00     0.049 A 
ATOM     62  H   UNL A   1      41.337  29.283  29.142  1.00  0.00     0.167 HD
ATOM     63  C   UNL A   1      40.002  26.132  27.516  1.00  0.00     0.074 A 
ATOM     64  C   UNL A   1      39.006  25.079  27.418  1.00  0.00     0.031 C 
ATOM     65  C   UNL A   1      39.929  27.462  27.833  1.00  0.00     0.031 A 
BRANCH  52  66
ATOM     66  C   UNL A   1      44.266  31.884  28.236  1.00  0.00    -0.014 A 
ATOM     67  C   UNL A   1      45.341  31.925  27.333  1.00  0.00     0.009 A 
ATOM     68  C   UNL A   1      43.915  33.131  28.802  1.00  0.00     0.009 A 
ATOM     69  C   UNL A   1      46.001  33.118  26.996  1.00  0.00     0.001 A 
ATOM     70  C   UNL A   1      44.566  34.333  28.467  1.00  0.00     0.001 A 
ATOM     71  C   UNL A   1      45.608  34.326  27.555  1.00  0.00     0.000 A 
ENDBRANCH  52  66
BRANCH  53  72
ATOM     72  C   UNL A   1      42.481  22.026  26.515  1.00  0.00    -0.014 A 
ATOM     73  C   UNL A   1      41.780  21.378  27.569  1.00  0.00     0.009 A 
ATOM     74  C   UNL A   1      43.308  21.217  25.726  1.00  0.00     0.009 A 
ATOM     75  C   UNL A   1      41.725  19.982  27.683  1.00  0.00     0.001 A 
ATOM     76  C   UNL A   1      43.315  19.810  25.899  1.00  0.00     0.001 A 
ATOM     77  C   UNL A   1      42.470  19.193  26.822  1.00  0.00     0.000 A 
ENDBRANCH  53  72
BRANCH  65  78
ATOM     78  C   UNL A   1      38.823  28.060  28.681  1.00  0.00    -0.014 A 
ATOM     79  C   UNL A   1      38.723  27.886  30.063  1.00  0.00     0.009 A 
ATOM     80  C   UNL A   1      37.888  28.952  28.102  1.00  0.00     0.009 A 
ATOM     81  C   UNL A   1      37.675  28.452  30.796  1.00  0.00     0.001 A 
ATOM     82  C   UNL A   1      36.909  29.608  28.844  1.00  0.00     0.001 A 
ATOM     83  C   UNL A   1      36.774  29.317  30.188  1.00  0.00     0.000 A 
ENDBRANCH  65  78
ENDBRANCH  39  40
ENDBRANCH  32  34
ENDBRANCH  31  32
ENDBRANCH  30  31
ENDBRANCH  29  30
ENDBRANCH   1  29
TORSDOF 16
ENDMDL
MODEL 2
REMARK VINA RESULT:     -12.9      5.421     12.110
REMARK SMILES Cc1ccccc1NC(=S)NN1C(=O)CS[C@H]1c1ccccc1C(=O)OCCOC(=O)c1ccc(-c2c3nc(c(-c4ccccc4)c4ccc([nH]4)c(-c4ccccc4)c4nc(c(-c5ccccc5)c5ccc2[nH]5)C=C4)C=C3)cc1
REMARK SMILES IDX 26 1 24 2 25 3 23 4 18 5 19 6 20 7 22 8 21 9 17 10 12 11
REMARK SMILES IDX 13 12 14 13 15 14 16 15 11 16 9 18 10 19 8 20 7 22 1 23 2 24
REMARK SMILES IDX 3 25 4 26 6 27 5 28 27 29 28 30 29 31 30 32 31 33 32 34
REMARK SMILES IDX 33 35 79 36 34 37 78 38 35 39 36 40 37 41 72 42 38 43 77 44
REMARK SMILES IDX 71 45 73 46 39 47 76 48 70 49 69 50 40 52 62 53 47 54 61 55
REMARK SMILES IDX 48 56 51 57 60 58 74 59 49 60 50 61 59 63 75 64 52 65 41 66
REMARK SMILES IDX 42 67 46 68 43 69 45 70 44 71 63 72 64 73 68 74 65 75 67 76
REMARK SMILES IDX 66 77 53 78 54 79 58 80 55 81 57 82 56 83
REMARK H PARENT 11 17 8 21 73 51 51 62
REMARK Flexibility Score: inf
ROOT
ATOM      1  O   UNL A   1      32.659  28.432  26.260  1.00  0.00    -0.458 OA
ENDROOT
BRANCH   1   2
ATOM      2  C   UNL A   1      32.673  26.671  26.387  1.00  0.00     0.338 C 
ATOM      3  O   UNL A   1      31.557  26.564  26.948  1.00  0.00    -0.246 OA
BRANCH   2   4
ATOM      4  C   UNL A   1      34.045  25.316  25.358  1.00  0.00     0.066 A 
ATOM      5  C   UNL A   1      33.659  24.634  23.838  1.00  0.00     0.001 A 
ATOM      6  C   UNL A   1      34.507  23.798  23.074  1.00  0.00     0.008 A 
ATOM      7  C   UNL A   1      35.671  23.323  23.633  1.00  0.00     0.000 A 
ATOM      8  C   UNL A   1      35.280  24.591  25.739  1.00  0.00     0.016 A 
ATOM      9  C   UNL A   1      36.000  23.646  24.943  1.00  0.00     0.001 A 
BRANCH   5  10
ATOM     10  C   UNL A   1      32.033  24.797  23.060  1.00  0.00     0.197 C 
ATOM     11  N   UNL A   1      30.668  25.396  23.873  1.00  0.00    -0.236 N 
ATOM     12  C   UNL A   1      30.656  26.982  23.417  1.00  0.00     0.252 C 
ATOM     13  O   UNL A   1      30.704  28.008  24.111  1.00  0.00    -0.272 OA
ATOM     14  C   UNL A   1      31.041  27.188  22.007  1.00  0.00     0.174 C 
ATOM     15  S   UNL A   1      32.316  26.033  21.610  1.00  0.00    -0.120 SA
BRANCH  11  16
ATOM     16  N   UNL A   1      29.952  24.639  25.574  1.00  0.00    -0.270 N 
ATOM     17  H   UNL A   1      29.168  25.141  25.897  1.00  0.00     0.191 HD
BRANCH  16  18
ATOM     18  C   UNL A   1      30.350  23.336  26.622  1.00  0.00     0.189 C 
ATOM     19  S   UNL A   1      29.084  22.580  27.445  1.00  0.00    -0.039 S 
BRANCH  18  20
ATOM     20  N   UNL A   1      31.732  22.496  26.489  1.00  0.00    -0.331 N 
ATOM     21  H   UNL A   1      32.245  22.557  27.328  1.00  0.00     0.169 HD
BRANCH  20  22
ATOM     22  C   UNL A   1      32.509  21.617  25.447  1.00  0.00     0.043 A 
ATOM     23  C   UNL A   1      34.683  21.223  26.773  1.00  0.00     0.046 C 
ATOM     24  C   UNL A   1      33.628  20.824  25.788  1.00  0.00    -0.028 A 
ATOM     25  C   UNL A   1      33.930  19.635  25.038  1.00  0.00     0.005 A 
ATOM     26  C   UNL A   1      33.177  19.243  23.941  1.00  0.00     0.000 A 
ATOM     27  C   UNL A   1      32.091  21.379  24.122  1.00  0.00     0.026 A 
ATOM     28  C   UNL A   1      32.285  20.158  23.445  1.00  0.00     0.002 A 
ENDBRANCH  20  22
ENDBRANCH  18  20
ENDBRANCH  16  18
ENDBRANCH  11  16
ENDBRANCH   5  10
ENDBRANCH   2   4
ENDBRANCH   1   2
BRANCH   1  29
ATOM     29  C   UNL A   1      33.800  29.918  26.197  1.00  0.00     0.275 C 
BRANCH  29  30
ATOM     30  C   UNL A   1      34.856  30.612  27.855  1.00  0.00     0.275 C 
BRANCH  30  31
ATOM     31  O   UNL A   1      34.020  31.806  29.007  1.00  0.00    -0.458 OA
BRANCH  31  32
ATOM     32  C   UNL A   1      34.477  33.041  29.744  1.00  0.00     0.338 C 
ATOM     33  O   UNL A   1      33.664  33.904  30.066  1.00  0.00    -0.246 OA
BRANCH  32  34
ATOM     34  C   UNL A   1      36.081  33.348  30.110  1.00  0.00     0.060 A 
ATOM     35  C   UNL A   1      37.119  34.405  29.071  1.00  0.00     0.016 A 
ATOM     36  C   UNL A   1      37.116  32.398  31.401  1.00  0.00     0.016 A 
ATOM     37  C   UNL A   1      38.943  34.292  29.299  1.00  0.00     0.010 A 
ATOM     38  C   UNL A   1      38.790  32.473  31.584  1.00  0.00     0.010 A 
ATOM     39  C   UNL A   1      39.736  33.283  30.541  1.00  0.00    -0.014 A 
BRANCH  39  40
ATOM     40  C   UNL A   1      40.721  32.066  30.416  1.00  0.00     0.031 A 
ATOM     41  C   UNL A   1      40.015  30.655  30.054  1.00  0.00     0.074 A 
ATOM     42  C   UNL A   1      42.041  32.374  30.209  1.00  0.00     0.049 A 
ATOM     43  N   UNL A   1      40.120  29.569  30.756  1.00  0.00    -0.248 NA
ATOM     44  C   UNL A   1      38.943  30.360  28.983  1.00  0.00     0.031 C 
ATOM     45  C   UNL A   1      43.229  31.625  29.783  1.00  0.00     0.029 A 
ATOM     46  N   UNL A   1      42.614  33.603  30.540  1.00  0.00    -0.354 N 
ATOM     47  C   UNL A   1      39.675  28.547  29.907  1.00  0.00     0.074 A 
ATOM     48  C   UNL A   1      38.620  29.088  29.147  1.00  0.00     0.031 C 
ATOM     49  C   UNL A   1      44.339  32.237  30.270  1.00  0.00     0.029 A 
ATOM     50  C   UNL A   1      43.936  33.458  30.955  1.00  0.00     0.049 A 
ATOM     51  H   UNL A   1      42.142  34.467  30.487  1.00  0.00     0.167 HD
ATOM     52  C   UNL A   1      40.539  27.570  29.493  1.00  0.00     0.031 A 
ATOM     53  C   UNL A   1      44.154  33.808  32.254  1.00  0.00     0.031 A 
ATOM     54  C   UNL A   1      41.841  27.790  30.121  1.00  0.00     0.049 A 
ATOM     55  C   UNL A   1      43.921  32.558  33.091  1.00  0.00     0.074 A 
ATOM     56  C   UNL A   1      43.104  28.106  29.660  1.00  0.00     0.029 A 
ATOM     57  N   UNL A   1      41.847  28.095  31.472  1.00  0.00    -0.354 N 
ATOM     58  N   UNL A   1      43.363  31.466  32.630  1.00  0.00    -0.248 NA
ATOM     59  C   UNL A   1      44.422  32.378  34.448  1.00  0.00     0.031 C 
ATOM     60  C   UNL A   1      43.827  28.682  30.760  1.00  0.00     0.029 A 
ATOM     61  C   UNL A   1      42.998  28.731  31.869  1.00  0.00     0.049 A 
ATOM     62  H   UNL A   1      41.105  27.878  32.082  1.00  0.00     0.167 HD
ATOM     63  C   UNL A   1      43.484  30.449  33.525  1.00  0.00     0.074 A 
ATOM     64  C   UNL A   1      44.134  31.079  34.662  1.00  0.00     0.031 C 
ATOM     65  C   UNL A   1      43.095  29.163  33.265  1.00  0.00     0.031 A 
BRANCH  52  66
ATOM     66  C   UNL A   1      40.300  26.573  28.365  1.00  0.00    -0.014 A 
ATOM     67  C   UNL A   1      39.365  25.550  28.593  1.00  0.00     0.009 A 
ATOM     68  C   UNL A   1      40.890  26.567  27.081  1.00  0.00     0.009 A 
ATOM     69  C   UNL A   1      39.022  24.607  27.610  1.00  0.00     0.001 A 
ATOM     70  C   UNL A   1      40.549  25.631  26.088  1.00  0.00     0.001 A 
ATOM     71  C   UNL A   1      39.606  24.652  26.352  1.00  0.00     0.000 A 
ENDBRANCH  52  66
BRANCH  53  72
ATOM     72  C   UNL A   1      43.678  35.233  32.481  1.00  0.00    -0.014 A 
ATOM     73  C   UNL A   1      42.660  35.398  33.461  1.00  0.00     0.009 A 
ATOM     74  C   UNL A   1      44.400  36.380  32.132  1.00  0.00     0.009 A 
ATOM     75  C   UNL A   1      42.529  36.575  34.211  1.00  0.00     0.001 A 
ATOM     76  C   UNL A   1      44.205  37.595  32.836  1.00  0.00     0.001 A 
ATOM     77  C   UNL A   1      43.329  37.668  33.919  1.00  0.00     0.000 A 
ENDBRANCH  53  72
BRANCH  65  78
ATOM     78  C   UNL A   1      42.785  28.147  34.348  1.00  0.00    -0.014 A 
ATOM     79  C   UNL A   1      41.898  28.382  35.401  1.00  0.00     0.009 A 
ATOM     80  C   UNL A   1      43.306  26.834  34.261  1.00  0.00     0.009 A 
ATOM     81  C   UNL A   1      41.655  27.413  36.380  1.00  0.00     0.001 A 
ATOM     82  C   UNL A   1      42.982  25.829  35.169  1.00  0.00     0.001 A 
ATOM     83  C   UNL A   1      42.192  26.137  36.260  1.00  0.00     0.000 A 
ENDBRANCH  65  78
ENDBRANCH  39  40
ENDBRANCH  32  34
ENDBRANCH  31  32
ENDBRANCH  30  31
ENDBRANCH  29  30
ENDBRANCH   1  29
TORSDOF 16
ENDMDL
MODEL 3
REMARK VINA RESULT:     -12.7      4.130     10.764
REMARK SMILES Cc1ccccc1NC(=S)NN1C(=O)CS[C@H]1c1ccccc1C(=O)OCCOC(=O)c1ccc(-c2c3nc(c(-c4ccccc4)c4ccc([nH]4)c(-c4ccccc4)c4nc(c(-c5ccccc5)c5ccc2[nH]5)C=C4)C=C3)cc1
REMARK SMILES IDX 26 1 24 2 25 3 23 4 18 5 19 6 20 7 22 8 21 9 17 10 12 11
REMARK SMILES IDX 13 12 14 13 15 14 16 15 11 16 9 18 10 19 8 20 7 22 1 23 2 24
REMARK SMILES IDX 3 25 4 26 6 27 5 28 27 29 28 30 29 31 30 32 31 33 32 34
REMARK SMILES IDX 33 35 79 36 34 37 78 38 35 39 36 40 37 41 72 42 38 43 77 44
REMARK SMILES IDX 71 45 73 46 39 47 76 48 70 49 69 50 40 52 62 53 47 54 61 55
REMARK SMILES IDX 48 56 51 57 60 58 74 59 49 60 50 61 59 63 75 64 52 65 41 66
REMARK SMILES IDX 42 67 46 68 43 69 45 70 44 71 63 72 64 73 68 74 65 75 67 76
REMARK SMILES IDX 66 77 53 78 54 79 58 80 55 81 57 82 56 83
REMARK H PARENT 11 17 8 21 73 51 51 62
REMARK Flexibility Score: inf
ROOT
ATOM      1  O   UNL A   1      45.164  30.487  27.372  1.00  0.00    -0.458 OA
ENDROOT
BRANCH   1   2
ATOM      2  C   UNL A   1      45.044  28.840  26.747  1.00  0.00     0.338 C 
ATOM      3  O   UNL A   1      45.794  29.013  25.757  1.00  0.00    -0.246 OA
BRANCH   2   4
ATOM      4  C   UNL A   1      44.229  27.114  27.811  1.00  0.00     0.066 A 
ATOM      5  C   UNL A   1      44.311  25.537  27.155  1.00  0.00     0.001 A 
ATOM      6  C   UNL A   1      43.865  24.357  27.796  1.00  0.00     0.008 A 
ATOM      7  C   UNL A   1      43.142  24.452  28.962  1.00  0.00     0.000 A 
ATOM      8  C   UNL A   1      43.357  26.932  28.996  1.00  0.00     0.016 A 
ATOM      9  C   UNL A   1      42.835  25.698  29.495  1.00  0.00     0.001 A 
BRANCH   5  10
ATOM     10  C   UNL A   1      44.873  25.189  25.470  1.00  0.00     0.197 C 
ATOM     11  N   UNL A   1      46.374  24.477  25.118  1.00  0.00    -0.236 N 
ATOM     12  C   UNL A   1      45.973  22.886  24.937  1.00  0.00     0.252 C 
ATOM     13  O   UNL A   1      46.386  21.890  25.548  1.00  0.00    -0.272 OA
ATOM     14  C   UNL A   1      44.683  22.682  24.250  1.00  0.00     0.174 C 
ATOM     15  S   UNL A   1      43.572  23.948  24.777  1.00  0.00    -0.120 SA
BRANCH  11  16
ATOM     16  N   UNL A   1      48.131  25.204  25.720  1.00  0.00    -0.270 N 
ATOM     17  H   UNL A   1      48.800  24.491  25.839  1.00  0.00     0.191 HD
BRANCH  16  18
ATOM     18  C   UNL A   1      48.777  26.754  26.084  1.00  0.00     0.189 C 
ATOM     19  S   UNL A   1      49.490  27.620  24.822  1.00  0.00    -0.039 S 
BRANCH  18  20
ATOM     20  N   UNL A   1      48.318  27.611  27.383  1.00  0.00    -0.331 N 
ATOM     21  H   UNL A   1      48.315  28.573  27.168  1.00  0.00     0.169 HD
BRANCH  20  22
ATOM     22  C   UNL A   1      47.877  27.393  28.874  1.00  0.00     0.043 A 
ATOM     23  C   UNL A   1      47.824  29.848  29.656  1.00  0.00     0.046 C 
ATOM     24  C   UNL A   1      47.352  28.427  29.682  1.00  0.00    -0.028 A 
ATOM     25  C   UNL A   1      46.441  28.119  30.751  1.00  0.00     0.005 A 
ATOM     26  C   UNL A   1      46.074  26.818  31.057  1.00  0.00     0.000 A 
ATOM     27  C   UNL A   1      47.785  26.140  29.511  1.00  0.00     0.026 A 
ATOM     28  C   UNL A   1      46.802  25.815  30.468  1.00  0.00     0.002 A 
ENDBRANCH  20  22
ENDBRANCH  18  20
ENDBRANCH  16  18
ENDBRANCH  11  16
ENDBRANCH   5  10
ENDBRANCH   2   4
ENDBRANCH   1   2
BRANCH   1  29
ATOM     29  C   UNL A   1      44.170  32.062  27.586  1.00  0.00     0.275 C 
BRANCH  29  30
ATOM     30  C   UNL A   1      45.036  33.959  27.604  1.00  0.00     0.275 C 
BRANCH  30  31
ATOM     31  O   UNL A   1      45.161  34.866  29.221  1.00  0.00    -0.458 OA
BRANCH  31  32
ATOM     32  C   UNL A   1      44.243  35.803  29.967  1.00  0.00     0.338 C 
ATOM     33  O   UNL A   1      44.609  36.946  30.230  1.00  0.00    -0.246 OA
BRANCH  32  34
ATOM     34  C   UNL A   1      42.733  35.352  30.528  1.00  0.00     0.060 A 
ATOM     35  C   UNL A   1      42.209  35.660  32.233  1.00  0.00     0.016 A 
ATOM     36  C   UNL A   1      41.527  34.183  29.622  1.00  0.00     0.016 A 
ATOM     37  C   UNL A   1      40.751  34.721  32.856  1.00  0.00     0.010 A 
ATOM     38  C   UNL A   1      40.145  33.475  30.281  1.00  0.00     0.010 A 
ATOM     39  C   UNL A   1      39.775  33.610  31.856  1.00  0.00    -0.014 A 
BRANCH  39  40
ATOM     40  C   UNL A   1      39.511  32.066  31.974  1.00  0.00     0.031 A 
ATOM     41  C   UNL A   1      40.825  31.175  32.293  1.00  0.00     0.074 A 
ATOM     42  C   UNL A   1      38.214  31.690  32.214  1.00  0.00     0.049 A 
ATOM     43  N   UNL A   1      41.243  30.183  31.570  1.00  0.00    -0.248 NA
ATOM     44  C   UNL A   1      41.934  31.431  33.335  1.00  0.00     0.031 C 
ATOM     45  C   UNL A   1      37.555  30.453  32.647  1.00  0.00     0.029 A 
ATOM     46  N   UNL A   1      37.106  32.486  31.921  1.00  0.00    -0.354 N 
ATOM     47  C   UNL A   1      42.152  29.500  32.388  1.00  0.00     0.074 A 
ATOM     48  C   UNL A   1      42.831  30.480  33.138  1.00  0.00     0.031 C 
ATOM     49  C   UNL A   1      36.273  30.450  32.196  1.00  0.00     0.029 A 
ATOM     50  C   UNL A   1      36.012  31.719  31.529  1.00  0.00     0.049 A 
ATOM     51  H   UNL A   1      37.099  33.470  31.983  1.00  0.00     0.167 HD
ATOM     52  C   UNL A   1      41.886  28.222  32.798  1.00  0.00     0.031 A 
ATOM     53  C   UNL A   1      35.615  31.929  30.242  1.00  0.00     0.031 A 
ATOM     54  C   UNL A   1      40.625  27.785  32.201  1.00  0.00     0.049 A 
ATOM     55  C   UNL A   1      36.404  30.959  29.374  1.00  0.00     0.074 A 
ATOM     56  C   UNL A   1      39.382  27.441  32.694  1.00  0.00     0.029 A 
ATOM     57  N   UNL A   1      40.434  28.060  30.857  1.00  0.00    -0.354 N 
ATOM     58  N   UNL A   1      37.436  30.273  29.801  1.00  0.00    -0.248 NA
ATOM     59  C   UNL A   1      36.017  30.569  28.024  1.00  0.00     0.031 C 
ATOM     60  C   UNL A   1      38.439  27.600  31.621  1.00  0.00     0.029 A 
ATOM     61  C   UNL A   1      39.109  28.057  30.496  1.00  0.00     0.049 A 
ATOM     62  H   UNL A   1      41.171  28.238  30.227  1.00  0.00     0.167 HD
ATOM     63  C   UNL A   1      37.801  29.335  28.887  1.00  0.00     0.074 A 
ATOM     64  C   UNL A   1      36.895  29.578  27.777  1.00  0.00     0.031 C 
ATOM     65  C   UNL A   1      38.774  28.399  29.112  1.00  0.00     0.031 A 
BRANCH  52  66
ATOM     66  C   UNL A   1      42.612  27.459  33.899  1.00  0.00    -0.014 A 
ATOM     67  C   UNL A   1      41.951  27.312  35.130  1.00  0.00     0.009 A 
ATOM     68  C   UNL A   1      43.881  26.840  33.826  1.00  0.00     0.009 A 
ATOM     69  C   UNL A   1      42.498  26.584  36.200  1.00  0.00     0.001 A 
ATOM     70  C   UNL A   1      44.434  26.103  34.889  1.00  0.00     0.001 A 
ATOM     71  C   UNL A   1      43.736  25.969  36.077  1.00  0.00     0.000 A 
ENDBRANCH  52  66
BRANCH  53  72
ATOM     72  C   UNL A   1      35.330  33.407  30.036  1.00  0.00    -0.014 A 
ATOM     73  C   UNL A   1      35.584  33.912  28.731  1.00  0.00     0.009 A 
ATOM     74  C   UNL A   1      34.495  34.180  30.852  1.00  0.00     0.009 A 
ATOM     75  C   UNL A   1      34.869  34.992  28.194  1.00  0.00     0.001 A 
ATOM     76  C   UNL A   1      33.836  35.322  30.331  1.00  0.00     0.001 A 
ATOM     77  C   UNL A   1      33.965  35.679  28.988  1.00  0.00     0.000 A 
ENDBRANCH  53  72
BRANCH  65  78
ATOM     78  C   UNL A   1      39.510  27.674  28.002  1.00  0.00    -0.014 A 
ATOM     79  C   UNL A   1      40.392  28.298  27.118  1.00  0.00     0.009 A 
ATOM     80  C   UNL A   1      39.422  26.264  27.894  1.00  0.00     0.009 A 
ATOM     81  C   UNL A   1      41.038  27.583  26.104  1.00  0.00     0.001 A 
ATOM     82  C   UNL A   1      40.148  25.531  26.959  1.00  0.00     0.001 A 
ATOM     83  C   UNL A   1      40.920  26.200  26.029  1.00  0.00     0.000 A 
ENDBRANCH  65  78
ENDBRANCH  39  40
ENDBRANCH  32  34
ENDBRANCH  31  32
ENDBRANCH  30  31
ENDBRANCH  29  30
ENDBRANCH   1  29
TORSDOF 16
ENDMDL
