MODEL 1
REMARK VINA RESULT:     -10.2      0.000      0.000
REMARK SMILES O=C1NC[C@@H](CSc2ccnc(C(=O)OCCOC(=O)c3ccc(-c4c5nc(c(-c6ccccc6)c6ccc([nH]6)c(-c6ccccc6)c6nc(c(-c7ccccc7)c7ccc4[nH]7)C=C6)C=C5)cc3)c2)O1
REMARK SMILES IDX 16 1 15 2 13 3 14 4 12 5 8 6 9 7 69 8 10 9 11 10 7 11 6 12
REMARK SMILES IDX 5 13 1 14 2 15 3 16 70 17 4 18 17 20 18 21 19 22 20 23 21 24
REMARK SMILES IDX 22 25 68 26 23 27 67 28 24 29 25 30 26 31 61 32 27 33 66 34
REMARK SMILES IDX 60 35 62 36 28 37 65 38 59 39 58 40 29 42 51 43 36 44 50 45
REMARK SMILES IDX 37 46 40 47 49 48 63 49 38 50 39 51 48 53 64 54 41 55 30 56
REMARK SMILES IDX 31 57 35 58 32 59 34 60 33 61 52 62 53 63 57 64 54 65 56 66
REMARK SMILES IDX 55 67 42 68 43 69 47 70 44 71 46 72 45 73
REMARK H PARENT 3 19 62 41 40 52
REMARK Flexibility Score: inf
ROOT
ATOM      1  C   UNL A   1      33.916  34.110  28.032  1.00  0.00     0.275 C 
ENDROOT
BRANCH   1   2
ATOM      2  O   UNL A   1      32.984  34.336  29.109  1.00  0.00    -0.457 OA
BRANCH   2   3
ATOM      3  C   UNL A   1      32.815  35.645  29.440  1.00  0.00     0.357 C 
ATOM      4  O   UNL A   1      32.311  36.490  28.712  1.00  0.00    -0.244 OA
BRANCH   3   5
ATOM      5  C   UNL A   1      33.239  35.938  30.847  1.00  0.00     0.149 A 
ATOM      6  C   UNL A   1      34.255  35.434  32.946  1.00  0.00     0.011 A 
ATOM      7  C   UNL A   1      34.137  36.780  33.277  1.00  0.00     0.035 A 
ATOM      8  C   UNL A   1      33.810  34.996  31.695  1.00  0.00     0.051 A 
ATOM      9  C   UNL A   1      33.499  37.631  32.406  1.00  0.00     0.113 A 
ATOM     10  N   UNL A   1      33.059  37.241  31.204  1.00  0.00    -0.249 NA
BRANCH   6  11
ATOM     11  S   UNL A   1      35.147  34.349  34.041  1.00  0.00    -0.122 SA
BRANCH  11  12
ATOM     12  C   UNL A   1      35.710  32.991  32.933  1.00  0.00     0.122 C 
BRANCH  12  13
ATOM     13  C   UNL A   1      37.152  32.980  32.395  1.00  0.00     0.208 C 
ATOM     14  O   UNL A   1      38.299  34.424  29.470  1.00  0.00    -0.225 OA
ATOM     15  C   UNL A   1      38.058  34.076  30.611  1.00  0.00     0.407 C 
ATOM     16  N   UNL A   1      38.551  34.681  31.729  1.00  0.00    -0.318 N 
ATOM     17  O   UNL A   1      37.220  33.060  30.961  1.00  0.00    -0.443 OA
ATOM     18  C   UNL A   1      38.054  34.083  32.917  1.00  0.00     0.165 C 
ATOM     19  H   UNL A   1      39.177  35.440  31.714  1.00  0.00     0.167 HD
ENDBRANCH  12  13
ENDBRANCH  11  12
ENDBRANCH   6  11
ENDBRANCH   3   5
ENDBRANCH   2   3
ENDBRANCH   1   2
BRANCH   1  20
ATOM     20  C   UNL A   1      35.052  33.165  28.445  1.00  0.00     0.275 C 
BRANCH  20  21
ATOM     21  O   UNL A   1      34.578  31.935  29.025  1.00  0.00    -0.458 OA
BRANCH  21  22
ATOM     22  C   UNL A   1      34.674  30.846  28.227  1.00  0.00     0.338 C 
ATOM     23  O   UNL A   1      33.861  30.457  27.403  1.00  0.00    -0.246 OA
BRANCH  22  24
ATOM     24  C   UNL A   1      35.968  30.178  28.436  1.00  0.00     0.060 A 
ATOM     25  C   UNL A   1      36.254  29.663  29.702  1.00  0.00     0.016 A 
ATOM     26  C   UNL A   1      36.940  30.169  27.438  1.00  0.00     0.016 A 
ATOM     27  C   UNL A   1      37.522  29.173  29.995  1.00  0.00     0.010 A 
ATOM     28  C   UNL A   1      38.207  29.645  27.723  1.00  0.00     0.010 A 
ATOM     29  C   UNL A   1      38.515  29.163  29.010  1.00  0.00    -0.014 A 
BRANCH  29  30
ATOM     30  C   UNL A   1      39.890  28.701  29.324  1.00  0.00     0.031 A 
ATOM     31  C   UNL A   1      40.843  29.627  30.025  1.00  0.00     0.074 A 
ATOM     32  C   UNL A   1      40.291  27.466  28.968  1.00  0.00     0.049 A 
ATOM     33  N   UNL A   1      42.131  29.499  30.224  1.00  0.00    -0.248 NA
ATOM     34  C   UNL A   1      40.271  30.870  30.569  1.00  0.00     0.031 C 
ATOM     35  C   UNL A   1      39.447  26.444  28.349  1.00  0.00     0.029 A 
ATOM     36  N   UNL A   1      41.524  26.868  29.065  1.00  0.00    -0.354 N 
ATOM     37  C   UNL A   1      42.529  30.660  30.875  1.00  0.00     0.074 A 
ATOM     38  C   UNL A   1      41.350  31.486  31.028  1.00  0.00     0.031 C 
ATOM     39  C   UNL A   1      40.186  25.346  28.120  1.00  0.00     0.029 A 
ATOM     40  C   UNL A   1      41.568  25.614  28.505  1.00  0.00     0.049 A 
ATOM     41  H   UNL A   1      42.300  27.296  29.493  1.00  0.00     0.167 HD
ATOM     42  C   UNL A   1      43.768  31.008  31.299  1.00  0.00     0.031 A 
ATOM     43  C   UNL A   1      42.610  24.793  28.283  1.00  0.00     0.031 A 
ATOM     44  C   UNL A   1      44.933  30.179  31.146  1.00  0.00     0.049 A 
ATOM     45  C   UNL A   1      43.990  25.236  28.684  1.00  0.00     0.074 A 
ATOM     46  C   UNL A   1      46.235  30.436  31.544  1.00  0.00     0.029 A 
ATOM     47  N   UNL A   1      44.938  28.928  30.546  1.00  0.00    -0.354 N 
ATOM     48  N   UNL A   1      44.363  26.345  29.274  1.00  0.00    -0.248 NA
ATOM     49  C   UNL A   1      45.095  24.313  28.384  1.00  0.00     0.031 C 
ATOM     50  C   UNL A   1      47.035  29.366  31.134  1.00  0.00     0.029 A 
ATOM     51  C   UNL A   1      46.222  28.410  30.545  1.00  0.00     0.049 A 
ATOM     52  H   UNL A   1      44.146  28.475  30.177  1.00  0.00     0.167 HD
ATOM     53  C   UNL A   1      45.737  26.239  29.451  1.00  0.00     0.074 A 
ATOM     54  C   UNL A   1      46.130  24.953  28.910  1.00  0.00     0.031 C 
ATOM     55  C   UNL A   1      46.594  27.123  30.017  1.00  0.00     0.031 A 
BRANCH  42  56
ATOM     56  C   UNL A   1      43.932  32.367  31.923  1.00  0.00    -0.014 A 
ATOM     57  C   UNL A   1      43.828  32.560  33.309  1.00  0.00     0.009 A 
ATOM     58  C   UNL A   1      44.225  33.471  31.106  1.00  0.00     0.009 A 
ATOM     59  C   UNL A   1      43.971  33.838  33.859  1.00  0.00     0.001 A 
ATOM     60  C   UNL A   1      44.400  34.741  31.661  1.00  0.00     0.001 A 
ATOM     61  C   UNL A   1      44.262  34.924  33.035  1.00  0.00     0.000 A 
ENDBRANCH  42  56
BRANCH  43  62
ATOM     62  C   UNL A   1      42.397  23.483  27.610  1.00  0.00    -0.014 A 
ATOM     63  C   UNL A   1      42.608  23.346  26.230  1.00  0.00     0.009 A 
ATOM     64  C   UNL A   1      41.973  22.363  28.345  1.00  0.00     0.009 A 
ATOM     65  C   UNL A   1      42.375  22.121  25.597  1.00  0.00     0.001 A 
ATOM     66  C   UNL A   1      41.774  21.133  27.715  1.00  0.00     0.001 A 
ATOM     67  C   UNL A   1      41.965  21.017  26.340  1.00  0.00     0.000 A 
ENDBRANCH  43  62
BRANCH  55  68
ATOM     68  C   UNL A   1      48.033  26.706  30.147  1.00  0.00    -0.014 A 
ATOM     69  C   UNL A   1      48.462  25.848  31.169  1.00  0.00     0.009 A 
ATOM     70  C   UNL A   1      48.961  27.142  29.187  1.00  0.00     0.009 A 
ATOM     71  C   UNL A   1      49.801  25.454  31.241  1.00  0.00     0.001 A 
ATOM     72  C   UNL A   1      50.290  26.722  29.244  1.00  0.00     0.001 A 
ATOM     73  C   UNL A   1      50.710  25.885  30.275  1.00  0.00     0.000 A 
ENDBRANCH  55  68
ENDBRANCH  29  30
ENDBRANCH  22  24
ENDBRANCH  21  22
ENDBRANCH  20  21
ENDBRANCH   1  20
TORSDOF 14
ENDMDL
MODEL 2
REMARK VINA RESULT:     -10.1      6.423     11.349
REMARK SMILES O=C1NC[C@@H](CSc2ccnc(C(=O)OCCOC(=O)c3ccc(-c4c5nc(c(-c6ccccc6)c6ccc([nH]6)c(-c6ccccc6)c6nc(c(-c7ccccc7)c7ccc4[nH]7)C=C6)C=C5)cc3)c2)O1
REMARK SMILES IDX 16 1 15 2 13 3 14 4 12 5 8 6 9 7 69 8 10 9 11 10 7 11 6 12
REMARK SMILES IDX 5 13 1 14 2 15 3 16 70 17 4 18 17 20 18 21 19 22 20 23 21 24
REMARK SMILES IDX 22 25 68 26 23 27 67 28 24 29 25 30 26 31 61 32 27 33 66 34
REMARK SMILES IDX 60 35 62 36 28 37 65 38 59 39 58 40 29 42 51 43 36 44 50 45
REMARK SMILES IDX 37 46 40 47 49 48 63 49 38 50 39 51 48 53 64 54 41 55 30 56
REMARK SMILES IDX 31 57 35 58 32 59 34 60 33 61 52 62 53 63 57 64 54 65 56 66
REMARK SMILES IDX 55 67 42 68 43 69 47 70 44 71 46 72 45 73
REMARK H PARENT 3 19 62 41 40 52
REMARK Flexibility Score: inf
ROOT
ATOM      1  C   UNL A   1      42.260  19.124  26.758  1.00  0.00     0.275 C 
ENDROOT
BRANCH   1   2
ATOM      2  O   UNL A   1      41.663  20.326  26.228  1.00  0.00    -0.457 OA
BRANCH   2   3
ATOM      3  C   UNL A   1      40.328  20.229  25.985  1.00  0.00     0.357 C 
ATOM      4  O   UNL A   1      39.735  19.185  25.749  1.00  0.00    -0.244 OA
BRANCH   3   5
ATOM      5  C   UNL A   1      39.625  21.544  26.121  1.00  0.00     0.149 A 
ATOM      6  C   UNL A   1      37.817  23.070  25.801  1.00  0.00     0.011 A 
ATOM      7  C   UNL A   1      38.433  23.921  26.714  1.00  0.00     0.035 A 
ATOM      8  C   UNL A   1      38.415  21.842  25.503  1.00  0.00     0.051 A 
ATOM      9  C   UNL A   1      39.662  23.579  27.228  1.00  0.00     0.113 A 
ATOM     10  N   UNL A   1      40.259  22.412  26.957  1.00  0.00    -0.249 NA
BRANCH   6  11
ATOM     11  S   UNL A   1      36.194  23.480  25.195  1.00  0.00    -0.122 SA
BRANCH  11  12
ATOM     12  C   UNL A   1      35.156  22.070  25.765  1.00  0.00     0.122 C 
BRANCH  12  13
ATOM     13  C   UNL A   1      34.015  21.543  24.876  1.00  0.00     0.208 C 
ATOM     14  O   UNL A   1      32.211  18.626  25.311  1.00  0.00    -0.225 OA
ATOM     15  C   UNL A   1      32.620  19.765  25.187  1.00  0.00     0.407 C 
ATOM     16  N   UNL A   1      31.867  20.886  25.373  1.00  0.00    -0.318 N 
ATOM     17  O   UNL A   1      33.905  20.109  24.892  1.00  0.00    -0.443 OA
ATOM     18  C   UNL A   1      32.631  22.071  25.205  1.00  0.00     0.165 C 
ATOM     19  H   UNL A   1      30.908  20.876  25.595  1.00  0.00     0.167 HD
ENDBRANCH  12  13
ENDBRANCH  11  12
ENDBRANCH   6  11
ENDBRANCH   3   5
ENDBRANCH   2   3
ENDBRANCH   1   2
BRANCH   1  20
ATOM     20  C   UNL A   1      43.248  18.491  25.769  1.00  0.00     0.275 C 
BRANCH  20  21
ATOM     21  O   UNL A   1      43.480  19.307  24.605  1.00  0.00    -0.458 OA
BRANCH  21  22
ATOM     22  C   UNL A   1      44.780  19.576  24.337  1.00  0.00     0.338 C 
ATOM     23  O   UNL A   1      45.615  18.811  23.880  1.00  0.00    -0.246 OA
BRANCH  22  24
ATOM     24  C   UNL A   1      45.072  20.989  24.622  1.00  0.00     0.060 A 
ATOM     25  C   UNL A   1      45.535  21.329  25.894  1.00  0.00     0.016 A 
ATOM     26  C   UNL A   1      44.776  21.984  23.693  1.00  0.00     0.016 A 
ATOM     27  C   UNL A   1      45.667  22.663  26.265  1.00  0.00     0.010 A 
ATOM     28  C   UNL A   1      44.941  23.326  24.053  1.00  0.00     0.010 A 
ATOM     29  C   UNL A   1      45.366  23.677  25.349  1.00  0.00    -0.014 A 
BRANCH  29  30
ATOM     30  C   UNL A   1      45.444  25.106  25.748  1.00  0.00     0.031 A 
ATOM     31  C   UNL A   1      46.766  25.819  25.704  1.00  0.00     0.074 A 
ATOM     32  C   UNL A   1      44.341  25.756  26.165  1.00  0.00     0.049 A 
ATOM     33  N   UNL A   1      47.092  26.992  26.182  1.00  0.00    -0.248 NA
ATOM     34  C   UNL A   1      47.872  25.110  25.040  1.00  0.00     0.031 C 
ATOM     35  C   UNL A   1      42.986  25.206  26.186  1.00  0.00     0.029 A 
ATOM     36  N   UNL A   1      44.194  27.027  26.666  1.00  0.00    -0.354 N 
ATOM     37  C   UNL A   1      48.447  27.144  25.916  1.00  0.00     0.074 A 
ATOM     38  C   UNL A   1      48.885  25.939  25.245  1.00  0.00     0.031 C 
ATOM     39  C   UNL A   1      42.146  26.130  26.677  1.00  0.00     0.029 A 
ATOM     40  C   UNL A   1      42.912  27.307  27.073  1.00  0.00     0.049 A 
ATOM     41  H   UNL A   1      44.934  27.672  26.728  1.00  0.00     0.167 HD
ATOM     42  C   UNL A   1      49.254  28.192  26.212  1.00  0.00     0.031 A 
ATOM     43  C   UNL A   1      42.419  28.371  27.735  1.00  0.00     0.031 A 
ATOM     44  C   UNL A   1      48.809  29.388  26.876  1.00  0.00     0.049 A 
ATOM     45  C   UNL A   1      43.349  29.484  28.129  1.00  0.00     0.074 A 
ATOM     46  C   UNL A   1      49.544  30.510  27.220  1.00  0.00     0.029 A 
ATOM     47  N   UNL A   1      47.507  29.619  27.297  1.00  0.00    -0.354 N 
ATOM     48  N   UNL A   1      44.634  29.608  27.898  1.00  0.00    -0.248 NA
ATOM     49  C   UNL A   1      42.761  30.603  28.881  1.00  0.00     0.031 C 
ATOM     50  C   UNL A   1      48.700  31.393  27.899  1.00  0.00     0.029 A 
ATOM     51  C   UNL A   1      47.424  30.854  27.915  1.00  0.00     0.049 A 
ATOM     52  H   UNL A   1      46.755  28.996  27.174  1.00  0.00     0.167 HD
ATOM     53  C   UNL A   1      45.000  30.834  28.441  1.00  0.00     0.074 A 
ATOM     54  C   UNL A   1      43.801  31.417  29.007  1.00  0.00     0.031 C 
ATOM     55  C   UNL A   1      46.219  31.426  28.460  1.00  0.00     0.031 A 
BRANCH  42  56
ATOM     56  C   UNL A   1      50.713  28.066  25.864  1.00  0.00    -0.014 A 
ATOM     57  C   UNL A   1      51.629  27.458  26.735  1.00  0.00     0.009 A 
ATOM     58  C   UNL A   1      51.170  28.542  24.625  1.00  0.00     0.009 A 
ATOM     59  C   UNL A   1      52.981  27.367  26.389  1.00  0.00     0.001 A 
ATOM     60  C   UNL A   1      52.515  28.421  24.268  1.00  0.00     0.001 A 
ATOM     61  C   UNL A   1      53.420  27.845  25.155  1.00  0.00     0.000 A 
ENDBRANCH  42  56
BRANCH  43  62
ATOM     62  C   UNL A   1      40.978  28.417  28.102  1.00  0.00    -0.014 A 
ATOM     63  C   UNL A   1      40.046  29.044  27.262  1.00  0.00     0.009 A 
ATOM     64  C   UNL A   1      40.528  27.840  29.301  1.00  0.00     0.009 A 
ATOM     65  C   UNL A   1      38.698  29.114  27.627  1.00  0.00     0.001 A 
ATOM     66  C   UNL A   1      39.176  27.882  29.646  1.00  0.00     0.001 A 
ATOM     67  C   UNL A   1      38.264  28.528  28.814  1.00  0.00     0.000 A 
ENDBRANCH  43  62
BRANCH  55  68
ATOM     68  C   UNL A   1      46.309  32.805  29.053  1.00  0.00    -0.014 A 
ATOM     69  C   UNL A   1      46.570  33.007  30.415  1.00  0.00     0.009 A 
ATOM     70  C   UNL A   1      46.187  33.922  28.209  1.00  0.00     0.009 A 
ATOM     71  C   UNL A   1      46.681  34.302  30.927  1.00  0.00     0.001 A 
ATOM     72  C   UNL A   1      46.329  35.214  28.717  1.00  0.00     0.001 A 
ATOM     73  C   UNL A   1      46.568  35.402  30.077  1.00  0.00     0.000 A 
ENDBRANCH  55  68
ENDBRANCH  29  30
ENDBRANCH  22  24
ENDBRANCH  21  22
ENDBRANCH  20  21
ENDBRANCH   1  20
TORSDOF 14
ENDMDL
MODEL 3
REMARK VINA RESULT:     -10.1      1.125      6.286
REMARK SMILES O=C1NC[C@@H](CSc2ccnc(C(=O)OCCOC(=O)c3ccc(-c4c5nc(c(-c6ccccc6)c6ccc([nH]6)c(-c6ccccc6)c6nc(c(-c7ccccc7)c7ccc4[nH]7)C=C6)C=C5)cc3)c2)O1
REMARK SMILES IDX 16 1 15 2 13 3 14 4 12 5 8 6 9 7 69 8 10 9 11 10 7 11 6 12
REMARK SMILES IDX 5 13 1 14 2 15 3 16 70 17 4 18 17 20 18 21 19 22 20 23 21 24
REMARK SMILES IDX 22 25 68 26 23 27 67 28 24 29 25 30 26 31 61 32 27 33 66 34
REMARK SMILES IDX 60 35 62 36 28 37 65 38 59 39 58 40 29 42 51 43 36 44 50 45
REMARK SMILES IDX 37 46 40 47 49 48 63 49 38 50 39 51 48 53 64 54 41 55 30 56
REMARK SMILES IDX 31 57 35 58 32 59 34 60 33 61 52 62 53 63 57 64 54 65 56 66
REMARK SMILES IDX 55 67 42 68 43 69 47 70 44 71 46 72 45 73
REMARK H PARENT 3 19 62 41 40 52
REMARK Flexibility Score: inf
ROOT
ATOM      1  C   UNL A   1      33.853  33.889  28.294  1.00  0.00     0.275 C 
ENDROOT
BRANCH   1   2
ATOM      2  O   UNL A   1      32.809  34.423  29.134  1.00  0.00    -0.457 OA
BRANCH   2   3
ATOM      3  C   UNL A   1      32.921  35.754  29.389  1.00  0.00     0.357 C 
ATOM      4  O   UNL A   1      32.684  36.643  28.582  1.00  0.00    -0.244 OA
BRANCH   3   5
ATOM      5  C   UNL A   1      33.288  36.035  30.815  1.00  0.00     0.149 A 
ATOM      6  C   UNL A   1      34.276  35.535  32.929  1.00  0.00     0.011 A 
ATOM      7  C   UNL A   1      34.069  36.862  33.290  1.00  0.00     0.035 A 
ATOM      8  C   UNL A   1      33.892  35.106  31.655  1.00  0.00     0.051 A 
ATOM      9  C   UNL A   1      33.404  37.697  32.423  1.00  0.00     0.113 A 
ATOM     10  N   UNL A   1      33.021  37.314  31.199  1.00  0.00    -0.249 NA
BRANCH   6  11
ATOM     11  S   UNL A   1      35.202  34.476  34.020  1.00  0.00    -0.122 SA
BRANCH  11  12
ATOM     12  C   UNL A   1      35.687  33.067  32.940  1.00  0.00     0.122 C 
BRANCH  12  13
ATOM     13  C   UNL A   1      37.043  33.082  32.211  1.00  0.00     0.208 C 
ATOM     14  O   UNL A   1      37.583  33.407  28.812  1.00  0.00    -0.225 OA
ATOM     15  C   UNL A   1      37.525  33.509  30.023  1.00  0.00     0.407 C 
ATOM     16  N   UNL A   1      37.971  34.583  30.735  1.00  0.00    -0.318 N 
ATOM     17  O   UNL A   1      36.964  32.593  30.862  1.00  0.00    -0.443 OA
ATOM     18  C   UNL A   1      37.725  34.435  32.125  1.00  0.00     0.165 C 
ATOM     19  H   UNL A   1      38.412  35.366  30.333  1.00  0.00     0.167 HD
ENDBRANCH  12  13
ENDBRANCH  11  12
ENDBRANCH   6  11
ENDBRANCH   3   5
ENDBRANCH   2   3
ENDBRANCH   1   2
BRANCH   1  20
ATOM     20  C   UNL A   1      34.169  32.426  28.633  1.00  0.00     0.275 C 
BRANCH  20  21
ATOM     21  O   UNL A   1      34.251  31.584  27.467  1.00  0.00    -0.458 OA
BRANCH  21  22
ATOM     22  C   UNL A   1      34.454  30.269  27.716  1.00  0.00     0.338 C 
ATOM     23  O   UNL A   1      33.669  29.351  27.538  1.00  0.00    -0.246 OA
BRANCH  22  24
ATOM     24  C   UNL A   1      35.826  30.053  28.201  1.00  0.00     0.060 A 
ATOM     25  C   UNL A   1      36.883  30.246  27.311  1.00  0.00     0.016 A 
ATOM     26  C   UNL A   1      36.065  29.543  29.476  1.00  0.00     0.016 A 
ATOM     27  C   UNL A   1      38.181  29.896  27.669  1.00  0.00     0.010 A 
ATOM     28  C   UNL A   1      37.375  29.221  29.848  1.00  0.00     0.010 A 
ATOM     29  C   UNL A   1      38.441  29.375  28.941  1.00  0.00    -0.014 A 
BRANCH  29  30
ATOM     30  C   UNL A   1      39.809  28.939  29.317  1.00  0.00     0.031 A 
ATOM     31  C   UNL A   1      40.316  27.602  28.854  1.00  0.00     0.074 A 
ATOM     32  C   UNL A   1      40.588  29.726  30.082  1.00  0.00     0.049 A 
ATOM     33  N   UNL A   1      41.391  26.950  29.219  1.00  0.00    -0.248 NA
ATOM     34  C   UNL A   1      39.498  26.900  27.852  1.00  0.00     0.031 C 
ATOM     35  C   UNL A   1      40.248  31.074  30.537  1.00  0.00     0.029 A 
ATOM     36  N   UNL A   1      41.828  29.493  30.626  1.00  0.00    -0.354 N 
ATOM     37  C   UNL A   1      41.355  25.747  28.526  1.00  0.00     0.074 A 
ATOM     38  C   UNL A   1      40.148  25.753  27.728  1.00  0.00     0.031 C 
ATOM     39  C   UNL A   1      41.252  31.548  31.292  1.00  0.00     0.029 A 
ATOM     40  C   UNL A   1      42.269  30.511  31.435  1.00  0.00     0.049 A 
ATOM     41  H   UNL A   1      42.349  28.676  30.453  1.00  0.00     0.167 HD
ATOM     42  C   UNL A   1      42.247  24.725  28.559  1.00  0.00     0.031 A 
ATOM     43  C   UNL A   1      43.346  30.584  32.240  1.00  0.00     0.031 A 
ATOM     44  C   UNL A   1      43.446  24.731  29.353  1.00  0.00     0.049 A 
ATOM     45  C   UNL A   1      44.275  29.405  32.327  1.00  0.00     0.074 A 
ATOM     46  C   UNL A   1      44.418  23.749  29.456  1.00  0.00     0.029 A 
ATOM     47  N   UNL A   1      43.840  25.771  30.181  1.00  0.00    -0.354 N 
ATOM     48  N   UNL A   1      44.221  28.261  31.690  1.00  0.00    -0.248 NA
ATOM     49  C   UNL A   1      45.414  29.528  33.249  1.00  0.00     0.031 C 
ATOM     50  C   UNL A   1      45.368  24.172  30.389  1.00  0.00     0.029 A 
ATOM     51  C   UNL A   1      45.028  25.447  30.813  1.00  0.00     0.049 A 
ATOM     52  H   UNL A   1      43.348  26.615  30.301  1.00  0.00     0.167 HD
ATOM     53  C   UNL A   1      45.336  27.543  32.103  1.00  0.00     0.074 A 
ATOM     54  C   UNL A   1      46.052  28.383  33.042  1.00  0.00     0.031 C 
ATOM     55  C   UNL A   1      45.735  26.302  31.733  1.00  0.00     0.031 A 
BRANCH  42  56
ATOM     56  C   UNL A   1      41.927  23.498  27.750  1.00  0.00    -0.014 A 
ATOM     57  C   UNL A   1      41.083  22.490  28.241  1.00  0.00     0.009 A 
ATOM     58  C   UNL A   1      42.461  23.364  26.459  1.00  0.00     0.009 A 
ATOM     59  C   UNL A   1      40.815  21.354  27.471  1.00  0.00     0.001 A 
ATOM     60  C   UNL A   1      42.166  22.244  25.679  1.00  0.00     0.001 A 
ATOM     61  C   UNL A   1      41.353  21.235  26.190  1.00  0.00     0.000 A 
ENDBRANCH  42  56
BRANCH  43  62
ATOM     62  C   UNL A   1      43.582  31.802  33.061  1.00  0.00    -0.014 A 
ATOM     63  C   UNL A   1      43.027  31.918  34.343  1.00  0.00     0.009 A 
ATOM     64  C   UNL A   1      44.359  32.860  32.561  1.00  0.00     0.009 A 
ATOM     65  C   UNL A   1      43.224  33.078  35.098  1.00  0.00     0.001 A 
ATOM     66  C   UNL A   1      44.583  34.003  33.331  1.00  0.00     0.001 A 
ATOM     67  C   UNL A   1      44.006  34.115  34.594  1.00  0.00     0.000 A 
ENDBRANCH  43  62
BRANCH  55  68
ATOM     68  C   UNL A   1      47.040  25.799  32.286  1.00  0.00    -0.014 A 
ATOM     69  C   UNL A   1      48.261  26.067  31.652  1.00  0.00     0.009 A 
ATOM     70  C   UNL A   1      47.042  25.093  33.501  1.00  0.00     0.009 A 
ATOM     71  C   UNL A   1      49.459  25.613  32.211  1.00  0.00     0.001 A 
ATOM     72  C   UNL A   1      48.242  24.669  34.073  1.00  0.00     0.001 A 
ATOM     73  C   UNL A   1      49.448  24.923  33.423  1.00  0.00     0.000 A 
ENDBRANCH  55  68
ENDBRANCH  29  30
ENDBRANCH  22  24
ENDBRANCH  21  22
ENDBRANCH  20  21
ENDBRANCH   1  20
TORSDOF 14
ENDMDL
