MODEL 1
REMARK VINA RESULT:     -11.1      0.000      0.000
REMARK SMILES CCC[N@@H+]1CC2(CC[NH+](CCc3ccccc3)CC2)C[C@H]1C(=O)OCCOC(=O)c1ccc(-c2c3nc(c(-c4ccccc4)c4ccc([nH]4)c(-c4ccccc4)c4nc(c(-c5ccccc5)c5ccc2[nH]5)C=C4)C=C3)cc1
REMARK SMILES IDX 25 1 24 2 22 3 23 4 21 5 4 6 5 7 6 9 20 10 7 11 19 12 8 13
REMARK SMILES IDX 18 14 9 15 3 17 2 18 1 19 10 20 11 21 12 22 13 23 17 24
REMARK SMILES IDX 14 25 16 26 15 27 26 28 27 29 28 30 29 31 30 32 31 33 77 34
REMARK SMILES IDX 32 35 76 36 33 37 34 38 35 39 70 40 36 41 75 42 69 43 71 44
REMARK SMILES IDX 37 45 74 46 68 47 67 48 38 50 60 51 45 52 59 53 46 54 49 55
REMARK SMILES IDX 58 56 72 57 47 58 48 59 57 61 73 62 50 63 39 64 40 65 44 66
REMARK SMILES IDX 41 67 43 68 42 69 61 70 62 71 66 72 63 73 65 74 64 75 51 76
REMARK SMILES IDX 52 77 56 78 53 79 55 80 54 81
REMARK H PARENT 4 8 9 16 71 49 49 60
REMARK Flexibility Score: inf
ROOT
ATOM      1  C   UNL A   1      37.879  20.200  24.772  1.00  0.00     0.274 C 
ENDROOT
BRANCH   1   2
ATOM      2  O   UNL A   1      36.964  20.983  25.558  1.00  0.00    -0.458 OA
BRANCH   2   3
ATOM      3  C   UNL A   1      36.055  21.709  24.859  1.00  0.00     0.365 C 
ATOM      4  O   UNL A   1      36.253  22.854  24.456  1.00  0.00    -0.245 OA
BRANCH   3   5
ATOM      5  C   UNL A   1      34.728  20.992  24.588  1.00  0.00     0.295 C 
ATOM      6  N   UNL A   1      34.200  20.139  25.685  1.00  0.00    -0.323 N 
ATOM      7  C   UNL A   1      33.509  21.097  26.576  1.00  0.00     0.270 C 
ATOM      8  H   UNL A   1      34.923  19.616  26.179  1.00  0.00     0.348 HD
ATOM      9  C   UNL A   1      32.902  22.202  25.679  1.00  0.00     0.036 C 
ATOM     10  C   UNL A   1      33.643  22.019  24.330  1.00  0.00     0.091 C 
ATOM     11  C   UNL A   1      33.219  23.617  26.222  1.00  0.00     0.075 C 
ATOM     12  C   UNL A   1      31.390  21.933  25.476  1.00  0.00     0.075 C 
ATOM     13  C   UNL A   1      32.161  24.202  27.143  1.00  0.00     0.263 C 
ATOM     14  C   UNL A   1      30.446  22.690  26.400  1.00  0.00     0.263 C 
ATOM     15  N   UNL A   1      30.807  24.077  26.629  1.00  0.00    -0.335 N 
ATOM     16  H   UNL A   1      30.204  24.385  27.392  1.00  0.00     0.348 HD
BRANCH   6  17
ATOM     17  C   UNL A   1      33.268  19.128  25.136  1.00  0.00     0.262 C 
BRANCH  17  18
ATOM     18  C   UNL A   1      33.919  18.199  24.101  1.00  0.00     0.058 C 
ATOM     19  C   UNL A   1      32.918  17.673  23.087  1.00  0.00     0.010 C 
ENDBRANCH  17  18
ENDBRANCH   6  17
BRANCH  15  20
ATOM     20  C   UNL A   1      30.345  25.077  25.658  1.00  0.00     0.267 C 
BRANCH  20  21
ATOM     21  C   UNL A   1      31.284  26.084  24.942  1.00  0.00     0.097 C 
BRANCH  21  22
ATOM     22  C   UNL A   1      31.408  27.488  25.489  1.00  0.00    -0.042 A 
ATOM     23  C   UNL A   1      31.288  28.620  24.673  1.00  0.00     0.004 A 
ATOM     24  C   UNL A   1      31.650  27.680  26.861  1.00  0.00     0.004 A 
ATOM     25  C   UNL A   1      31.504  29.900  25.193  1.00  0.00     0.000 A 
ATOM     26  C   UNL A   1      31.872  28.959  27.379  1.00  0.00     0.000 A 
ATOM     27  C   UNL A   1      31.815  30.068  26.541  1.00  0.00     0.000 A 
ENDBRANCH  21  22
ENDBRANCH  20  21
ENDBRANCH  15  20
ENDBRANCH   3   5
ENDBRANCH   2   3
ENDBRANCH   1   2
BRANCH   1  28
ATOM     28  C   UNL A   1      38.867  19.458  25.670  1.00  0.00     0.275 C 
BRANCH  28  29
ATOM     29  O   UNL A   1      40.143  20.126  25.699  1.00  0.00    -0.458 OA
BRANCH  29  30
ATOM     30  C   UNL A   1      40.706  20.232  26.918  1.00  0.00     0.338 C 
ATOM     31  O   UNL A   1      41.128  19.326  27.633  1.00  0.00    -0.246 OA
BRANCH  30  32
ATOM     32  C   UNL A   1      40.781  21.634  27.329  1.00  0.00     0.060 A 
ATOM     33  C   UNL A   1      40.088  22.599  26.598  1.00  0.00     0.016 A 
ATOM     34  C   UNL A   1      41.689  22.013  28.317  1.00  0.00     0.016 A 
ATOM     35  C   UNL A   1      40.362  23.950  26.786  1.00  0.00     0.010 A 
ATOM     36  C   UNL A   1      41.922  23.371  28.546  1.00  0.00     0.010 A 
ATOM     37  C   UNL A   1      41.295  24.348  27.750  1.00  0.00    -0.014 A 
BRANCH  37  38
ATOM     38  C   UNL A   1      41.699  25.770  27.859  1.00  0.00     0.031 A 
ATOM     39  C   UNL A   1      42.954  26.236  27.173  1.00  0.00     0.074 A 
ATOM     40  C   UNL A   1      40.940  26.649  28.540  1.00  0.00     0.049 A 
ATOM     41  N   UNL A   1      43.579  27.381  27.277  1.00  0.00    -0.248 NA
ATOM     42  C   UNL A   1      43.594  25.283  26.248  1.00  0.00     0.031 C 
ATOM     43  C   UNL A   1      39.659  26.352  29.181  1.00  0.00     0.029 A 
ATOM     44  N   UNL A   1      41.144  27.981  28.801  1.00  0.00    -0.354 N 
ATOM     45  C   UNL A   1      44.703  27.272  26.468  1.00  0.00     0.074 A 
ATOM     46  C   UNL A   1      44.679  25.949  25.882  1.00  0.00     0.031 C 
ATOM     47  C   UNL A   1      39.184  27.472  29.750  1.00  0.00     0.029 A 
ATOM     48  C   UNL A   1      40.156  28.545  29.570  1.00  0.00     0.049 A 
ATOM     49  H   UNL A   1      41.923  28.483  28.469  1.00  0.00     0.167 HD
ATOM     50  C   UNL A   1      45.671  28.190  26.235  1.00  0.00     0.031 A 
ATOM     51  C   UNL A   1      40.063  29.779  30.099  1.00  0.00     0.031 A 
ATOM     52  C   UNL A   1      45.686  29.512  26.803  1.00  0.00     0.049 A 
ATOM     53  C   UNL A   1      41.176  30.762  29.871  1.00  0.00     0.074 A 
ATOM     54  C   UNL A   1      46.645  30.501  26.670  1.00  0.00     0.029 A 
ATOM     55  N   UNL A   1      44.675  30.035  27.593  1.00  0.00    -0.354 N 
ATOM     56  N   UNL A   1      42.277  30.618  29.175  1.00  0.00    -0.248 NA
ATOM     57  C   UNL A   1      41.035  32.078  30.512  1.00  0.00     0.031 C 
ATOM     58  C   UNL A   1      46.222  31.620  27.398  1.00  0.00     0.029 A 
ATOM     59  C   UNL A   1      44.983  31.337  27.948  1.00  0.00     0.049 A 
ATOM     60  H   UNL A   1      43.861  29.553  27.863  1.00  0.00     0.167 HD
ATOM     61  C   UNL A   1      42.946  31.831  29.271  1.00  0.00     0.074 A 
ATOM     62  C   UNL A   1      42.121  32.703  30.082  1.00  0.00     0.031 C 
ATOM     63  C   UNL A   1      44.138  32.192  28.739  1.00  0.00     0.031 A 
BRANCH  50  64
ATOM     64  C   UNL A   1      46.812  27.780  25.352  1.00  0.00    -0.014 A 
ATOM     65  C   UNL A   1      46.772  27.993  23.965  1.00  0.00     0.009 A 
ATOM     66  C   UNL A   1      47.955  27.195  25.918  1.00  0.00     0.009 A 
ATOM     67  C   UNL A   1      47.845  27.602  23.160  1.00  0.00     0.001 A 
ATOM     68  C   UNL A   1      49.035  26.827  25.114  1.00  0.00     0.001 A 
ATOM     69  C   UNL A   1      48.976  27.024  23.736  1.00  0.00     0.000 A 
ENDBRANCH  50  64
BRANCH  51  70
ATOM     70  C   UNL A   1      38.889  30.150  30.929  1.00  0.00    -0.014 A 
ATOM     71  C   UNL A   1      38.892  29.919  32.312  1.00  0.00     0.009 A 
ATOM     72  C   UNL A   1      37.747  30.713  30.336  1.00  0.00     0.009 A 
ATOM     73  C   UNL A   1      37.766  30.218  33.082  1.00  0.00     0.001 A 
ATOM     74  C   UNL A   1      36.633  31.037  31.112  1.00  0.00     0.001 A 
ATOM     75  C   UNL A   1      36.639  30.780  32.482  1.00  0.00     0.000 A 
ENDBRANCH  51  70
BRANCH  63  76
ATOM     76  C   UNL A   1      44.584  33.606  28.966  1.00  0.00    -0.014 A 
ATOM     77  C   UNL A   1      45.376  33.952  30.071  1.00  0.00     0.009 A 
ATOM     78  C   UNL A   1      44.220  34.601  28.046  1.00  0.00     0.009 A 
ATOM     79  C   UNL A   1      45.766  35.279  30.268  1.00  0.00     0.001 A 
ATOM     80  C   UNL A   1      44.630  35.921  28.234  1.00  0.00     0.001 A 
ATOM     81  C   UNL A   1      45.394  36.261  29.349  1.00  0.00     0.000 A 
ENDBRANCH  63  76
ENDBRANCH  37  38
ENDBRANCH  30  32
ENDBRANCH  29  30
ENDBRANCH  28  29
ENDBRANCH   1  28
TORSDOF 16
ENDMDL
MODEL 2
REMARK VINA RESULT:     -11.0      2.155      2.732
REMARK SMILES CCC[N@@H+]1CC2(CC[NH+](CCc3ccccc3)CC2)C[C@H]1C(=O)OCCOC(=O)c1ccc(-c2c3nc(c(-c4ccccc4)c4ccc([nH]4)c(-c4ccccc4)c4nc(c(-c5ccccc5)c5ccc2[nH]5)C=C4)C=C3)cc1
REMARK SMILES IDX 25 1 24 2 22 3 23 4 21 5 4 6 5 7 6 9 20 10 7 11 19 12 8 13
REMARK SMILES IDX 18 14 9 15 3 17 2 18 1 19 10 20 11 21 12 22 13 23 17 24
REMARK SMILES IDX 14 25 16 26 15 27 26 28 27 29 28 30 29 31 30 32 31 33 77 34
REMARK SMILES IDX 32 35 76 36 33 37 34 38 35 39 70 40 36 41 75 42 69 43 71 44
REMARK SMILES IDX 37 45 74 46 68 47 67 48 38 50 60 51 45 52 59 53 46 54 49 55
REMARK SMILES IDX 58 56 72 57 47 58 48 59 57 61 73 62 50 63 39 64 40 65 44 66
REMARK SMILES IDX 41 67 43 68 42 69 61 70 62 71 66 72 63 73 65 74 64 75 51 76
REMARK SMILES IDX 52 77 56 78 53 79 55 80 54 81
REMARK H PARENT 4 8 9 16 71 49 49 60
REMARK Flexibility Score: inf
ROOT
ATOM      1  C   UNL A   1      38.193  20.508  25.241  1.00  0.00     0.274 C 
ENDROOT
BRANCH   1   2
ATOM      2  O   UNL A   1      37.169  21.377  25.758  1.00  0.00    -0.458 OA
BRANCH   2   3
ATOM      3  C   UNL A   1      36.392  21.991  24.831  1.00  0.00     0.365 C 
ATOM      4  O   UNL A   1      36.648  23.087  24.336  1.00  0.00    -0.245 OA
BRANCH   3   5
ATOM      5  C   UNL A   1      35.140  21.209  24.418  1.00  0.00     0.295 C 
ATOM      6  N   UNL A   1      34.608  20.240  25.412  1.00  0.00    -0.323 N 
ATOM      7  C   UNL A   1      33.795  21.077  26.321  1.00  0.00     0.270 C 
ATOM      8  H   UNL A   1      35.335  19.730  25.914  1.00  0.00     0.348 HD
ATOM      9  C   UNL A   1      33.166  22.205  25.468  1.00  0.00     0.036 C 
ATOM     10  C   UNL A   1      34.001  22.177  24.163  1.00  0.00     0.091 C 
ATOM     11  C   UNL A   1      33.345  23.591  26.134  1.00  0.00     0.075 C 
ATOM     12  C   UNL A   1      31.693  21.851  25.144  1.00  0.00     0.075 C 
ATOM     13  C   UNL A   1      32.192  24.031  27.021  1.00  0.00     0.263 C 
ATOM     14  C   UNL A   1      30.642  22.468  26.055  1.00  0.00     0.263 C 
ATOM     15  N   UNL A   1      30.886  23.854  26.408  1.00  0.00    -0.335 N 
ATOM     16  H   UNL A   1      30.215  24.061  27.149  1.00  0.00     0.348 HD
BRANCH   6  17
ATOM     17  C   UNL A   1      33.788  19.214  24.729  1.00  0.00     0.262 C 
BRANCH  17  18
ATOM     18  C   UNL A   1      34.593  17.977  24.303  1.00  0.00     0.058 C 
ATOM     19  C   UNL A   1      33.834  17.107  23.315  1.00  0.00     0.010 C 
ENDBRANCH  17  18
ENDBRANCH   6  17
BRANCH  15  20
ATOM     20  C   UNL A   1      30.414  24.893  25.483  1.00  0.00     0.267 C 
BRANCH  20  21
ATOM     21  C   UNL A   1      30.334  26.400  25.844  1.00  0.00     0.097 C 
BRANCH  21  22
ATOM     22  C   UNL A   1      31.617  27.181  26.019  1.00  0.00    -0.042 A 
ATOM     23  C   UNL A   1      31.916  27.869  27.203  1.00  0.00     0.004 A 
ATOM     24  C   UNL A   1      32.552  27.227  24.970  1.00  0.00     0.004 A 
ATOM     25  C   UNL A   1      33.065  28.659  27.297  1.00  0.00     0.000 A 
ATOM     26  C   UNL A   1      33.697  28.023  25.062  1.00  0.00     0.000 A 
ATOM     27  C   UNL A   1      33.945  28.752  26.221  1.00  0.00     0.000 A 
ENDBRANCH  21  22
ENDBRANCH  20  21
ENDBRANCH  15  20
ENDBRANCH   3   5
ENDBRANCH   2   3
ENDBRANCH   1   2
BRANCH   1  28
ATOM     28  C   UNL A   1      39.562  20.895  25.796  1.00  0.00     0.275 C 
BRANCH  28  29
ATOM     29  O   UNL A   1      40.251  19.746  26.326  1.00  0.00    -0.458 OA
BRANCH  29  30
ATOM     30  C   UNL A   1      41.579  19.723  26.102  1.00  0.00     0.338 C 
ATOM     31  O   UNL A   1      42.234  18.844  25.547  1.00  0.00    -0.246 OA
BRANCH  30  32
ATOM     32  C   UNL A   1      42.207  20.944  26.610  1.00  0.00     0.060 A 
ATOM     33  C   UNL A   1      42.147  21.227  27.975  1.00  0.00     0.016 A 
ATOM     34  C   UNL A   1      42.683  21.898  25.711  1.00  0.00     0.016 A 
ATOM     35  C   UNL A   1      42.478  22.495  28.442  1.00  0.00     0.010 A 
ATOM     36  C   UNL A   1      43.070  23.152  26.187  1.00  0.00     0.010 A 
ATOM     37  C   UNL A   1      42.926  23.475  27.549  1.00  0.00    -0.014 A 
BRANCH  37  38
ATOM     38  C   UNL A   1      43.144  24.867  28.013  1.00  0.00     0.031 A 
ATOM     39  C   UNL A   1      44.543  25.334  28.311  1.00  0.00     0.074 A 
ATOM     40  C   UNL A   1      42.110  25.719  28.140  1.00  0.00     0.049 A 
ATOM     41  N   UNL A   1      44.942  26.441  28.884  1.00  0.00    -0.248 NA
ATOM     42  C   UNL A   1      45.639  24.433  27.913  1.00  0.00     0.031 C 
ATOM     43  C   UNL A   1      40.717  25.423  27.806  1.00  0.00     0.029 A 
ATOM     44  N   UNL A   1      42.079  27.015  28.586  1.00  0.00    -0.354 N 
ATOM     45  C   UNL A   1      46.326  26.351  28.954  1.00  0.00     0.074 A 
ATOM     46  C   UNL A   1      46.701  25.081  28.369  1.00  0.00     0.031 C 
ATOM     47  C   UNL A   1      39.969  26.512  28.046  1.00  0.00     0.029 A 
ATOM     48  C   UNL A   1      40.817  27.556  28.611  1.00  0.00     0.049 A 
ATOM     49  H   UNL A   1      42.884  27.510  28.863  1.00  0.00     0.167 HD
ATOM     50  C   UNL A   1      47.208  27.245  29.462  1.00  0.00     0.031 A 
ATOM     51  C   UNL A   1      40.389  28.746  29.070  1.00  0.00     0.031 A 
ATOM     52  C   UNL A   1      46.838  28.516  30.027  1.00  0.00     0.049 A 
ATOM     53  C   UNL A   1      41.379  29.698  29.679  1.00  0.00     0.074 A 
ATOM     54  C   UNL A   1      47.648  29.472  30.613  1.00  0.00     0.029 A 
ATOM     55  N   UNL A   1      45.545  29.014  30.050  1.00  0.00    -0.354 N 
ATOM     56  N   UNL A   1      42.676  29.566  29.819  1.00  0.00    -0.248 NA
ATOM     57  C   UNL A   1      40.842  30.963  30.202  1.00  0.00     0.031 C 
ATOM     58  C   UNL A   1      46.841  30.545  31.009  1.00  0.00     0.029 A 
ATOM     59  C   UNL A   1      45.537  30.270  30.632  1.00  0.00     0.049 A 
ATOM     60  H   UNL A   1      44.752  28.545  29.705  1.00  0.00     0.167 HD
ATOM     61  C   UNL A   1      43.112  30.739  30.420  1.00  0.00     0.074 A 
ATOM     62  C   UNL A   1      41.945  31.576  30.606  1.00  0.00     0.031 C 
ATOM     63  C   UNL A   1      44.367  31.093  30.789  1.00  0.00     0.031 A 
BRANCH  50  64
ATOM     64  C   UNL A   1      48.658  26.861  29.459  1.00  0.00    -0.014 A 
ATOM     65  C   UNL A   1      49.508  27.233  28.406  1.00  0.00     0.009 A 
ATOM     66  C   UNL A   1      49.189  26.137  30.538  1.00  0.00     0.009 A 
ATOM     67  C   UNL A   1      50.855  26.864  28.422  1.00  0.00     0.001 A 
ATOM     68  C   UNL A   1      50.541  25.790  30.562  1.00  0.00     0.001 A 
ATOM     69  C   UNL A   1      51.370  26.147  29.501  1.00  0.00     0.000 A 
ENDBRANCH  50  64
BRANCH  51  70
ATOM     70  C   UNL A   1      38.947  29.097  29.008  1.00  0.00    -0.014 A 
ATOM     71  C   UNL A   1      38.402  29.667  27.848  1.00  0.00     0.009 A 
ATOM     72  C   UNL A   1      38.115  28.890  30.120  1.00  0.00     0.009 A 
ATOM     73  C   UNL A   1      37.060  30.047  27.811  1.00  0.00     0.001 A 
ATOM     74  C   UNL A   1      36.766  29.245  30.070  1.00  0.00     0.001 A 
ATOM     75  C   UNL A   1      36.242  29.832  28.920  1.00  0.00     0.000 A 
ENDBRANCH  51  70
BRANCH  63  76
ATOM     76  C   UNL A   1      44.545  32.464  31.368  1.00  0.00    -0.014 A 
ATOM     77  C   UNL A   1      44.802  33.574  30.549  1.00  0.00     0.009 A 
ATOM     78  C   UNL A   1      44.433  32.648  32.754  1.00  0.00     0.009 A 
ATOM     79  C   UNL A   1      44.978  34.839  31.115  1.00  0.00     0.001 A 
ATOM     80  C   UNL A   1      44.588  33.916  33.314  1.00  0.00     0.001 A 
ATOM     81  C   UNL A   1      44.869  35.009  32.495  1.00  0.00     0.000 A 
ENDBRANCH  63  76
ENDBRANCH  37  38
ENDBRANCH  30  32
ENDBRANCH  29  30
ENDBRANCH  28  29
ENDBRANCH   1  28
TORSDOF 16
ENDMDL
MODEL 3
REMARK VINA RESULT:     -11.0      4.437      8.583
REMARK SMILES CCC[N@@H+]1CC2(CC[NH+](CCc3ccccc3)CC2)C[C@H]1C(=O)OCCOC(=O)c1ccc(-c2c3nc(c(-c4ccccc4)c4ccc([nH]4)c(-c4ccccc4)c4nc(c(-c5ccccc5)c5ccc2[nH]5)C=C4)C=C3)cc1
REMARK SMILES IDX 25 1 24 2 22 3 23 4 21 5 4 6 5 7 6 9 20 10 7 11 19 12 8 13
REMARK SMILES IDX 18 14 9 15 3 17 2 18 1 19 10 20 11 21 12 22 13 23 17 24
REMARK SMILES IDX 14 25 16 26 15 27 26 28 27 29 28 30 29 31 30 32 31 33 77 34
REMARK SMILES IDX 32 35 76 36 33 37 34 38 35 39 70 40 36 41 75 42 69 43 71 44
REMARK SMILES IDX 37 45 74 46 68 47 67 48 38 50 60 51 45 52 59 53 46 54 49 55
REMARK SMILES IDX 58 56 72 57 47 58 48 59 57 61 73 62 50 63 39 64 40 65 44 66
REMARK SMILES IDX 41 67 43 68 42 69 61 70 62 71 66 72 63 73 65 74 64 75 51 76
REMARK SMILES IDX 52 77 56 78 53 79 55 80 54 81
REMARK H PARENT 4 8 9 16 71 49 49 60
REMARK Flexibility Score: inf
ROOT
ATOM      1  C   UNL A   1      31.610  31.649  26.846  1.00  0.00     0.274 C 
ENDROOT
BRANCH   1   2
ATOM      2  O   UNL A   1      32.631  30.893  26.172  1.00  0.00    -0.458 OA
BRANCH   2   3
ATOM      3  C   UNL A   1      32.420  29.555  26.090  1.00  0.00     0.365 C 
ATOM      4  O   UNL A   1      33.140  28.712  26.625  1.00  0.00    -0.245 OA
BRANCH   3   5
ATOM      5  C   UNL A   1      31.190  29.144  25.274  1.00  0.00     0.295 C 
ATOM      6  N   UNL A   1      31.007  29.825  23.966  1.00  0.00    -0.323 N 
ATOM      7  C   UNL A   1      31.881  29.065  23.046  1.00  0.00     0.270 C 
ATOM      8  H   UNL A   1      31.247  30.817  23.985  1.00  0.00     0.348 HD
ATOM      9  C   UNL A   1      31.859  27.588  23.507  1.00  0.00     0.036 C 
ATOM     10  C   UNL A   1      31.276  27.667  24.941  1.00  0.00     0.091 C 
ATOM     11  C   UNL A   1      33.287  26.996  23.592  1.00  0.00     0.075 C 
ATOM     12  C   UNL A   1      30.897  26.776  22.605  1.00  0.00     0.075 C 
ATOM     13  C   UNL A   1      33.762  26.282  22.337  1.00  0.00     0.263 C 
ATOM     14  C   UNL A   1      31.542  26.015  21.455  1.00  0.00     0.263 C 
ATOM     15  N   UNL A   1      32.788  25.352  21.792  1.00  0.00    -0.335 N 
ATOM     16  H   UNL A   1      33.178  25.052  20.899  1.00  0.00     0.348 HD
BRANCH   6  17
ATOM     17  C   UNL A   1      29.586  29.758  23.555  1.00  0.00     0.262 C 
BRANCH  17  18
ATOM     18  C   UNL A   1      29.078  31.054  22.908  1.00  0.00     0.058 C 
ATOM     19  C   UNL A   1      27.779  31.540  23.529  1.00  0.00     0.010 C 
ENDBRANCH  17  18
ENDBRANCH   6  17
BRANCH  15  20
ATOM     20  C   UNL A   1      32.714  24.009  22.383  1.00  0.00     0.267 C 
BRANCH  20  21
ATOM     21  C   UNL A   1      33.923  23.041  22.483  1.00  0.00     0.097 C 
BRANCH  21  22
ATOM     22  C   UNL A   1      34.896  23.199  23.630  1.00  0.00    -0.042 A 
ATOM     23  C   UNL A   1      36.258  22.897  23.499  1.00  0.00     0.004 A 
ATOM     24  C   UNL A   1      34.435  23.665  24.874  1.00  0.00     0.004 A 
ATOM     25  C   UNL A   1      37.112  22.963  24.604  1.00  0.00     0.000 A 
ATOM     26  C   UNL A   1      35.288  23.723  25.980  1.00  0.00     0.000 A 
ATOM     27  C   UNL A   1      36.623  23.357  25.848  1.00  0.00     0.000 A 
ENDBRANCH  21  22
ENDBRANCH  20  21
ENDBRANCH  15  20
ENDBRANCH   3   5
ENDBRANCH   2   3
ENDBRANCH   1   2
BRANCH   1  28
ATOM     28  C   UNL A   1      32.003  33.121  26.945  1.00  0.00     0.275 C 
BRANCH  28  29
ATOM     29  O   UNL A   1      32.103  33.540  28.320  1.00  0.00    -0.458 OA
BRANCH  29  30
ATOM     30  C   UNL A   1      33.140  34.354  28.596  1.00  0.00     0.338 C 
ATOM     31  O   UNL A   1      33.126  35.577  28.716  1.00  0.00    -0.246 OA
BRANCH  30  32
ATOM     32  C   UNL A   1      34.370  33.579  28.765  1.00  0.00     0.060 A 
ATOM     33  C   UNL A   1      34.454  32.646  29.799  1.00  0.00     0.016 A 
ATOM     34  C   UNL A   1      35.502  33.914  28.023  1.00  0.00     0.016 A 
ATOM     35  C   UNL A   1      35.685  32.107  30.158  1.00  0.00     0.010 A 
ATOM     36  C   UNL A   1      36.728  33.330  28.346  1.00  0.00     0.010 A 
ATOM     37  C   UNL A   1      36.837  32.458  29.445  1.00  0.00    -0.014 A 
BRANCH  37  38
ATOM     38  C   UNL A   1      38.171  32.003  29.907  1.00  0.00     0.031 A 
ATOM     39  C   UNL A   1      38.730  30.708  29.384  1.00  0.00     0.074 A 
ATOM     40  C   UNL A   1      38.894  32.750  30.762  1.00  0.00     0.049 A 
ATOM     41  N   UNL A   1      39.786  30.043  29.778  1.00  0.00    -0.248 NA
ATOM     42  C   UNL A   1      38.001  30.075  28.271  1.00  0.00     0.031 C 
ATOM     43  C   UNL A   1      38.509  34.063  31.282  1.00  0.00     0.029 A 
ATOM     44  N   UNL A   1      40.111  32.504  31.344  1.00  0.00    -0.354 N 
ATOM     45  C   UNL A   1      39.824  28.897  28.993  1.00  0.00     0.074 A 
ATOM     46  C   UNL A   1      38.685  28.953  28.103  1.00  0.00     0.031 C 
ATOM     47  C   UNL A   1      39.479  34.513  32.094  1.00  0.00     0.029 A 
ATOM     48  C   UNL A   1      40.518  33.495  32.203  1.00  0.00     0.049 A 
ATOM     49  H   UNL A   1      40.643  31.695  31.163  1.00  0.00     0.167 HD
ATOM     50  C   UNL A   1      40.726  27.887  29.014  1.00  0.00     0.031 A 
ATOM     51  C   UNL A   1      41.590  33.558  33.014  1.00  0.00     0.031 A 
ATOM     52  C   UNL A   1      41.870  27.840  29.886  1.00  0.00     0.049 A 
ATOM     53  C   UNL A   1      42.547  32.400  33.058  1.00  0.00     0.074 A 
ATOM     54  C   UNL A   1      42.816  26.839  30.021  1.00  0.00     0.029 A 
ATOM     55  N   UNL A   1      42.232  28.856  30.756  1.00  0.00    -0.354 N 
ATOM     56  N   UNL A   1      42.525  31.282  32.374  1.00  0.00    -0.248 NA
ATOM     57  C   UNL A   1      43.674  32.511  33.996  1.00  0.00     0.031 C 
ATOM     58  C   UNL A   1      43.744  27.243  30.988  1.00  0.00     0.029 A 
ATOM     59  C   UNL A   1      43.394  28.510  31.423  1.00  0.00     0.049 A 
ATOM     60  H   UNL A   1      41.737  29.697  30.881  1.00  0.00     0.167 HD
ATOM     61  C   UNL A   1      43.647  30.571  32.779  1.00  0.00     0.074 A 
ATOM     62  C   UNL A   1      44.334  31.388  33.757  1.00  0.00     0.031 C 
ATOM     63  C   UNL A   1      44.070  29.347  32.378  1.00  0.00     0.031 A 
BRANCH  50  64
ATOM     64  C   UNL A   1      40.490  26.733  28.085  1.00  0.00    -0.014 A 
ATOM     65  C   UNL A   1      41.044  26.712  26.795  1.00  0.00     0.009 A 
ATOM     66  C   UNL A   1      39.722  25.640  28.514  1.00  0.00     0.009 A 
ATOM     67  C   UNL A   1      40.810  25.628  25.945  1.00  0.00     0.001 A 
ATOM     68  C   UNL A   1      39.509  24.548  27.670  1.00  0.00     0.001 A 
ATOM     69  C   UNL A   1      40.047  24.547  26.385  1.00  0.00     0.000 A 
ENDBRANCH  50  64
BRANCH  51  70
ATOM     70  C   UNL A   1      41.804  34.744  33.881  1.00  0.00    -0.014 A 
ATOM     71  C   UNL A   1      41.239  34.800  35.164  1.00  0.00     0.009 A 
ATOM     72  C   UNL A   1      42.550  35.840  33.418  1.00  0.00     0.009 A 
ATOM     73  C   UNL A   1      41.395  35.939  35.956  1.00  0.00     0.001 A 
ATOM     74  C   UNL A   1      42.728  36.966  34.223  1.00  0.00     0.001 A 
ATOM     75  C   UNL A   1      42.142  37.019  35.487  1.00  0.00     0.000 A 
ENDBRANCH  51  70
BRANCH  63  76
ATOM     76  C   UNL A   1      45.365  28.855  32.952  1.00  0.00    -0.014 A 
ATOM     77  C   UNL A   1      46.592  29.143  32.336  1.00  0.00     0.009 A 
ATOM     78  C   UNL A   1      45.354  28.106  34.138  1.00  0.00     0.009 A 
ATOM     79  C   UNL A   1      47.783  28.660  32.882  1.00  0.00     0.001 A 
ATOM     80  C   UNL A   1      46.548  27.644  34.693  1.00  0.00     0.001 A 
ATOM     81  C   UNL A   1      47.760  27.913  34.060  1.00  0.00     0.000 A 
ENDBRANCH  63  76
ENDBRANCH  37  38
ENDBRANCH  30  32
ENDBRANCH  29  30
ENDBRANCH  28  29
ENDBRANCH   1  28
TORSDOF 16
ENDMDL
