MODEL 1
REMARK VINA RESULT:     -11.4      0.000      0.000
REMARK SMILES Cc1ccc(CNc2ccc(C(=O)OCCOC(=O)c3ccc(-c4c5nc(c(-c6ccccc6)c6ccc([nH]6)c(-c6ccccc6)c6nc(c(-c7ccccc7)c7ccc4[nH]7)C=C6)C=C5)cc3)cc2Br)cc1
REMARK SMILES IDX 15 1 14 2 12 3 13 4 11 5 8 6 9 7 69 8 10 9 68 10 70 11 7 12
REMARK SMILES IDX 6 14 5 15 1 16 2 17 3 18 72 19 4 20 71 21 16 22 17 23 18 24
REMARK SMILES IDX 19 25 20 26 21 27 67 28 22 29 66 30 23 31 24 32 25 33 60 34
REMARK SMILES IDX 26 35 65 36 59 37 61 38 27 39 64 40 58 41 57 42 28 44 50 45
REMARK SMILES IDX 35 46 49 47 36 48 39 49 48 50 62 51 37 52 38 53 47 55 63 56
REMARK SMILES IDX 40 57 29 58 30 59 34 60 31 61 33 62 32 63 51 64 52 65 56 66
REMARK SMILES IDX 53 67 55 68 54 69 41 70 42 71 46 72 43 73 45 74 44 75
REMARK H PARENT 7 13 61 43 39 54
REMARK Flexibility Score: inf
ROOT
ATOM      1  C   UNL A   1      33.103  37.162  30.558  1.00  0.00     0.275 C 
ENDROOT
BRANCH   1   2
ATOM      2  O   UNL A   1      32.466  36.120  29.796  1.00  0.00    -0.458 OA
BRANCH   2   3
ATOM      3  C   UNL A   1      33.280  35.452  28.730  1.00  0.00     0.338 C 
ATOM      4  O   UNL A   1      34.094  36.388  28.484  1.00  0.00    -0.246 OA
BRANCH   3   5
ATOM      5  C   UNL A   1      33.025  33.455  27.949  1.00  0.00     0.061 A 
ATOM      6  C   UNL A   1      32.783  30.524  26.697  1.00  0.00     0.049 A 
ATOM      7  C   UNL A   1      31.795  31.476  26.565  1.00  0.00     0.028 A 
ATOM      8  C   UNL A   1      33.882  30.933  27.423  1.00  0.00     0.042 A 
ATOM      9  C   UNL A   1      31.890  32.785  27.166  1.00  0.00     0.018 A 
ATOM     10  C   UNL A   1      33.992  32.257  27.957  1.00  0.00     0.033 A 
ATOM     11  Br  UNL A   1      35.344  29.735  27.726  1.00  0.00    -0.049 Br
BRANCH   6  12
ATOM     12  N   UNL A   1      32.715  29.274  26.103  1.00  0.00    -0.380 N 
ATOM     13  H   UNL A   1      33.252  29.092  25.298  1.00  0.00     0.160 HD
BRANCH  12  14
ATOM     14  C   UNL A   1      31.865  28.226  26.646  1.00  0.00     0.148 C 
BRANCH  14  15
ATOM     15  C   UNL A   1      32.422  26.858  26.305  1.00  0.00    -0.029 A 
ATOM     16  C   UNL A   1      34.063  22.927  25.521  1.00  0.00     0.044 C 
ATOM     17  C   UNL A   1      33.493  24.294  25.767  1.00  0.00    -0.051 A 
ATOM     18  C   UNL A   1      32.191  24.431  26.258  1.00  0.00     0.004 A 
ATOM     19  C   UNL A   1      34.247  25.447  25.522  1.00  0.00     0.004 A 
ATOM     20  C   UNL A   1      31.665  25.698  26.531  1.00  0.00     0.006 A 
ATOM     21  C   UNL A   1      33.715  26.715  25.783  1.00  0.00     0.006 A 
ENDBRANCH  14  15
ENDBRANCH  12  14
ENDBRANCH   6  12
ENDBRANCH   3   5
ENDBRANCH   2   3
ENDBRANCH   1   2
BRANCH   1  22
ATOM     22  C   UNL A   1      33.281  36.670  32.000  1.00  0.00     0.275 C 
BRANCH  22  23
ATOM     23  O   UNL A   1      33.605  35.260  32.134  1.00  0.00    -0.458 OA
BRANCH  23  24
ATOM     24  C   UNL A   1      34.886  34.863  32.392  1.00  0.00     0.338 C 
ATOM     25  O   UNL A   1      35.747  35.558  32.899  1.00  0.00    -0.246 OA
BRANCH  24  26
ATOM     26  C   UNL A   1      35.227  33.637  31.644  1.00  0.00     0.060 A 
ATOM     27  C   UNL A   1      35.309  32.154  32.675  1.00  0.00     0.016 A 
ATOM     28  C   UNL A   1      36.353  33.852  30.254  1.00  0.00     0.016 A 
ATOM     29  C   UNL A   1      36.592  30.871  32.330  1.00  0.00     0.010 A 
ATOM     30  C   UNL A   1      37.669  32.601  29.947  1.00  0.00     0.010 A 
ATOM     31  C   UNL A   1      37.775  31.126  30.997  1.00  0.00    -0.014 A 
BRANCH  31  32
ATOM     32  C   UNL A   1      39.127  30.599  31.072  1.00  0.00     0.031 A 
ATOM     33  C   UNL A   1      39.416  29.408  30.264  1.00  0.00     0.074 A 
ATOM     34  C   UNL A   1      40.085  31.361  31.654  1.00  0.00     0.049 A 
ATOM     35  N   UNL A   1      40.561  28.843  30.239  1.00  0.00    -0.248 NA
ATOM     36  C   UNL A   1      38.435  28.712  29.429  1.00  0.00     0.031 C 
ATOM     37  C   UNL A   1      41.535  31.305  31.499  1.00  0.00     0.029 A 
ATOM     38  N   UNL A   1      39.917  32.288  32.680  1.00  0.00    -0.354 N 
ATOM     39  C   UNL A   1      40.558  27.899  29.246  1.00  0.00     0.074 A 
ATOM     40  C   UNL A   1      39.203  27.835  28.774  1.00  0.00     0.031 C 
ATOM     41  C   UNL A   1      42.122  31.933  32.535  1.00  0.00     0.029 A 
ATOM     42  C   UNL A   1      41.076  32.329  33.462  1.00  0.00     0.049 A 
ATOM     43  H   UNL A   1      39.110  32.830  32.829  1.00  0.00     0.167 HD
ATOM     44  C   UNL A   1      41.758  27.364  28.912  1.00  0.00     0.031 A 
ATOM     45  C   UNL A   1      41.010  31.923  34.768  1.00  0.00     0.031 A 
ATOM     46  C   UNL A   1      42.737  27.690  29.950  1.00  0.00     0.049 A 
ATOM     47  C   UNL A   1      41.648  30.557  34.952  1.00  0.00     0.074 A 
ATOM     48  C   UNL A   1      43.700  28.677  30.071  1.00  0.00     0.029 A 
ATOM     49  N   UNL A   1      42.472  27.237  31.239  1.00  0.00    -0.354 N 
ATOM     50  N   UNL A   1      41.882  29.723  33.969  1.00  0.00    -0.248 NA
ATOM     51  C   UNL A   1      42.143  30.050  36.229  1.00  0.00     0.031 C 
ATOM     52  C   UNL A   1      43.939  28.872  31.467  1.00  0.00     0.029 A 
ATOM     53  C   UNL A   1      43.161  27.974  32.181  1.00  0.00     0.049 A 
ATOM     54  H   UNL A   1      41.870  26.488  31.451  1.00  0.00     0.167 HD
ATOM     55  C   UNL A   1      42.583  28.640  34.426  1.00  0.00     0.074 A 
ATOM     56  C   UNL A   1      42.706  28.886  35.854  1.00  0.00     0.031 C 
ATOM     57  C   UNL A   1      43.031  27.644  33.600  1.00  0.00     0.031 A 
BRANCH  44  58
ATOM     58  C   UNL A   1      42.091  26.709  27.604  1.00  0.00    -0.014 A 
ATOM     59  C   UNL A   1      41.709  25.368  27.417  1.00  0.00     0.009 A 
ATOM     60  C   UNL A   1      42.856  27.286  26.575  1.00  0.00     0.009 A 
ATOM     61  C   UNL A   1      42.085  24.640  26.283  1.00  0.00     0.001 A 
ATOM     62  C   UNL A   1      43.229  26.564  25.432  1.00  0.00     0.001 A 
ATOM     63  C   UNL A   1      42.848  25.237  25.289  1.00  0.00     0.000 A 
ENDBRANCH  44  58
BRANCH  45  64
ATOM     64  C   UNL A   1      39.835  32.515  35.485  1.00  0.00    -0.014 A 
ATOM     65  C   UNL A   1      38.792  31.608  35.793  1.00  0.00     0.009 A 
ATOM     66  C   UNL A   1      39.913  33.698  36.230  1.00  0.00     0.009 A 
ATOM     67  C   UNL A   1      38.030  31.750  36.955  1.00  0.00     0.001 A 
ATOM     68  C   UNL A   1      39.094  33.870  37.365  1.00  0.00     0.001 A 
ATOM     69  C   UNL A   1      38.214  32.862  37.767  1.00  0.00     0.000 A 
ENDBRANCH  45  64
BRANCH  57  70
ATOM     70  C   UNL A   1      43.453  26.255  34.043  1.00  0.00    -0.014 A 
ATOM     71  C   UNL A   1      44.745  25.736  33.906  1.00  0.00     0.009 A 
ATOM     72  C   UNL A   1      42.538  25.451  34.766  1.00  0.00     0.009 A 
ATOM     73  C   UNL A   1      45.084  24.471  34.404  1.00  0.00     0.001 A 
ATOM     74  C   UNL A   1      42.893  24.228  35.338  1.00  0.00     0.001 A 
ATOM     75  C   UNL A   1      44.165  23.726  35.134  1.00  0.00     0.000 A 
ENDBRANCH  57  70
ENDBRANCH  31  32
ENDBRANCH  24  26
ENDBRANCH  23  24
ENDBRANCH  22  23
ENDBRANCH   1  22
TORSDOF 14
ENDMDL
MODEL 2
REMARK VINA RESULT:     -11.3      1.907      2.901
REMARK SMILES Cc1ccc(CNc2ccc(C(=O)OCCOC(=O)c3ccc(-c4c5nc(c(-c6ccccc6)c6ccc([nH]6)c(-c6ccccc6)c6nc(c(-c7ccccc7)c7ccc4[nH]7)C=C6)C=C5)cc3)cc2Br)cc1
REMARK SMILES IDX 15 1 14 2 12 3 13 4 11 5 8 6 9 7 69 8 10 9 68 10 70 11 7 12
REMARK SMILES IDX 6 14 5 15 1 16 2 17 3 18 72 19 4 20 71 21 16 22 17 23 18 24
REMARK SMILES IDX 19 25 20 26 21 27 67 28 22 29 66 30 23 31 24 32 25 33 60 34
REMARK SMILES IDX 26 35 65 36 59 37 61 38 27 39 64 40 58 41 57 42 28 44 50 45
REMARK SMILES IDX 35 46 49 47 36 48 39 49 48 50 62 51 37 52 38 53 47 55 63 56
REMARK SMILES IDX 40 57 29 58 30 59 34 60 31 61 33 62 32 63 51 64 52 65 56 66
REMARK SMILES IDX 53 67 55 68 54 69 41 70 42 71 46 72 43 73 45 74 44 75
REMARK H PARENT 7 13 61 43 39 54
REMARK Flexibility Score: inf
ROOT
ATOM      1  C   UNL A   1      33.732  34.936  29.176  1.00  0.00     0.275 C 
ENDROOT
BRANCH   1   2
ATOM      2  O   UNL A   1      34.140  33.923  28.239  1.00  0.00    -0.458 OA
BRANCH   2   3
ATOM      3  C   UNL A   1      33.070  33.045  27.665  1.00  0.00     0.338 C 
ATOM      4  O   UNL A   1      32.110  33.868  27.676  1.00  0.00    -0.246 OA
BRANCH   3   5
ATOM      5  C   UNL A   1      33.264  30.987  27.038  1.00  0.00     0.061 A 
ATOM      6  C   UNL A   1      33.403  27.910  26.186  1.00  0.00     0.049 A 
ATOM      7  C   UNL A   1      34.353  28.506  26.987  1.00  0.00     0.028 A 
ATOM      8  C   UNL A   1      32.391  28.750  25.771  1.00  0.00     0.042 A 
ATOM      9  C   UNL A   1      34.308  29.906  27.337  1.00  0.00     0.018 A 
ATOM     10  C   UNL A   1      32.324  30.120  26.180  1.00  0.00     0.033 A 
ATOM     11  Br  UNL A   1      30.996  28.099  24.634  1.00  0.00    -0.049 Br
BRANCH   6  12
ATOM     12  N   UNL A   1      33.420  26.562  25.866  1.00  0.00    -0.380 N 
ATOM     13  H   UNL A   1      32.966  25.919  26.457  1.00  0.00     0.160 HD
BRANCH  12  14
ATOM     14  C   UNL A   1      34.097  26.079  24.671  1.00  0.00     0.148 C 
BRANCH  14  15
ATOM     15  C   UNL A   1      34.397  24.598  24.790  1.00  0.00    -0.029 A 
ATOM     16  C   UNL A   1      35.332  20.372  24.950  1.00  0.00     0.044 C 
ATOM     17  C   UNL A   1      34.993  21.834  24.916  1.00  0.00    -0.051 A 
ATOM     18  C   UNL A   1      35.968  22.786  25.228  1.00  0.00     0.004 A 
ATOM     19  C   UNL A   1      33.710  22.271  24.567  1.00  0.00     0.004 A 
ATOM     20  C   UNL A   1      35.675  24.152  25.158  1.00  0.00     0.006 A 
ATOM     21  C   UNL A   1      33.414  23.638  24.510  1.00  0.00     0.006 A 
ENDBRANCH  14  15
ENDBRANCH  12  14
ENDBRANCH   6  12
ENDBRANCH   3   5
ENDBRANCH   2   3
ENDBRANCH   1   2
BRANCH   1  22
ATOM     22  C   UNL A   1      33.985  34.414  30.596  1.00  0.00     0.275 C 
BRANCH  22  23
ATOM     23  O   UNL A   1      34.459  33.043  30.674  1.00  0.00    -0.458 OA
BRANCH  23  24
ATOM     24  C   UNL A   1      35.783  32.775  30.874  1.00  0.00     0.338 C 
ATOM     25  O   UNL A   1      36.623  33.596  31.198  1.00  0.00    -0.246 OA
BRANCH  24  26
ATOM     26  C   UNL A   1      36.163  31.476  30.285  1.00  0.00     0.060 A 
ATOM     27  C   UNL A   1      36.307  30.143  31.498  1.00  0.00     0.016 A 
ATOM     28  C   UNL A   1      37.269  31.550  28.865  1.00  0.00     0.016 A 
ATOM     29  C   UNL A   1      37.633  28.870  31.303  1.00  0.00     0.010 A 
ATOM     30  C   UNL A   1      38.627  30.316  28.704  1.00  0.00     0.010 A 
ATOM     31  C   UNL A   1      38.795  28.993  29.933  1.00  0.00    -0.014 A 
BRANCH  31  32
ATOM     32  C   UNL A   1      40.166  28.528  30.058  1.00  0.00     0.031 A 
ATOM     33  C   UNL A   1      40.497  27.266  29.387  1.00  0.00     0.074 A 
ATOM     34  C   UNL A   1      41.096  29.384  30.546  1.00  0.00     0.049 A 
ATOM     35  N   UNL A   1      41.662  26.744  29.417  1.00  0.00    -0.248 NA
ATOM     36  C   UNL A   1      39.541  26.445  28.640  1.00  0.00     0.031 C 
ATOM     37  C   UNL A   1      42.547  29.365  30.388  1.00  0.00     0.029 A 
ATOM     38  N   UNL A   1      40.896  30.413  31.462  1.00  0.00    -0.354 N 
ATOM     39  C   UNL A   1      41.692  25.696  28.536  1.00  0.00     0.074 A 
ATOM     40  C   UNL A   1      40.339  25.529  28.083  1.00  0.00     0.031 C 
ATOM     41  C   UNL A   1      43.112  30.126  31.344  1.00  0.00     0.029 A 
ATOM     42  C   UNL A   1      42.054  30.584  32.228  1.00  0.00     0.049 A 
ATOM     43  H   UNL A   1      40.070  30.939  31.556  1.00  0.00     0.167 HD
ATOM     44  C   UNL A   1      42.911  25.171  28.256  1.00  0.00     0.031 A 
ATOM     45  C   UNL A   1      42.007  30.324  33.571  1.00  0.00     0.031 A 
ATOM     46  C   UNL A   1      43.879  25.646  29.244  1.00  0.00     0.049 A 
ATOM     47  C   UNL A   1      42.695  29.012  33.902  1.00  0.00     0.074 A 
ATOM     48  C   UNL A   1      44.805  26.675  29.249  1.00  0.00     0.029 A 
ATOM     49  N   UNL A   1      43.634  25.331  30.578  1.00  0.00    -0.354 N 
ATOM     50  N   UNL A   1      42.958  28.083  33.017  1.00  0.00    -0.248 NA
ATOM     51  C   UNL A   1      43.212  28.669  35.225  1.00  0.00     0.031 C 
ATOM     52  C   UNL A   1      45.039  27.033  30.612  1.00  0.00     0.029 A 
ATOM     53  C   UNL A   1      44.297  26.192  31.428  1.00  0.00     0.049 A 
ATOM     54  H   UNL A   1      43.060  24.588  30.876  1.00  0.00     0.167 HD
ATOM     55  C   UNL A   1      43.699  27.084  33.588  1.00  0.00     0.074 A 
ATOM     56  C   UNL A   1      43.816  27.492  34.978  1.00  0.00     0.031 C 
ATOM     57  C   UNL A   1      44.182  26.019  32.875  1.00  0.00     0.031 A 
BRANCH  44  58
ATOM     58  C   UNL A   1      43.265  24.386  27.027  1.00  0.00    -0.014 A 
ATOM     59  C   UNL A   1      43.913  25.058  25.975  1.00  0.00     0.009 A 
ATOM     60  C   UNL A   1      42.907  23.049  26.783  1.00  0.00     0.009 A 
ATOM     61  C   UNL A   1      44.169  24.440  24.745  1.00  0.00     0.001 A 
ATOM     62  C   UNL A   1      43.168  22.421  25.557  1.00  0.00     0.001 A 
ATOM     63  C   UNL A   1      43.795  23.120  24.534  1.00  0.00     0.000 A 
ENDBRANCH  44  58
BRANCH  45  64
ATOM     64  C   UNL A   1      40.812  30.949  34.225  1.00  0.00    -0.014 A 
ATOM     65  C   UNL A   1      40.692  32.350  34.060  1.00  0.00     0.009 A 
ATOM     66  C   UNL A   1      39.655  30.228  34.547  1.00  0.00     0.009 A 
ATOM     67  C   UNL A   1      39.440  32.962  33.961  1.00  0.00     0.001 A 
ATOM     68  C   UNL A   1      38.397  30.865  34.512  1.00  0.00     0.001 A 
ATOM     69  C   UNL A   1      38.289  32.208  34.143  1.00  0.00     0.000 A 
ENDBRANCH  45  64
BRANCH  57  70
ATOM     70  C   UNL A   1      44.657  24.705  33.467  1.00  0.00    -0.014 A 
ATOM     71  C   UNL A   1      45.997  24.369  33.683  1.00  0.00     0.009 A 
ATOM     72  C   UNL A   1      43.702  23.785  33.968  1.00  0.00     0.009 A 
ATOM     73  C   UNL A   1      46.362  23.166  34.303  1.00  0.00     0.001 A 
ATOM     74  C   UNL A   1      44.057  22.627  34.660  1.00  0.00     0.001 A 
ATOM     75  C   UNL A   1      45.393  22.304  34.806  1.00  0.00     0.000 A 
ENDBRANCH  57  70
ENDBRANCH  31  32
ENDBRANCH  24  26
ENDBRANCH  23  24
ENDBRANCH  22  23
ENDBRANCH   1  22
TORSDOF 14
ENDMDL
MODEL 3
REMARK VINA RESULT:     -11.2      2.893      4.711
REMARK SMILES Cc1ccc(CNc2ccc(C(=O)OCCOC(=O)c3ccc(-c4c5nc(c(-c6ccccc6)c6ccc([nH]6)c(-c6ccccc6)c6nc(c(-c7ccccc7)c7ccc4[nH]7)C=C6)C=C5)cc3)cc2Br)cc1
REMARK SMILES IDX 15 1 14 2 12 3 13 4 11 5 8 6 9 7 69 8 10 9 68 10 70 11 7 12
REMARK SMILES IDX 6 14 5 15 1 16 2 17 3 18 72 19 4 20 71 21 16 22 17 23 18 24
REMARK SMILES IDX 19 25 20 26 21 27 67 28 22 29 66 30 23 31 24 32 25 33 60 34
REMARK SMILES IDX 26 35 65 36 59 37 61 38 27 39 64 40 58 41 57 42 28 44 50 45
REMARK SMILES IDX 35 46 49 47 36 48 39 49 48 50 62 51 37 52 38 53 47 55 63 56
REMARK SMILES IDX 40 57 29 58 30 59 34 60 31 61 33 62 32 63 51 64 52 65 56 66
REMARK SMILES IDX 53 67 55 68 54 69 41 70 42 71 46 72 43 73 45 74 44 75
REMARK H PARENT 7 13 61 43 39 54
REMARK Flexibility Score: inf
ROOT
ATOM      1  C   UNL A   1      33.055  31.420  27.263  1.00  0.00     0.275 C 
ENDROOT
BRANCH   1   2
ATOM      2  O   UNL A   1      33.394  30.021  27.254  1.00  0.00    -0.458 OA
BRANCH   2   3
ATOM      3  C   UNL A   1      32.585  29.124  26.368  1.00  0.00     0.338 C 
ATOM      4  O   UNL A   1      31.834  29.991  25.836  1.00  0.00    -0.246 OA
BRANCH   3   5
ATOM      5  C   UNL A   1      32.769  26.982  26.158  1.00  0.00     0.061 A 
ATOM      6  C   UNL A   1      33.095  23.837  25.690  1.00  0.00     0.049 A 
ATOM      7  C   UNL A   1      31.886  24.425  25.995  1.00  0.00     0.028 A 
ATOM      8  C   UNL A   1      34.157  24.713  25.615  1.00  0.00     0.042 A 
ATOM      9  C   UNL A   1      31.750  25.841  26.245  1.00  0.00     0.018 A 
ATOM     10  C   UNL A   1      33.996  26.123  25.800  1.00  0.00     0.033 A 
ATOM     11  Br  UNL A   1      35.917  24.070  25.224  1.00  0.00    -0.049 Br
BRANCH   6  12
ATOM     12  N   UNL A   1      33.233  22.485  25.422  1.00  0.00    -0.380 N 
ATOM     13  H   UNL A   1      34.067  22.025  25.672  1.00  0.00     0.160 HD
BRANCH  12  14
ATOM     14  C   UNL A   1      32.167  21.731  24.778  1.00  0.00     0.148 C 
BRANCH  14  15
ATOM     15  C   UNL A   1      32.672  20.375  24.325  1.00  0.00    -0.029 A 
ATOM     16  C   UNL A   1      33.959  16.420  23.119  1.00  0.00     0.044 C 
ATOM     17  C   UNL A   1      33.537  17.800  23.530  1.00  0.00    -0.051 A 
ATOM     18  C   UNL A   1      32.585  18.494  22.777  1.00  0.00     0.004 A 
ATOM     19  C   UNL A   1      34.073  18.411  24.669  1.00  0.00     0.004 A 
ATOM     20  C   UNL A   1      32.153  19.764  23.174  1.00  0.00     0.006 A 
ATOM     21  C   UNL A   1      33.649  19.687  25.059  1.00  0.00     0.006 A 
ENDBRANCH  14  15
ENDBRANCH  12  14
ENDBRANCH   6  12
ENDBRANCH   3   5
ENDBRANCH   2   3
ENDBRANCH   1   2
BRANCH   1  22
ATOM     22  C   UNL A   1      34.268  32.210  27.770  1.00  0.00     0.275 C 
BRANCH  22  23
ATOM     23  O   UNL A   1      34.563  32.046  29.184  1.00  0.00    -0.458 OA
BRANCH  23  24
ATOM     24  C   UNL A   1      35.842  31.823  29.606  1.00  0.00     0.338 C 
ATOM     25  O   UNL A   1      36.630  32.689  29.943  1.00  0.00    -0.246 OA
BRANCH  24  26
ATOM     26  C   UNL A   1      36.297  30.466  29.245  1.00  0.00     0.060 A 
ATOM     27  C   UNL A   1      36.531  29.376  30.668  1.00  0.00     0.016 A 
ATOM     28  C   UNL A   1      37.386  30.356  27.815  1.00  0.00     0.016 A 
ATOM     29  C   UNL A   1      37.930  28.170  30.675  1.00  0.00     0.010 A 
ATOM     30  C   UNL A   1      38.816  29.195  27.847  1.00  0.00     0.010 A 
ATOM     31  C   UNL A   1      39.073  28.120  29.284  1.00  0.00    -0.014 A 
BRANCH  31  32
ATOM     32  C   UNL A   1      40.471  27.765  29.464  1.00  0.00     0.031 A 
ATOM     33  C   UNL A   1      40.908  26.491  28.882  1.00  0.00     0.074 A 
ATOM     34  C   UNL A   1      41.325  28.717  29.913  1.00  0.00     0.049 A 
ATOM     35  N   UNL A   1      42.106  26.059  28.968  1.00  0.00    -0.248 NA
ATOM     36  C   UNL A   1      40.030  25.557  28.173  1.00  0.00     0.031 C 
ATOM     37  C   UNL A   1      42.777  28.794  29.783  1.00  0.00     0.029 A 
ATOM     38  N   UNL A   1      41.031  29.784  30.757  1.00  0.00    -0.354 N 
ATOM     39  C   UNL A   1      42.231  24.962  28.157  1.00  0.00     0.074 A 
ATOM     40  C   UNL A   1      40.905  24.668  27.691  1.00  0.00     0.031 C 
ATOM     41  C   UNL A   1      43.263  29.653  30.699  1.00  0.00     0.029 A 
ATOM     42  C   UNL A   1      42.155  30.088  31.531  1.00  0.00     0.049 A 
ATOM     43  H   UNL A   1      40.166  30.253  30.801  1.00  0.00     0.167 HD
ATOM     44  C   UNL A   1      43.491  24.512  27.935  1.00  0.00     0.031 A 
ATOM     45  C   UNL A   1      42.096  29.910  32.887  1.00  0.00     0.031 A 
ATOM     46  C   UNL A   1      44.400  25.118  28.908  1.00  0.00     0.049 A 
ATOM     47  C   UNL A   1      42.869  28.676  33.315  1.00  0.00     0.074 A 
ATOM     48  C   UNL A   1      45.249  26.210  28.863  1.00  0.00     0.029 A 
ATOM     49  N   UNL A   1      44.147  24.870  30.254  1.00  0.00    -0.354 N 
ATOM     50  N   UNL A   1      43.218  27.714  32.497  1.00  0.00    -0.248 NA
ATOM     51  C   UNL A   1      43.378  28.456  34.666  1.00  0.00     0.031 C 
ATOM     52  C   UNL A   1      45.425  26.670  30.204  1.00  0.00     0.029 A 
ATOM     53  C   UNL A   1      44.726  25.830  31.058  1.00  0.00     0.049 A 
ATOM     54  H   UNL A   1      43.622  24.108  30.589  1.00  0.00     0.167 HD
ATOM     55  C   UNL A   1      44.017  26.811  33.145  1.00  0.00     0.074 A 
ATOM     56  C   UNL A   1      44.072  27.313  34.508  1.00  0.00     0.031 C 
ATOM     57  C   UNL A   1      44.591  25.741  32.512  1.00  0.00     0.031 A 
BRANCH  44  58
ATOM     58  C   UNL A   1      43.929  23.679  26.766  1.00  0.00    -0.014 A 
ATOM     59  C   UNL A   1      43.371  23.959  25.505  1.00  0.00     0.009 A 
ATOM     60  C   UNL A   1      44.776  22.559  26.835  1.00  0.00     0.009 A 
ATOM     61  C   UNL A   1      43.625  23.158  24.386  1.00  0.00     0.001 A 
ATOM     62  C   UNL A   1      45.041  21.757  25.716  1.00  0.00     0.001 A 
ATOM     63  C   UNL A   1      44.460  22.054  24.491  1.00  0.00     0.000 A 
ENDBRANCH  44  58
BRANCH  45  64
ATOM     64  C   UNL A   1      40.844  30.486  33.477  1.00  0.00    -0.014 A 
ATOM     65  C   UNL A   1      40.675  31.881  33.300  1.00  0.00     0.009 A 
ATOM     66  C   UNL A   1      39.703  29.718  33.743  1.00  0.00     0.009 A 
ATOM     67  C   UNL A   1      39.405  32.440  33.135  1.00  0.00     0.001 A 
ATOM     68  C   UNL A   1      38.424  30.301  33.642  1.00  0.00     0.001 A 
ATOM     69  C   UNL A   1      38.278  31.638  33.261  1.00  0.00     0.000 A 
ENDBRANCH  45  64
BRANCH  57  70
ATOM     70  C   UNL A   1      45.145  24.505  33.196  1.00  0.00    -0.014 A 
ATOM     71  C   UNL A   1      46.447  24.389  33.694  1.00  0.00     0.009 A 
ATOM     72  C   UNL A   1      44.275  23.425  33.486  1.00  0.00     0.009 A 
ATOM     73  C   UNL A   1      46.871  23.244  34.382  1.00  0.00     0.001 A 
ATOM     74  C   UNL A   1      44.667  22.319  34.243  1.00  0.00     0.001 A 
ATOM     75  C   UNL A   1      45.978  22.218  34.670  1.00  0.00     0.000 A 
ENDBRANCH  57  70
ENDBRANCH  31  32
ENDBRANCH  24  26
ENDBRANCH  23  24
ENDBRANCH  22  23
ENDBRANCH   1  22
TORSDOF 14
ENDMDL
