MODEL 1
REMARK VINA RESULT:     -11.3      0.000      0.000
REMARK SMILES CC1(C)[C@H](C(=O)Nc2ccc(NC(=O)C[NH+]3CCCCC3)cc2)[C@@H]1C(=O)OCCOC(=O)c1ccc(-c2c3nc(c(-c4ccccc4)c4ccc([nH]4)c(-c4ccccc4)c4nc(c(-c5ccccc5)c5ccc2[nH]5)C=C4)C=C3)cc1
REMARK SMILES IDX 27 1 25 2 26 3 24 4 1 5 2 6 3 7 4 8 5 9 6 10 7 11 8 13 9 14
REMARK SMILES IDX 23 15 10 16 22 17 11 18 12 19 13 20 14 22 15 23 16 24 17 25
REMARK SMILES IDX 21 26 18 28 20 29 19 30 28 31 29 32 30 33 31 34 32 35 33 36
REMARK SMILES IDX 34 37 80 38 35 39 79 40 36 41 37 42 38 43 73 44 39 45 78 46
REMARK SMILES IDX 72 47 74 48 40 49 77 50 71 51 70 52 41 54 63 55 48 56 62 57
REMARK SMILES IDX 49 58 52 59 61 60 75 61 50 62 51 63 60 65 76 66 53 67 42 68
REMARK SMILES IDX 43 69 47 70 44 71 46 72 45 73 64 74 65 75 69 76 66 77 68 78
REMARK SMILES IDX 67 79 54 80 55 81 59 82 56 83 58 84 57 85
REMARK H PARENT 7 12 12 21 16 27 74 53 52 64
REMARK Flexibility Score: inf
ROOT
ATOM      1  O   UNL A   1      36.833  21.509  25.942  1.00  0.00    -0.462 OA
ENDROOT
BRANCH   1   2
ATOM      2  C   UNL A   1      35.472  21.490  25.958  1.00  0.00     0.310 C 
ATOM      3  O   UNL A   1      34.780  21.528  26.973  1.00  0.00    -0.252 OA
BRANCH   2   4
ATOM      4  C   UNL A   1      34.899  21.657  24.605  1.00  0.00     0.118 C 
ATOM      5  C   UNL A   1      34.681  23.316  22.592  1.00  0.00     0.013 C 
ATOM      6  C   UNL A   1      34.357  22.989  24.040  1.00  0.00    -0.009 C 
ATOM      7  C   UNL A   1      34.280  24.244  24.860  1.00  0.00     0.013 C 
ATOM      8  C   UNL A   1      33.448  21.787  24.243  1.00  0.00     0.100 C 
BRANCH   8   9
ATOM      9  C   UNL A   1      32.238  21.533  25.081  1.00  0.00     0.228 C 
ATOM     10  O   UNL A   1      32.155  20.412  25.588  1.00  0.00    -0.274 OA
ATOM     11  N   UNL A   1      31.411  22.499  25.587  1.00  0.00    -0.326 N 
ATOM     12  H   UNL A   1      31.206  22.401  26.544  1.00  0.00     0.169 HD
BRANCH  11  13
ATOM     13  C   UNL A   1      30.814  23.593  24.978  1.00  0.00     0.041 A 
ATOM     14  C   UNL A   1      30.360  24.604  25.805  1.00  0.00     0.028 A 
ATOM     15  C   UNL A   1      30.650  23.706  23.605  1.00  0.00     0.028 A 
ATOM     16  C   UNL A   1      30.012  25.832  25.243  1.00  0.00     0.028 A 
ATOM     17  C   UNL A   1      30.232  24.923  23.048  1.00  0.00     0.028 A 
ATOM     18  C   UNL A   1      29.957  26.020  23.867  1.00  0.00     0.041 A 
BRANCH  18  19
ATOM     19  N   UNL A   1      29.720  27.261  23.246  1.00  0.00    -0.321 N 
ATOM     20  C   UNL A   1      30.551  28.226  22.738  1.00  0.00     0.279 C 
ATOM     21  H   UNL A   1      28.764  27.481  23.159  1.00  0.00     0.170 HD
ATOM     22  O   UNL A   1      30.035  29.130  22.067  1.00  0.00    -0.268 OA
BRANCH  20  23
ATOM     23  C   UNL A   1      32.069  28.235  22.991  1.00  0.00     0.363 C 
BRANCH  23  24
ATOM     24  N   UNL A   1      32.347  28.296  24.430  1.00  0.00    -0.327 N 
ATOM     25  C   UNL A   1      33.726  27.995  24.803  1.00  0.00     0.262 C 
ATOM     26  C   UNL A   1      31.862  29.518  25.067  1.00  0.00     0.262 C 
ATOM     27  H   UNL A   1      31.795  27.526  24.807  1.00  0.00     0.348 HD
ATOM     28  C   UNL A   1      33.753  27.689  26.302  1.00  0.00     0.062 C 
ATOM     29  C   UNL A   1      31.862  29.333  26.585  1.00  0.00     0.062 C 
ATOM     30  C   UNL A   1      33.220  28.870  27.110  1.00  0.00     0.012 C 
ENDBRANCH  23  24
ENDBRANCH  20  23
ENDBRANCH  18  19
ENDBRANCH  11  13
ENDBRANCH   8   9
ENDBRANCH   2   4
ENDBRANCH   1   2
BRANCH   1  31
ATOM     31  C   UNL A   1      37.465  20.984  24.755  1.00  0.00     0.274 C 
BRANCH  31  32
ATOM     32  C   UNL A   1      38.550  19.941  25.041  1.00  0.00     0.275 C 
BRANCH  32  33
ATOM     33  O   UNL A   1      39.253  20.229  26.263  1.00  0.00    -0.458 OA
BRANCH  33  34
ATOM     34  C   UNL A   1      40.587  20.008  26.200  1.00  0.00     0.338 C 
ATOM     35  O   UNL A   1      41.146  19.031  25.730  1.00  0.00    -0.246 OA
BRANCH  34  36
ATOM     36  C   UNL A   1      41.330  21.201  26.641  1.00  0.00     0.060 A 
ATOM     37  C   UNL A   1      41.290  21.507  28.004  1.00  0.00     0.016 A 
ATOM     38  C   UNL A   1      41.972  22.053  25.742  1.00  0.00     0.016 A 
ATOM     39  C   UNL A   1      41.854  22.682  28.478  1.00  0.00     0.010 A 
ATOM     40  C   UNL A   1      42.534  23.243  26.217  1.00  0.00     0.010 A 
ATOM     41  C   UNL A   1      42.446  23.575  27.581  1.00  0.00    -0.014 A 
BRANCH  41  42
ATOM     42  C   UNL A   1      42.853  24.907  28.077  1.00  0.00     0.031 A 
ATOM     43  C   UNL A   1      41.800  25.952  28.314  1.00  0.00     0.074 A 
ATOM     44  C   UNL A   1      44.138  25.148  28.385  1.00  0.00     0.049 A 
ATOM     45  N   UNL A   1      41.936  27.177  28.752  1.00  0.00    -0.248 NA
ATOM     46  C   UNL A   1      40.411  25.565  28.023  1.00  0.00     0.031 C 
ATOM     47  C   UNL A   1      45.233  24.185  28.258  1.00  0.00     0.029 A 
ATOM     48  N   UNL A   1      44.737  26.277  28.879  1.00  0.00    -0.354 N 
ATOM     49  C   UNL A   1      40.653  27.711  28.774  1.00  0.00     0.074 A 
ATOM     50  C   UNL A   1      39.758  26.688  28.282  1.00  0.00     0.031 C 
ATOM     51  C   UNL A   1      46.373  24.766  28.670  1.00  0.00     0.029 A 
ATOM     52  C   UNL A   1      46.093  26.149  29.048  1.00  0.00     0.049 A 
ATOM     53  H   UNL A   1      44.242  27.101  29.094  1.00  0.00     0.167 HD
ATOM     54  C   UNL A   1      40.260  28.944  29.174  1.00  0.00     0.031 A 
ATOM     55  C   UNL A   1      47.008  27.054  29.442  1.00  0.00     0.031 A 
ATOM     56  C   UNL A   1      41.158  29.960  29.654  1.00  0.00     0.049 A 
ATOM     57  C   UNL A   1      46.553  28.442  29.802  1.00  0.00     0.074 A 
ATOM     58  C   UNL A   1      40.861  31.240  30.086  1.00  0.00     0.029 A 
ATOM     59  N   UNL A   1      42.533  29.810  29.758  1.00  0.00    -0.354 N 
ATOM     60  N   UNL A   1      45.338  28.935  29.827  1.00  0.00    -0.248 NA
ATOM     61  C   UNL A   1      47.599  29.396  30.197  1.00  0.00     0.031 C 
ATOM     62  C   UNL A   1      42.062  31.886  30.394  1.00  0.00     0.029 A 
ATOM     63  C   UNL A   1      43.102  30.985  30.222  1.00  0.00     0.049 A 
ATOM     64  H   UNL A   1      43.031  28.991  29.534  1.00  0.00     0.167 HD
ATOM     65  C   UNL A   1      45.469  30.246  30.271  1.00  0.00     0.074 A 
ATOM     66  C   UNL A   1      46.880  30.463  30.517  1.00  0.00     0.031 C 
ATOM     67  C   UNL A   1      44.508  31.183  30.462  1.00  0.00     0.031 A 
BRANCH  54  68
ATOM     68  C   UNL A   1      38.796  29.273  29.062  1.00  0.00    -0.014 A 
ATOM     69  C   UNL A   1      38.235  29.733  27.861  1.00  0.00     0.009 A 
ATOM     70  C   UNL A   1      37.959  29.091  30.174  1.00  0.00     0.009 A 
ATOM     71  C   UNL A   1      36.874  30.039  27.786  1.00  0.00     0.001 A 
ATOM     72  C   UNL A   1      36.594  29.368  30.088  1.00  0.00     0.001 A 
ATOM     73  C   UNL A   1      36.054  29.851  28.898  1.00  0.00     0.000 A 
ENDBRANCH  54  68
BRANCH  55  74
ATOM     74  C   UNL A   1      48.446  26.685  29.496  1.00  0.00    -0.014 A 
ATOM     75  C   UNL A   1      49.281  26.876  28.384  1.00  0.00     0.009 A 
ATOM     76  C   UNL A   1      48.991  26.124  30.663  1.00  0.00     0.009 A 
ATOM     77  C   UNL A   1      50.622  26.487  28.431  1.00  0.00     0.001 A 
ATOM     78  C   UNL A   1      50.339  25.766  30.717  1.00  0.00     0.001 A 
ATOM     79  C   UNL A   1      51.150  25.937  29.597  1.00  0.00     0.000 A 
ENDBRANCH  55  74
BRANCH  67  80
ATOM     80  C   UNL A   1      44.946  32.514  31.009  1.00  0.00    -0.014 A 
ATOM     81  C   UNL A   1      45.283  33.582  30.162  1.00  0.00     0.009 A 
ATOM     82  C   UNL A   1      44.989  32.709  32.398  1.00  0.00     0.009 A 
ATOM     83  C   UNL A   1      45.693  34.804  30.698  1.00  0.00     0.001 A 
ATOM     84  C   UNL A   1      45.367  33.941  32.931  1.00  0.00     0.001 A 
ATOM     85  C   UNL A   1      45.730  34.984  32.081  1.00  0.00     0.000 A 
ENDBRANCH  67  80
ENDBRANCH  41  42
ENDBRANCH  34  36
ENDBRANCH  33  34
ENDBRANCH  32  33
ENDBRANCH  31  32
ENDBRANCH   1  31
TORSDOF 16
ENDMDL
MODEL 2
REMARK VINA RESULT:     -11.2      0.353      5.756
REMARK SMILES CC1(C)[C@H](C(=O)Nc2ccc(NC(=O)C[NH+]3CCCCC3)cc2)[C@@H]1C(=O)OCCOC(=O)c1ccc(-c2c3nc(c(-c4ccccc4)c4ccc([nH]4)c(-c4ccccc4)c4nc(c(-c5ccccc5)c5ccc2[nH]5)C=C4)C=C3)cc1
REMARK SMILES IDX 27 1 25 2 26 3 24 4 1 5 2 6 3 7 4 8 5 9 6 10 7 11 8 13 9 14
REMARK SMILES IDX 23 15 10 16 22 17 11 18 12 19 13 20 14 22 15 23 16 24 17 25
REMARK SMILES IDX 21 26 18 28 20 29 19 30 28 31 29 32 30 33 31 34 32 35 33 36
REMARK SMILES IDX 34 37 80 38 35 39 79 40 36 41 37 42 38 43 73 44 39 45 78 46
REMARK SMILES IDX 72 47 74 48 40 49 77 50 71 51 70 52 41 54 63 55 48 56 62 57
REMARK SMILES IDX 49 58 52 59 61 60 75 61 50 62 51 63 60 65 76 66 53 67 42 68
REMARK SMILES IDX 43 69 47 70 44 71 46 72 45 73 64 74 65 75 69 76 66 77 68 78
REMARK SMILES IDX 67 79 54 80 55 81 59 82 56 83 58 84 57 85
REMARK H PARENT 7 12 12 21 16 27 74 53 52 64
REMARK Flexibility Score: inf
ROOT
ATOM      1  O   UNL A   1      36.827  21.844  26.065  1.00  0.00    -0.462 OA
ENDROOT
BRANCH   1   2
ATOM      2  C   UNL A   1      35.486  21.622  25.998  1.00  0.00     0.310 C 
ATOM      3  O   UNL A   1      34.744  21.500  26.971  1.00  0.00    -0.252 OA
BRANCH   2   4
ATOM      4  C   UNL A   1      34.966  21.778  24.623  1.00  0.00     0.118 C 
ATOM      5  C   UNL A   1      34.767  23.444  22.613  1.00  0.00     0.013 C 
ATOM      6  C   UNL A   1      34.395  23.091  24.044  1.00  0.00    -0.009 C 
ATOM      7  C   UNL A   1      34.231  24.335  24.868  1.00  0.00     0.013 C 
ATOM      8  C   UNL A   1      33.528  21.851  24.199  1.00  0.00     0.100 C 
BRANCH   8   9
ATOM      9  C   UNL A   1      32.293  21.542  24.981  1.00  0.00     0.228 C 
ATOM     10  O   UNL A   1      32.216  20.401  25.443  1.00  0.00    -0.274 OA
ATOM     11  N   UNL A   1      31.428  22.471  25.491  1.00  0.00    -0.326 N 
ATOM     12  H   UNL A   1      31.191  22.333  26.437  1.00  0.00     0.169 HD
BRANCH  11  13
ATOM     13  C   UNL A   1      30.830  23.576  24.903  1.00  0.00     0.041 A 
ATOM     14  C   UNL A   1      30.408  24.588  25.744  1.00  0.00     0.028 A 
ATOM     15  C   UNL A   1      30.636  23.697  23.534  1.00  0.00     0.028 A 
ATOM     16  C   UNL A   1      30.062  25.822  25.197  1.00  0.00     0.028 A 
ATOM     17  C   UNL A   1      30.219  24.922  22.993  1.00  0.00     0.028 A 
ATOM     18  C   UNL A   1      29.977  26.018  23.823  1.00  0.00     0.041 A 
BRANCH  18  19
ATOM     19  N   UNL A   1      29.740  27.265  23.214  1.00  0.00    -0.321 N 
ATOM     20  C   UNL A   1      30.571  28.231  22.708  1.00  0.00     0.279 C 
ATOM     21  H   UNL A   1      28.784  27.488  23.135  1.00  0.00     0.170 HD
ATOM     22  O   UNL A   1      30.055  29.143  22.048  1.00  0.00    -0.268 OA
BRANCH  20  23
ATOM     23  C   UNL A   1      32.091  28.233  22.952  1.00  0.00     0.363 C 
BRANCH  23  24
ATOM     24  N   UNL A   1      32.378  28.290  24.389  1.00  0.00    -0.327 N 
ATOM     25  C   UNL A   1      33.792  28.181  24.739  1.00  0.00     0.262 C 
ATOM     26  C   UNL A   1      31.731  29.410  25.069  1.00  0.00     0.262 C 
ATOM     27  H   UNL A   1      31.948  27.438  24.748  1.00  0.00     0.348 HD
ATOM     28  C   UNL A   1      33.885  27.838  26.227  1.00  0.00     0.062 C 
ATOM     29  C   UNL A   1      31.780  29.182  26.581  1.00  0.00     0.062 C 
ATOM     30  C   UNL A   1      33.199  28.904  27.077  1.00  0.00     0.012 C 
ENDBRANCH  23  24
ENDBRANCH  20  23
ENDBRANCH  18  19
ENDBRANCH  11  13
ENDBRANCH   8   9
ENDBRANCH   2   4
ENDBRANCH   1   2
BRANCH   1  31
ATOM     31  C   UNL A   1      37.650  21.049  25.185  1.00  0.00     0.274 C 
BRANCH  31  32
ATOM     32  C   UNL A   1      39.143  21.097  25.523  1.00  0.00     0.275 C 
BRANCH  32  33
ATOM     33  O   UNL A   1      39.608  19.844  26.057  1.00  0.00    -0.458 OA
BRANCH  33  34
ATOM     34  C   UNL A   1      40.955  19.724  26.100  1.00  0.00     0.338 C 
ATOM     35  O   UNL A   1      41.621  18.799  25.666  1.00  0.00    -0.246 OA
BRANCH  34  36
ATOM     36  C   UNL A   1      41.568  20.962  26.611  1.00  0.00     0.060 A 
ATOM     37  C   UNL A   1      41.375  21.255  27.964  1.00  0.00     0.016 A 
ATOM     38  C   UNL A   1      42.234  21.862  25.779  1.00  0.00     0.016 A 
ATOM     39  C   UNL A   1      41.809  22.462  28.491  1.00  0.00     0.010 A 
ATOM     40  C   UNL A   1      42.664  23.084  26.306  1.00  0.00     0.010 A 
ATOM     41  C   UNL A   1      42.422  23.400  27.656  1.00  0.00    -0.014 A 
BRANCH  41  42
ATOM     42  C   UNL A   1      42.687  24.753  28.189  1.00  0.00     0.031 A 
ATOM     43  C   UNL A   1      44.094  25.135  28.548  1.00  0.00     0.074 A 
ATOM     44  C   UNL A   1      41.691  25.652  28.274  1.00  0.00     0.049 A 
ATOM     45  N   UNL A   1      44.549  26.267  29.023  1.00  0.00    -0.248 NA
ATOM     46  C   UNL A   1      45.128  24.108  28.343  1.00  0.00     0.031 C 
ATOM     47  C   UNL A   1      40.300  25.411  27.889  1.00  0.00     0.029 A 
ATOM     48  N   UNL A   1      41.703  26.953  28.702  1.00  0.00    -0.354 N 
ATOM     49  C   UNL A   1      45.916  26.082  29.187  1.00  0.00     0.074 A 
ATOM     50  C   UNL A   1      46.213  24.725  28.788  1.00  0.00     0.031 C 
ATOM     51  C   UNL A   1      39.591  26.534  28.096  1.00  0.00     0.029 A 
ATOM     52  C   UNL A   1      40.469  27.553  28.664  1.00  0.00     0.049 A 
ATOM     53  H   UNL A   1      42.517  27.415  29.007  1.00  0.00     0.167 HD
ATOM     54  C   UNL A   1      46.840  26.969  29.628  1.00  0.00     0.031 A 
ATOM     55  C   UNL A   1      40.088  28.781  29.064  1.00  0.00     0.031 A 
ATOM     56  C   UNL A   1      46.535  28.316  30.032  1.00  0.00     0.049 A 
ATOM     57  C   UNL A   1      41.121  29.718  29.627  1.00  0.00     0.074 A 
ATOM     58  C   UNL A   1      47.397  29.295  30.492  1.00  0.00     0.029 A 
ATOM     59  N   UNL A   1      45.263  28.869  30.032  1.00  0.00    -0.354 N 
ATOM     60  N   UNL A   1      42.412  29.537  29.772  1.00  0.00    -0.248 NA
ATOM     61  C   UNL A   1      40.643  31.033  30.075  1.00  0.00     0.031 C 
ATOM     62  C   UNL A   1      46.639  30.421  30.825  1.00  0.00     0.029 A 
ATOM     63  C   UNL A   1      45.314  30.169  30.508  1.00  0.00     0.049 A 
ATOM     64  H   UNL A   1      44.445  28.407  29.737  1.00  0.00     0.167 HD
ATOM     65  C   UNL A   1      42.906  30.727  30.295  1.00  0.00     0.074 A 
ATOM     66  C   UNL A   1      41.777  31.624  30.427  1.00  0.00     0.031 C 
ATOM     67  C   UNL A   1      44.179  31.048  30.632  1.00  0.00     0.031 A 
BRANCH  54  68
ATOM     68  C   UNL A   1      48.261  26.490  29.739  1.00  0.00    -0.014 A 
ATOM     69  C   UNL A   1      48.729  25.837  30.890  1.00  0.00     0.009 A 
ATOM     70  C   UNL A   1      49.139  26.671  28.658  1.00  0.00     0.009 A 
ATOM     71  C   UNL A   1      50.057  25.409  30.970  1.00  0.00     0.001 A 
ATOM     72  C   UNL A   1      50.456  26.215  28.729  1.00  0.00     0.001 A 
ATOM     73  C   UNL A   1      50.917  25.594  29.887  1.00  0.00     0.000 A 
ENDBRANCH  54  68
BRANCH  55  74
ATOM     74  C   UNL A   1      38.662  29.187  28.968  1.00  0.00    -0.014 A 
ATOM     75  C   UNL A   1      38.157  29.769  27.795  1.00  0.00     0.009 A 
ATOM     76  C   UNL A   1      37.798  29.004  30.060  1.00  0.00     0.009 A 
ATOM     77  C   UNL A   1      36.825  30.185  27.730  1.00  0.00     0.001 A 
ATOM     78  C   UNL A   1      36.459  29.393  29.980  1.00  0.00     0.001 A 
ATOM     79  C   UNL A   1      35.977  29.993  28.819  1.00  0.00     0.000 A 
ENDBRANCH  55  74
BRANCH  67  80
ATOM     80  C   UNL A   1      44.426  32.446  31.131  1.00  0.00    -0.014 A 
ATOM     81  C   UNL A   1      44.388  32.756  32.499  1.00  0.00     0.009 A 
ATOM     82  C   UNL A   1      44.734  33.461  30.212  1.00  0.00     0.009 A 
ATOM     83  C   UNL A   1      44.613  34.064  32.931  1.00  0.00     0.001 A 
ATOM     84  C   UNL A   1      44.992  34.760  30.649  1.00  0.00     0.001 A 
ATOM     85  C   UNL A   1      44.920  35.063  32.008  1.00  0.00     0.000 A 
ENDBRANCH  67  80
ENDBRANCH  41  42
ENDBRANCH  34  36
ENDBRANCH  33  34
ENDBRANCH  32  33
ENDBRANCH  31  32
ENDBRANCH   1  31
TORSDOF 16
ENDMDL
MODEL 3
REMARK VINA RESULT:     -10.5      2.393      6.015
REMARK SMILES CC1(C)[C@H](C(=O)Nc2ccc(NC(=O)C[NH+]3CCCCC3)cc2)[C@@H]1C(=O)OCCOC(=O)c1ccc(-c2c3nc(c(-c4ccccc4)c4ccc([nH]4)c(-c4ccccc4)c4nc(c(-c5ccccc5)c5ccc2[nH]5)C=C4)C=C3)cc1
REMARK SMILES IDX 27 1 25 2 26 3 24 4 1 5 2 6 3 7 4 8 5 9 6 10 7 11 8 13 9 14
REMARK SMILES IDX 23 15 10 16 22 17 11 18 12 19 13 20 14 22 15 23 16 24 17 25
REMARK SMILES IDX 21 26 18 28 20 29 19 30 28 31 29 32 30 33 31 34 32 35 33 36
REMARK SMILES IDX 34 37 80 38 35 39 79 40 36 41 37 42 38 43 73 44 39 45 78 46
REMARK SMILES IDX 72 47 74 48 40 49 77 50 71 51 70 52 41 54 63 55 48 56 62 57
REMARK SMILES IDX 49 58 52 59 61 60 75 61 50 62 51 63 60 65 76 66 53 67 42 68
REMARK SMILES IDX 43 69 47 70 44 71 46 72 45 73 64 74 65 75 69 76 66 77 68 78
REMARK SMILES IDX 67 79 54 80 55 81 59 82 56 83 58 84 57 85
REMARK H PARENT 7 12 12 21 16 27 74 53 52 64
REMARK Flexibility Score: inf
ROOT
ATOM      1  O   UNL A   1      36.071  20.328  25.491  1.00  0.00    -0.462 OA
ENDROOT
BRANCH   1   2
ATOM      2  C   UNL A   1      35.024  20.948  24.880  1.00  0.00     0.310 C 
ATOM      3  O   UNL A   1      35.127  21.769  23.971  1.00  0.00    -0.252 OA
BRANCH   2   4
ATOM      4  C   UNL A   1      33.726  20.354  25.265  1.00  0.00     0.118 C 
ATOM      5  C   UNL A   1      32.464  18.091  25.640  1.00  0.00     0.013 C 
ATOM      6  C   UNL A   1      33.150  19.046  24.678  1.00  0.00    -0.009 C 
ATOM      7  C   UNL A   1      33.829  18.287  23.575  1.00  0.00     0.013 C 
ATOM      8  C   UNL A   1      32.447  20.380  24.480  1.00  0.00     0.100 C 
BRANCH   8   9
ATOM      9  C   UNL A   1      32.089  21.195  23.281  1.00  0.00     0.228 C 
ATOM     10  O   UNL A   1      32.233  20.643  22.188  1.00  0.00    -0.274 OA
ATOM     11  N   UNL A   1      31.333  22.336  23.298  1.00  0.00    -0.326 N 
ATOM     12  H   UNL A   1      30.608  22.356  22.632  1.00  0.00     0.169 HD
BRANCH  11  13
ATOM     13  C   UNL A   1      31.414  23.467  24.096  1.00  0.00     0.041 A 
ATOM     14  C   UNL A   1      30.412  24.410  23.957  1.00  0.00     0.028 A 
ATOM     15  C   UNL A   1      32.441  23.688  25.002  1.00  0.00     0.028 A 
ATOM     16  C   UNL A   1      30.292  25.415  24.915  1.00  0.00     0.028 A 
ATOM     17  C   UNL A   1      32.349  24.745  25.920  1.00  0.00     0.028 A 
ATOM     18  C   UNL A   1      31.240  25.593  25.916  1.00  0.00     0.041 A 
BRANCH  18  19
ATOM     19  N   UNL A   1      31.115  26.517  26.971  1.00  0.00    -0.321 N 
ATOM     20  C   UNL A   1      31.547  27.807  27.139  1.00  0.00     0.279 C 
ATOM     21  H   UNL A   1      30.618  26.165  27.744  1.00  0.00     0.170 HD
ATOM     22  O   UNL A   1      31.107  28.436  28.111  1.00  0.00    -0.268 OA
BRANCH  20  23
ATOM     23  C   UNL A   1      32.560  28.477  26.192  1.00  0.00     0.363 C 
BRANCH  23  24
ATOM     24  N   UNL A   1      33.489  29.320  26.951  1.00  0.00    -0.327 N 
ATOM     25  C   UNL A   1      34.897  28.955  26.821  1.00  0.00     0.262 C 
ATOM     26  C   UNL A   1      33.274  30.751  26.753  1.00  0.00     0.262 C 
ATOM     27  H   UNL A   1      33.250  29.116  27.922  1.00  0.00     0.348 HD
ATOM     28  C   UNL A   1      35.666  29.626  27.961  1.00  0.00     0.062 C 
ATOM     29  C   UNL A   1      34.019  31.532  27.837  1.00  0.00     0.062 C 
ATOM     30  C   UNL A   1      35.494  31.142  27.918  1.00  0.00     0.012 C 
ENDBRANCH  23  24
ENDBRANCH  20  23
ENDBRANCH  18  19
ENDBRANCH  11  13
ENDBRANCH   8   9
ENDBRANCH   2   4
ENDBRANCH   1   2
BRANCH   1  31
ATOM     31  C   UNL A   1      36.968  19.596  24.629  1.00  0.00     0.274 C 
BRANCH  31  32
ATOM     32  C   UNL A   1      38.422  19.589  25.113  1.00  0.00     0.275 C 
BRANCH  32  33
ATOM     33  O   UNL A   1      38.745  20.786  25.843  1.00  0.00    -0.458 OA
BRANCH  33  34
ATOM     34  C   UNL A   1      39.945  20.749  26.467  1.00  0.00     0.338 C 
ATOM     35  O   UNL A   1      40.727  19.813  26.492  1.00  0.00    -0.246 OA
BRANCH  34  36
ATOM     36  C   UNL A   1      40.289  22.076  27.006  1.00  0.00     0.060 A 
ATOM     37  C   UNL A   1      39.718  23.185  26.375  1.00  0.00     0.016 A 
ATOM     38  C   UNL A   1      41.213  22.244  28.036  1.00  0.00     0.016 A 
ATOM     39  C   UNL A   1      40.092  24.470  26.739  1.00  0.00     0.010 A 
ATOM     40  C   UNL A   1      41.599  23.540  28.398  1.00  0.00     0.010 A 
ATOM     41  C   UNL A   1      41.063  24.653  27.727  1.00  0.00    -0.014 A 
BRANCH  41  42
ATOM     42  C   UNL A   1      41.593  26.016  27.950  1.00  0.00     0.031 A 
ATOM     43  C   UNL A   1      42.888  26.412  27.301  1.00  0.00     0.074 A 
ATOM     44  C   UNL A   1      40.882  26.908  28.661  1.00  0.00     0.049 A 
ATOM     45  N   UNL A   1      43.526  27.553  27.357  1.00  0.00    -0.248 NA
ATOM     46  C   UNL A   1      43.551  25.390  26.475  1.00  0.00     0.031 C 
ATOM     47  C   UNL A   1      39.581  26.652  29.280  1.00  0.00     0.029 A 
ATOM     48  N   UNL A   1      41.152  28.215  28.970  1.00  0.00    -0.354 N 
ATOM     49  C   UNL A   1      44.670  27.381  26.589  1.00  0.00     0.074 A 
ATOM     50  C   UNL A   1      44.654  26.020  26.100  1.00  0.00     0.031 C 
ATOM     51  C   UNL A   1      39.164  27.772  29.893  1.00  0.00     0.029 A 
ATOM     52  C   UNL A   1      40.185  28.806  29.744  1.00  0.00     0.049 A 
ATOM     53  H   UNL A   1      41.962  28.686  28.666  1.00  0.00     0.167 HD
ATOM     54  C   UNL A   1      45.645  28.280  26.314  1.00  0.00     0.031 A 
ATOM     55  C   UNL A   1      40.141  30.035  30.290  1.00  0.00     0.031 A 
ATOM     56  C   UNL A   1      45.660  29.629  26.813  1.00  0.00     0.049 A 
ATOM     57  C   UNL A   1      41.278  30.987  30.036  1.00  0.00     0.074 A 
ATOM     58  C   UNL A   1      46.599  30.621  26.592  1.00  0.00     0.029 A 
ATOM     59  N   UNL A   1      44.689  30.174  27.641  1.00  0.00    -0.354 N 
ATOM     60  N   UNL A   1      42.352  30.818  29.302  1.00  0.00    -0.248 NA
ATOM     61  C   UNL A   1      41.190  32.305  30.680  1.00  0.00     0.031 C 
ATOM     62  C   UNL A   1      46.228  31.746  27.333  1.00  0.00     0.029 A 
ATOM     63  C   UNL A   1      45.020  31.480  27.961  1.00  0.00     0.049 A 
ATOM     64  H   UNL A   1      43.884  29.702  27.954  1.00  0.00     0.167 HD
ATOM     65  C   UNL A   1      43.051  32.017  29.370  1.00  0.00     0.074 A 
ATOM     66  C   UNL A   1      42.270  32.908  30.203  1.00  0.00     0.031 C 
ATOM     67  C   UNL A   1      44.231  32.352  28.791  1.00  0.00     0.031 A 
BRANCH  54  68
ATOM     68  C   UNL A   1      46.801  27.812  25.472  1.00  0.00    -0.014 A 
ATOM     69  C   UNL A   1      47.887  27.122  26.032  1.00  0.00     0.009 A 
ATOM     70  C   UNL A   1      46.786  28.043  24.088  1.00  0.00     0.009 A 
ATOM     71  C   UNL A   1      48.951  26.705  25.228  1.00  0.00     0.001 A 
ATOM     72  C   UNL A   1      47.835  27.599  23.282  1.00  0.00     0.001 A 
ATOM     73  C   UNL A   1      48.921  26.940  23.853  1.00  0.00     0.000 A 
ENDBRANCH  54  68
BRANCH  55  74
ATOM     74  C   UNL A   1      38.993  30.430  31.146  1.00  0.00    -0.014 A 
ATOM     75  C   UNL A   1      38.976  30.120  32.515  1.00  0.00     0.009 A 
ATOM     76  C   UNL A   1      37.896  31.111  30.593  1.00  0.00     0.009 A 
ATOM     77  C   UNL A   1      37.873  30.458  33.303  1.00  0.00     0.001 A 
ATOM     78  C   UNL A   1      36.810  31.476  31.390  1.00  0.00     0.001 A 
ATOM     79  C   UNL A   1      36.795  31.139  32.742  1.00  0.00     0.000 A 
ENDBRANCH  55  74
BRANCH  67  80
ATOM     80  C   UNL A   1      44.723  33.758  29.000  1.00  0.00    -0.014 A 
ATOM     81  C   UNL A   1      45.573  34.088  30.068  1.00  0.00     0.009 A 
ATOM     82  C   UNL A   1      44.354  34.761  28.090  1.00  0.00     0.009 A 
ATOM     83  C   UNL A   1      46.008  35.404  30.241  1.00  0.00     0.001 A 
ATOM     84  C   UNL A   1      44.818  36.067  28.246  1.00  0.00     0.001 A 
ATOM     85  C   UNL A   1      45.635  36.390  29.328  1.00  0.00     0.000 A 
ENDBRANCH  67  80
ENDBRANCH  41  42
ENDBRANCH  34  36
ENDBRANCH  33  34
ENDBRANCH  32  33
ENDBRANCH  31  32
ENDBRANCH   1  31
TORSDOF 16
ENDMDL
