MODEL 1
REMARK VINA RESULT:     -13.7      0.000      0.000
REMARK SMILES Cc1ccc(NC(=O)c2ccccc2NC(=O)[C@H]2CCCC[C@H]2C(=O)OCCOC(=O)c2ccc(-c3c4nc(c(-c5ccccc5)c5ccc([nH]5)c(-c5ccccc5)c5nc(c(-c6ccccc6)c6ccc3[nH]6)C=C5)C=C4)cc2)cc1
REMARK SMILES IDX 27 1 26 2 24 3 25 4 23 5 18 6 19 7 20 8 22 9 21 10 16 11
REMARK SMILES IDX 15 12 17 14 14 15 9 16 10 17 11 18 13 19 12 20 7 21 6 22
REMARK SMILES IDX 8 24 5 25 1 26 2 27 3 28 81 29 4 30 80 31 28 32 29 33 30 34
REMARK SMILES IDX 31 35 32 36 33 37 79 38 34 39 78 40 35 41 36 42 37 43 72 44
REMARK SMILES IDX 38 45 77 46 71 47 73 48 39 49 76 50 70 51 69 52 40 54 62 55
REMARK SMILES IDX 47 56 61 57 48 58 51 59 60 60 74 61 49 62 50 63 59 65 75 66
REMARK SMILES IDX 52 67 41 68 42 69 46 70 43 71 45 72 44 73 63 74 64 75 68 76
REMARK SMILES IDX 65 77 67 78 66 79 53 80 54 81 58 82 55 83 57 84 56 85
REMARK H PARENT 15 13 6 23 73 53 51 64
REMARK Flexibility Score: inf
ROOT
ATOM      1  C   UNL A   1      32.748  30.609  26.778  1.00  0.00     0.274 C 
ENDROOT
BRANCH   1   2
ATOM      2  O   UNL A   1      32.726  29.329  26.127  1.00  0.00    -0.462 OA
BRANCH   2   3
ATOM      3  C   UNL A   1      32.493  29.317  24.681  1.00  0.00     0.309 C 
ATOM      4  O   UNL A   1      33.613  28.975  24.206  1.00  0.00    -0.252 OA
BRANCH   3   5
ATOM      5  C   UNL A   1      30.564  29.790  23.728  1.00  0.00     0.111 C 
ATOM      6  C   UNL A   1      29.448  28.800  22.756  1.00  0.00     0.093 C 
ATOM      7  C   UNL A   1      28.218  29.455  22.097  1.00  0.00     0.014 C 
ATOM      8  C   UNL A   1      27.331  30.208  23.058  1.00  0.00     0.001 C 
ATOM      9  C   UNL A   1      29.364  31.081  24.240  1.00  0.00     0.016 C 
ATOM     10  C   UNL A   1      28.095  31.425  23.470  1.00  0.00     0.001 C 
BRANCH   6  11
ATOM     11  C   UNL A   1      28.894  27.533  23.369  1.00  0.00     0.228 C 
ATOM     12  N   UNL A   1      29.720  26.507  23.719  1.00  0.00    -0.325 N 
ATOM     13  H   UNL A   1      29.233  25.844  24.261  1.00  0.00     0.169 HD
ATOM     14  O   UNL A   1      27.710  27.471  23.715  1.00  0.00    -0.274 OA
BRANCH  12  15
ATOM     15  C   UNL A   1      31.062  26.110  23.538  1.00  0.00     0.054 A 
ATOM     16  C   UNL A   1      31.805  25.679  24.667  1.00  0.00     0.063 A 
ATOM     17  C   UNL A   1      33.201  25.495  24.536  1.00  0.00     0.016 A 
ATOM     18  C   UNL A   1      33.851  25.686  23.319  1.00  0.00     0.001 A 
ATOM     19  C   UNL A   1      31.720  26.164  22.300  1.00  0.00     0.027 A 
ATOM     20  C   UNL A   1      33.105  26.001  22.198  1.00  0.00     0.002 A 
BRANCH  16  21
ATOM     21  C   UNL A   1      31.300  25.570  26.075  1.00  0.00     0.257 C 
ATOM     22  N   UNL A   1      31.238  24.417  26.833  1.00  0.00    -0.322 N 
ATOM     23  H   UNL A   1      30.690  24.522  27.644  1.00  0.00     0.170 HD
ATOM     24  O   UNL A   1      30.795  26.582  26.573  1.00  0.00    -0.269 OA
BRANCH  22  25
ATOM     25  C   UNL A   1      31.780  23.127  26.703  1.00  0.00     0.041 A 
ATOM     26  C   UNL A   1      34.023  19.870  25.041  1.00  0.00     0.044 C 
ATOM     27  C   UNL A   1      33.164  20.894  25.723  1.00  0.00    -0.051 A 
ATOM     28  C   UNL A   1      33.663  21.620  26.812  1.00  0.00     0.005 A 
ATOM     29  C   UNL A   1      31.905  21.224  25.208  1.00  0.00     0.005 A 
ATOM     30  C   UNL A   1      32.965  22.724  27.316  1.00  0.00     0.026 A 
ATOM     31  C   UNL A   1      31.204  22.322  25.710  1.00  0.00     0.026 A 
ENDBRANCH  22  25
ENDBRANCH  16  21
ENDBRANCH  12  15
ENDBRANCH   6  11
ENDBRANCH   3   5
ENDBRANCH   2   3
ENDBRANCH   1   2
BRANCH   1  32
ATOM     32  C   UNL A   1      33.940  30.679  27.744  1.00  0.00     0.275 C 
BRANCH  32  33
ATOM     33  O   UNL A   1      34.137  31.937  28.471  1.00  0.00    -0.458 OA
BRANCH  33  34
ATOM     34  C   UNL A   1      35.011  32.255  29.468  1.00  0.00     0.338 C 
ATOM     35  O   UNL A   1      34.648  32.700  30.548  1.00  0.00    -0.246 OA
BRANCH  34  36
ATOM     36  C   UNL A   1      36.449  32.355  29.125  1.00  0.00     0.060 A 
ATOM     37  C   UNL A   1      37.429  30.965  29.694  1.00  0.00     0.016 A 
ATOM     38  C   UNL A   1      37.144  33.997  29.101  1.00  0.00     0.016 A 
ATOM     39  C   UNL A   1      39.059  31.289  30.424  1.00  0.00     0.010 A 
ATOM     40  C   UNL A   1      38.800  34.319  29.722  1.00  0.00     0.010 A 
ATOM     41  C   UNL A   1      39.683  32.987  30.529  1.00  0.00    -0.014 A 
BRANCH  41  42
ATOM     42  C   UNL A   1      40.542  33.481  31.587  1.00  0.00     0.031 A 
ATOM     43  C   UNL A   1      39.892  34.023  32.793  1.00  0.00     0.074 A 
ATOM     44  C   UNL A   1      41.868  33.242  31.454  1.00  0.00     0.049 A 
ATOM     45  N   UNL A   1      40.357  35.025  33.452  1.00  0.00    -0.248 NA
ATOM     46  C   UNL A   1      38.578  33.592  33.296  1.00  0.00     0.031 C 
ATOM     47  C   UNL A   1      42.924  33.387  32.446  1.00  0.00     0.029 A 
ATOM     48  N   UNL A   1      42.586  32.909  30.305  1.00  0.00    -0.354 N 
ATOM     49  C   UNL A   1      39.626  35.093  34.619  1.00  0.00     0.074 A 
ATOM     50  C   UNL A   1      38.411  34.385  34.354  1.00  0.00     0.031 C 
ATOM     51  C   UNL A   1      44.105  33.490  31.801  1.00  0.00     0.029 A 
ATOM     52  C   UNL A   1      43.834  33.506  30.369  1.00  0.00     0.049 A 
ATOM     53  H   UNL A   1      42.259  32.343  29.570  1.00  0.00     0.167 HD
ATOM     54  C   UNL A   1      40.241  35.509  35.758  1.00  0.00     0.031 A 
ATOM     55  C   UNL A   1      44.184  34.482  29.478  1.00  0.00     0.031 A 
ATOM     56  C   UNL A   1      41.625  35.882  35.460  1.00  0.00     0.049 A 
ATOM     57  C   UNL A   1      44.244  35.813  30.200  1.00  0.00     0.074 A 
ATOM     58  C   UNL A   1      42.821  35.198  35.600  1.00  0.00     0.029 A 
ATOM     59  N   UNL A   1      41.857  36.893  34.534  1.00  0.00    -0.354 N 
ATOM     60  N   UNL A   1      43.647  36.047  31.340  1.00  0.00    -0.248 NA
ATOM     61  C   UNL A   1      45.007  36.961  29.726  1.00  0.00     0.031 C 
ATOM     62  C   UNL A   1      43.751  35.757  34.675  1.00  0.00     0.029 A 
ATOM     63  C   UNL A   1      43.129  36.795  33.999  1.00  0.00     0.049 A 
ATOM     64  H   UNL A   1      41.203  37.587  34.291  1.00  0.00     0.167 HD
ATOM     65  C   UNL A   1      43.987  37.288  31.795  1.00  0.00     0.074 A 
ATOM     66  C   UNL A   1      44.825  37.831  30.737  1.00  0.00     0.031 C 
ATOM     67  C   UNL A   1      43.576  37.769  33.006  1.00  0.00     0.031 A 
BRANCH  54  68
ATOM     68  C   UNL A   1      39.711  35.256  37.153  1.00  0.00    -0.014 A 
ATOM     69  C   UNL A   1      39.630  36.330  38.056  1.00  0.00     0.009 A 
ATOM     70  C   UNL A   1      39.311  34.005  37.660  1.00  0.00     0.009 A 
ATOM     71  C   UNL A   1      39.223  36.157  39.388  1.00  0.00     0.001 A 
ATOM     72  C   UNL A   1      38.924  33.818  38.995  1.00  0.00     0.001 A 
ATOM     73  C   UNL A   1      38.880  34.898  39.862  1.00  0.00     0.000 A 
ENDBRANCH  54  68
BRANCH  55  74
ATOM     74  C   UNL A   1      43.744  34.254  28.061  1.00  0.00    -0.014 A 
ATOM     75  C   UNL A   1      42.921  35.242  27.472  1.00  0.00     0.009 A 
ATOM     76  C   UNL A   1      44.332  33.312  27.205  1.00  0.00     0.009 A 
ATOM     77  C   UNL A   1      42.823  35.386  26.082  1.00  0.00     0.001 A 
ATOM     78  C   UNL A   1      44.216  33.447  25.806  1.00  0.00     0.001 A 
ATOM     79  C   UNL A   1      43.499  34.506  25.247  1.00  0.00     0.000 A 
ENDBRANCH  55  74
BRANCH  67  80
ATOM     80  C   UNL A   1      43.602  39.223  33.413  1.00  0.00    -0.014 A 
ATOM     81  C   UNL A   1      44.238  39.703  34.563  1.00  0.00     0.009 A 
ATOM     82  C   UNL A   1      43.093  40.197  32.523  1.00  0.00     0.009 A 
ATOM     83  C   UNL A   1      44.304  41.073  34.841  1.00  0.00     0.001 A 
ATOM     84  C   UNL A   1      43.227  41.565  32.754  1.00  0.00     0.001 A 
ATOM     85  C   UNL A   1      43.813  42.003  33.930  1.00  0.00     0.000 A 
ENDBRANCH  67  80
ENDBRANCH  41  42
ENDBRANCH  34  36
ENDBRANCH  33  34
ENDBRANCH  32  33
ENDBRANCH   1  32
TORSDOF 15
ENDMDL
MODEL 2
REMARK VINA RESULT:     -13.6      3.852      7.061
REMARK SMILES Cc1ccc(NC(=O)c2ccccc2NC(=O)[C@H]2CCCC[C@H]2C(=O)OCCOC(=O)c2ccc(-c3c4nc(c(-c5ccccc5)c5ccc([nH]5)c(-c5ccccc5)c5nc(c(-c6ccccc6)c6ccc3[nH]6)C=C5)C=C4)cc2)cc1
REMARK SMILES IDX 27 1 26 2 24 3 25 4 23 5 18 6 19 7 20 8 22 9 21 10 16 11
REMARK SMILES IDX 15 12 17 14 14 15 9 16 10 17 11 18 13 19 12 20 7 21 6 22
REMARK SMILES IDX 8 24 5 25 1 26 2 27 3 28 81 29 4 30 80 31 28 32 29 33 30 34
REMARK SMILES IDX 31 35 32 36 33 37 79 38 34 39 78 40 35 41 36 42 37 43 72 44
REMARK SMILES IDX 38 45 77 46 71 47 73 48 39 49 76 50 70 51 69 52 40 54 62 55
REMARK SMILES IDX 47 56 61 57 48 58 51 59 60 60 74 61 49 62 50 63 59 65 75 66
REMARK SMILES IDX 52 67 41 68 42 69 46 70 43 71 45 72 44 73 63 74 64 75 68 76
REMARK SMILES IDX 65 77 67 78 66 79 53 80 54 81 58 82 55 83 57 84 56 85
REMARK H PARENT 15 13 6 23 73 53 51 64
REMARK Flexibility Score: inf
ROOT
ATOM      1  C   UNL A   1      39.340  21.957  26.608  1.00  0.00     0.274 C 
ENDROOT
BRANCH   1   2
ATOM      2  O   UNL A   1      38.466  22.012  25.470  1.00  0.00    -0.462 OA
BRANCH   2   3
ATOM      3  C   UNL A   1      37.272  22.853  25.583  1.00  0.00     0.309 C 
ATOM      4  O   UNL A   1      37.741  24.026  25.596  1.00  0.00    -0.252 OA
BRANCH   3   5
ATOM      5  C   UNL A   1      35.210  22.082  25.672  1.00  0.00     0.111 C 
ATOM      6  C   UNL A   1      33.633  22.900  25.568  1.00  0.00     0.093 C 
ATOM      7  C   UNL A   1      32.337  22.100  25.803  1.00  0.00     0.014 C 
ATOM      8  C   UNL A   1      32.199  20.878  24.928  1.00  0.00     0.001 C 
ATOM      9  C   UNL A   1      34.641  20.394  25.229  1.00  0.00     0.016 C 
ATOM     10  C   UNL A   1      33.214  19.895  25.415  1.00  0.00     0.001 C 
BRANCH   6  11
ATOM     11  C   UNL A   1      33.330  23.716  24.330  1.00  0.00     0.228 C 
ATOM     12  N   UNL A   1      33.104  25.057  24.416  1.00  0.00    -0.325 N 
ATOM     13  H   UNL A   1      33.101  25.464  23.518  1.00  0.00     0.169 HD
ATOM     14  O   UNL A   1      33.445  23.216  23.206  1.00  0.00    -0.274 OA
BRANCH  12  15
ATOM     15  C   UNL A   1      32.871  26.038  25.404  1.00  0.00     0.054 A 
ATOM     16  C   UNL A   1      31.552  26.216  25.892  1.00  0.00     0.063 A 
ATOM     17  C   UNL A   1      31.271  27.336  26.710  1.00  0.00     0.016 A 
ATOM     18  C   UNL A   1      32.266  28.238  27.077  1.00  0.00     0.001 A 
ATOM     19  C   UNL A   1      33.874  26.885  25.898  1.00  0.00     0.027 A 
ATOM     20  C   UNL A   1      33.571  27.999  26.687  1.00  0.00     0.002 A 
BRANCH  16  21
ATOM     21  C   UNL A   1      30.338  25.435  25.481  1.00  0.00     0.257 C 
ATOM     22  N   UNL A   1      29.372  25.843  24.582  1.00  0.00    -0.322 N 
ATOM     23  H   UNL A   1      28.564  25.280  24.609  1.00  0.00     0.170 HD
ATOM     24  O   UNL A   1      30.123  24.374  26.075  1.00  0.00    -0.269 OA
BRANCH  22  25
ATOM     25  C   UNL A   1      29.284  26.881  23.639  1.00  0.00     0.041 A 
ATOM     26  C   UNL A   1      29.052  30.871  22.079  1.00  0.00     0.044 C 
ATOM     27  C   UNL A   1      29.087  29.421  22.470  1.00  0.00    -0.051 A 
ATOM     28  C   UNL A   1      30.293  28.710  22.428  1.00  0.00     0.005 A 
ATOM     29  C   UNL A   1      27.949  28.799  22.995  1.00  0.00     0.005 A 
ATOM     30  C   UNL A   1      30.389  27.433  22.994  1.00  0.00     0.026 A 
ATOM     31  C   UNL A   1      28.040  27.524  23.558  1.00  0.00     0.026 A 
ENDBRANCH  22  25
ENDBRANCH  16  21
ENDBRANCH  12  15
ENDBRANCH   6  11
ENDBRANCH   3   5
ENDBRANCH   2   3
ENDBRANCH   1   2
BRANCH   1  32
ATOM     32  C   UNL A   1      40.798  21.846  26.136  1.00  0.00     0.275 C 
BRANCH  32  33
ATOM     33  O   UNL A   1      41.573  23.089  26.068  1.00  0.00    -0.458 OA
BRANCH  33  34
ATOM     34  C   UNL A   1      41.666  24.123  26.952  1.00  0.00     0.338 C 
ATOM     35  O   UNL A   1      42.401  24.092  27.930  1.00  0.00    -0.246 OA
BRANCH  34  36
ATOM     36  C   UNL A   1      40.628  25.179  26.900  1.00  0.00     0.060 A 
ATOM     37  C   UNL A   1      41.093  26.605  25.917  1.00  0.00     0.016 A 
ATOM     38  C   UNL A   1      39.629  25.379  28.362  1.00  0.00     0.016 A 
ATOM     39  C   UNL A   1      40.697  28.262  26.546  1.00  0.00     0.010 A 
ATOM     40  C   UNL A   1      39.136  27.009  28.941  1.00  0.00     0.010 A 
ATOM     41  C   UNL A   1      39.812  28.447  28.116  1.00  0.00    -0.014 A 
BRANCH  41  42
ATOM     42  C   UNL A   1      39.999  29.550  29.037  1.00  0.00     0.031 A 
ATOM     43  C   UNL A   1      38.907  30.533  29.153  1.00  0.00     0.074 A 
ATOM     44  C   UNL A   1      41.084  29.490  29.845  1.00  0.00     0.049 A 
ATOM     45  N   UNL A   1      39.109  31.790  29.333  1.00  0.00    -0.248 NA
ATOM     46  C   UNL A   1      37.485  30.228  28.927  1.00  0.00     0.031 C 
ATOM     47  C   UNL A   1      41.395  30.298  31.016  1.00  0.00     0.029 A 
ATOM     48  N   UNL A   1      42.240  28.724  29.699  1.00  0.00    -0.354 N 
ATOM     49  C   UNL A   1      37.878  32.342  29.617  1.00  0.00     0.074 A 
ATOM     50  C   UNL A   1      36.913  31.419  29.101  1.00  0.00     0.031 C 
ATOM     51  C   UNL A   1      42.724  30.232  31.240  1.00  0.00     0.029 A 
ATOM     52  C   UNL A   1      43.322  29.454  30.162  1.00  0.00     0.049 A 
ATOM     53  H   UNL A   1      42.280  27.812  29.328  1.00  0.00     0.167 HD
ATOM     54  C   UNL A   1      37.808  33.384  30.488  1.00  0.00     0.031 A 
ATOM     55  C   UNL A   1      44.305  29.860  29.304  1.00  0.00     0.031 A 
ATOM     56  C   UNL A   1      39.158  33.759  30.913  1.00  0.00     0.049 A 
ATOM     57  C   UNL A   1      44.216  31.361  29.123  1.00  0.00     0.074 A 
ATOM     58  C   UNL A   1      39.894  33.449  32.044  1.00  0.00     0.029 A 
ATOM     59  N   UNL A   1      40.074  34.158  29.946  1.00  0.00    -0.354 N 
ATOM     60  N   UNL A   1      43.140  32.059  29.382  1.00  0.00    -0.248 NA
ATOM     61  C   UNL A   1      45.327  32.196  28.682  1.00  0.00     0.031 C 
ATOM     62  C   UNL A   1      41.274  33.580  31.712  1.00  0.00     0.029 A 
ATOM     63  C   UNL A   1      41.372  33.997  30.394  1.00  0.00     0.049 A 
ATOM     64  H   UNL A   1      39.831  34.509  29.059  1.00  0.00     0.167 HD
ATOM     65  C   UNL A   1      43.407  33.391  29.240  1.00  0.00     0.074 A 
ATOM     66  C   UNL A   1      44.786  33.424  28.778  1.00  0.00     0.031 C 
ATOM     67  C   UNL A   1      42.491  34.363  29.528  1.00  0.00     0.031 A 
BRANCH  54  68
ATOM     68  C   UNL A   1      36.543  33.819  31.196  1.00  0.00    -0.014 A 
ATOM     69  C   UNL A   1      36.542  33.905  32.599  1.00  0.00     0.009 A 
ATOM     70  C   UNL A   1      35.320  34.124  30.568  1.00  0.00     0.009 A 
ATOM     71  C   UNL A   1      35.386  34.225  33.328  1.00  0.00     0.001 A 
ATOM     72  C   UNL A   1      34.154  34.424  31.288  1.00  0.00     0.001 A 
ATOM     73  C   UNL A   1      34.188  34.474  32.672  1.00  0.00     0.000 A 
ENDBRANCH  54  68
BRANCH  55  74
ATOM     74  C   UNL A   1      44.711  28.857  28.261  1.00  0.00    -0.014 A 
ATOM     75  C   UNL A   1      45.171  27.600  28.719  1.00  0.00     0.009 A 
ATOM     76  C   UNL A   1      44.377  28.966  26.905  1.00  0.00     0.009 A 
ATOM     77  C   UNL A   1      45.143  26.464  27.901  1.00  0.00     0.001 A 
ATOM     78  C   UNL A   1      44.368  27.823  26.078  1.00  0.00     0.001 A 
ATOM     79  C   UNL A   1      44.708  26.569  26.587  1.00  0.00     0.000 A 
ENDBRANCH  55  74
BRANCH  67  80
ATOM     80  C   UNL A   1      42.577  35.797  29.064  1.00  0.00    -0.014 A 
ATOM     81  C   UNL A   1      43.441  36.749  29.617  1.00  0.00     0.009 A 
ATOM     82  C   UNL A   1      41.865  36.192  27.908  1.00  0.00     0.009 A 
ATOM     83  C   UNL A   1      43.540  38.039  29.086  1.00  0.00     0.001 A 
ATOM     84  C   UNL A   1      42.019  37.449  27.327  1.00  0.00     0.001 A 
ATOM     85  C   UNL A   1      42.841  38.384  27.933  1.00  0.00     0.000 A 
ENDBRANCH  67  80
ENDBRANCH  41  42
ENDBRANCH  34  36
ENDBRANCH  33  34
ENDBRANCH  32  33
ENDBRANCH   1  32
TORSDOF 15
ENDMDL
MODEL 3
REMARK VINA RESULT:     -13.5      5.432      9.363
REMARK SMILES Cc1ccc(NC(=O)c2ccccc2NC(=O)[C@H]2CCCC[C@H]2C(=O)OCCOC(=O)c2ccc(-c3c4nc(c(-c5ccccc5)c5ccc([nH]5)c(-c5ccccc5)c5nc(c(-c6ccccc6)c6ccc3[nH]6)C=C5)C=C4)cc2)cc1
REMARK SMILES IDX 27 1 26 2 24 3 25 4 23 5 18 6 19 7 20 8 22 9 21 10 16 11
REMARK SMILES IDX 15 12 17 14 14 15 9 16 10 17 11 18 13 19 12 20 7 21 6 22
REMARK SMILES IDX 8 24 5 25 1 26 2 27 3 28 81 29 4 30 80 31 28 32 29 33 30 34
REMARK SMILES IDX 31 35 32 36 33 37 79 38 34 39 78 40 35 41 36 42 37 43 72 44
REMARK SMILES IDX 38 45 77 46 71 47 73 48 39 49 76 50 70 51 69 52 40 54 62 55
REMARK SMILES IDX 47 56 61 57 48 58 51 59 60 60 74 61 49 62 50 63 59 65 75 66
REMARK SMILES IDX 52 67 41 68 42 69 46 70 43 71 45 72 44 73 63 74 64 75 68 76
REMARK SMILES IDX 65 77 67 78 66 79 53 80 54 81 58 82 55 83 57 84 56 85
REMARK H PARENT 15 13 6 23 73 53 51 64
REMARK Flexibility Score: inf
ROOT
ATOM      1  C   UNL A   1      37.686  21.200  25.389  1.00  0.00     0.274 C 
ENDROOT
BRANCH   1   2
ATOM      2  O   UNL A   1      36.557  22.088  25.382  1.00  0.00    -0.462 OA
BRANCH   2   3
ATOM      3  C   UNL A   1      35.288  21.561  25.886  1.00  0.00     0.309 C 
ATOM      4  O   UNL A   1      34.978  22.370  26.805  1.00  0.00    -0.252 OA
BRANCH   3   5
ATOM      5  C   UNL A   1      34.279  19.772  25.087  1.00  0.00     0.111 C 
ATOM      6  C   UNL A   1      32.647  19.531  24.418  1.00  0.00     0.093 C 
ATOM      7  C   UNL A   1      32.168  18.111  24.058  1.00  0.00     0.014 C 
ATOM      8  C   UNL A   1      33.087  17.370  23.118  1.00  0.00     0.001 C 
ATOM      9  C   UNL A   1      35.072  18.298  24.337  1.00  0.00     0.016 C 
ATOM     10  C   UNL A   1      34.318  17.047  23.901  1.00  0.00     0.001 C 
BRANCH   6  11
ATOM     11  C   UNL A   1      32.233  20.361  23.223  1.00  0.00     0.228 C 
ATOM     12  N   UNL A   1      32.086  21.712  23.328  1.00  0.00    -0.325 N 
ATOM     13  H   UNL A   1      31.992  22.119  22.436  1.00  0.00     0.169 HD
ATOM     14  O   UNL A   1      32.182  19.857  22.097  1.00  0.00    -0.274 OA
BRANCH  12  15
ATOM     15  C   UNL A   1      32.027  22.703  24.332  1.00  0.00     0.054 A 
ATOM     16  C   UNL A   1      32.836  23.861  24.197  1.00  0.00     0.063 A 
ATOM     17  C   UNL A   1      32.951  24.744  25.295  1.00  0.00     0.016 A 
ATOM     18  C   UNL A   1      32.259  24.526  26.483  1.00  0.00     0.001 A 
ATOM     19  C   UNL A   1      31.241  22.582  25.487  1.00  0.00     0.027 A 
ATOM     20  C   UNL A   1      31.389  23.455  26.570  1.00  0.00     0.002 A 
BRANCH  16  21
ATOM     21  C   UNL A   1      33.759  24.172  23.057  1.00  0.00     0.257 C 
ATOM     22  N   UNL A   1      33.680  25.268  22.220  1.00  0.00    -0.322 N 
ATOM     23  H   UNL A   1      34.246  25.179  21.420  1.00  0.00     0.170 HD
ATOM     24  O   UNL A   1      34.607  23.321  22.768  1.00  0.00    -0.269 OA
BRANCH  22  25
ATOM     25  C   UNL A   1      32.972  26.482  22.255  1.00  0.00     0.041 A 
ATOM     26  C   UNL A   1      30.323  29.537  23.689  1.00  0.00     0.044 C 
ATOM     27  C   UNL A   1      31.248  28.550  23.037  1.00  0.00    -0.051 A 
ATOM     28  C   UNL A   1      32.635  28.691  23.169  1.00  0.00     0.005 A 
ATOM     29  C   UNL A   1      30.739  27.413  22.399  1.00  0.00     0.005 A 
ATOM     30  C   UNL A   1      33.500  27.668  22.761  1.00  0.00     0.026 A 
ATOM     31  C   UNL A   1      31.599  26.392  21.988  1.00  0.00     0.026 A 
ENDBRANCH  22  25
ENDBRANCH  16  21
ENDBRANCH  12  15
ENDBRANCH   6  11
ENDBRANCH   3   5
ENDBRANCH   2   3
ENDBRANCH   1   2
BRANCH   1  32
ATOM     32  C   UNL A   1      38.960  21.983  25.739  1.00  0.00     0.275 C 
BRANCH  32  33
ATOM     33  O   UNL A   1      40.009  21.260  26.464  1.00  0.00    -0.458 OA
BRANCH  33  34
ATOM     34  C   UNL A   1      41.246  20.854  26.059  1.00  0.00     0.338 C 
ATOM     35  O   UNL A   1      41.440  19.784  25.497  1.00  0.00    -0.246 OA
BRANCH  34  36
ATOM     36  C   UNL A   1      42.424  21.584  26.584  1.00  0.00     0.060 A 
ATOM     37  C   UNL A   1      42.615  21.468  28.363  1.00  0.00     0.016 A 
ATOM     38  C   UNL A   1      42.875  23.080  25.726  1.00  0.00     0.016 A 
ATOM     39  C   UNL A   1      43.085  22.957  29.289  1.00  0.00     0.010 A 
ATOM     40  C   UNL A   1      43.447  24.533  26.618  1.00  0.00     0.010 A 
ATOM     41  C   UNL A   1      43.392  24.511  28.407  1.00  0.00    -0.014 A 
BRANCH  41  42
ATOM     42  C   UNL A   1      43.118  25.828  28.948  1.00  0.00     0.031 A 
ATOM     43  C   UNL A   1      41.872  26.491  28.525  1.00  0.00     0.074 A 
ATOM     44  C   UNL A   1      43.940  26.264  29.931  1.00  0.00     0.049 A 
ATOM     45  N   UNL A   1      41.781  27.759  28.332  1.00  0.00    -0.248 NA
ATOM     46  C   UNL A   1      40.644  25.783  28.130  1.00  0.00     0.031 C 
ATOM     47  C   UNL A   1      43.772  27.403  30.822  1.00  0.00     0.029 A 
ATOM     48  N   UNL A   1      45.215  25.810  30.271  1.00  0.00    -0.354 N 
ATOM     49  C   UNL A   1      40.440  28.031  28.174  1.00  0.00     0.074 A 
ATOM     50  C   UNL A   1      39.836  26.789  27.798  1.00  0.00     0.031 C 
ATOM     51  C   UNL A   1      44.981  27.744  31.314  1.00  0.00     0.029 A 
ATOM     52  C   UNL A   1      45.979  26.889  30.682  1.00  0.00     0.049 A 
ATOM     53  H   UNL A   1      45.521  24.875  30.225  1.00  0.00     0.167 HD
ATOM     54  C   UNL A   1      39.947  29.212  28.637  1.00  0.00     0.031 A 
ATOM     55  C   UNL A   1      47.062  27.293  29.953  1.00  0.00     0.031 A 
ATOM     56  C   UNL A   1      41.041  30.020  29.179  1.00  0.00     0.049 A 
ATOM     57  C   UNL A   1      46.747  28.617  29.290  1.00  0.00     0.074 A 
ATOM     58  C   UNL A   1      41.493  30.219  30.474  1.00  0.00     0.029 A 
ATOM     59  N   UNL A   1      42.091  30.370  28.338  1.00  0.00    -0.354 N 
ATOM     60  N   UNL A   1      45.531  29.058  29.094  1.00  0.00    -0.248 NA
ATOM     61  C   UNL A   1      47.761  29.562  28.837  1.00  0.00     0.031 C 
ATOM     62  C   UNL A   1      42.863  30.608  30.399  1.00  0.00     0.029 A 
ATOM     63  C   UNL A   1      43.230  30.672  29.063  1.00  0.00     0.049 A 
ATOM     64  H   UNL A   1      42.033  30.400  27.356  1.00  0.00     0.167 HD
ATOM     65  C   UNL A   1      45.575  30.327  28.592  1.00  0.00     0.074 A 
ATOM     66  C   UNL A   1      46.996  30.591  28.427  1.00  0.00     0.031 C 
ATOM     67  C   UNL A   1      44.450  31.072  28.367  1.00  0.00     0.031 A 
BRANCH  54  68
ATOM     68  C   UNL A   1      38.482  29.478  28.903  1.00  0.00    -0.014 A 
ATOM     69  C   UNL A   1      37.977  29.280  30.199  1.00  0.00     0.009 A 
ATOM     70  C   UNL A   1      37.539  29.887  27.939  1.00  0.00     0.009 A 
ATOM     71  C   UNL A   1      36.615  29.432  30.503  1.00  0.00     0.001 A 
ATOM     72  C   UNL A   1      36.172  30.020  28.228  1.00  0.00     0.001 A 
ATOM     73  C   UNL A   1      35.709  29.791  29.514  1.00  0.00     0.000 A 
ENDBRANCH  54  68
BRANCH  55  74
ATOM     74  C   UNL A   1      47.910  26.189  29.387  1.00  0.00    -0.014 A 
ATOM     75  C   UNL A   1      47.666  25.809  28.046  1.00  0.00     0.009 A 
ATOM     76  C   UNL A   1      49.099  25.740  29.977  1.00  0.00     0.009 A 
ATOM     77  C   UNL A   1      48.637  25.154  27.279  1.00  0.00     0.001 A 
ATOM     78  C   UNL A   1      50.067  25.062  29.207  1.00  0.00     0.001 A 
ATOM     79  C   UNL A   1      49.853  24.809  27.852  1.00  0.00     0.000 A 
ENDBRANCH  55  74
BRANCH  67  80
ATOM     80  C   UNL A   1      44.389  32.305  27.498  1.00  0.00    -0.014 A 
ATOM     81  C   UNL A   1      44.603  32.300  26.115  1.00  0.00     0.009 A 
ATOM     82  C   UNL A   1      43.944  33.524  28.061  1.00  0.00     0.009 A 
ATOM     83  C   UNL A   1      44.445  33.461  25.350  1.00  0.00     0.001 A 
ATOM     84  C   UNL A   1      43.708  34.661  27.292  1.00  0.00     0.001 A 
ATOM     85  C   UNL A   1      43.983  34.635  25.935  1.00  0.00     0.000 A 
ENDBRANCH  67  80
ENDBRANCH  41  42
ENDBRANCH  34  36
ENDBRANCH  33  34
ENDBRANCH  32  33
ENDBRANCH   1  32
TORSDOF 15
ENDMDL
