MODEL 1
REMARK VINA RESULT:     -11.5      0.000      0.000
REMARK SMILES O=C(OCCOC(=O)[C@H]1C[C@H]2CCCC[C@@H]2[N@@H+]1CC[C@@H]1CCCO1)c1ccc(-c2c3nc(c(-c4ccccc4)c4ccc([nH]4)c(-c4ccccc4)c4nc(c(-c5ccccc5)c5ccc2[nH]5)C=C4)C=C3)cc1
REMARK SMILES IDX 5 1 4 2 3 3 2 4 1 5 25 6 26 7 72 8 27 9 71 10 28 11 29 12
REMARK SMILES IDX 30 13 65 14 31 15 70 16 64 17 66 18 32 19 69 20 63 21 62 22
REMARK SMILES IDX 33 24 55 25 40 26 54 27 41 28 44 29 53 30 67 31 42 32 43 33
REMARK SMILES IDX 52 35 68 36 45 37 34 38 35 39 39 40 36 41 38 42 37 43 56 44
REMARK SMILES IDX 57 45 61 46 58 47 60 48 59 49 46 50 47 51 51 52 48 53 50 54
REMARK SMILES IDX 49 55 6 56 7 57 8 58 9 59 10 60 17 61 11 62 16 63 12 65
REMARK SMILES IDX 15 66 13 67 14 68 18 69 19 70 20 71 21 72 24 73 22 74 23 75
REMARK H PARENT 66 23 44 34 17 64
REMARK Flexibility Score: inf
ROOT
ATOM      1  C   UNL A   1      32.198  30.832  26.368  1.00  0.00     0.274 C 
ENDROOT
BRANCH   1   2
ATOM      2  C   UNL A   1      31.379  31.949  27.029  1.00  0.00     0.275 C 
BRANCH   2   3
ATOM      3  O   UNL A   1      32.018  33.234  27.048  1.00  0.00    -0.458 OA
BRANCH   3   4
ATOM      4  C   UNL A   1      32.815  33.801  27.981  1.00  0.00     0.338 C 
ATOM      5  O   UNL A   1      32.391  34.807  28.552  1.00  0.00    -0.246 OA
BRANCH   4   6
ATOM      6  C   UNL A   1      34.224  33.367  28.302  1.00  0.00     0.060 A 
ATOM      7  C   UNL A   1      35.429  33.858  27.780  1.00  0.00     0.016 A 
ATOM      8  C   UNL A   1      34.326  32.420  29.330  1.00  0.00     0.016 A 
ATOM      9  C   UNL A   1      36.687  33.520  28.342  1.00  0.00     0.010 A 
ATOM     10  C   UNL A   1      35.561  32.130  29.920  1.00  0.00     0.010 A 
ATOM     11  C   UNL A   1      36.774  32.684  29.452  1.00  0.00    -0.014 A 
BRANCH  11  12
ATOM     12  C   UNL A   1      38.054  32.267  30.141  1.00  0.00     0.031 A 
ATOM     13  C   UNL A   1      38.632  30.949  29.682  1.00  0.00     0.074 A 
ATOM     14  C   UNL A   1      38.599  32.880  31.227  1.00  0.00     0.049 A 
ATOM     15  N   UNL A   1      39.426  30.123  30.308  1.00  0.00    -0.248 NA
ATOM     16  C   UNL A   1      38.208  30.480  28.345  1.00  0.00     0.031 C 
ATOM     17  C   UNL A   1      38.205  34.176  31.795  1.00  0.00     0.029 A 
ATOM     18  N   UNL A   1      39.508  32.400  32.167  1.00  0.00    -0.354 N 
ATOM     19  C   UNL A   1      39.639  29.085  29.411  1.00  0.00     0.074 A 
ATOM     20  C   UNL A   1      38.730  29.266  28.307  1.00  0.00     0.031 C 
ATOM     21  C   UNL A   1      38.705  34.295  33.043  1.00  0.00     0.029 A 
ATOM     22  C   UNL A   1      39.455  33.090  33.378  1.00  0.00     0.049 A 
ATOM     23  H   UNL A   1      40.124  31.652  31.994  1.00  0.00     0.167 HD
ATOM     24  C   UNL A   1      40.613  28.149  29.429  1.00  0.00     0.031 A 
ATOM     25  C   UNL A   1      39.834  32.701  34.622  1.00  0.00     0.031 A 
ATOM     26  C   UNL A   1      41.545  28.011  30.504  1.00  0.00     0.049 A 
ATOM     27  C   UNL A   1      40.634  31.436  34.768  1.00  0.00     0.074 A 
ATOM     28  C   UNL A   1      42.710  27.270  30.559  1.00  0.00     0.029 A 
ATOM     29  N   UNL A   1      41.395  28.633  31.728  1.00  0.00    -0.354 N 
ATOM     30  N   UNL A   1      40.906  30.521  33.875  1.00  0.00    -0.248 NA
ATOM     31  C   UNL A   1      41.225  31.185  36.096  1.00  0.00     0.031 C 
ATOM     32  C   UNL A   1      43.239  27.402  31.847  1.00  0.00     0.029 A 
ATOM     33  C   UNL A   1      42.421  28.255  32.569  1.00  0.00     0.049 A 
ATOM     34  H   UNL A   1      40.668  29.253  31.964  1.00  0.00     0.167 HD
ATOM     35  C   UNL A   1      41.802  29.663  34.495  1.00  0.00     0.074 A 
ATOM     36  C   UNL A   1      41.929  30.088  35.871  1.00  0.00     0.031 C 
ATOM     37  C   UNL A   1      42.534  28.675  33.934  1.00  0.00     0.031 A 
BRANCH  24  38
ATOM     38  C   UNL A   1      40.791  27.325  28.189  1.00  0.00    -0.014 A 
ATOM     39  C   UNL A   1      40.227  26.036  28.120  1.00  0.00     0.009 A 
ATOM     40  C   UNL A   1      41.488  27.823  27.083  1.00  0.00     0.009 A 
ATOM     41  C   UNL A   1      40.405  25.243  26.989  1.00  0.00     0.001 A 
ATOM     42  C   UNL A   1      41.637  27.037  25.938  1.00  0.00     0.001 A 
ATOM     43  C   UNL A   1      41.107  25.746  25.897  1.00  0.00     0.000 A 
ENDBRANCH  24  38
BRANCH  25  44
ATOM     44  C   UNL A   1      39.414  33.355  35.908  1.00  0.00    -0.014 A 
ATOM     45  C   UNL A   1      40.195  34.293  36.589  1.00  0.00     0.009 A 
ATOM     46  C   UNL A   1      38.298  32.820  36.587  1.00  0.00     0.009 A 
ATOM     47  C   UNL A   1      39.846  34.696  37.891  1.00  0.00     0.001 A 
ATOM     48  C   UNL A   1      37.922  33.257  37.861  1.00  0.00     0.001 A 
ATOM     49  C   UNL A   1      38.705  34.194  38.519  1.00  0.00     0.000 A 
ENDBRANCH  25  44
BRANCH  37  50
ATOM     50  C   UNL A   1      43.640  28.102  34.757  1.00  0.00    -0.014 A 
ATOM     51  C   UNL A   1      43.489  26.921  35.493  1.00  0.00     0.009 A 
ATOM     52  C   UNL A   1      44.878  28.766  34.758  1.00  0.00     0.009 A 
ATOM     53  C   UNL A   1      44.568  26.415  36.219  1.00  0.00     0.001 A 
ATOM     54  C   UNL A   1      45.960  28.241  35.455  1.00  0.00     0.001 A 
ATOM     55  C   UNL A   1      45.802  27.067  36.190  1.00  0.00     0.000 A 
ENDBRANCH  37  50
ENDBRANCH  11  12
ENDBRANCH   4   6
ENDBRANCH   3   4
ENDBRANCH   2   3
ENDBRANCH   1   2
BRANCH   1  56
ATOM     56  O   UNL A   1      32.544  29.795  27.302  1.00  0.00    -0.458 OA
BRANCH  56  57
ATOM     57  C   UNL A   1      31.901  28.585  27.219  1.00  0.00     0.365 C 
ATOM     58  O   UNL A   1      31.104  28.188  28.056  1.00  0.00    -0.245 OA
BRANCH  57  59
ATOM     59  C   UNL A   1      32.270  27.803  25.909  1.00  0.00     0.295 C 
ATOM     60  C   UNL A   1      33.520  26.919  26.084  1.00  0.00     0.087 C 
ATOM     61  N   UNL A   1      31.172  26.847  25.526  1.00  0.00    -0.320 N 
ATOM     62  C   UNL A   1      33.069  25.557  25.628  1.00  0.00     0.054 C 
ATOM     63  C   UNL A   1      31.624  25.577  26.087  1.00  0.00     0.188 C 
ATOM     64  H   UNL A   1      30.271  27.142  25.901  1.00  0.00     0.349 HD
ATOM     65  C   UNL A   1      33.788  24.332  26.096  1.00  0.00     0.010 C 
ATOM     66  C   UNL A   1      30.782  24.344  25.842  1.00  0.00     0.065 C 
ATOM     67  C   UNL A   1      33.059  23.079  25.646  1.00  0.00     0.001 C 
ATOM     68  C   UNL A   1      31.572  23.057  26.012  1.00  0.00     0.006 C 
BRANCH  61  69
ATOM     69  C   UNL A   1      30.805  26.810  24.074  1.00  0.00     0.265 C 
BRANCH  69  70
ATOM     70  C   UNL A   1      29.424  27.222  23.425  1.00  0.00     0.093 C 
BRANCH  70  71
ATOM     71  C   UNL A   1      29.183  28.694  23.019  1.00  0.00     0.123 C 
ATOM     72  C   UNL A   1      27.724  29.144  22.992  1.00  0.00     0.034 C 
ATOM     73  O   UNL A   1      29.679  29.116  21.743  1.00  0.00    -0.378 OA
ATOM     74  C   UNL A   1      27.781  30.464  22.237  1.00  0.00     0.031 C 
ATOM     75  C   UNL A   1      29.155  30.457  21.581  1.00  0.00     0.160 C 
ENDBRANCH  70  71
ENDBRANCH  69  70
ENDBRANCH  61  69
ENDBRANCH  57  59
ENDBRANCH  56  57
ENDBRANCH   1  56
TORSDOF 14
ENDMDL
MODEL 2
REMARK VINA RESULT:     -11.0      1.383      2.044
REMARK SMILES O=C(OCCOC(=O)[C@H]1C[C@H]2CCCC[C@@H]2[N@@H+]1CC[C@@H]1CCCO1)c1ccc(-c2c3nc(c(-c4ccccc4)c4ccc([nH]4)c(-c4ccccc4)c4nc(c(-c5ccccc5)c5ccc2[nH]5)C=C4)C=C3)cc1
REMARK SMILES IDX 5 1 4 2 3 3 2 4 1 5 25 6 26 7 72 8 27 9 71 10 28 11 29 12
REMARK SMILES IDX 30 13 65 14 31 15 70 16 64 17 66 18 32 19 69 20 63 21 62 22
REMARK SMILES IDX 33 24 55 25 40 26 54 27 41 28 44 29 53 30 67 31 42 32 43 33
REMARK SMILES IDX 52 35 68 36 45 37 34 38 35 39 39 40 36 41 38 42 37 43 56 44
REMARK SMILES IDX 57 45 61 46 58 47 60 48 59 49 46 50 47 51 51 52 48 53 50 54
REMARK SMILES IDX 49 55 6 56 7 57 8 58 9 59 10 60 17 61 11 62 16 63 12 65
REMARK SMILES IDX 15 66 13 67 14 68 18 69 19 70 20 71 21 72 24 73 22 74 23 75
REMARK H PARENT 66 23 44 34 17 64
REMARK Flexibility Score: inf
ROOT
ATOM      1  C   UNL A   1      31.841  30.647  26.026  1.00  0.00     0.274 C 
ENDROOT
BRANCH   1   2
ATOM      2  C   UNL A   1      31.246  31.769  26.888  1.00  0.00     0.275 C 
BRANCH   2   3
ATOM      3  O   UNL A   1      31.966  33.010  26.844  1.00  0.00    -0.458 OA
BRANCH   3   4
ATOM      4  C   UNL A   1      32.712  33.623  27.789  1.00  0.00     0.338 C 
ATOM      5  O   UNL A   1      32.220  34.602  28.352  1.00  0.00    -0.246 OA
BRANCH   4   6
ATOM      6  C   UNL A   1      34.138  33.271  28.134  1.00  0.00     0.060 A 
ATOM      7  C   UNL A   1      35.313  33.952  27.786  1.00  0.00     0.016 A 
ATOM      8  C   UNL A   1      34.280  32.178  29.000  1.00  0.00     0.016 A 
ATOM      9  C   UNL A   1      36.567  33.640  28.373  1.00  0.00     0.010 A 
ATOM     10  C   UNL A   1      35.504  31.907  29.621  1.00  0.00     0.010 A 
ATOM     11  C   UNL A   1      36.678  32.641  29.337  1.00  0.00    -0.014 A 
BRANCH  11  12
ATOM     12  C   UNL A   1      37.954  32.233  30.037  1.00  0.00     0.031 A 
ATOM     13  C   UNL A   1      38.550  30.922  29.578  1.00  0.00     0.074 A 
ATOM     14  C   UNL A   1      38.481  32.846  31.132  1.00  0.00     0.049 A 
ATOM     15  N   UNL A   1      39.345  30.102  30.209  1.00  0.00    -0.248 NA
ATOM     16  C   UNL A   1      38.145  30.456  28.234  1.00  0.00     0.031 C 
ATOM     17  C   UNL A   1      38.069  34.135  31.702  1.00  0.00     0.029 A 
ATOM     18  N   UNL A   1      39.385  32.370  32.080  1.00  0.00    -0.354 N 
ATOM     19  C   UNL A   1      39.578  29.070  29.310  1.00  0.00     0.074 A 
ATOM     20  C   UNL A   1      38.679  29.247  28.197  1.00  0.00     0.031 C 
ATOM     21  C   UNL A   1      38.554  34.253  32.956  1.00  0.00     0.029 A 
ATOM     22  C   UNL A   1      39.311  33.053  33.293  1.00  0.00     0.049 A 
ATOM     23  H   UNL A   1      40.010  31.629  31.910  1.00  0.00     0.167 HD
ATOM     24  C   UNL A   1      40.561  28.143  29.334  1.00  0.00     0.031 A 
ATOM     25  C   UNL A   1      39.681  32.662  34.540  1.00  0.00     0.031 A 
ATOM     26  C   UNL A   1      41.482  28.009  30.418  1.00  0.00     0.049 A 
ATOM     27  C   UNL A   1      40.491  31.404  34.689  1.00  0.00     0.074 A 
ATOM     28  C   UNL A   1      42.654  27.279  30.483  1.00  0.00     0.029 A 
ATOM     29  N   UNL A   1      41.313  28.624  31.643  1.00  0.00    -0.354 N 
ATOM     30  N   UNL A   1      40.781  30.496  33.795  1.00  0.00    -0.248 NA
ATOM     31  C   UNL A   1      41.070  31.153  36.021  1.00  0.00     0.031 C 
ATOM     32  C   UNL A   1      43.167  27.410  31.777  1.00  0.00     0.029 A 
ATOM     33  C   UNL A   1      42.333  28.251  32.494  1.00  0.00     0.049 A 
ATOM     34  H   UNL A   1      40.577  29.235  31.875  1.00  0.00     0.167 HD
ATOM     35  C   UNL A   1      41.679  29.644  34.419  1.00  0.00     0.074 A 
ATOM     36  C   UNL A   1      41.787  30.063  35.799  1.00  0.00     0.031 C 
ATOM     37  C   UNL A   1      42.427  28.666  33.862  1.00  0.00     0.031 A 
BRANCH  24  38
ATOM     38  C   UNL A   1      40.760  27.327  28.092  1.00  0.00    -0.014 A 
ATOM     39  C   UNL A   1      40.156  26.060  27.984  1.00  0.00     0.009 A 
ATOM     40  C   UNL A   1      41.519  27.813  27.022  1.00  0.00     0.009 A 
ATOM     41  C   UNL A   1      40.351  25.273  26.851  1.00  0.00     0.001 A 
ATOM     42  C   UNL A   1      41.687  27.034  25.874  1.00  0.00     0.001 A 
ATOM     43  C   UNL A   1      41.114  25.764  25.795  1.00  0.00     0.000 A 
ENDBRANCH  24  38
BRANCH  25  44
ATOM     44  C   UNL A   1      39.240  33.305  35.824  1.00  0.00    -0.014 A 
ATOM     45  C   UNL A   1      39.975  34.293  36.485  1.00  0.00     0.009 A 
ATOM     46  C   UNL A   1      38.164  32.717  36.522  1.00  0.00     0.009 A 
ATOM     47  C   UNL A   1      39.620  34.691  37.788  1.00  0.00     0.001 A 
ATOM     48  C   UNL A   1      37.779  33.146  37.797  1.00  0.00     0.001 A 
ATOM     49  C   UNL A   1      38.516  34.132  38.435  1.00  0.00     0.000 A 
ENDBRANCH  25  44
BRANCH  37  50
ATOM     50  C   UNL A   1      43.529  28.100  34.695  1.00  0.00    -0.014 A 
ATOM     51  C   UNL A   1      44.766  28.740  34.832  1.00  0.00     0.009 A 
ATOM     52  C   UNL A   1      43.289  26.900  35.385  1.00  0.00     0.009 A 
ATOM     53  C   UNL A   1      45.748  28.180  35.649  1.00  0.00     0.001 A 
ATOM     54  C   UNL A   1      44.258  26.363  36.225  1.00  0.00     0.001 A 
ATOM     55  C   UNL A   1      45.490  27.001  36.353  1.00  0.00     0.000 A 
ENDBRANCH  37  50
ENDBRANCH  11  12
ENDBRANCH   4   6
ENDBRANCH   3   4
ENDBRANCH   2   3
ENDBRANCH   1   2
BRANCH   1  56
ATOM     56  O   UNL A   1      32.445  29.617  26.827  1.00  0.00    -0.458 OA
BRANCH  56  57
ATOM     57  C   UNL A   1      31.765  28.441  27.020  1.00  0.00     0.365 C 
ATOM     58  O   UNL A   1      31.102  28.204  28.018  1.00  0.00    -0.245 OA
BRANCH  57  59
ATOM     59  C   UNL A   1      31.898  27.469  25.795  1.00  0.00     0.295 C 
ATOM     60  C   UNL A   1      33.363  27.096  25.495  1.00  0.00     0.087 C 
ATOM     61  N   UNL A   1      31.215  26.155  26.074  1.00  0.00    -0.320 N 
ATOM     62  C   UNL A   1      33.357  25.591  25.469  1.00  0.00     0.054 C 
ATOM     63  C   UNL A   1      32.309  25.300  26.526  1.00  0.00     0.188 C 
ATOM     64  H   UNL A   1      30.482  26.256  26.776  1.00  0.00     0.349 HD
ATOM     65  C   UNL A   1      34.623  24.831  25.711  1.00  0.00     0.010 C 
ATOM     66  C   UNL A   1      32.003  23.853  26.846  1.00  0.00     0.065 C 
ATOM     67  C   UNL A   1      34.343  23.342  25.802  1.00  0.00     0.001 C 
ATOM     68  C   UNL A   1      33.241  22.973  26.800  1.00  0.00     0.006 C 
BRANCH  61  69
ATOM     69  C   UNL A   1      30.382  25.595  24.963  1.00  0.00     0.265 C 
BRANCH  69  70
ATOM     70  C   UNL A   1      30.681  25.669  23.412  1.00  0.00     0.093 C 
BRANCH  70  71
ATOM     71  C   UNL A   1      31.411  24.495  22.720  1.00  0.00     0.123 C 
ATOM     72  C   UNL A   1      31.359  23.157  23.453  1.00  0.00     0.034 C 
ATOM     73  O   UNL A   1      32.806  24.660  22.438  1.00  0.00    -0.378 OA
ATOM     74  C   UNL A   1      32.424  22.332  22.746  1.00  0.00     0.031 C 
ATOM     75  C   UNL A   1      33.231  23.359  21.965  1.00  0.00     0.160 C 
ENDBRANCH  70  71
ENDBRANCH  69  70
ENDBRANCH  61  69
ENDBRANCH  57  59
ENDBRANCH  56  57
ENDBRANCH   1  56
TORSDOF 14
ENDMDL
MODEL 3
REMARK VINA RESULT:     -10.9      5.551     10.258
REMARK SMILES O=C(OCCOC(=O)[C@H]1C[C@H]2CCCC[C@@H]2[N@@H+]1CC[C@@H]1CCCO1)c1ccc(-c2c3nc(c(-c4ccccc4)c4ccc([nH]4)c(-c4ccccc4)c4nc(c(-c5ccccc5)c5ccc2[nH]5)C=C4)C=C3)cc1
REMARK SMILES IDX 5 1 4 2 3 3 2 4 1 5 25 6 26 7 72 8 27 9 71 10 28 11 29 12
REMARK SMILES IDX 30 13 65 14 31 15 70 16 64 17 66 18 32 19 69 20 63 21 62 22
REMARK SMILES IDX 33 24 55 25 40 26 54 27 41 28 44 29 53 30 67 31 42 32 43 33
REMARK SMILES IDX 52 35 68 36 45 37 34 38 35 39 39 40 36 41 38 42 37 43 56 44
REMARK SMILES IDX 57 45 61 46 58 47 60 48 59 49 46 50 47 51 51 52 48 53 50 54
REMARK SMILES IDX 49 55 6 56 7 57 8 58 9 59 10 60 17 61 11 62 16 63 12 65
REMARK SMILES IDX 15 66 13 67 14 68 18 69 19 70 20 71 21 72 24 73 22 74 23 75
REMARK H PARENT 66 23 44 34 17 64
REMARK Flexibility Score: inf
ROOT
ATOM      1  C   UNL A   1      38.567  21.070  25.708  1.00  0.00     0.274 C 
ENDROOT
BRANCH   1   2
ATOM      2  C   UNL A   1      38.816  19.603  25.331  1.00  0.00     0.275 C 
BRANCH   2   3
ATOM      3  O   UNL A   1      40.087  19.082  25.747  1.00  0.00    -0.458 OA
BRANCH   3   4
ATOM      4  C   UNL A   1      41.291  19.687  25.844  1.00  0.00     0.338 C 
ATOM      5  O   UNL A   1      42.264  19.093  25.376  1.00  0.00    -0.246 OA
BRANCH   4   6
ATOM      6  C   UNL A   1      41.559  20.980  26.575  1.00  0.00     0.060 A 
ATOM      7  C   UNL A   1      41.583  21.212  27.957  1.00  0.00     0.016 A 
ATOM      8  C   UNL A   1      41.928  22.053  25.752  1.00  0.00     0.016 A 
ATOM      9  C   UNL A   1      42.077  22.422  28.509  1.00  0.00     0.010 A 
ATOM     10  C   UNL A   1      42.467  23.224  26.296  1.00  0.00     0.010 A 
ATOM     11  C   UNL A   1      42.571  23.434  27.690  1.00  0.00    -0.014 A 
BRANCH  11  12
ATOM     12  C   UNL A   1      43.131  24.755  28.166  1.00  0.00     0.031 A 
ATOM     13  C   UNL A   1      42.112  25.852  28.370  1.00  0.00     0.074 A 
ATOM     14  C   UNL A   1      44.455  25.066  28.243  1.00  0.00     0.049 A 
ATOM     15  N   UNL A   1      42.267  27.147  28.354  1.00  0.00    -0.248 NA
ATOM     16  C   UNL A   1      40.713  25.414  28.569  1.00  0.00     0.031 C 
ATOM     17  C   UNL A   1      45.585  24.138  28.116  1.00  0.00     0.029 A 
ATOM     18  N   UNL A   1      45.084  26.308  28.279  1.00  0.00    -0.354 N 
ATOM     19  C   UNL A   1      41.002  27.661  28.607  1.00  0.00     0.074 A 
ATOM     20  C   UNL A   1      40.065  26.566  28.548  1.00  0.00     0.031 C 
ATOM     21  C   UNL A   1      46.720  24.833  27.894  1.00  0.00     0.029 A 
ATOM     22  C   UNL A   1      46.413  26.258  27.858  1.00  0.00     0.049 A 
ATOM     23  H   UNL A   1      44.638  27.136  28.571  1.00  0.00     0.167 HD
ATOM     24  C   UNL A   1      40.667  28.907  29.007  1.00  0.00     0.031 A 
ATOM     25  C   UNL A   1      47.210  27.237  27.359  1.00  0.00     0.031 A 
ATOM     26  C   UNL A   1      41.613  29.973  29.115  1.00  0.00     0.049 A 
ATOM     27  C   UNL A   1      46.733  28.661  27.438  1.00  0.00     0.074 A 
ATOM     28  C   UNL A   1      41.469  31.210  29.714  1.00  0.00     0.029 A 
ATOM     29  N   UNL A   1      42.889  29.917  28.588  1.00  0.00    -0.354 N 
ATOM     30  N   UNL A   1      45.559  29.124  27.779  1.00  0.00    -0.248 NA
ATOM     31  C   UNL A   1      47.725  29.702  27.110  1.00  0.00     0.031 C 
ATOM     32  C   UNL A   1      42.649  31.929  29.498  1.00  0.00     0.029 A 
ATOM     33  C   UNL A   1      43.531  31.119  28.802  1.00  0.00     0.049 A 
ATOM     34  H   UNL A   1      43.280  29.140  28.130  1.00  0.00     0.167 HD
ATOM     35  C   UNL A   1      45.712  30.501  27.834  1.00  0.00     0.074 A 
ATOM     36  C   UNL A   1      47.046  30.809  27.370  1.00  0.00     0.031 C 
ATOM     37  C   UNL A   1      44.851  31.417  28.330  1.00  0.00     0.031 A 
BRANCH  24  38
ATOM     38  C   UNL A   1      39.263  29.115  29.490  1.00  0.00    -0.014 A 
ATOM     39  C   UNL A   1      38.934  28.823  30.828  1.00  0.00     0.009 A 
ATOM     40  C   UNL A   1      38.274  29.621  28.640  1.00  0.00     0.009 A 
ATOM     41  C   UNL A   1      37.630  28.983  31.290  1.00  0.00     0.001 A 
ATOM     42  C   UNL A   1      36.974  29.809  29.115  1.00  0.00     0.001 A 
ATOM     43  C   UNL A   1      36.651  29.479  30.433  1.00  0.00     0.000 A 
ENDBRANCH  24  38
BRANCH  25  44
ATOM     44  C   UNL A   1      48.490  27.023  26.603  1.00  0.00    -0.014 A 
ATOM     45  C   UNL A   1      48.542  26.777  25.228  1.00  0.00     0.009 A 
ATOM     46  C   UNL A   1      49.670  26.816  27.348  1.00  0.00     0.009 A 
ATOM     47  C   UNL A   1      49.746  26.367  24.626  1.00  0.00     0.001 A 
ATOM     48  C   UNL A   1      50.880  26.456  26.743  1.00  0.00     0.001 A 
ATOM     49  C   UNL A   1      50.915  26.224  25.376  1.00  0.00     0.000 A 
ENDBRANCH  25  44
BRANCH  37  50
ATOM     50  C   UNL A   1      45.381  32.796  28.545  1.00  0.00    -0.014 A 
ATOM     51  C   UNL A   1      45.219  33.814  27.597  1.00  0.00     0.009 A 
ATOM     52  C   UNL A   1      46.031  33.076  29.758  1.00  0.00     0.009 A 
ATOM     53  C   UNL A   1      45.708  35.093  27.866  1.00  0.00     0.001 A 
ATOM     54  C   UNL A   1      46.487  34.360  30.035  1.00  0.00     0.001 A 
ATOM     55  C   UNL A   1      46.328  35.367  29.086  1.00  0.00     0.000 A 
ENDBRANCH  37  50
ENDBRANCH  11  12
ENDBRANCH   4   6
ENDBRANCH   3   4
ENDBRANCH   2   3
ENDBRANCH   1   2
BRANCH   1  56
ATOM     56  O   UNL A   1      37.187  21.441  25.541  1.00  0.00    -0.458 OA
BRANCH  56  57
ATOM     57  C   UNL A   1      36.843  22.767  25.616  1.00  0.00     0.365 C 
ATOM     58  O   UNL A   1      37.650  23.678  25.515  1.00  0.00    -0.245 OA
BRANCH  57  59
ATOM     59  C   UNL A   1      35.296  22.971  25.792  1.00  0.00     0.295 C 
ATOM     60  C   UNL A   1      34.891  24.457  25.749  1.00  0.00     0.087 C 
ATOM     61  N   UNL A   1      34.538  22.332  24.659  1.00  0.00    -0.320 N 
ATOM     62  C   UNL A   1      33.812  24.510  24.700  1.00  0.00     0.054 C 
ATOM     63  C   UNL A   1      34.306  23.444  23.741  1.00  0.00     0.188 C 
ATOM     64  H   UNL A   1      35.071  21.576  24.230  1.00  0.00     0.349 HD
ATOM     65  C   UNL A   1      33.508  25.796  23.999  1.00  0.00     0.010 C 
ATOM     66  C   UNL A   1      33.500  23.184  22.487  1.00  0.00     0.065 C 
ATOM     67  C   UNL A   1      32.510  25.571  22.878  1.00  0.00     0.001 C 
ATOM     68  C   UNL A   1      32.906  24.455  21.904  1.00  0.00     0.006 C 
BRANCH  61  69
ATOM     69  C   UNL A   1      33.316  21.552  25.039  1.00  0.00     0.265 C 
BRANCH  69  70
ATOM     70  C   UNL A   1      33.260  20.073  25.593  1.00  0.00     0.093 C 
BRANCH  70  71
ATOM     71  C   UNL A   1      32.988  18.904  24.619  1.00  0.00     0.123 C 
ATOM     72  C   UNL A   1      34.172  17.980  24.344  1.00  0.00     0.034 C 
ATOM     73  O   UNL A   1      32.520  19.234  23.306  1.00  0.00    -0.378 OA
ATOM     74  C   UNL A   1      33.721  17.188  23.126  1.00  0.00     0.031 C 
ATOM     75  C   UNL A   1      32.529  17.973  22.594  1.00  0.00     0.160 C 
ENDBRANCH  70  71
ENDBRANCH  69  70
ENDBRANCH  61  69
ENDBRANCH  57  59
ENDBRANCH  56  57
ENDBRANCH   1  56
TORSDOF 14
ENDMDL
