MODEL 1
REMARK VINA RESULT:     -11.0      0.000      0.000
REMARK SMILES Cc1cc(C)cc(-c2cccc(Cl)c2C(=O)OCCOC(=O)c2ccc(-c3c4nc(c(-c5ccccc5)c5ccc([nH]5)c(-c5ccccc5)c5nc(c(-c6ccccc6)c6ccc3[nH]6)C=C5)C=C4)cc2)c1
REMARK SMILES IDX 19 1 18 2 17 3 15 4 16 5 14 6 8 7 9 8 10 9 12 10 11 11 13 12
REMARK SMILES IDX 7 13 1 14 2 15 3 16 71 17 4 18 5 19 6 20 20 21 21 22 22 23
REMARK SMILES IDX 23 24 24 25 70 26 25 27 69 28 26 29 27 30 28 31 63 32 29 33
REMARK SMILES IDX 68 34 62 35 64 36 30 37 67 38 61 39 60 40 31 42 53 43 38 44
REMARK SMILES IDX 52 45 39 46 42 47 51 48 65 49 40 50 41 51 50 53 66 54 43 55
REMARK SMILES IDX 32 56 33 57 37 58 34 59 36 60 35 61 54 62 55 63 59 64 56 65
REMARK SMILES IDX 58 66 57 67 44 68 45 69 49 70 46 71 48 72 47 73
REMARK H PARENT 64 41 42 52
REMARK Flexibility Score: inf
ROOT
ATOM      1  C   UNL A   1      34.529  21.853  25.914  1.00  0.00     0.275 C 
ENDROOT
BRANCH   1   2
ATOM      2  C   UNL A   1      33.924  22.956  26.776  1.00  0.00     0.275 C 
BRANCH   2   3
ATOM      3  O   UNL A   1      33.906  24.205  26.046  1.00  0.00    -0.458 OA
BRANCH   3   4
ATOM      4  C   UNL A   1      32.736  24.531  25.440  1.00  0.00     0.340 C 
ATOM      5  O   UNL A   1      31.613  24.331  25.874  1.00  0.00    -0.246 OA
BRANCH   4   6
ATOM      6  C   UNL A   1      32.983  25.073  24.082  1.00  0.00     0.086 A 
ATOM      7  C   UNL A   1      33.022  26.478  23.814  1.00  0.00    -0.002 A 
ATOM      8  C   UNL A   1      32.973  26.887  22.471  1.00  0.00     0.010 A 
ATOM      9  C   UNL A   1      32.903  25.953  21.431  1.00  0.00     0.002 A 
ATOM     10  C   UNL A   1      32.941  24.143  23.026  1.00  0.00     0.056 A 
ATOM     11  C   UNL A   1      32.902  24.588  21.706  1.00  0.00     0.021 A 
ATOM     12  Cl  UNL A   1      32.829  22.428  23.267  1.00  0.00    -0.083 Cl
BRANCH   7  13
ATOM     13  C   UNL A   1      32.877  27.506  24.867  1.00  0.00    -0.017 A 
ATOM     14  C   UNL A   1      35.688  29.264  27.768  1.00  0.00     0.044 C 
ATOM     15  C   UNL A   1      34.581  29.306  26.748  1.00  0.00    -0.050 A 
ATOM     16  C   UNL A   1      33.386  30.575  26.888  1.00  0.00     0.006 A 
ATOM     17  C   UNL A   1      34.345  27.854  25.774  1.00  0.00     0.012 A 
ATOM     18  C   UNL A   1      31.780  30.381  26.073  1.00  0.00    -0.050 A 
ATOM     19  C   UNL A   1      31.029  31.688  26.502  1.00  0.00     0.044 C 
ATOM     20  C   UNL A   1      31.492  28.676  25.002  1.00  0.00     0.012 A 
ENDBRANCH   7  13
ENDBRANCH   4   6
ENDBRANCH   3   4
ENDBRANCH   2   3
ENDBRANCH   1   2
BRANCH   1  21
ATOM     21  O   UNL A   1      35.783  21.467  26.497  1.00  0.00    -0.458 OA
BRANCH  21  22
ATOM     22  C   UNL A   1      36.717  21.199  25.568  1.00  0.00     0.338 C 
ATOM     23  O   UNL A   1      36.672  20.354  24.686  1.00  0.00    -0.246 OA
BRANCH  22  24
ATOM     24  C   UNL A   1      37.851  22.110  25.650  1.00  0.00     0.060 A 
ATOM     25  C   UNL A   1      39.376  21.660  26.498  1.00  0.00     0.016 A 
ATOM     26  C   UNL A   1      37.377  23.799  25.630  1.00  0.00     0.016 A 
ATOM     27  C   UNL A   1      40.422  23.146  27.400  1.00  0.00     0.010 A 
ATOM     28  C   UNL A   1      38.340  25.096  26.367  1.00  0.00     0.010 A 
ATOM     29  C   UNL A   1      39.853  24.853  27.241  1.00  0.00    -0.014 A 
BRANCH  29  30
ATOM     30  C   UNL A   1      40.725  26.045  27.624  1.00  0.00     0.031 A 
ATOM     31  C   UNL A   1      40.247  27.127  28.581  1.00  0.00     0.074 A 
ATOM     32  C   UNL A   1      41.912  26.286  27.014  1.00  0.00     0.049 A 
ATOM     33  N   UNL A   1      40.741  28.329  28.786  1.00  0.00    -0.248 NA
ATOM     34  C   UNL A   1      39.014  26.875  29.334  1.00  0.00     0.031 C 
ATOM     35  C   UNL A   1      42.482  25.507  25.929  1.00  0.00     0.029 A 
ATOM     36  N   UNL A   1      42.870  27.262  27.205  1.00  0.00    -0.354 N 
ATOM     37  C   UNL A   1      39.809  29.004  29.571  1.00  0.00     0.074 A 
ATOM     38  C   UNL A   1      38.701  28.092  29.758  1.00  0.00     0.031 C 
ATOM     39  C   UNL A   1      43.726  25.899  25.656  1.00  0.00     0.029 A 
ATOM     40  C   UNL A   1      44.010  27.076  26.447  1.00  0.00     0.049 A 
ATOM     41  H   UNL A   1      42.752  28.018  27.822  1.00  0.00     0.167 HD
ATOM     42  C   UNL A   1      39.877  30.245  30.121  1.00  0.00     0.031 A 
ATOM     43  C   UNL A   1      45.159  27.769  26.345  1.00  0.00     0.031 A 
ATOM     44  C   UNL A   1      41.043  31.095  30.072  1.00  0.00     0.049 A 
ATOM     45  C   UNL A   1      45.295  29.041  27.112  1.00  0.00     0.074 A 
ATOM     46  C   UNL A   1      41.257  32.307  30.709  1.00  0.00     0.029 A 
ATOM     47  N   UNL A   1      42.212  30.797  29.388  1.00  0.00    -0.354 N 
ATOM     48  N   UNL A   1      44.402  29.646  27.850  1.00  0.00    -0.248 NA
ATOM     49  C   UNL A   1      46.587  29.730  27.023  1.00  0.00     0.031 C 
ATOM     50  C   UNL A   1      42.553  32.745  30.405  1.00  0.00     0.029 A 
ATOM     51  C   UNL A   1      43.159  31.786  29.612  1.00  0.00     0.049 A 
ATOM     52  H   UNL A   1      42.351  30.000  28.826  1.00  0.00     0.167 HD
ATOM     53  C   UNL A   1      45.025  30.786  28.328  1.00  0.00     0.074 A 
ATOM     54  C   UNL A   1      46.384  30.766  27.822  1.00  0.00     0.031 C 
ATOM     55  C   UNL A   1      44.507  31.766  29.106  1.00  0.00     0.031 A 
BRANCH  42  56
ATOM     56  C   UNL A   1      38.658  30.751  30.863  1.00  0.00    -0.014 A 
ATOM     57  C   UNL A   1      38.489  30.533  32.240  1.00  0.00     0.009 A 
ATOM     58  C   UNL A   1      37.665  31.470  30.174  1.00  0.00     0.009 A 
ATOM     59  C   UNL A   1      37.323  30.947  32.891  1.00  0.00     0.001 A 
ATOM     60  C   UNL A   1      36.521  31.924  30.837  1.00  0.00     0.001 A 
ATOM     61  C   UNL A   1      36.341  31.643  32.190  1.00  0.00     0.000 A 
ENDBRANCH  42  56
BRANCH  43  62
ATOM     62  C   UNL A   1      46.278  27.247  25.508  1.00  0.00    -0.014 A 
ATOM     63  C   UNL A   1      46.546  27.829  24.258  1.00  0.00     0.009 A 
ATOM     64  C   UNL A   1      47.112  26.211  25.961  1.00  0.00     0.009 A 
ATOM     65  C   UNL A   1      47.609  27.375  23.474  1.00  0.00     0.001 A 
ATOM     66  C   UNL A   1      48.200  25.788  25.193  1.00  0.00     0.001 A 
ATOM     67  C   UNL A   1      48.442  26.363  23.947  1.00  0.00     0.000 A 
ENDBRANCH  43  62
BRANCH  55  68
ATOM     68  C   UNL A   1      45.449  32.866  29.499  1.00  0.00    -0.014 A 
ATOM     69  C   UNL A   1      45.598  34.017  28.710  1.00  0.00     0.009 A 
ATOM     70  C   UNL A   1      46.223  32.726  30.660  1.00  0.00     0.009 A 
ATOM     71  C   UNL A   1      46.547  34.984  29.050  1.00  0.00     0.001 A 
ATOM     72  C   UNL A   1      47.147  33.710  31.013  1.00  0.00     0.001 A 
ATOM     73  C   UNL A   1      47.318  34.830  30.201  1.00  0.00     0.000 A 
ENDBRANCH  55  68
ENDBRANCH  29  30
ENDBRANCH  22  24
ENDBRANCH  21  22
ENDBRANCH   1  21
TORSDOF 12
ENDMDL
MODEL 2
REMARK VINA RESULT:     -10.9      3.601      8.325
REMARK SMILES Cc1cc(C)cc(-c2cccc(Cl)c2C(=O)OCCOC(=O)c2ccc(-c3c4nc(c(-c5ccccc5)c5ccc([nH]5)c(-c5ccccc5)c5nc(c(-c6ccccc6)c6ccc3[nH]6)C=C5)C=C4)cc2)c1
REMARK SMILES IDX 19 1 18 2 17 3 15 4 16 5 14 6 8 7 9 8 10 9 12 10 11 11 13 12
REMARK SMILES IDX 7 13 1 14 2 15 3 16 71 17 4 18 5 19 6 20 20 21 21 22 22 23
REMARK SMILES IDX 23 24 24 25 70 26 25 27 69 28 26 29 27 30 28 31 63 32 29 33
REMARK SMILES IDX 68 34 62 35 64 36 30 37 67 38 61 39 60 40 31 42 53 43 38 44
REMARK SMILES IDX 52 45 39 46 42 47 51 48 65 49 40 50 41 51 50 53 66 54 43 55
REMARK SMILES IDX 32 56 33 57 37 58 34 59 36 60 35 61 54 62 55 63 59 64 56 65
REMARK SMILES IDX 58 66 57 67 44 68 45 69 49 70 46 71 48 72 47 73
REMARK H PARENT 64 41 42 52
REMARK Flexibility Score: inf
ROOT
ATOM      1  C   UNL A   1      39.171  22.547  26.560  1.00  0.00     0.275 C 
ENDROOT
BRANCH   1   2
ATOM      2  C   UNL A   1      38.157  23.647  26.261  1.00  0.00     0.275 C 
BRANCH   2   3
ATOM      3  O   UNL A   1      36.862  23.066  25.979  1.00  0.00    -0.458 OA
BRANCH   3   4
ATOM      4  C   UNL A   1      36.608  22.761  24.681  1.00  0.00     0.340 C 
ATOM      5  O   UNL A   1      37.118  23.279  23.701  1.00  0.00    -0.246 OA
BRANCH   4   6
ATOM      6  C   UNL A   1      35.508  21.772  24.582  1.00  0.00     0.086 A 
ATOM      7  C   UNL A   1      34.131  22.159  24.549  1.00  0.00    -0.002 A 
ATOM      8  C   UNL A   1      33.168  21.156  24.744  1.00  0.00     0.010 A 
ATOM      9  C   UNL A   1      33.540  19.823  24.949  1.00  0.00     0.002 A 
ATOM     10  C   UNL A   1      35.869  20.423  24.761  1.00  0.00     0.056 A 
ATOM     11  C   UNL A   1      34.883  19.455  24.943  1.00  0.00     0.021 A 
ATOM     12  Cl  UNL A   1      37.514  19.882  24.875  1.00  0.00    -0.083 Cl
BRANCH   7  13
ATOM     13  C   UNL A   1      33.687  23.569  24.555  1.00  0.00    -0.017 A 
ATOM     14  C   UNL A   1      31.809  26.148  21.516  1.00  0.00     0.044 C 
ATOM     15  C   UNL A   1      31.985  25.581  22.900  1.00  0.00    -0.050 A 
ATOM     16  C   UNL A   1      31.560  26.595  24.260  1.00  0.00     0.006 A 
ATOM     17  C   UNL A   1      32.983  24.134  23.043  1.00  0.00     0.012 A 
ATOM     18  C   UNL A   1      32.233  26.216  25.899  1.00  0.00    -0.050 A 
ATOM     19  C   UNL A   1      31.655  27.381  26.774  1.00  0.00     0.044 C 
ATOM     20  C   UNL A   1      33.434  24.580  26.045  1.00  0.00     0.012 A 
ENDBRANCH   7  13
ENDBRANCH   4   6
ENDBRANCH   3   4
ENDBRANCH   2   3
ENDBRANCH   1   2
BRANCH   1  21
ATOM     21  O   UNL A   1      40.134  23.069  27.489  1.00  0.00    -0.458 OA
BRANCH  21  22
ATOM     22  C   UNL A   1      41.381  23.069  26.984  1.00  0.00     0.338 C 
ATOM     23  O   UNL A   1      42.006  22.118  26.538  1.00  0.00    -0.246 OA
BRANCH  22  24
ATOM     24  C   UNL A   1      41.956  24.406  26.940  1.00  0.00     0.060 A 
ATOM     25  C   UNL A   1      41.742  25.491  25.518  1.00  0.00     0.016 A 
ATOM     26  C   UNL A   1      43.430  24.551  27.882  1.00  0.00     0.016 A 
ATOM     27  C   UNL A   1      43.245  26.784  25.088  1.00  0.00     0.010 A 
ATOM     28  C   UNL A   1      44.704  25.736  27.532  1.00  0.00     0.010 A 
ATOM     29  C   UNL A   1      44.677  26.874  26.185  1.00  0.00    -0.014 A 
BRANCH  29  30
ATOM     30  C   UNL A   1      45.695  28.009  26.110  1.00  0.00     0.031 A 
ATOM     31  C   UNL A   1      47.173  27.758  25.854  1.00  0.00     0.074 A 
ATOM     32  C   UNL A   1      45.363  29.286  26.421  1.00  0.00     0.049 A 
ATOM     33  N   UNL A   1      48.196  28.565  26.040  1.00  0.00    -0.248 NA
ATOM     34  C   UNL A   1      47.573  26.412  25.427  1.00  0.00     0.031 C 
ATOM     35  C   UNL A   1      44.065  29.736  26.888  1.00  0.00     0.029 A 
ATOM     36  N   UNL A   1      46.087  30.462  26.400  1.00  0.00    -0.354 N 
ATOM     37  C   UNL A   1      49.340  27.786  25.887  1.00  0.00     0.074 A 
ATOM     38  C   UNL A   1      48.881  26.435  25.646  1.00  0.00     0.031 C 
ATOM     39  C   UNL A   1      44.010  31.066  26.954  1.00  0.00     0.029 A 
ATOM     40  C   UNL A   1      45.331  31.584  26.676  1.00  0.00     0.049 A 
ATOM     41  H   UNL A   1      47.052  30.496  26.208  1.00  0.00     0.167 HD
ATOM     42  C   UNL A   1      50.648  28.155  25.904  1.00  0.00     0.031 A 
ATOM     43  C   UNL A   1      45.634  32.894  26.741  1.00  0.00     0.031 A 
ATOM     44  C   UNL A   1      51.107  29.521  25.983  1.00  0.00     0.049 A 
ATOM     45  C   UNL A   1      47.056  33.306  26.564  1.00  0.00     0.074 A 
ATOM     46  C   UNL A   1      52.400  30.007  25.873  1.00  0.00     0.029 A 
ATOM     47  N   UNL A   1      50.283  30.626  26.140  1.00  0.00    -0.354 N 
ATOM     48  N   UNL A   1      48.111  32.548  26.413  1.00  0.00    -0.248 NA
ATOM     49  C   UNL A   1      47.333  34.747  26.578  1.00  0.00     0.031 C 
ATOM     50  C   UNL A   1      52.359  31.404  25.970  1.00  0.00     0.029 A 
ATOM     51  C   UNL A   1      51.036  31.791  26.100  1.00  0.00     0.049 A 
ATOM     52  H   UNL A   1      49.306  30.590  26.262  1.00  0.00     0.167 HD
ATOM     53  C   UNL A   1      49.181  33.419  26.301  1.00  0.00     0.074 A 
ATOM     54  C   UNL A   1      48.640  34.762  26.366  1.00  0.00     0.031 C 
ATOM     55  C   UNL A   1      50.496  33.124  26.168  1.00  0.00     0.031 A 
BRANCH  42  56
ATOM     56  C   UNL A   1      51.687  27.060  25.795  1.00  0.00    -0.014 A 
ATOM     57  C   UNL A   1      52.200  26.648  24.554  1.00  0.00     0.009 A 
ATOM     58  C   UNL A   1      52.173  26.436  26.958  1.00  0.00     0.009 A 
ATOM     59  C   UNL A   1      53.107  25.588  24.472  1.00  0.00     0.001 A 
ATOM     60  C   UNL A   1      53.115  25.406  26.876  1.00  0.00     0.001 A 
ATOM     61  C   UNL A   1      53.565  24.968  25.633  1.00  0.00     0.000 A 
ENDBRANCH  42  56
BRANCH  43  62
ATOM     62  C   UNL A   1      44.557  33.903  26.953  1.00  0.00    -0.014 A 
ATOM     63  C   UNL A   1      43.861  34.424  25.849  1.00  0.00     0.009 A 
ATOM     64  C   UNL A   1      44.181  34.316  28.242  1.00  0.00     0.009 A 
ATOM     65  C   UNL A   1      42.827  35.345  26.030  1.00  0.00     0.001 A 
ATOM     66  C   UNL A   1      43.119  35.206  28.421  1.00  0.00     0.001 A 
ATOM     67  C   UNL A   1      42.449  35.727  27.315  1.00  0.00     0.000 A 
ENDBRANCH  43  62
BRANCH  55  68
ATOM     68  C   UNL A   1      51.426  34.294  26.028  1.00  0.00    -0.014 A 
ATOM     69  C   UNL A   1      51.727  34.842  24.772  1.00  0.00     0.009 A 
ATOM     70  C   UNL A   1      52.035  34.828  27.173  1.00  0.00     0.009 A 
ATOM     71  C   UNL A   1      52.664  35.871  24.661  1.00  0.00     0.001 A 
ATOM     72  C   UNL A   1      52.947  35.878  27.060  1.00  0.00     0.001 A 
ATOM     73  C   UNL A   1      53.271  36.389  25.804  1.00  0.00     0.000 A 
ENDBRANCH  55  68
ENDBRANCH  29  30
ENDBRANCH  22  24
ENDBRANCH  21  22
ENDBRANCH   1  21
TORSDOF 12
ENDMDL
MODEL 3
REMARK VINA RESULT:     -10.8      3.481      5.928
REMARK SMILES Cc1cc(C)cc(-c2cccc(Cl)c2C(=O)OCCOC(=O)c2ccc(-c3c4nc(c(-c5ccccc5)c5ccc([nH]5)c(-c5ccccc5)c5nc(c(-c6ccccc6)c6ccc3[nH]6)C=C5)C=C4)cc2)c1
REMARK SMILES IDX 19 1 18 2 17 3 15 4 16 5 14 6 8 7 9 8 10 9 12 10 11 11 13 12
REMARK SMILES IDX 7 13 1 14 2 15 3 16 71 17 4 18 5 19 6 20 20 21 21 22 22 23
REMARK SMILES IDX 23 24 24 25 70 26 25 27 69 28 26 29 27 30 28 31 63 32 29 33
REMARK SMILES IDX 68 34 62 35 64 36 30 37 67 38 61 39 60 40 31 42 53 43 38 44
REMARK SMILES IDX 52 45 39 46 42 47 51 48 65 49 40 50 41 51 50 53 66 54 43 55
REMARK SMILES IDX 32 56 33 57 37 58 34 59 36 60 35 61 54 62 55 63 59 64 56 65
REMARK SMILES IDX 58 66 57 67 44 68 45 69 49 70 46 71 48 72 47 73
REMARK H PARENT 64 41 42 52
REMARK Flexibility Score: inf
ROOT
ATOM      1  C   UNL A   1      38.691  22.714  26.306  1.00  0.00     0.275 C 
ENDROOT
BRANCH   1   2
ATOM      2  C   UNL A   1      37.722  23.799  25.851  1.00  0.00     0.275 C 
BRANCH   2   3
ATOM      3  O   UNL A   1      36.391  23.250  25.709  1.00  0.00    -0.458 OA
BRANCH   3   4
ATOM      4  C   UNL A   1      36.002  22.927  24.450  1.00  0.00     0.340 C 
ATOM      5  O   UNL A   1      36.500  23.330  23.411  1.00  0.00    -0.246 OA
BRANCH   4   6
ATOM      6  C   UNL A   1      34.781  22.087  24.478  1.00  0.00     0.086 A 
ATOM      7  C   UNL A   1      33.466  22.647  24.411  1.00  0.00    -0.002 A 
ATOM      8  C   UNL A   1      32.385  21.811  24.731  1.00  0.00     0.010 A 
ATOM      9  C   UNL A   1      32.584  20.473  25.091  1.00  0.00     0.002 A 
ATOM     10  C   UNL A   1      34.967  20.732  24.814  1.00  0.00     0.056 A 
ATOM     11  C   UNL A   1      33.867  19.932  25.118  1.00  0.00     0.021 A 
ATOM     12  Cl  UNL A   1      36.528  19.995  24.978  1.00  0.00    -0.083 Cl
BRANCH   7  13
ATOM     13  C   UNL A   1      33.211  24.095  24.251  1.00  0.00    -0.017 A 
ATOM     14  C   UNL A   1      32.334  27.331  27.109  1.00  0.00     0.044 C 
ATOM     15  C   UNL A   1      33.013  26.718  25.914  1.00  0.00    -0.050 A 
ATOM     16  C   UNL A   1      33.476  27.779  24.603  1.00  0.00     0.006 A 
ATOM     17  C   UNL A   1      32.902  24.965  25.751  1.00  0.00     0.012 A 
ATOM     18  C   UNL A   1      33.782  27.082  22.958  1.00  0.00    -0.050 A 
ATOM     19  C   UNL A   1      34.102  28.360  22.109  1.00  0.00     0.044 C 
ATOM     20  C   UNL A   1      33.592  25.066  22.763  1.00  0.00     0.012 A 
ENDBRANCH   7  13
ENDBRANCH   4   6
ENDBRANCH   3   4
ENDBRANCH   2   3
ENDBRANCH   1   2
BRANCH   1  21
ATOM     21  O   UNL A   1      39.644  23.313  27.199  1.00  0.00    -0.458 OA
BRANCH  21  22
ATOM     22  C   UNL A   1      40.898  23.259  26.718  1.00  0.00     0.338 C 
ATOM     23  O   UNL A   1      41.460  22.305  26.201  1.00  0.00    -0.246 OA
BRANCH  22  24
ATOM     24  C   UNL A   1      41.573  24.547  26.801  1.00  0.00     0.060 A 
ATOM     25  C   UNL A   1      41.593  25.704  25.420  1.00  0.00     0.016 A 
ATOM     26  C   UNL A   1      42.945  24.534  27.895  1.00  0.00     0.016 A 
ATOM     27  C   UNL A   1      43.226  26.891  25.213  1.00  0.00     0.010 A 
ATOM     28  C   UNL A   1      44.334  25.627  27.738  1.00  0.00     0.010 A 
ATOM     29  C   UNL A   1      44.536  26.820  26.454  1.00  0.00    -0.014 A 
BRANCH  29  30
ATOM     30  C   UNL A   1      45.638  27.872  26.541  1.00  0.00     0.031 A 
ATOM     31  C   UNL A   1      45.342  29.336  26.834  1.00  0.00     0.074 A 
ATOM     32  C   UNL A   1      46.921  27.590  26.211  1.00  0.00     0.049 A 
ATOM     33  N   UNL A   1      46.114  30.388  26.665  1.00  0.00    -0.248 NA
ATOM     34  C   UNL A   1      43.989  29.682  27.283  1.00  0.00     0.031 C 
ATOM     35  C   UNL A   1      47.409  26.317  25.710  1.00  0.00     0.029 A 
ATOM     36  N   UNL A   1      48.074  28.351  26.238  1.00  0.00    -0.354 N 
ATOM     37  C   UNL A   1      45.300  31.502  26.851  1.00  0.00     0.074 A 
ATOM     38  C   UNL A   1      43.967  30.994  27.094  1.00  0.00     0.031 C 
ATOM     39  C   UNL A   1      48.739  26.307  25.631  1.00  0.00     0.029 A 
ATOM     40  C   UNL A   1      49.217  27.638  25.934  1.00  0.00     0.049 A 
ATOM     41  H   UNL A   1      48.079  29.311  26.452  1.00  0.00     0.167 HD
ATOM     42  C   UNL A   1      45.627  32.822  26.862  1.00  0.00     0.031 A 
ATOM     43  C   UNL A   1      50.516  27.985  25.864  1.00  0.00     0.031 A 
ATOM     44  C   UNL A   1      46.977  33.326  26.780  1.00  0.00     0.049 A 
ATOM     45  C   UNL A   1      50.883  29.415  26.070  1.00  0.00     0.074 A 
ATOM     46  C   UNL A   1      47.422  34.632  26.917  1.00  0.00     0.029 A 
ATOM     47  N   UNL A   1      48.106  32.543  26.594  1.00  0.00    -0.354 N 
ATOM     48  N   UNL A   1      50.094  30.441  26.253  1.00  0.00    -0.248 NA
ATOM     49  C   UNL A   1      52.315  29.738  26.049  1.00  0.00     0.031 C 
ATOM     50  C   UNL A   1      48.819  34.638  26.806  1.00  0.00     0.029 A 
ATOM     51  C   UNL A   1      49.246  33.332  26.641  1.00  0.00     0.049 A 
ATOM     52  H   UNL A   1      48.100  31.568  26.450  1.00  0.00     0.167 HD
ATOM     53  C   UNL A   1      50.931  31.536  26.383  1.00  0.00     0.074 A 
ATOM     54  C   UNL A   1      52.290  31.040  26.292  1.00  0.00     0.031 C 
ATOM     55  C   UNL A   1      50.595  32.837  26.548  1.00  0.00     0.031 A 
BRANCH  42  56
ATOM     56  C   UNL A   1      44.500  33.822  27.004  1.00  0.00    -0.014 A 
ATOM     57  C   UNL A   1      44.040  34.242  28.264  1.00  0.00     0.009 A 
ATOM     58  C   UNL A   1      43.895  34.366  25.857  1.00  0.00     0.009 A 
ATOM     59  C   UNL A   1      42.952  35.113  28.373  1.00  0.00     0.001 A 
ATOM     60  C   UNL A   1      42.837  35.273  25.969  1.00  0.00     0.001 A 
ATOM     61  C   UNL A   1      42.352  35.629  27.226  1.00  0.00     0.000 A 
ENDBRANCH  42  56
BRANCH  43  62
ATOM     62  C   UNL A   1      51.557  26.946  25.618  1.00  0.00    -0.014 A 
ATOM     63  C   UNL A   1      52.056  26.189  26.691  1.00  0.00     0.009 A 
ATOM     64  C   UNL A   1      52.022  26.665  24.323  1.00  0.00     0.009 A 
ATOM     65  C   UNL A   1      53.008  25.190  26.476  1.00  0.00     0.001 A 
ATOM     66  C   UNL A   1      52.943  25.636  24.106  1.00  0.00     0.001 A 
ATOM     67  C   UNL A   1      53.442  24.906  25.184  1.00  0.00     0.000 A 
ENDBRANCH  43  62
BRANCH  55  68
ATOM     68  C   UNL A   1      51.736  33.800  26.699  1.00  0.00    -0.014 A 
ATOM     69  C   UNL A   1      52.267  34.113  27.960  1.00  0.00     0.009 A 
ATOM     70  C   UNL A   1      52.259  34.429  25.560  1.00  0.00     0.009 A 
ATOM     71  C   UNL A   1      53.267  35.080  28.081  1.00  0.00     0.001 A 
ATOM     72  C   UNL A   1      53.281  35.372  25.683  1.00  0.00     0.001 A 
ATOM     73  C   UNL A   1      53.773  35.707  26.943  1.00  0.00     0.000 A 
ENDBRANCH  55  68
ENDBRANCH  29  30
ENDBRANCH  22  24
ENDBRANCH  21  22
ENDBRANCH   1  21
TORSDOF 12
ENDMDL
