MODEL 1
REMARK VINA RESULT:     -11.0      0.000      0.000
REMARK SMILES C[C@]1(C(=O)N2CCC(CC(=O)OCCOC(=O)c3ccc(-c4c5nc(c(-c6ccccc6)c6ccc([nH]6)c(-c6ccccc6)c6nc(c(-c7ccccc7)c7ccc4[nH]7)C=C6)C=C5)cc3)CC2)CCC[NH2+]C1
REMARK SMILES IDX 13 1 12 2 10 3 11 4 9 5 8 6 3 7 4 8 5 9 6 10 67 11 7 12
REMARK SMILES IDX 66 13 2 14 1 15 68 16 72 17 69 18 71 19 70 20 14 23 15 24
REMARK SMILES IDX 16 25 17 26 18 27 19 28 65 29 20 30 64 31 21 32 22 33 23 34
REMARK SMILES IDX 58 35 24 36 63 37 57 38 59 39 25 40 62 41 56 42 55 43 26 45
REMARK SMILES IDX 48 46 33 47 47 48 34 49 37 50 46 51 60 52 35 53 36 54 45 56
REMARK SMILES IDX 61 57 38 58 27 59 28 60 32 61 29 62 31 63 30 64 49 65 50 66
REMARK SMILES IDX 54 67 51 68 53 69 52 70 39 71 40 72 44 73 41 74 43 75 42 76
REMARK H PARENT 71 21 71 22 59 44 37 55
REMARK Flexibility Score: inf
ROOT
ATOM      1  C   UNL A   1      33.680  27.455  25.723  1.00  0.00     0.274 C 
ENDROOT
BRANCH   1   2
ATOM      2  O   UNL A   1      32.448  26.914  25.214  1.00  0.00    -0.462 OA
BRANCH   2   3
ATOM      3  C   UNL A   1      31.958  25.812  25.835  1.00  0.00     0.306 C 
ATOM      4  O   UNL A   1      31.345  25.816  26.894  1.00  0.00    -0.252 OA
BRANCH   3   5
ATOM      5  C   UNL A   1      32.302  24.546  25.084  1.00  0.00     0.126 C 
BRANCH   5   6
ATOM      6  C   UNL A   1      33.302  23.596  25.775  1.00  0.00     0.003 C 
ATOM      7  C   UNL A   1      34.670  19.711  24.963  1.00  0.00     0.234 C 
ATOM      8  O   UNL A   1      35.840  19.395  24.711  1.00  0.00    -0.274 OA
ATOM      9  N   UNL A   1      34.429  20.943  25.534  1.00  0.00    -0.342 N 
ATOM     10  C   UNL A   1      35.289  22.065  25.200  1.00  0.00     0.120 C 
ATOM     11  C   UNL A   1      33.556  21.205  26.655  1.00  0.00     0.120 C 
ATOM     12  C   UNL A   1      34.416  23.238  24.762  1.00  0.00     0.026 C 
ATOM     13  C   UNL A   1      32.602  22.347  26.347  1.00  0.00     0.026 C 
BRANCH   7  14
ATOM     14  C   UNL A   1      33.486  18.813  24.459  1.00  0.00     0.095 C 
ATOM     15  C   UNL A   1      32.513  19.807  23.746  1.00  0.00     0.028 C 
ATOM     16  C   UNL A   1      33.827  17.726  23.410  1.00  0.00     0.028 C 
ATOM     17  C   UNL A   1      32.696  18.257  25.670  1.00  0.00     0.277 C 
ATOM     18  C   UNL A   1      33.926  16.279  23.908  1.00  0.00     0.063 C 
ATOM     19  N   UNL A   1      33.119  16.937  26.132  1.00  0.00    -0.345 N 
ATOM     20  C   UNL A   1      33.003  15.949  25.070  1.00  0.00     0.260 C 
ATOM     21  H   UNL A   1      34.092  16.987  26.437  1.00  0.00     0.346 HD
ATOM     22  H   UNL A   1      32.516  16.655  26.905  1.00  0.00     0.346 HD
ENDBRANCH   7  14
ENDBRANCH   5   6
ENDBRANCH   3   5
ENDBRANCH   2   3
ENDBRANCH   1   2
BRANCH   1  23
ATOM     23  C   UNL A   1      33.487  28.885  26.236  1.00  0.00     0.275 C 
BRANCH  23  24
ATOM     24  O   UNL A   1      33.973  29.014  27.586  1.00  0.00    -0.458 OA
BRANCH  24  25
ATOM     25  C   UNL A   1      34.565  30.189  27.889  1.00  0.00     0.338 C 
ATOM     26  O   UNL A   1      34.047  31.295  27.945  1.00  0.00    -0.246 OA
BRANCH  25  27
ATOM     27  C   UNL A   1      35.964  29.950  28.263  1.00  0.00     0.060 A 
ATOM     28  C   UNL A   1      36.953  30.125  27.290  1.00  0.00     0.016 A 
ATOM     29  C   UNL A   1      36.288  29.469  29.531  1.00  0.00     0.016 A 
ATOM     30  C   UNL A   1      38.275  29.799  27.574  1.00  0.00     0.010 A 
ATOM     31  C   UNL A   1      37.617  29.145  29.816  1.00  0.00     0.010 A 
ATOM     32  C   UNL A   1      38.611  29.287  28.832  1.00  0.00    -0.014 A 
BRANCH  32  33
ATOM     33  C   UNL A   1      39.989  28.812  29.080  1.00  0.00     0.031 A 
ATOM     34  C   UNL A   1      40.963  29.710  29.785  1.00  0.00     0.074 A 
ATOM     35  C   UNL A   1      40.356  27.575  28.703  1.00  0.00     0.049 A 
ATOM     36  N   UNL A   1      42.223  29.505  30.067  1.00  0.00    -0.248 NA
ATOM     37  C   UNL A   1      40.447  31.015  30.232  1.00  0.00     0.031 C 
ATOM     38  C   UNL A   1      39.486  26.592  28.058  1.00  0.00     0.029 A 
ATOM     39  N   UNL A   1      41.563  26.935  28.817  1.00  0.00    -0.354 N 
ATOM     40  C   UNL A   1      42.659  30.661  30.702  1.00  0.00     0.074 A 
ATOM     41  C   UNL A   1      41.533  31.569  30.753  1.00  0.00     0.031 C 
ATOM     42  C   UNL A   1      40.187  25.467  27.841  1.00  0.00     0.029 A 
ATOM     43  C   UNL A   1      41.561  25.664  28.298  1.00  0.00     0.049 A 
ATOM     44  H   UNL A   1      42.356  27.347  29.232  1.00  0.00     0.167 HD
ATOM     45  C   UNL A   1      43.887  30.942  31.198  1.00  0.00     0.031 A 
ATOM     46  C   UNL A   1      42.559  24.768  28.191  1.00  0.00     0.031 A 
ATOM     47  C   UNL A   1      45.006  30.039  31.151  1.00  0.00     0.049 A 
ATOM     48  C   UNL A   1      43.927  25.123  28.704  1.00  0.00     0.074 A 
ATOM     49  C   UNL A   1      46.289  30.228  31.634  1.00  0.00     0.029 A 
ATOM     50  N   UNL A   1      44.973  28.774  30.585  1.00  0.00    -0.354 N 
ATOM     51  N   UNL A   1      44.327  26.219  29.302  1.00  0.00    -0.248 NA
ATOM     52  C   UNL A   1      44.979  24.112  28.529  1.00  0.00     0.031 C 
ATOM     53  C   UNL A   1      47.043  29.090  31.328  1.00  0.00     0.029 A 
ATOM     54  C   UNL A   1      46.216  28.177  30.692  1.00  0.00     0.049 A 
ATOM     55  H   UNL A   1      44.182  28.362  30.169  1.00  0.00     0.167 HD
ATOM     56  C   UNL A   1      45.668  26.020  29.598  1.00  0.00     0.074 A 
ATOM     57  C   UNL A   1      46.012  24.696  29.121  1.00  0.00     0.031 C 
ATOM     58  C   UNL A   1      46.537  26.857  30.214  1.00  0.00     0.031 A 
BRANCH  45  59
ATOM     59  C   UNL A   1      44.088  32.304  31.795  1.00  0.00    -0.014 A 
ATOM     60  C   UNL A   1      44.605  33.365  31.036  1.00  0.00     0.009 A 
ATOM     61  C   UNL A   1      43.750  32.528  33.139  1.00  0.00     0.009 A 
ATOM     62  C   UNL A   1      44.812  34.615  31.623  1.00  0.00     0.001 A 
ATOM     63  C   UNL A   1      43.936  33.785  33.716  1.00  0.00     0.001 A 
ATOM     64  C   UNL A   1      44.476  34.825  32.960  1.00  0.00     0.000 A 
ENDBRANCH  45  59
BRANCH  46  65
ATOM     65  C   UNL A   1      42.303  23.445  27.571  1.00  0.00    -0.014 A 
ATOM     66  C   UNL A   1      41.802  22.384  28.340  1.00  0.00     0.009 A 
ATOM     67  C   UNL A   1      42.561  23.236  26.206  1.00  0.00     0.009 A 
ATOM     68  C   UNL A   1      41.582  21.133  27.758  1.00  0.00     0.001 A 
ATOM     69  C   UNL A   1      42.319  21.990  25.624  1.00  0.00     0.001 A 
ATOM     70  C   UNL A   1      41.836  20.939  26.400  1.00  0.00     0.000 A 
ENDBRANCH  46  65
BRANCH  58  71
ATOM     71  C   UNL A   1      47.930  26.347  30.445  1.00  0.00    -0.014 A 
ATOM     72  C   UNL A   1      48.294  25.746  31.659  1.00  0.00     0.009 A 
ATOM     73  C   UNL A   1      48.881  26.441  29.416  1.00  0.00     0.009 A 
ATOM     74  C   UNL A   1      49.595  25.276  31.850  1.00  0.00     0.001 A 
ATOM     75  C   UNL A   1      50.174  25.950  29.602  1.00  0.00     0.001 A 
ATOM     76  C   UNL A   1      50.532  25.376  30.821  1.00  0.00     0.000 A 
ENDBRANCH  58  71
ENDBRANCH  32  33
ENDBRANCH  25  27
ENDBRANCH  24  25
ENDBRANCH  23  24
ENDBRANCH   1  23
TORSDOF 13
ENDMDL
MODEL 2
REMARK VINA RESULT:     -10.9      3.320      6.984
REMARK SMILES C[C@]1(C(=O)N2CCC(CC(=O)OCCOC(=O)c3ccc(-c4c5nc(c(-c6ccccc6)c6ccc([nH]6)c(-c6ccccc6)c6nc(c(-c7ccccc7)c7ccc4[nH]7)C=C6)C=C5)cc3)CC2)CCC[NH2+]C1
REMARK SMILES IDX 13 1 12 2 10 3 11 4 9 5 8 6 3 7 4 8 5 9 6 10 67 11 7 12
REMARK SMILES IDX 66 13 2 14 1 15 68 16 72 17 69 18 71 19 70 20 14 23 15 24
REMARK SMILES IDX 16 25 17 26 18 27 19 28 65 29 20 30 64 31 21 32 22 33 23 34
REMARK SMILES IDX 58 35 24 36 63 37 57 38 59 39 25 40 62 41 56 42 55 43 26 45
REMARK SMILES IDX 48 46 33 47 47 48 34 49 37 50 46 51 60 52 35 53 36 54 45 56
REMARK SMILES IDX 61 57 38 58 27 59 28 60 32 61 29 62 31 63 30 64 49 65 50 66
REMARK SMILES IDX 54 67 51 68 53 69 52 70 39 71 40 72 44 73 41 74 43 75 42 76
REMARK H PARENT 71 21 71 22 59 44 37 55
REMARK Flexibility Score: inf
ROOT
ATOM      1  C   UNL A   1      35.224  20.414  25.156  1.00  0.00     0.274 C 
ENDROOT
BRANCH   1   2
ATOM      2  O   UNL A   1      34.973  21.379  26.194  1.00  0.00    -0.462 OA
BRANCH   2   3
ATOM      3  C   UNL A   1      33.937  22.233  26.002  1.00  0.00     0.306 C 
ATOM      4  O   UNL A   1      33.910  23.400  26.370  1.00  0.00    -0.252 OA
BRANCH   3   5
ATOM      5  C   UNL A   1      32.774  21.557  25.312  1.00  0.00     0.126 C 
BRANCH   5   6
ATOM      6  C   UNL A   1      32.278  22.221  24.010  1.00  0.00     0.003 C 
ATOM      7  C   UNL A   1      32.887  25.978  22.239  1.00  0.00     0.234 C 
ATOM      8  O   UNL A   1      33.423  26.181  21.141  1.00  0.00    -0.274 OA
ATOM      9  N   UNL A   1      32.454  24.702  22.534  1.00  0.00    -0.342 N 
ATOM     10  C   UNL A   1      33.184  23.561  22.009  1.00  0.00     0.120 C 
ATOM     11  C   UNL A   1      31.176  24.348  23.107  1.00  0.00     0.120 C 
ATOM     12  C   UNL A   1      33.511  22.616  23.162  1.00  0.00     0.026 C 
ATOM     13  C   UNL A   1      31.351  23.420  24.297  1.00  0.00     0.026 C 
BRANCH   7  14
ATOM     14  C   UNL A   1      32.886  27.101  23.334  1.00  0.00     0.095 C 
ATOM     15  C   UNL A   1      33.587  28.319  22.650  1.00  0.00     0.028 C 
ATOM     16  C   UNL A   1      31.506  27.617  23.808  1.00  0.00     0.028 C 
ATOM     17  C   UNL A   1      33.813  26.693  24.505  1.00  0.00     0.277 C 
ATOM     18  C   UNL A   1      31.001  27.120  25.168  1.00  0.00     0.063 C 
ATOM     19  N   UNL A   1      33.148  26.013  25.614  1.00  0.00    -0.345 N 
ATOM     20  C   UNL A   1      32.099  26.845  26.184  1.00  0.00     0.260 C 
ATOM     21  H   UNL A   1      32.736  25.144  25.273  1.00  0.00     0.346 HD
ATOM     22  H   UNL A   1      33.840  25.821  26.339  1.00  0.00     0.346 HD
ENDBRANCH   7  14
ENDBRANCH   5   6
ENDBRANCH   3   5
ENDBRANCH   2   3
ENDBRANCH   1   2
BRANCH   1  23
ATOM     23  C   UNL A   1      36.726  20.205  24.945  1.00  0.00     0.275 C 
BRANCH  23  24
ATOM     24  O   UNL A   1      37.474  21.332  25.438  1.00  0.00    -0.458 OA
BRANCH  24  25
ATOM     25  C   UNL A   1      38.715  21.061  25.895  1.00  0.00     0.338 C 
ATOM     26  O   UNL A   1      39.321  20.002  25.830  1.00  0.00    -0.246 OA
BRANCH  25  27
ATOM     27  C   UNL A   1      39.322  22.290  26.420  1.00  0.00     0.060 A 
ATOM     28  C   UNL A   1      38.741  23.517  26.086  1.00  0.00     0.016 A 
ATOM     29  C   UNL A   1      40.506  22.239  27.156  1.00  0.00     0.016 A 
ATOM     30  C   UNL A   1      39.353  24.705  26.468  1.00  0.00     0.010 A 
ATOM     31  C   UNL A   1      41.118  23.434  27.544  1.00  0.00     0.010 A 
ATOM     32  C   UNL A   1      40.556  24.671  27.182  1.00  0.00    -0.014 A 
BRANCH  32  33
ATOM     33  C   UNL A   1      41.272  25.934  27.463  1.00  0.00     0.031 A 
ATOM     34  C   UNL A   1      40.650  26.944  28.382  1.00  0.00     0.074 A 
ATOM     35  C   UNL A   1      42.483  26.159  26.924  1.00  0.00     0.049 A 
ATOM     36  N   UNL A   1      41.089  28.126  28.731  1.00  0.00    -0.248 NA
ATOM     37  C   UNL A   1      39.361  26.575  28.988  1.00  0.00     0.031 C 
ATOM     38  C   UNL A   1      43.212  25.232  26.060  1.00  0.00     0.029 A 
ATOM     39  N   UNL A   1      43.313  27.244  27.034  1.00  0.00    -0.354 N 
ATOM     40  C   UNL A   1      40.121  28.651  29.577  1.00  0.00     0.074 A 
ATOM     41  C   UNL A   1      39.066  27.666  29.680  1.00  0.00     0.031 C 
ATOM     42  C   UNL A   1      44.389  25.785  25.724  1.00  0.00     0.029 A 
ATOM     43  C   UNL A   1      44.478  27.117  26.318  1.00  0.00     0.049 A 
ATOM     44  H   UNL A   1      43.096  28.039  27.573  1.00  0.00     0.167 HD
ATOM     45  C   UNL A   1      40.112  29.847  30.211  1.00  0.00     0.031 A 
ATOM     46  C   UNL A   1      45.494  27.983  26.152  1.00  0.00     0.031 A 
ATOM     47  C   UNL A   1      41.161  30.825  30.112  1.00  0.00     0.049 A 
ATOM     48  C   UNL A   1      45.436  29.326  26.826  1.00  0.00     0.074 A 
ATOM     49  C   UNL A   1      41.248  32.064  30.724  1.00  0.00     0.029 A 
ATOM     50  N   UNL A   1      42.309  30.674  29.350  1.00  0.00    -0.354 N 
ATOM     51  N   UNL A   1      44.515  29.811  27.624  1.00  0.00    -0.248 NA
ATOM     52  C   UNL A   1      46.563  30.237  26.579  1.00  0.00     0.031 C 
ATOM     53  C   UNL A   1      42.433  32.677  30.302  1.00  0.00     0.029 A 
ATOM     54  C   UNL A   1      43.103  31.802  29.462  1.00  0.00     0.049 A 
ATOM     55  H   UNL A   1      42.527  29.881  28.809  1.00  0.00     0.167 HD
ATOM     56  C   UNL A   1      44.963  31.072  27.994  1.00  0.00     0.074 A 
ATOM     57  C   UNL A   1      46.241  31.273  27.340  1.00  0.00     0.031 C 
ATOM     58  C   UNL A   1      44.372  31.981  28.807  1.00  0.00     0.031 A 
BRANCH  45  59
ATOM     59  C   UNL A   1      38.900  30.175  31.034  1.00  0.00    -0.014 A 
ATOM     60  C   UNL A   1      37.848  30.944  30.512  1.00  0.00     0.009 A 
ATOM     61  C   UNL A   1      38.809  29.701  32.352  1.00  0.00     0.009 A 
ATOM     62  C   UNL A   1      36.746  31.262  31.307  1.00  0.00     0.001 A 
ATOM     63  C   UNL A   1      37.695  30.000  33.137  1.00  0.00     0.001 A 
ATOM     64  C   UNL A   1      36.669  30.789  32.617  1.00  0.00     0.000 A 
ENDBRANCH  45  59
BRANCH  46  65
ATOM     65  C   UNL A   1      46.655  27.610  25.308  1.00  0.00    -0.014 A 
ATOM     66  C   UNL A   1      46.685  27.952  23.948  1.00  0.00     0.009 A 
ATOM     67  C   UNL A   1      47.739  26.906  25.858  1.00  0.00     0.009 A 
ATOM     68  C   UNL A   1      47.770  27.581  23.151  1.00  0.00     0.001 A 
ATOM     69  C   UNL A   1      48.832  26.556  25.063  1.00  0.00     0.001 A 
ATOM     70  C   UNL A   1      48.844  26.888  23.709  1.00  0.00     0.000 A 
ENDBRANCH  46  65
BRANCH  58  71
ATOM     71  C   UNL A   1      45.122  33.255  29.066  1.00  0.00    -0.014 A 
ATOM     72  C   UNL A   1      45.014  34.353  28.200  1.00  0.00     0.009 A 
ATOM     73  C   UNL A   1      45.923  33.365  30.214  1.00  0.00     0.009 A 
ATOM     74  C   UNL A   1      45.719  35.529  28.463  1.00  0.00     0.001 A 
ATOM     75  C   UNL A   1      46.608  34.550  30.485  1.00  0.00     0.001 A 
ATOM     76  C   UNL A   1      46.513  35.627  29.606  1.00  0.00     0.000 A 
ENDBRANCH  58  71
ENDBRANCH  32  33
ENDBRANCH  25  27
ENDBRANCH  24  25
ENDBRANCH  23  24
ENDBRANCH   1  23
TORSDOF 13
ENDMDL
MODEL 3
REMARK VINA RESULT:     -10.9      3.364      7.811
REMARK SMILES C[C@]1(C(=O)N2CCC(CC(=O)OCCOC(=O)c3ccc(-c4c5nc(c(-c6ccccc6)c6ccc([nH]6)c(-c6ccccc6)c6nc(c(-c7ccccc7)c7ccc4[nH]7)C=C6)C=C5)cc3)CC2)CCC[NH2+]C1
REMARK SMILES IDX 13 1 12 2 10 3 11 4 9 5 8 6 3 7 4 8 5 9 6 10 67 11 7 12
REMARK SMILES IDX 66 13 2 14 1 15 68 16 72 17 69 18 71 19 70 20 14 23 15 24
REMARK SMILES IDX 16 25 17 26 18 27 19 28 65 29 20 30 64 31 21 32 22 33 23 34
REMARK SMILES IDX 58 35 24 36 63 37 57 38 59 39 25 40 62 41 56 42 55 43 26 45
REMARK SMILES IDX 48 46 33 47 47 48 34 49 37 50 46 51 60 52 35 53 36 54 45 56
REMARK SMILES IDX 61 57 38 58 27 59 28 60 32 61 29 62 31 63 30 64 49 65 50 66
REMARK SMILES IDX 54 67 51 68 53 69 52 70 39 71 40 72 44 73 41 74 43 75 42 76
REMARK H PARENT 71 21 71 22 59 44 37 55
REMARK Flexibility Score: inf
ROOT
ATOM      1  C   UNL A   1      35.769  21.723  25.570  1.00  0.00     0.274 C 
ENDROOT
BRANCH   1   2
ATOM      2  O   UNL A   1      34.524  21.088  25.914  1.00  0.00    -0.462 OA
BRANCH   2   3
ATOM      3  C   UNL A   1      33.421  21.877  25.951  1.00  0.00     0.306 C 
ATOM      4  O   UNL A   1      33.298  22.882  26.638  1.00  0.00    -0.252 OA
BRANCH   3   5
ATOM      5  C   UNL A   1      32.318  21.339  25.068  1.00  0.00     0.126 C 
BRANCH   5   6
ATOM      6  C   UNL A   1      31.982  22.176  23.815  1.00  0.00     0.003 C 
ATOM      7  C   UNL A   1      33.039  26.023  22.511  1.00  0.00     0.234 C 
ATOM      8  O   UNL A   1      33.674  26.288  21.481  1.00  0.00    -0.274 OA
ATOM      9  N   UNL A   1      32.480  24.769  22.635  1.00  0.00    -0.342 N 
ATOM     10  C   UNL A   1      33.150  23.626  22.039  1.00  0.00     0.120 C 
ATOM     11  C   UNL A   1      31.135  24.476  23.077  1.00  0.00     0.120 C 
ATOM     12  C   UNL A   1      33.306  22.541  23.102  1.00  0.00     0.026 C 
ATOM     13  C   UNL A   1      31.140  23.418  24.167  1.00  0.00     0.026 C 
BRANCH   7  14
ATOM     14  C   UNL A   1      33.047  27.023  23.719  1.00  0.00     0.095 C 
ATOM     15  C   UNL A   1      33.855  28.258  23.204  1.00  0.00     0.028 C 
ATOM     16  C   UNL A   1      31.677  27.575  24.182  1.00  0.00     0.028 C 
ATOM     17  C   UNL A   1      33.885  26.436  24.881  1.00  0.00     0.277 C 
ATOM     18  C   UNL A   1      31.072  26.972  25.456  1.00  0.00     0.063 C 
ATOM     19  N   UNL A   1      33.123  25.688  25.879  1.00  0.00    -0.345 N 
ATOM     20  C   UNL A   1      32.097  26.522  26.486  1.00  0.00     0.260 C 
ATOM     21  H   UNL A   1      32.679  24.887  25.427  1.00  0.00     0.346 HD
ATOM     22  H   UNL A   1      33.763  25.376  26.610  1.00  0.00     0.346 HD
ENDBRANCH   7  14
ENDBRANCH   5   6
ENDBRANCH   3   5
ENDBRANCH   2   3
ENDBRANCH   1   2
BRANCH   1  23
ATOM     23  C   UNL A   1      36.879  20.690  25.361  1.00  0.00     0.275 C 
BRANCH  23  24
ATOM     24  O   UNL A   1      38.138  21.339  25.100  1.00  0.00    -0.458 OA
BRANCH  24  25
ATOM     25  C   UNL A   1      39.121  21.098  25.993  1.00  0.00     0.338 C 
ATOM     26  O   UNL A   1      39.624  20.021  26.279  1.00  0.00    -0.246 OA
BRANCH  25  27
ATOM     27  C   UNL A   1      39.610  22.370  26.538  1.00  0.00     0.060 A 
ATOM     28  C   UNL A   1      38.986  23.553  26.131  1.00  0.00     0.016 A 
ATOM     29  C   UNL A   1      40.732  22.404  27.366  1.00  0.00     0.016 A 
ATOM     30  C   UNL A   1      39.493  24.783  26.535  1.00  0.00     0.010 A 
ATOM     31  C   UNL A   1      41.239  23.640  27.775  1.00  0.00     0.010 A 
ATOM     32  C   UNL A   1      40.635  24.834  27.342  1.00  0.00    -0.014 A 
BRANCH  32  33
ATOM     33  C   UNL A   1      41.250  26.143  27.652  1.00  0.00     0.031 A 
ATOM     34  C   UNL A   1      42.579  26.494  27.050  1.00  0.00     0.074 A 
ATOM     35  C   UNL A   1      40.609  27.021  28.443  1.00  0.00     0.049 A 
ATOM     36  N   UNL A   1      43.307  27.567  27.220  1.00  0.00    -0.248 NA
ATOM     37  C   UNL A   1      43.166  25.503  26.133  1.00  0.00     0.031 C 
ATOM     38  C   UNL A   1      39.291  26.816  29.044  1.00  0.00     0.029 A 
ATOM     39  N   UNL A   1      40.985  28.268  28.869  1.00  0.00    -0.354 N 
ATOM     40  C   UNL A   1      44.448  27.372  26.453  1.00  0.00     0.074 A 
ATOM     41  C   UNL A   1      44.322  26.074  25.826  1.00  0.00     0.031 C 
ATOM     42  C   UNL A   1      38.963  27.907  29.756  1.00  0.00     0.029 A 
ATOM     43  C   UNL A   1      40.062  28.867  29.690  1.00  0.00     0.049 A 
ATOM     44  H   UNL A   1      41.835  28.694  28.612  1.00  0.00     0.167 HD
ATOM     45  C   UNL A   1      45.506  28.201  26.285  1.00  0.00     0.031 A 
ATOM     46  C   UNL A   1      40.106  30.052  30.327  1.00  0.00     0.031 A 
ATOM     47  C   UNL A   1      45.630  29.492  26.905  1.00  0.00     0.049 A 
ATOM     48  C   UNL A   1      41.315  30.932  30.165  1.00  0.00     0.074 A 
ATOM     49  C   UNL A   1      46.660  30.410  26.790  1.00  0.00     0.029 A 
ATOM     50  N   UNL A   1      44.690  30.049  27.758  1.00  0.00    -0.354 N 
ATOM     51  N   UNL A   1      42.388  30.736  29.438  1.00  0.00    -0.248 NA
ATOM     52  C   UNL A   1      41.313  32.197  30.912  1.00  0.00     0.031 C 
ATOM     53  C   UNL A   1      46.358  31.508  27.604  1.00  0.00     0.029 A 
ATOM     54  C   UNL A   1      45.121  31.291  28.191  1.00  0.00     0.049 A 
ATOM     55  H   UNL A   1      43.840  29.624  28.017  1.00  0.00     0.167 HD
ATOM     56  C   UNL A   1      43.176  31.864  29.617  1.00  0.00     0.074 A 
ATOM     57  C   UNL A   1      42.455  32.743  30.517  1.00  0.00     0.031 C 
ATOM     58  C   UNL A   1      44.388  32.150  29.082  1.00  0.00     0.031 A 
BRANCH  45  59
ATOM     59  C   UNL A   1      46.633  27.705  25.427  1.00  0.00    -0.014 A 
ATOM     60  C   UNL A   1      47.650  26.894  25.954  1.00  0.00     0.009 A 
ATOM     61  C   UNL A   1      46.673  28.052  24.068  1.00  0.00     0.009 A 
ATOM     62  C   UNL A   1      48.705  26.471  25.143  1.00  0.00     0.001 A 
ATOM     63  C   UNL A   1      47.716  27.608  23.254  1.00  0.00     0.001 A 
ATOM     64  C   UNL A   1      48.736  26.826  23.794  1.00  0.00     0.000 A 
ENDBRANCH  45  59
BRANCH  46  65
ATOM     65  C   UNL A   1      38.969  30.477  31.179  1.00  0.00    -0.014 A 
ATOM     66  C   UNL A   1      37.920  31.235  30.639  1.00  0.00     0.009 A 
ATOM     67  C   UNL A   1      38.929  30.130  32.540  1.00  0.00     0.009 A 
ATOM     68  C   UNL A   1      36.860  31.652  31.449  1.00  0.00     0.001 A 
ATOM     69  C   UNL A   1      37.858  30.530  33.340  1.00  0.00     0.001 A 
ATOM     70  C   UNL A   1      36.829  31.296  32.797  1.00  0.00     0.000 A 
ENDBRANCH  46  65
BRANCH  58  71
ATOM     71  C   UNL A   1      44.987  33.484  29.422  1.00  0.00    -0.014 A 
ATOM     72  C   UNL A   1      45.809  33.648  30.547  1.00  0.00     0.009 A 
ATOM     73  C   UNL A   1      44.749  34.584  28.583  1.00  0.00     0.009 A 
ATOM     74  C   UNL A   1      46.357  34.898  30.842  1.00  0.00     0.001 A 
ATOM     75  C   UNL A   1      45.317  35.826  28.868  1.00  0.00     0.001 A 
ATOM     76  C   UNL A   1      46.113  35.984  30.002  1.00  0.00     0.000 A 
ENDBRANCH  58  71
ENDBRANCH  32  33
ENDBRANCH  25  27
ENDBRANCH  24  25
ENDBRANCH  23  24
ENDBRANCH   1  23
TORSDOF 13
ENDMDL
