MODEL 1
REMARK VINA RESULT:      -9.7      0.000      0.000
REMARK SMILES COc1ccc(OC)c(C[NH2+][C@@H](C(=O)OCCOC(=O)c2ccc(-c3c4nc(c(-c5ccccc5)c5ccc([nH]5)c(-c5ccccc5)c5nc(c(-c6ccccc6)c6ccc3[nH]6)C=C5)C=C4)cc2)C(C)C)c1
REMARK SMILES IDX 16 1 15 2 13 3 14 4 12 5 11 6 10 9 9 10 3 11 4 12 72 13 5 14
REMARK SMILES IDX 6 15 2 16 1 17 7 18 8 19 69 20 70 21 71 22 17 23 18 24 19 25
REMARK SMILES IDX 20 26 21 27 22 28 68 29 23 30 67 31 24 32 25 33 26 34 61 35
REMARK SMILES IDX 27 36 66 37 60 38 62 39 28 40 65 41 59 42 58 43 29 45 51 46
REMARK SMILES IDX 36 47 50 48 37 49 40 50 49 51 63 52 38 53 39 54 48 56 64 57
REMARK SMILES IDX 41 58 30 59 31 60 35 61 32 62 34 63 33 64 52 65 53 66 57 67
REMARK SMILES IDX 54 68 56 69 55 70 42 71 43 72 47 73 44 74 46 75 45 76
REMARK H PARENT 11 7 11 8 62 44 40 55
REMARK Flexibility Score: inf
ROOT
ATOM      1  C   UNL A   1      35.091  22.056  26.432  1.00  0.00     0.274 C 
ENDROOT
BRANCH   1   2
ATOM      2  O   UNL A   1      33.691  21.713  26.513  1.00  0.00    -0.458 OA
BRANCH   2   3
ATOM      3  C   UNL A   1      32.796  22.742  26.530  1.00  0.00     0.365 C 
ATOM      4  O   UNL A   1      32.141  23.053  27.518  1.00  0.00    -0.245 OA
BRANCH   3   5
ATOM      5  C   UNL A   1      32.661  23.453  25.152  1.00  0.00     0.296 C 
BRANCH   5   6
ATOM      6  N   UNL A   1      32.309  24.887  25.284  1.00  0.00    -0.330 N 
ATOM      7  H   UNL A   1      31.674  25.133  24.525  1.00  0.00     0.347 HD
ATOM      8  H   UNL A   1      31.882  25.006  26.203  1.00  0.00     0.347 HD
BRANCH   6   9
ATOM      9  C   UNL A   1      33.459  25.781  25.232  1.00  0.00     0.302 C 
BRANCH   9  10
ATOM     10  C   UNL A   1      33.047  27.221  25.443  1.00  0.00     0.052 A 
ATOM     11  C   UNL A   1      33.509  29.302  26.668  1.00  0.00     0.119 A 
ATOM     12  C   UNL A   1      32.410  29.896  26.061  1.00  0.00     0.050 A 
ATOM     13  C   UNL A   1      33.811  27.971  26.374  1.00  0.00     0.059 A 
ATOM     14  C   UNL A   1      31.634  29.172  25.157  1.00  0.00     0.051 A 
ATOM     15  C   UNL A   1      31.946  27.844  24.830  1.00  0.00     0.127 A 
BRANCH  11  16
ATOM     16  O   UNL A   1      34.186  30.101  27.548  1.00  0.00    -0.497 OA
ATOM     17  C   UNL A   1      35.578  29.847  27.687  1.00  0.00     0.278 C 
ENDBRANCH  11  16
BRANCH  15  18
ATOM     18  O   UNL A   1      31.021  27.287  23.989  1.00  0.00    -0.496 OA
ATOM     19  C   UNL A   1      31.233  27.421  22.594  1.00  0.00     0.278 C 
ENDBRANCH  15  18
ENDBRANCH   9  10
ENDBRANCH   6   9
ENDBRANCH   5   6
BRANCH   5  20
ATOM     20  C   UNL A   1      31.617  22.796  24.200  1.00  0.00     0.053 C 
ATOM     21  C   UNL A   1      30.810  23.843  23.415  1.00  0.00     0.014 C 
ATOM     22  C   UNL A   1      32.237  21.824  23.188  1.00  0.00     0.014 C 
ENDBRANCH   5  20
ENDBRANCH   3   5
ENDBRANCH   2   3
ENDBRANCH   1   2
BRANCH   1  23
ATOM     23  C   UNL A   1      35.787  21.130  25.435  1.00  0.00     0.275 C 
BRANCH  23  24
ATOM     24  O   UNL A   1      36.982  21.770  24.952  1.00  0.00    -0.458 OA
BRANCH  24  25
ATOM     25  C   UNL A   1      38.129  21.311  25.499  1.00  0.00     0.338 C 
ATOM     26  O   UNL A   1      38.643  20.213  25.353  1.00  0.00    -0.246 OA
BRANCH  25  27
ATOM     27  C   UNL A   1      38.805  22.417  26.184  1.00  0.00     0.060 A 
ATOM     28  C   UNL A   1      38.250  23.685  26.043  1.00  0.00     0.016 A 
ATOM     29  C   UNL A   1      40.037  22.251  26.809  1.00  0.00     0.016 A 
ATOM     30  C   UNL A   1      38.976  24.812  26.414  1.00  0.00     0.010 A 
ATOM     31  C   UNL A   1      40.721  23.382  27.275  1.00  0.00     0.010 A 
ATOM     32  C   UNL A   1      40.224  24.680  27.038  1.00  0.00    -0.014 A 
BRANCH  32  33
ATOM     33  C   UNL A   1      41.028  25.891  27.373  1.00  0.00     0.031 A 
ATOM     34  C   UNL A   1      40.508  26.894  28.373  1.00  0.00     0.074 A 
ATOM     35  C   UNL A   1      42.248  26.088  26.831  1.00  0.00     0.049 A 
ATOM     36  N   UNL A   1      40.972  28.082  28.672  1.00  0.00    -0.248 NA
ATOM     37  C   UNL A   1      39.301  26.517  29.127  1.00  0.00     0.031 C 
ATOM     38  C   UNL A   1      42.926  25.183  25.901  1.00  0.00     0.029 A 
ATOM     39  N   UNL A   1      43.146  27.114  27.003  1.00  0.00    -0.354 N 
ATOM     40  C   UNL A   1      40.079  28.619  29.593  1.00  0.00     0.074 A 
ATOM     41  C   UNL A   1      39.050  27.625  29.809  1.00  0.00     0.031 C 
ATOM     42  C   UNL A   1      44.150  25.662  25.633  1.00  0.00     0.029 A 
ATOM     43  C   UNL A   1      44.312  26.951  26.297  1.00  0.00     0.049 A 
ATOM     44  H   UNL A   1      42.969  27.893  27.580  1.00  0.00     0.167 HD
ATOM     45  C   UNL A   1      40.108  29.830  30.200  1.00  0.00     0.031 A 
ATOM     46  C   UNL A   1      45.381  27.759  26.164  1.00  0.00     0.031 A 
ATOM     47  C   UNL A   1      41.156  30.801  30.040  1.00  0.00     0.049 A 
ATOM     48  C   UNL A   1      45.384  29.102  26.834  1.00  0.00     0.074 A 
ATOM     49  C   UNL A   1      41.260  32.061  30.605  1.00  0.00     0.029 A 
ATOM     50  N   UNL A   1      42.299  30.606  29.284  1.00  0.00    -0.354 N 
ATOM     51  N   UNL A   1      44.482  29.635  27.620  1.00  0.00    -0.248 NA
ATOM     52  C   UNL A   1      46.547  29.965  26.575  1.00  0.00     0.031 C 
ATOM     53  C   UNL A   1      42.459  32.639  30.169  1.00  0.00     0.029 A 
ATOM     54  C   UNL A   1      43.114  31.722  29.365  1.00  0.00     0.049 A 
ATOM     55  H   UNL A   1      42.503  29.795  28.764  1.00  0.00     0.167 HD
ATOM     56  C   UNL A   1      44.968  30.893  27.951  1.00  0.00     0.074 A 
ATOM     57  C   UNL A   1      46.255  31.033  27.303  1.00  0.00     0.031 C 
ATOM     58  C   UNL A   1      44.391  31.851  28.716  1.00  0.00     0.031 A 
BRANCH  45  59
ATOM     59  C   UNL A   1      38.934  30.193  31.064  1.00  0.00    -0.014 A 
ATOM     60  C   UNL A   1      37.803  30.834  30.538  1.00  0.00     0.009 A 
ATOM     61  C   UNL A   1      38.956  29.859  32.428  1.00  0.00     0.009 A 
ATOM     62  C   UNL A   1      36.730  31.161  31.369  1.00  0.00     0.001 A 
ATOM     63  C   UNL A   1      37.872  30.167  33.251  1.00  0.00     0.001 A 
ATOM     64  C   UNL A   1      36.764  30.826  32.723  1.00  0.00     0.000 A 
ENDBRANCH  45  59
BRANCH  46  65
ATOM     65  C   UNL A   1      46.526  27.339  25.316  1.00  0.00    -0.014 A 
ATOM     66  C   UNL A   1      46.703  27.886  24.037  1.00  0.00     0.009 A 
ATOM     67  C   UNL A   1      47.442  26.382  25.780  1.00  0.00     0.009 A 
ATOM     68  C   UNL A   1      47.768  27.473  23.233  1.00  0.00     0.001 A 
ATOM     69  C   UNL A   1      48.520  25.991  24.985  1.00  0.00     0.001 A 
ATOM     70  C   UNL A   1      48.678  26.530  23.710  1.00  0.00     0.000 A 
ENDBRANCH  46  65
BRANCH  58  71
ATOM     71  C   UNL A   1      45.162  33.123  28.908  1.00  0.00    -0.014 A 
ATOM     72  C   UNL A   1      46.080  33.259  29.961  1.00  0.00     0.009 A 
ATOM     73  C   UNL A   1      44.985  34.189  28.013  1.00  0.00     0.009 A 
ATOM     74  C   UNL A   1      46.784  34.452  30.132  1.00  0.00     0.001 A 
ATOM     75  C   UNL A   1      45.704  35.373  28.175  1.00  0.00     0.001 A 
ATOM     76  C   UNL A   1      46.597  35.507  29.237  1.00  0.00     0.000 A 
ENDBRANCH  58  71
ENDBRANCH  32  33
ENDBRANCH  25  27
ENDBRANCH  24  25
ENDBRANCH  23  24
ENDBRANCH   1  23
TORSDOF 17
ENDMDL
MODEL 2
REMARK VINA RESULT:      -9.6      2.740      6.670
REMARK SMILES COc1ccc(OC)c(C[NH2+][C@@H](C(=O)OCCOC(=O)c2ccc(-c3c4nc(c(-c5ccccc5)c5ccc([nH]5)c(-c5ccccc5)c5nc(c(-c6ccccc6)c6ccc3[nH]6)C=C5)C=C4)cc2)C(C)C)c1
REMARK SMILES IDX 16 1 15 2 13 3 14 4 12 5 11 6 10 9 9 10 3 11 4 12 72 13 5 14
REMARK SMILES IDX 6 15 2 16 1 17 7 18 8 19 69 20 70 21 71 22 17 23 18 24 19 25
REMARK SMILES IDX 20 26 21 27 22 28 68 29 23 30 67 31 24 32 25 33 26 34 61 35
REMARK SMILES IDX 27 36 66 37 60 38 62 39 28 40 65 41 59 42 58 43 29 45 51 46
REMARK SMILES IDX 36 47 50 48 37 49 40 50 49 51 63 52 38 53 39 54 48 56 64 57
REMARK SMILES IDX 41 58 30 59 31 60 35 61 32 62 34 63 33 64 52 65 53 66 57 67
REMARK SMILES IDX 54 68 56 69 55 70 42 71 43 72 47 73 44 74 46 75 45 76
REMARK H PARENT 11 7 11 8 62 44 40 55
REMARK Flexibility Score: inf
ROOT
ATOM      1  C   UNL A   1      31.994  29.058  26.051  1.00  0.00     0.274 C 
ENDROOT
BRANCH   1   2
ATOM      2  O   UNL A   1      32.852  29.571  25.010  1.00  0.00    -0.458 OA
BRANCH   2   3
ATOM      3  C   UNL A   1      32.929  28.853  23.853  1.00  0.00     0.365 C 
ATOM      4  O   UNL A   1      33.444  29.277  22.826  1.00  0.00    -0.245 OA
BRANCH   3   5
ATOM      5  C   UNL A   1      32.256  27.454  23.961  1.00  0.00     0.296 C 
BRANCH   5   6
ATOM      6  N   UNL A   1      33.225  26.343  23.799  1.00  0.00    -0.330 N 
ATOM      7  H   UNL A   1      32.704  25.468  23.734  1.00  0.00     0.347 HD
ATOM      8  H   UNL A   1      33.765  26.538  22.956  1.00  0.00     0.347 HD
BRANCH   6   9
ATOM      9  C   UNL A   1      34.178  26.230  24.897  1.00  0.00     0.302 C 
BRANCH   9  10
ATOM     10  C   UNL A   1      34.073  24.886  25.582  1.00  0.00     0.052 A 
ATOM     11  C   UNL A   1      32.641  23.397  26.915  1.00  0.00     0.119 A 
ATOM     12  C   UNL A   1      33.682  22.480  26.997  1.00  0.00     0.050 A 
ATOM     13  C   UNL A   1      32.844  24.595  26.229  1.00  0.00     0.059 A 
ATOM     14  C   UNL A   1      34.905  22.753  26.386  1.00  0.00     0.051 A 
ATOM     15  C   UNL A   1      35.110  23.941  25.668  1.00  0.00     0.127 A 
BRANCH  11  16
ATOM     16  O   UNL A   1      31.495  23.031  27.565  1.00  0.00    -0.497 OA
ATOM     17  C   UNL A   1      30.306  23.012  26.785  1.00  0.00     0.278 C 
ENDBRANCH  11  16
BRANCH  15  18
ATOM     18  O   UNL A   1      36.396  24.054  25.213  1.00  0.00    -0.496 OA
ATOM     19  C   UNL A   1      37.436  23.579  26.050  1.00  0.00     0.278 C 
ENDBRANCH  15  18
ENDBRANCH   9  10
ENDBRANCH   6   9
ENDBRANCH   5   6
BRANCH   5  20
ATOM     20  C   UNL A   1      31.102  27.225  22.939  1.00  0.00     0.053 C 
ATOM     21  C   UNL A   1      31.490  26.223  21.840  1.00  0.00     0.014 C 
ATOM     22  C   UNL A   1      29.800  26.735  23.584  1.00  0.00     0.014 C 
ENDBRANCH   5  20
ENDBRANCH   3   5
ENDBRANCH   2   3
ENDBRANCH   1   2
BRANCH   1  23
ATOM     23  C   UNL A   1      32.812  28.822  27.320  1.00  0.00     0.275 C 
BRANCH  23  24
ATOM     24  O   UNL A   1      34.177  29.211  27.081  1.00  0.00    -0.458 OA
BRANCH  24  25
ATOM     25  C   UNL A   1      34.575  30.313  27.753  1.00  0.00     0.338 C 
ATOM     26  O   UNL A   1      33.905  31.286  28.063  1.00  0.00    -0.246 OA
BRANCH  25  27
ATOM     27  C   UNL A   1      35.941  30.104  28.245  1.00  0.00     0.060 A 
ATOM     28  C   UNL A   1      36.980  30.324  27.346  1.00  0.00     0.016 A 
ATOM     29  C   UNL A   1      36.194  29.550  29.495  1.00  0.00     0.016 A 
ATOM     30  C   UNL A   1      38.264  29.880  27.639  1.00  0.00     0.010 A 
ATOM     31  C   UNL A   1      37.509  29.196  29.828  1.00  0.00     0.010 A 
ATOM     32  C   UNL A   1      38.552  29.309  28.886  1.00  0.00    -0.014 A 
BRANCH  32  33
ATOM     33  C   UNL A   1      39.915  28.772  29.171  1.00  0.00     0.031 A 
ATOM     34  C   UNL A   1      40.895  29.584  29.982  1.00  0.00     0.074 A 
ATOM     35  C   UNL A   1      40.279  27.542  28.755  1.00  0.00     0.049 A 
ATOM     36  N   UNL A   1      42.170  29.371  30.195  1.00  0.00    -0.248 NA
ATOM     37  C   UNL A   1      40.376  30.800  30.629  1.00  0.00     0.031 C 
ATOM     38  C   UNL A   1      39.430  26.602  28.020  1.00  0.00     0.029 A 
ATOM     39  N   UNL A   1      41.462  26.861  28.911  1.00  0.00    -0.354 N 
ATOM     40  C   UNL A   1      42.618  30.457  30.938  1.00  0.00     0.074 A 
ATOM     41  C   UNL A   1      41.478  31.324  31.146  1.00  0.00     0.031 C 
ATOM     42  C   UNL A   1      40.096  25.452  27.843  1.00  0.00     0.029 A 
ATOM     43  C   UNL A   1      41.450  25.600  28.368  1.00  0.00     0.049 A 
ATOM     44  H   UNL A   1      42.246  27.243  29.371  1.00  0.00     0.167 HD
ATOM     45  C   UNL A   1      43.865  30.715  31.402  1.00  0.00     0.031 A 
ATOM     46  C   UNL A   1      42.422  24.674  28.269  1.00  0.00     0.031 A 
ATOM     47  C   UNL A   1      44.991  29.833  31.254  1.00  0.00     0.049 A 
ATOM     48  C   UNL A   1      43.800  24.987  28.776  1.00  0.00     0.074 A 
ATOM     49  C   UNL A   1      46.296  30.020  31.679  1.00  0.00     0.029 A 
ATOM     50  N   UNL A   1      44.938  28.582  30.663  1.00  0.00    -0.354 N 
ATOM     51  N   UNL A   1      44.230  26.064  29.385  1.00  0.00    -0.248 NA
ATOM     52  C   UNL A   1      44.832  23.963  28.556  1.00  0.00     0.031 C 
ATOM     53  C   UNL A   1      47.039  28.888  31.322  1.00  0.00     0.029 A 
ATOM     54  C   UNL A   1      46.187  27.986  30.709  1.00  0.00     0.049 A 
ATOM     55  H   UNL A   1      44.133  28.177  30.267  1.00  0.00     0.167 HD
ATOM     56  C   UNL A   1      45.580  25.846  29.624  1.00  0.00     0.074 A 
ATOM     57  C   UNL A   1      45.892  24.526  29.118  1.00  0.00     0.031 C 
ATOM     58  C   UNL A   1      46.484  26.674  30.202  1.00  0.00     0.031 A 
BRANCH  45  59
ATOM     59  C   UNL A   1      44.087  32.038  32.077  1.00  0.00    -0.014 A 
ATOM     60  C   UNL A   1      44.524  33.164  31.363  1.00  0.00     0.009 A 
ATOM     61  C   UNL A   1      43.826  32.160  33.451  1.00  0.00     0.009 A 
ATOM     62  C   UNL A   1      44.724  34.379  32.021  1.00  0.00     0.001 A 
ATOM     63  C   UNL A   1      44.006  33.382  34.101  1.00  0.00     0.001 A 
ATOM     64  C   UNL A   1      44.463  34.488  33.387  1.00  0.00     0.000 A 
ENDBRANCH  45  59
BRANCH  46  65
ATOM     65  C   UNL A   1      42.140  23.372  27.613  1.00  0.00    -0.014 A 
ATOM     66  C   UNL A   1      41.553  22.322  28.336  1.00  0.00     0.009 A 
ATOM     67  C   UNL A   1      42.466  23.169  26.263  1.00  0.00     0.009 A 
ATOM     68  C   UNL A   1      41.310  21.092  27.723  1.00  0.00     0.001 A 
ATOM     69  C   UNL A   1      42.197  21.946  25.646  1.00  0.00     0.001 A 
ATOM     70  C   UNL A   1      41.627  20.907  26.378  1.00  0.00     0.000 A 
ENDBRANCH  46  65
BRANCH  58  71
ATOM     71  C   UNL A   1      47.888  26.161  30.335  1.00  0.00    -0.014 A 
ATOM     72  C   UNL A   1      48.762  26.154  29.237  1.00  0.00     0.009 A 
ATOM     73  C   UNL A   1      48.348  25.702  31.579  1.00  0.00     0.009 A 
ATOM     74  C   UNL A   1      50.063  25.667  29.375  1.00  0.00     0.001 A 
ATOM     75  C   UNL A   1      49.654  25.233  31.718  1.00  0.00     0.001 A 
ATOM     76  C   UNL A   1      50.508  25.209  30.615  1.00  0.00     0.000 A 
ENDBRANCH  58  71
ENDBRANCH  32  33
ENDBRANCH  25  27
ENDBRANCH  24  25
ENDBRANCH  23  24
ENDBRANCH   1  23
TORSDOF 17
ENDMDL
MODEL 3
REMARK VINA RESULT:      -9.5      3.305      8.725
REMARK SMILES COc1ccc(OC)c(C[NH2+][C@@H](C(=O)OCCOC(=O)c2ccc(-c3c4nc(c(-c5ccccc5)c5ccc([nH]5)c(-c5ccccc5)c5nc(c(-c6ccccc6)c6ccc3[nH]6)C=C5)C=C4)cc2)C(C)C)c1
REMARK SMILES IDX 16 1 15 2 13 3 14 4 12 5 11 6 10 9 9 10 3 11 4 12 72 13 5 14
REMARK SMILES IDX 6 15 2 16 1 17 7 18 8 19 69 20 70 21 71 22 17 23 18 24 19 25
REMARK SMILES IDX 20 26 21 27 22 28 68 29 23 30 67 31 24 32 25 33 26 34 61 35
REMARK SMILES IDX 27 36 66 37 60 38 62 39 28 40 65 41 59 42 58 43 29 45 51 46
REMARK SMILES IDX 36 47 50 48 37 49 40 50 49 51 63 52 38 53 39 54 48 56 64 57
REMARK SMILES IDX 41 58 30 59 31 60 35 61 32 62 34 63 33 64 52 65 53 66 57 67
REMARK SMILES IDX 54 68 56 69 55 70 42 71 43 72 47 73 44 74 46 75 45 76
REMARK H PARENT 11 7 11 8 62 44 40 55
REMARK Flexibility Score: inf
ROOT
ATOM      1  C   UNL A   1      31.433  29.052  25.368  1.00  0.00     0.274 C 
ENDROOT
BRANCH   1   2
ATOM      2  O   UNL A   1      31.207  28.916  23.949  1.00  0.00    -0.458 OA
BRANCH   2   3
ATOM      3  C   UNL A   1      31.512  27.716  23.379  1.00  0.00     0.365 C 
ATOM      4  O   UNL A   1      31.634  27.551  22.171  1.00  0.00    -0.245 OA
BRANCH   3   5
ATOM      5  C   UNL A   1      31.647  26.567  24.420  1.00  0.00     0.296 C 
BRANCH   5   6
ATOM      6  N   UNL A   1      32.806  25.683  24.144  1.00  0.00    -0.330 N 
ATOM      7  H   UNL A   1      32.453  24.778  23.833  1.00  0.00     0.347 HD
ATOM      8  H   UNL A   1      33.372  26.146  23.433  1.00  0.00     0.347 HD
BRANCH   6   9
ATOM      9  C   UNL A   1      33.668  25.467  25.299  1.00  0.00     0.302 C 
BRANCH   9  10
ATOM     10  C   UNL A   1      34.352  24.121  25.233  1.00  0.00     0.052 A 
ATOM     11  C   UNL A   1      36.472  22.907  25.518  1.00  0.00     0.119 A 
ATOM     12  C   UNL A   1      35.852  21.738  25.096  1.00  0.00     0.050 A 
ATOM     13  C   UNL A   1      35.731  24.089  25.567  1.00  0.00     0.059 A 
ATOM     14  C   UNL A   1      34.503  21.748  24.744  1.00  0.00     0.051 A 
ATOM     15  C   UNL A   1      33.740  22.924  24.819  1.00  0.00     0.127 A 
BRANCH  11  16
ATOM     16  O   UNL A   1      37.799  22.781  25.822  1.00  0.00    -0.497 OA
ATOM     17  C   UNL A   1      38.431  23.930  26.374  1.00  0.00     0.278 C 
ENDBRANCH  11  16
BRANCH  15  18
ATOM     18  O   UNL A   1      32.465  22.743  24.358  1.00  0.00    -0.496 OA
ATOM     19  C   UNL A   1      32.304  22.257  23.037  1.00  0.00     0.278 C 
ENDBRANCH  15  18
ENDBRANCH   9  10
ENDBRANCH   6   9
ENDBRANCH   5   6
BRANCH   5  20
ATOM     20  C   UNL A   1      30.383  25.664  24.536  1.00  0.00     0.053 C 
ATOM     21  C   UNL A   1      30.088  25.262  25.990  1.00  0.00     0.014 C 
ATOM     22  C   UNL A   1      29.115  26.308  23.959  1.00  0.00     0.014 C 
ENDBRANCH   5  20
ENDBRANCH   3   5
ENDBRANCH   2   3
ENDBRANCH   1   2
BRANCH   1  23
ATOM     23  C   UNL A   1      31.671  30.522  25.711  1.00  0.00     0.275 C 
BRANCH  23  24
ATOM     24  O   UNL A   1      32.290  30.611  27.007  1.00  0.00    -0.458 OA
BRANCH  24  25
ATOM     25  C   UNL A   1      32.973  31.755  27.229  1.00  0.00     0.338 C 
ATOM     26  O   UNL A   1      32.543  32.898  27.224  1.00  0.00    -0.246 OA
BRANCH  25  27
ATOM     27  C   UNL A   1      34.329  31.421  27.677  1.00  0.00     0.060 A 
ATOM     28  C   UNL A   1      34.599  30.081  27.937  1.00  0.00     0.016 A 
ATOM     29  C   UNL A   1      35.261  32.404  27.993  1.00  0.00     0.016 A 
ATOM     30  C   UNL A   1      35.751  29.721  28.628  1.00  0.00     0.010 A 
ATOM     31  C   UNL A   1      36.468  32.027  28.598  1.00  0.00     0.010 A 
ATOM     32  C   UNL A   1      36.707  30.688  28.969  1.00  0.00    -0.014 A 
BRANCH  32  33
ATOM     33  C   UNL A   1      37.907  30.308  29.769  1.00  0.00     0.031 A 
ATOM     34  C   UNL A   1      39.022  29.514  29.133  1.00  0.00     0.074 A 
ATOM     35  C   UNL A   1      38.043  30.703  31.052  1.00  0.00     0.049 A 
ATOM     36  N   UNL A   1      40.061  28.947  29.695  1.00  0.00    -0.248 NA
ATOM     37  C   UNL A   1      38.954  29.324  27.674  1.00  0.00     0.031 C 
ATOM     38  C   UNL A   1      37.091  31.531  31.796  1.00  0.00     0.029 A 
ATOM     39  N   UNL A   1      39.053  30.474  31.954  1.00  0.00    -0.354 N 
ATOM     40  C   UNL A   1      40.727  28.279  28.675  1.00  0.00     0.074 A 
ATOM     41  C   UNL A   1      39.981  28.516  27.458  1.00  0.00     0.031 C 
ATOM     42  C   UNL A   1      37.589  31.788  33.014  1.00  0.00     0.029 A 
ATOM     43  C   UNL A   1      38.850  31.070  33.174  1.00  0.00     0.049 A 
ATOM     44  H   UNL A   1      39.850  29.933  31.744  1.00  0.00     0.167 HD
ATOM     45  C   UNL A   1      41.855  27.530  28.743  1.00  0.00     0.031 A 
ATOM     46  C   UNL A   1      39.573  31.023  34.309  1.00  0.00     0.031 A 
ATOM     47  C   UNL A   1      42.638  27.337  29.933  1.00  0.00     0.049 A 
ATOM     48  C   UNL A   1      40.810  30.175  34.366  1.00  0.00     0.074 A 
ATOM     49  C   UNL A   1      43.787  26.581  30.099  1.00  0.00     0.029 A 
ATOM     50  N   UNL A   1      42.371  27.931  31.155  1.00  0.00    -0.354 N 
ATOM     51  N   UNL A   1      41.370  29.466  33.417  1.00  0.00    -0.248 NA
ATOM     52  C   UNL A   1      41.501  30.103  35.663  1.00  0.00     0.031 C 
ATOM     53  C   UNL A   1      44.203  26.702  31.431  1.00  0.00     0.029 A 
ATOM     54  C   UNL A   1      43.332  27.559  32.080  1.00  0.00     0.049 A 
ATOM     55  H   UNL A   1      41.611  28.528  31.340  1.00  0.00     0.167 HD
ATOM     56  C   UNL A   1      42.478  28.867  34.000  1.00  0.00     0.074 A 
ATOM     57  C   UNL A   1      42.527  29.315  35.376  1.00  0.00     0.031 C 
ATOM     58  C   UNL A   1      43.369  28.011  33.445  1.00  0.00     0.031 A 
BRANCH  45  59
ATOM     59  C   UNL A   1      42.284  26.819  27.492  1.00  0.00    -0.014 A 
ATOM     60  C   UNL A   1      41.809  25.538  27.174  1.00  0.00     0.009 A 
ATOM     61  C   UNL A   1      43.162  27.460  26.604  1.00  0.00     0.009 A 
ATOM     62  C   UNL A   1      42.231  24.902  26.004  1.00  0.00     0.001 A 
ATOM     63  C   UNL A   1      43.563  26.832  25.425  1.00  0.00     0.001 A 
ATOM     64  C   UNL A   1      43.104  25.549  25.130  1.00  0.00     0.000 A 
ENDBRANCH  45  59
BRANCH  46  65
ATOM     65  C   UNL A   1      39.115  31.767  35.510  1.00  0.00    -0.014 A 
ATOM     66  C   UNL A   1      39.566  33.073  35.755  1.00  0.00     0.009 A 
ATOM     67  C   UNL A   1      38.231  31.170  36.423  1.00  0.00     0.009 A 
ATOM     68  C   UNL A   1      39.151  33.760  36.897  1.00  0.00     0.001 A 
ATOM     69  C   UNL A   1      37.798  31.870  37.549  1.00  0.00     0.001 A 
ATOM     70  C   UNL A   1      38.264  33.161  37.790  1.00  0.00     0.000 A 
ENDBRANCH  46  65
BRANCH  58  71
ATOM     71  C   UNL A   1      44.484  27.524  34.325  1.00  0.00    -0.014 A 
ATOM     72  C   UNL A   1      44.395  26.289  34.985  1.00  0.00     0.009 A 
ATOM     73  C   UNL A   1      45.644  28.299  34.474  1.00  0.00     0.009 A 
ATOM     74  C   UNL A   1      45.437  25.854  35.806  1.00  0.00     0.001 A 
ATOM     75  C   UNL A   1      46.690  27.852  35.280  1.00  0.00     0.001 A 
ATOM     76  C   UNL A   1      46.584  26.634  35.951  1.00  0.00     0.000 A 
ENDBRANCH  58  71
ENDBRANCH  32  33
ENDBRANCH  25  27
ENDBRANCH  24  25
ENDBRANCH  23  24
ENDBRANCH   1  23
TORSDOF 17
ENDMDL
