MODEL 1
REMARK VINA RESULT:     -10.3      0.000      0.000
REMARK SMILES Cn1c(Cl)cnc1C[N@@H+]1CCC[C@@H]1C(=O)OCCOC(=O)c1ccc(-c2c3nc(c(-c4ccccc4)c4ccc([nH]4)c(-c4ccccc4)c4nc(c(-c5ccccc5)c5ccc2[nH]5)C=C4)C=C3)cc1
REMARK SMILES IDX 17 1 16 2 14 3 15 4 13 5 9 6 10 7 11 9 12 10 8 11 7 12 1 13
REMARK SMILES IDX 2 14 3 15 4 16 5 17 6 18 18 19 19 20 20 21 21 22 22 23 23 24
REMARK SMILES IDX 69 25 24 26 68 27 25 28 26 29 27 30 62 31 28 32 67 33 61 34
REMARK SMILES IDX 63 35 29 36 66 37 60 38 59 39 30 41 52 42 37 43 51 44 38 45
REMARK SMILES IDX 41 46 50 47 64 48 39 49 40 50 49 52 65 53 42 54 31 55 32 56
REMARK SMILES IDX 36 57 33 58 35 59 34 60 53 61 54 62 58 63 55 64 57 65 56 66
REMARK SMILES IDX 43 67 44 68 48 69 45 70 47 71 46 72
REMARK H PARENT 9 8 63 40 41 51
REMARK Flexibility Score: inf
ROOT
ATOM      1  C   UNL A   1      32.836  29.452  27.101  1.00  0.00     0.274 C 
ENDROOT
BRANCH   1   2
ATOM      2  O   UNL A   1      32.437  28.698  25.939  1.00  0.00    -0.458 OA
BRANCH   2   3
ATOM      3  C   UNL A   1      31.628  27.615  26.100  1.00  0.00     0.365 C 
ATOM      4  O   UNL A   1      31.540  26.991  27.154  1.00  0.00    -0.245 OA
BRANCH   3   5
ATOM      5  C   UNL A   1      30.893  27.215  24.810  1.00  0.00     0.295 C 
ATOM      6  N   UNL A   1      31.563  26.168  23.998  1.00  0.00    -0.317 N 
ATOM      7  C   UNL A   1      31.102  26.354  22.619  1.00  0.00     0.263 C 
ATOM      8  H   UNL A   1      31.286  25.264  24.380  1.00  0.00     0.349 HD
ATOM      9  C   UNL A   1      30.722  27.813  22.452  1.00  0.00     0.068 C 
ATOM     10  C   UNL A   1      30.477  28.334  23.854  1.00  0.00     0.083 C 
BRANCH   6  11
ATOM     11  C   UNL A   1      33.021  26.013  24.126  1.00  0.00     0.339 C 
BRANCH  11  12
ATOM     12  C   UNL A   1      33.522  24.735  24.743  1.00  0.00     0.165 A 
ATOM     13  C   UNL A   1      33.412  23.330  22.648  1.00  0.00     0.152 C 
ATOM     14  N   UNL A   1      33.653  23.532  24.059  1.00  0.00    -0.317 N 
ATOM     15  C   UNL A   1      33.932  22.580  25.003  1.00  0.00     0.128 A 
ATOM     16  Cl  UNL A   1      34.035  20.921  24.650  1.00  0.00    -0.063 Cl
ATOM     17  C   UNL A   1      34.045  23.234  26.197  1.00  0.00     0.152 A 
ATOM     18  N   UNL A   1      33.856  24.575  26.013  1.00  0.00    -0.234 NA
ENDBRANCH  11  12
ENDBRANCH   6  11
ENDBRANCH   3   5
ENDBRANCH   2   3
ENDBRANCH   1   2
BRANCH   1  19
ATOM     19  C   UNL A   1      32.512  30.918  26.875  1.00  0.00     0.275 C 
BRANCH  19  20
ATOM     20  O   UNL A   1      33.481  31.667  27.586  1.00  0.00    -0.458 OA
BRANCH  20  21
ATOM     21  C   UNL A   1      33.098  32.912  27.960  1.00  0.00     0.338 C 
ATOM     22  O   UNL A   1      32.160  33.558  27.548  1.00  0.00    -0.246 OA
BRANCH  21  23
ATOM     23  C   UNL A   1      34.132  33.424  28.863  1.00  0.00     0.060 A 
ATOM     24  C   UNL A   1      35.113  34.143  28.189  1.00  0.00     0.016 A 
ATOM     25  C   UNL A   1      34.390  32.667  30.012  1.00  0.00     0.016 A 
ATOM     26  C   UNL A   1      36.403  33.736  28.392  1.00  0.00     0.010 A 
ATOM     27  C   UNL A   1      35.669  32.220  30.175  1.00  0.00     0.010 A 
ATOM     28  C   UNL A   1      36.637  32.686  29.291  1.00  0.00    -0.014 A 
BRANCH  28  29
ATOM     29  C   UNL A   1      37.999  32.266  29.479  1.00  0.00     0.031 A 
ATOM     30  C   UNL A   1      38.098  30.829  29.176  1.00  0.00     0.074 A 
ATOM     31  C   UNL A   1      39.019  33.083  29.782  1.00  0.00     0.049 A 
ATOM     32  N   UNL A   1      38.050  29.862  30.030  1.00  0.00    -0.248 NA
ATOM     33  C   UNL A   1      37.884  30.421  27.774  1.00  0.00     0.031 C 
ATOM     34  C   UNL A   1      39.063  34.544  29.809  1.00  0.00     0.029 A 
ATOM     35  N   UNL A   1      40.300  32.735  30.050  1.00  0.00    -0.354 N 
ATOM     36  C   UNL A   1      38.055  28.719  29.249  1.00  0.00     0.074 A 
ATOM     37  C   UNL A   1      37.632  29.122  27.934  1.00  0.00     0.031 C 
ATOM     38  C   UNL A   1      40.360  34.945  29.839  1.00  0.00     0.029 A 
ATOM     39  C   UNL A   1      41.214  33.774  29.974  1.00  0.00     0.049 A 
ATOM     40  H   UNL A   1      40.562  31.814  30.282  1.00  0.00     0.167 HD
ATOM     41  C   UNL A   1      38.802  27.644  29.617  1.00  0.00     0.031 A 
ATOM     42  C   UNL A   1      42.563  33.633  29.950  1.00  0.00     0.031 A 
ATOM     43  C   UNL A   1      39.166  27.709  31.011  1.00  0.00     0.049 A 
ATOM     44  C   UNL A   1      42.875  32.273  30.461  1.00  0.00     0.074 A 
ATOM     45  C   UNL A   1      38.463  27.777  32.199  1.00  0.00     0.029 A 
ATOM     46  N   UNL A   1      40.432  28.172  31.289  1.00  0.00    -0.354 N 
ATOM     47  N   UNL A   1      42.674  31.908  31.694  1.00  0.00    -0.248 NA
ATOM     48  C   UNL A   1      42.967  31.185  29.499  1.00  0.00     0.031 C 
ATOM     49  C   UNL A   1      39.205  28.673  33.025  1.00  0.00     0.029 A 
ATOM     50  C   UNL A   1      40.365  29.048  32.343  1.00  0.00     0.049 A 
ATOM     51  H   UNL A   1      41.253  27.915  30.810  1.00  0.00     0.167 HD
ATOM     52  C   UNL A   1      42.164  30.620  31.604  1.00  0.00     0.074 A 
ATOM     53  C   UNL A   1      42.471  30.190  30.240  1.00  0.00     0.031 C 
ATOM     54  C   UNL A   1      41.286  30.150  32.541  1.00  0.00     0.031 A 
BRANCH  41  55
ATOM     55  C   UNL A   1      39.587  26.854  28.599  1.00  0.00    -0.014 A 
ATOM     56  C   UNL A   1      40.594  27.502  27.874  1.00  0.00     0.009 A 
ATOM     57  C   UNL A   1      39.210  25.570  28.145  1.00  0.00     0.009 A 
ATOM     58  C   UNL A   1      41.164  26.907  26.741  1.00  0.00     0.001 A 
ATOM     59  C   UNL A   1      39.805  24.954  27.046  1.00  0.00     0.001 A 
ATOM     60  C   UNL A   1      40.770  25.636  26.328  1.00  0.00     0.000 A 
ENDBRANCH  41  55
BRANCH  42  61
ATOM     61  C   UNL A   1      43.575  34.421  29.210  1.00  0.00    -0.014 A 
ATOM     62  C   UNL A   1      44.828  34.692  29.785  1.00  0.00     0.009 A 
ATOM     63  C   UNL A   1      43.430  34.641  27.828  1.00  0.00     0.009 A 
ATOM     64  C   UNL A   1      45.908  35.121  29.000  1.00  0.00     0.001 A 
ATOM     65  C   UNL A   1      44.507  35.072  27.044  1.00  0.00     0.001 A 
ATOM     66  C   UNL A   1      45.750  35.296  27.626  1.00  0.00     0.000 A 
ENDBRANCH  42  61
BRANCH  54  67
ATOM     67  C   UNL A   1      41.119  30.966  33.806  1.00  0.00    -0.014 A 
ATOM     68  C   UNL A   1      40.151  31.976  33.969  1.00  0.00     0.009 A 
ATOM     69  C   UNL A   1      41.910  30.628  34.914  1.00  0.00     0.009 A 
ATOM     70  C   UNL A   1      40.015  32.652  35.189  1.00  0.00     0.001 A 
ATOM     71  C   UNL A   1      41.759  31.286  36.136  1.00  0.00     0.001 A 
ATOM     72  C   UNL A   1      40.820  32.305  36.272  1.00  0.00     0.000 A 
ENDBRANCH  54  67
ENDBRANCH  28  29
ENDBRANCH  21  23
ENDBRANCH  20  21
ENDBRANCH  19  20
ENDBRANCH   1  19
TORSDOF 13
ENDMDL
MODEL 2
REMARK VINA RESULT:     -10.3      4.386      8.715
REMARK SMILES Cn1c(Cl)cnc1C[N@@H+]1CCC[C@@H]1C(=O)OCCOC(=O)c1ccc(-c2c3nc(c(-c4ccccc4)c4ccc([nH]4)c(-c4ccccc4)c4nc(c(-c5ccccc5)c5ccc2[nH]5)C=C4)C=C3)cc1
REMARK SMILES IDX 17 1 16 2 14 3 15 4 13 5 9 6 10 7 11 9 12 10 8 11 7 12 1 13
REMARK SMILES IDX 2 14 3 15 4 16 5 17 6 18 18 19 19 20 20 21 21 22 22 23 23 24
REMARK SMILES IDX 69 25 24 26 68 27 25 28 26 29 27 30 62 31 28 32 67 33 61 34
REMARK SMILES IDX 63 35 29 36 66 37 60 38 59 39 30 41 52 42 37 43 51 44 38 45
REMARK SMILES IDX 41 46 50 47 64 48 39 49 40 50 49 52 65 53 42 54 31 55 32 56
REMARK SMILES IDX 36 57 33 58 35 59 34 60 53 61 54 62 58 63 55 64 57 65 56 66
REMARK SMILES IDX 43 67 44 68 48 69 45 70 47 71 46 72
REMARK H PARENT 9 8 63 40 41 51
REMARK Flexibility Score: inf
ROOT
ATOM      1  C   UNL A   1      37.127  22.649  25.118  1.00  0.00     0.274 C 
ENDROOT
BRANCH   1   2
ATOM      2  O   UNL A   1      35.701  22.483  24.987  1.00  0.00    -0.458 OA
BRANCH   2   3
ATOM      3  C   UNL A   1      35.105  22.791  23.802  1.00  0.00     0.365 C 
ATOM      4  O   UNL A   1      35.694  23.343  22.877  1.00  0.00    -0.245 OA
BRANCH   3   5
ATOM      5  C   UNL A   1      33.608  22.443  23.772  1.00  0.00     0.295 C 
ATOM      6  N   UNL A   1      32.688  23.583  24.011  1.00  0.00    -0.317 N 
ATOM      7  C   UNL A   1      31.445  23.010  24.537  1.00  0.00     0.263 C 
ATOM      8  H   UNL A   1      32.548  24.053  23.116  1.00  0.00     0.349 HD
ATOM      9  C   UNL A   1      31.795  21.704  25.226  1.00  0.00     0.068 C 
ATOM     10  C   UNL A   1      33.132  21.283  24.648  1.00  0.00     0.083 C 
BRANCH   6  11
ATOM     11  C   UNL A   1      33.188  24.734  24.779  1.00  0.00     0.339 C 
BRANCH  11  12
ATOM     12  C   UNL A   1      32.882  26.105  24.235  1.00  0.00     0.165 A 
ATOM     13  C   UNL A   1      31.367  26.840  26.115  1.00  0.00     0.152 C 
ATOM     14  N   UNL A   1      32.028  27.017  24.842  1.00  0.00    -0.317 N 
ATOM     15  C   UNL A   1      31.856  28.039  23.947  1.00  0.00     0.128 A 
ATOM     16  Cl  UNL A   1      30.771  29.323  24.198  1.00  0.00    -0.063 Cl
ATOM     17  C   UNL A   1      32.661  27.763  22.879  1.00  0.00     0.152 A 
ATOM     18  N   UNL A   1      33.342  26.599  23.097  1.00  0.00    -0.234 NA
ENDBRANCH  11  12
ENDBRANCH   6  11
ENDBRANCH   3   5
ENDBRANCH   2   3
ENDBRANCH   1   2
BRANCH   1  19
ATOM     19  C   UNL A   1      37.785  21.282  25.145  1.00  0.00     0.275 C 
BRANCH  19  20
ATOM     20  O   UNL A   1      39.042  21.443  25.776  1.00  0.00    -0.458 OA
BRANCH  20  21
ATOM     21  C   UNL A   1      39.866  20.369  25.720  1.00  0.00     0.338 C 
ATOM     22  O   UNL A   1      39.597  19.240  25.374  1.00  0.00    -0.246 OA
BRANCH  21  23
ATOM     23  C   UNL A   1      41.143  20.778  26.313  1.00  0.00     0.060 A 
ATOM     24  C   UNL A   1      41.150  20.643  27.696  1.00  0.00     0.016 A 
ATOM     25  C   UNL A   1      41.856  21.776  25.636  1.00  0.00     0.016 A 
ATOM     26  C   UNL A   1      41.486  21.761  28.409  1.00  0.00     0.010 A 
ATOM     27  C   UNL A   1      42.137  22.910  26.340  1.00  0.00     0.010 A 
ATOM     28  C   UNL A   1      41.848  22.918  27.702  1.00  0.00    -0.014 A 
BRANCH  28  29
ATOM     29  C   UNL A   1      42.185  24.085  28.470  1.00  0.00     0.031 A 
ATOM     30  C   UNL A   1      41.241  25.162  28.134  1.00  0.00     0.074 A 
ATOM     31  C   UNL A   1      43.142  24.135  29.409  1.00  0.00     0.049 A 
ATOM     32  N   UNL A   1      41.430  26.104  27.272  1.00  0.00    -0.248 NA
ATOM     33  C   UNL A   1      39.835  24.974  28.538  1.00  0.00     0.031 C 
ATOM     34  C   UNL A   1      43.917  23.049  30.007  1.00  0.00     0.029 A 
ATOM     35  N   UNL A   1      43.557  25.222  30.102  1.00  0.00    -0.354 N 
ATOM     36  C   UNL A   1      40.220  26.774  27.229  1.00  0.00     0.074 A 
ATOM     37  C   UNL A   1      39.233  25.865  27.750  1.00  0.00     0.031 C 
ATOM     38  C   UNL A   1      44.523  23.507  31.132  1.00  0.00     0.029 A 
ATOM     39  C   UNL A   1      44.288  24.939  31.245  1.00  0.00     0.049 A 
ATOM     40  H   UNL A   1      43.356  26.143  29.816  1.00  0.00     0.167 HD
ATOM     41  C   UNL A   1      40.191  28.132  27.178  1.00  0.00     0.031 A 
ATOM     42  C   UNL A   1      44.590  25.829  32.225  1.00  0.00     0.031 A 
ATOM     43  C   UNL A   1      41.462  28.669  26.756  1.00  0.00     0.049 A 
ATOM     44  C   UNL A   1      44.407  27.190  31.657  1.00  0.00     0.074 A 
ATOM     45  C   UNL A   1      42.255  28.525  25.634  1.00  0.00     0.029 A 
ATOM     46  N   UNL A   1      42.291  29.128  27.754  1.00  0.00    -0.354 N 
ATOM     47  N   UNL A   1      45.165  27.683  30.721  1.00  0.00    -0.248 NA
ATOM     48  C   UNL A   1      43.103  27.819  31.796  1.00  0.00     0.031 C 
ATOM     49  C   UNL A   1      43.596  28.494  26.122  1.00  0.00     0.029 A 
ATOM     50  C   UNL A   1      43.571  28.700  27.503  1.00  0.00     0.049 A 
ATOM     51  H   UNL A   1      42.012  29.675  28.523  1.00  0.00     0.167 HD
ATOM     52  C   UNL A   1      44.291  28.348  29.871  1.00  0.00     0.074 A 
ATOM     53  C   UNL A   1      43.056  28.491  30.641  1.00  0.00     0.031 C 
ATOM     54  C   UNL A   1      44.558  28.447  28.534  1.00  0.00     0.031 A 
BRANCH  41  55
ATOM     55  C   UNL A   1      39.194  28.922  27.989  1.00  0.00    -0.014 A 
ATOM     56  C   UNL A   1      39.239  28.833  29.385  1.00  0.00     0.009 A 
ATOM     57  C   UNL A   1      38.057  29.551  27.433  1.00  0.00     0.009 A 
ATOM     58  C   UNL A   1      38.186  29.317  30.173  1.00  0.00     0.001 A 
ATOM     59  C   UNL A   1      37.028  30.075  28.213  1.00  0.00     0.001 A 
ATOM     60  C   UNL A   1      37.084  29.936  29.588  1.00  0.00     0.000 A 
ENDBRANCH  41  55
BRANCH  42  61
ATOM     61  C   UNL A   1      44.683  25.617  33.687  1.00  0.00    -0.014 A 
ATOM     62  C   UNL A   1      43.553  25.228  34.425  1.00  0.00     0.009 A 
ATOM     63  C   UNL A   1      45.940  25.496  34.307  1.00  0.00     0.009 A 
ATOM     64  C   UNL A   1      43.679  24.693  35.715  1.00  0.00     0.001 A 
ATOM     65  C   UNL A   1      46.066  24.963  35.596  1.00  0.00     0.001 A 
ATOM     66  C   UNL A   1      44.938  24.547  36.294  1.00  0.00     0.000 A 
ENDBRANCH  42  61
BRANCH  54  67
ATOM     67  C   UNL A   1      45.949  28.063  28.074  1.00  0.00    -0.014 A 
ATOM     68  C   UNL A   1      47.022  28.969  27.971  1.00  0.00     0.009 A 
ATOM     69  C   UNL A   1      46.208  26.707  27.830  1.00  0.00     0.009 A 
ATOM     70  C   UNL A   1      48.298  28.533  27.592  1.00  0.00     0.001 A 
ATOM     71  C   UNL A   1      47.486  26.268  27.475  1.00  0.00     0.001 A 
ATOM     72  C   UNL A   1      48.529  27.182  27.345  1.00  0.00     0.000 A 
ENDBRANCH  54  67
ENDBRANCH  28  29
ENDBRANCH  21  23
ENDBRANCH  20  21
ENDBRANCH  19  20
ENDBRANCH   1  19
TORSDOF 13
ENDMDL
MODEL 3
REMARK VINA RESULT:     -10.2      4.488      9.516
REMARK SMILES Cn1c(Cl)cnc1C[N@@H+]1CCC[C@@H]1C(=O)OCCOC(=O)c1ccc(-c2c3nc(c(-c4ccccc4)c4ccc([nH]4)c(-c4ccccc4)c4nc(c(-c5ccccc5)c5ccc2[nH]5)C=C4)C=C3)cc1
REMARK SMILES IDX 17 1 16 2 14 3 15 4 13 5 9 6 10 7 11 9 12 10 8 11 7 12 1 13
REMARK SMILES IDX 2 14 3 15 4 16 5 17 6 18 18 19 19 20 20 21 21 22 22 23 23 24
REMARK SMILES IDX 69 25 24 26 68 27 25 28 26 29 27 30 62 31 28 32 67 33 61 34
REMARK SMILES IDX 63 35 29 36 66 37 60 38 59 39 30 41 52 42 37 43 51 44 38 45
REMARK SMILES IDX 41 46 50 47 64 48 39 49 40 50 49 52 65 53 42 54 31 55 32 56
REMARK SMILES IDX 36 57 33 58 35 59 34 60 53 61 54 62 58 63 55 64 57 65 56 66
REMARK SMILES IDX 43 67 44 68 48 69 45 70 47 71 46 72
REMARK H PARENT 9 8 63 40 41 51
REMARK Flexibility Score: inf
ROOT
ATOM      1  C   UNL A   1      37.711  34.437  33.689  1.00  0.00     0.274 C 
ENDROOT
BRANCH   1   2
ATOM      2  O   UNL A   1      36.415  35.038  33.496  1.00  0.00    -0.458 OA
BRANCH   2   3
ATOM      3  C   UNL A   1      35.304  34.255  33.576  1.00  0.00     0.365 C 
ATOM      4  O   UNL A   1      35.316  33.117  34.038  1.00  0.00    -0.245 OA
BRANCH   3   5
ATOM      5  C   UNL A   1      34.056  34.915  32.966  1.00  0.00     0.295 C 
ATOM      6  N   UNL A   1      33.815  34.611  31.533  1.00  0.00    -0.317 N 
ATOM      7  C   UNL A   1      33.028  35.726  31.000  1.00  0.00     0.263 C 
ATOM      8  H   UNL A   1      33.309  33.726  31.492  1.00  0.00     0.349 HD
ATOM      9  C   UNL A   1      33.340  36.953  31.835  1.00  0.00     0.068 C 
ATOM     10  C   UNL A   1      33.894  36.425  33.145  1.00  0.00     0.083 C 
BRANCH   6  11
ATOM     11  C   UNL A   1      34.966  34.236  30.697  1.00  0.00     0.339 C 
BRANCH  11  12
ATOM     12  C   UNL A   1      34.768  33.100  29.729  1.00  0.00     0.165 A 
ATOM     13  C   UNL A   1      36.000  31.350  31.067  1.00  0.00     0.152 C 
ATOM     14  N   UNL A   1      35.278  31.819  29.907  1.00  0.00    -0.317 N 
ATOM     15  C   UNL A   1      35.062  31.151  28.731  1.00  0.00     0.128 A 
ATOM     16  Cl  UNL A   1      35.650  29.586  28.429  1.00  0.00    -0.063 Cl
ATOM     17  C   UNL A   1      34.366  32.002  27.921  1.00  0.00     0.152 A 
ATOM     18  N   UNL A   1      34.131  33.180  28.572  1.00  0.00    -0.234 NA
ENDBRANCH  11  12
ENDBRANCH   6  11
ENDBRANCH   3   5
ENDBRANCH   2   3
ENDBRANCH   1   2
BRANCH   1  19
ATOM     19  C   UNL A   1      38.439  34.391  32.358  1.00  0.00     0.275 C 
BRANCH  19  20
ATOM     20  O   UNL A   1      38.985  33.090  32.232  1.00  0.00    -0.458 OA
BRANCH  20  21
ATOM     21  C   UNL A   1      40.323  33.036  32.026  1.00  0.00     0.338 C 
ATOM     22  O   UNL A   1      41.199  33.576  32.663  1.00  0.00    -0.246 OA
BRANCH  21  23
ATOM     23  C   UNL A   1      40.531  32.314  30.766  1.00  0.00     0.060 A 
ATOM     24  C   UNL A   1      39.511  31.409  30.501  1.00  0.00     0.016 A 
ATOM     25  C   UNL A   1      41.860  32.108  30.377  1.00  0.00     0.016 A 
ATOM     26  C   UNL A   1      39.897  30.118  30.264  1.00  0.00     0.010 A 
ATOM     27  C   UNL A   1      42.250  30.812  30.197  1.00  0.00     0.010 A 
ATOM     28  C   UNL A   1      41.269  29.826  30.249  1.00  0.00    -0.014 A 
BRANCH  28  29
ATOM     29  C   UNL A   1      41.653  28.462  30.011  1.00  0.00     0.031 A 
ATOM     30  C   UNL A   1      42.371  27.959  31.193  1.00  0.00     0.074 A 
ATOM     31  C   UNL A   1      41.315  27.748  28.926  1.00  0.00     0.049 A 
ATOM     32  N   UNL A   1      43.652  27.924  31.353  1.00  0.00    -0.248 NA
ATOM     33  C   UNL A   1      41.593  27.804  32.437  1.00  0.00     0.031 C 
ATOM     34  C   UNL A   1      40.370  28.070  27.859  1.00  0.00     0.029 A 
ATOM     35  N   UNL A   1      41.714  26.492  28.612  1.00  0.00    -0.354 N 
ATOM     36  C   UNL A   1      43.820  27.494  32.657  1.00  0.00     0.074 A 
ATOM     37  C   UNL A   1      42.577  27.754  33.335  1.00  0.00     0.031 C 
ATOM     38  C   UNL A   1      40.096  26.940  27.158  1.00  0.00     0.029 A 
ATOM     39  C   UNL A   1      40.948  25.864  27.642  1.00  0.00     0.049 A 
ATOM     40  H   UNL A   1      42.490  26.059  29.038  1.00  0.00     0.167 HD
ATOM     41  C   UNL A   1      44.786  26.587  32.959  1.00  0.00     0.031 A 
ATOM     42  C   UNL A   1      40.989  24.541  27.345  1.00  0.00     0.031 A 
ATOM     43  C   UNL A   1      45.781  26.513  31.917  1.00  0.00     0.049 A 
ATOM     44  C   UNL A   1      42.262  24.004  27.891  1.00  0.00     0.074 A 
ATOM     45  C   UNL A   1      46.646  27.417  31.331  1.00  0.00     0.029 A 
ATOM     46  N   UNL A   1      45.652  25.473  31.025  1.00  0.00    -0.354 N 
ATOM     47  N   UNL A   1      43.434  24.332  27.430  1.00  0.00    -0.248 NA
ATOM     48  C   UNL A   1      42.256  23.472  29.245  1.00  0.00     0.031 C 
ATOM     49  C   UNL A   1      46.656  27.083  29.944  1.00  0.00     0.029 A 
ATOM     50  C   UNL A   1      45.868  25.946  29.755  1.00  0.00     0.049 A 
ATOM     51  H   UNL A   1      45.441  24.540  31.259  1.00  0.00     0.167 HD
ATOM     52  C   UNL A   1      44.230  24.484  28.557  1.00  0.00     0.074 A 
ATOM     53  C   UNL A   1      43.482  23.836  29.633  1.00  0.00     0.031 C 
ATOM     54  C   UNL A   1      45.265  25.376  28.565  1.00  0.00     0.031 A 
BRANCH  41  55
ATOM     55  C   UNL A   1      44.523  25.458  33.925  1.00  0.00    -0.014 A 
ATOM     56  C   UNL A   1      45.013  25.562  35.232  1.00  0.00     0.009 A 
ATOM     57  C   UNL A   1      44.035  24.191  33.534  1.00  0.00     0.009 A 
ATOM     58  C   UNL A   1      45.040  24.449  36.083  1.00  0.00     0.001 A 
ATOM     59  C   UNL A   1      44.017  23.092  34.390  1.00  0.00     0.001 A 
ATOM     60  C   UNL A   1      44.544  23.217  35.662  1.00  0.00     0.000 A 
ENDBRANCH  41  55
BRANCH  42  61
ATOM     61  C   UNL A   1      39.888  23.635  26.945  1.00  0.00    -0.014 A 
ATOM     62  C   UNL A   1      38.632  24.154  26.589  1.00  0.00     0.009 A 
ATOM     63  C   UNL A   1      40.156  22.294  26.617  1.00  0.00     0.009 A 
ATOM     64  C   UNL A   1      37.699  23.377  25.888  1.00  0.00     0.001 A 
ATOM     65  C   UNL A   1      39.225  21.517  25.919  1.00  0.00     0.001 A 
ATOM     66  C   UNL A   1      38.003  22.062  25.540  1.00  0.00     0.000 A 
ENDBRANCH  42  61
BRANCH  54  67
ATOM     67  C   UNL A   1      45.681  25.969  27.235  1.00  0.00    -0.014 A 
ATOM     68  C   UNL A   1      46.678  25.420  26.405  1.00  0.00     0.009 A 
ATOM     69  C   UNL A   1      44.962  27.074  26.755  1.00  0.00     0.009 A 
ATOM     70  C   UNL A   1      46.972  25.989  25.159  1.00  0.00     0.001 A 
ATOM     71  C   UNL A   1      45.239  27.627  25.503  1.00  0.00     0.001 A 
ATOM     72  C   UNL A   1      46.250  27.093  24.709  1.00  0.00     0.000 A 
ENDBRANCH  54  67
ENDBRANCH  28  29
ENDBRANCH  21  23
ENDBRANCH  20  21
ENDBRANCH  19  20
ENDBRANCH   1  19
TORSDOF 13
ENDMDL
