MODEL 1
REMARK VINA RESULT:     -10.8      0.000      0.000
REMARK SMILES COc1ccc(-n2nc(C(=O)OCCOC(=O)c3ccc(-c4c5nc(c(-c6ccccc6)c6ccc([nH]6)c(-c6ccccc6)c6nc(c(-c7ccccc7)c7ccc4[nH]7)C=C6)C=C5)cc3)c(=O)cc2C)cc1
REMARK SMILES IDX 13 1 12 2 10 3 11 4 9 5 7 6 8 7 69 8 68 9 70 10 66 11 67 12
REMARK SMILES IDX 6 13 3 14 4 15 72 16 5 17 71 18 2 19 1 20 14 21 15 22 16 23
REMARK SMILES IDX 17 24 18 25 19 26 65 27 20 28 64 29 21 30 22 31 23 32 58 33
REMARK SMILES IDX 24 34 63 35 57 36 59 37 25 38 62 39 56 40 55 41 26 43 48 44
REMARK SMILES IDX 33 45 47 46 34 47 37 48 46 49 60 50 35 51 36 52 45 54 61 55
REMARK SMILES IDX 38 56 27 57 28 58 32 59 29 60 31 61 30 62 49 63 50 64 54 65
REMARK SMILES IDX 51 66 53 67 52 68 39 69 40 70 44 71 41 72 43 73 42 74
REMARK H PARENT 59 42 37 53
REMARK Flexibility Score: inf
ROOT
ATOM      1  C   UNL A   1      35.392  21.079  25.024  1.00  0.00     0.275 C 
ENDROOT
BRANCH   1   2
ATOM      2  O   UNL A   1      35.552  22.510  24.940  1.00  0.00    -0.457 OA
BRANCH   2   3
ATOM      3  C   UNL A   1      35.244  23.080  23.760  1.00  0.00     0.363 C 
ATOM      4  O   UNL A   1      35.882  23.020  22.724  1.00  0.00    -0.244 OA
BRANCH   3   5
ATOM      5  C   UNL A   1      33.906  23.794  23.822  1.00  0.00     0.216 A 
ATOM      6  N   UNL A   1      32.693  25.622  24.535  1.00  0.00    -0.237 N 
ATOM      7  N   UNL A   1      33.891  24.975  24.381  1.00  0.00    -0.156 NA
ATOM      8  C   UNL A   1      31.467  25.073  24.158  1.00  0.00     0.044 A 
ATOM      9  C   UNL A   1      31.389  23.880  23.546  1.00  0.00     0.078 A 
ATOM     10  C   UNL A   1      30.179  25.818  24.406  1.00  0.00     0.067 C 
ATOM     11  C   UNL A   1      32.644  23.150  23.328  1.00  0.00     0.215 A 
ATOM     12  O   UNL A   1      32.663  22.045  22.806  1.00  0.00    -0.287 OA
BRANCH   6  13
ATOM     13  C   UNL A   1      32.829  26.907  25.138  1.00  0.00     0.065 A 
ATOM     14  C   UNL A   1      33.081  29.447  26.341  1.00  0.00     0.119 A 
ATOM     15  C   UNL A   1      32.818  28.321  27.120  1.00  0.00     0.048 A 
ATOM     16  C   UNL A   1      33.241  29.305  24.962  1.00  0.00     0.048 A 
ATOM     17  C   UNL A   1      32.680  27.062  26.524  1.00  0.00     0.032 A 
ATOM     18  C   UNL A   1      33.113  28.043  24.366  1.00  0.00     0.032 A 
BRANCH  14  19
ATOM     19  O   UNL A   1      33.209  30.620  27.031  1.00  0.00    -0.497 OA
ATOM     20  C   UNL A   1      34.493  30.868  27.593  1.00  0.00     0.278 C 
ENDBRANCH  14  19
ENDBRANCH   6  13
ENDBRANCH   3   5
ENDBRANCH   2   3
ENDBRANCH   1   2
BRANCH   1  21
ATOM     21  C   UNL A   1      36.754  20.381  24.995  1.00  0.00     0.275 C 
BRANCH  21  22
ATOM     22  O   UNL A   1      37.825  21.344  24.952  1.00  0.00    -0.458 OA
BRANCH  22  23
ATOM     23  C   UNL A   1      38.877  21.039  25.742  1.00  0.00     0.338 C 
ATOM     24  O   UNL A   1      39.490  19.982  25.788  1.00  0.00    -0.246 OA
BRANCH  23  25
ATOM     25  C   UNL A   1      39.322  22.220  26.489  1.00  0.00     0.060 A 
ATOM     26  C   UNL A   1      38.719  23.429  26.169  1.00  0.00     0.016 A 
ATOM     27  C   UNL A   1      40.450  22.192  27.305  1.00  0.00     0.016 A 
ATOM     28  C   UNL A   1      39.320  24.624  26.534  1.00  0.00     0.010 A 
ATOM     29  C   UNL A   1      41.005  23.403  27.747  1.00  0.00     0.010 A 
ATOM     30  C   UNL A   1      40.490  24.636  27.303  1.00  0.00    -0.014 A 
BRANCH  30  31
ATOM     31  C   UNL A   1      41.194  25.933  27.533  1.00  0.00     0.031 A 
ATOM     32  C   UNL A   1      40.581  26.988  28.426  1.00  0.00     0.074 A 
ATOM     33  C   UNL A   1      42.425  26.143  27.021  1.00  0.00     0.049 A 
ATOM     34  N   UNL A   1      41.004  28.201  28.687  1.00  0.00    -0.248 NA
ATOM     35  C   UNL A   1      39.321  26.644  29.108  1.00  0.00     0.031 C 
ATOM     36  C   UNL A   1      43.173  25.196  26.191  1.00  0.00     0.029 A 
ATOM     37  N   UNL A   1      43.279  27.212  27.148  1.00  0.00    -0.354 N 
ATOM     38  C   UNL A   1      40.036  28.779  29.504  1.00  0.00     0.074 A 
ATOM     39  C   UNL A   1      39.000  27.789  29.691  1.00  0.00     0.031 C 
ATOM     40  C   UNL A   1      44.388  25.700  25.930  1.00  0.00     0.029 A 
ATOM     41  C   UNL A   1      44.474  27.042  26.490  1.00  0.00     0.049 A 
ATOM     42  H   UNL A   1      43.055  28.023  27.660  1.00  0.00     0.167 HD
ATOM     43  C   UNL A   1      40.012  30.019  30.049  1.00  0.00     0.031 A 
ATOM     44  C   UNL A   1      45.515  27.879  26.324  1.00  0.00     0.031 A 
ATOM     45  C   UNL A   1      41.071  30.986  29.916  1.00  0.00     0.049 A 
ATOM     46  C   UNL A   1      45.451  29.255  26.925  1.00  0.00     0.074 A 
ATOM     47  C   UNL A   1      41.143  32.262  30.451  1.00  0.00     0.029 A 
ATOM     48  N   UNL A   1      42.248  30.780  29.215  1.00  0.00    -0.354 N 
ATOM     49  N   UNL A   1      44.516  29.792  27.667  1.00  0.00    -0.248 NA
ATOM     50  C   UNL A   1      46.594  30.141  26.660  1.00  0.00     0.031 C 
ATOM     51  C   UNL A   1      42.338  32.850  30.025  1.00  0.00     0.029 A 
ATOM     52  C   UNL A   1      43.042  31.915  29.284  1.00  0.00     0.049 A 
ATOM     53  H   UNL A   1      42.485  29.953  28.740  1.00  0.00     0.167 HD
ATOM     54  C   UNL A   1      44.962  31.070  27.973  1.00  0.00     0.074 A 
ATOM     55  C   UNL A   1      46.271  31.212  27.368  1.00  0.00     0.031 C 
ATOM     56  C   UNL A   1      44.343  32.043  28.683  1.00  0.00     0.031 A 
BRANCH  43  57
ATOM     57  C   UNL A   1      38.778  30.433  30.807  1.00  0.00    -0.014 A 
ATOM     58  C   UNL A   1      37.691  31.056  30.176  1.00  0.00     0.009 A 
ATOM     59  C   UNL A   1      38.682  30.125  32.175  1.00  0.00     0.009 A 
ATOM     60  C   UNL A   1      36.545  31.385  30.905  1.00  0.00     0.001 A 
ATOM     61  C   UNL A   1      37.524  30.427  32.894  1.00  0.00     0.001 A 
ATOM     62  C   UNL A   1      36.460  31.064  32.261  1.00  0.00     0.000 A 
ENDBRANCH  43  57
BRANCH  44  63
ATOM     63  C   UNL A   1      46.685  27.467  25.502  1.00  0.00    -0.014 A 
ATOM     64  C   UNL A   1      47.752  26.751  26.067  1.00  0.00     0.009 A 
ATOM     65  C   UNL A   1      46.756  27.824  24.145  1.00  0.00     0.009 A 
ATOM     66  C   UNL A   1      48.877  26.435  25.301  1.00  0.00     0.001 A 
ATOM     67  C   UNL A   1      47.862  27.471  23.372  1.00  0.00     0.001 A 
ATOM     68  C   UNL A   1      48.929  26.790  23.954  1.00  0.00     0.000 A 
ENDBRANCH  44  63
BRANCH  56  69
ATOM     69  C   UNL A   1      45.100  33.327  28.884  1.00  0.00    -0.014 A 
ATOM     70  C   UNL A   1      45.961  33.509  29.978  1.00  0.00     0.009 A 
ATOM     71  C   UNL A   1      44.946  34.372  27.959  1.00  0.00     0.009 A 
ATOM     72  C   UNL A   1      46.605  34.733  30.174  1.00  0.00     0.001 A 
ATOM     73  C   UNL A   1      45.620  35.581  28.137  1.00  0.00     0.001 A 
ATOM     74  C   UNL A   1      46.435  35.766  29.253  1.00  0.00     0.000 A 
ENDBRANCH  56  69
ENDBRANCH  30  31
ENDBRANCH  23  25
ENDBRANCH  22  23
ENDBRANCH  21  22
ENDBRANCH   1  21
TORSDOF 13
ENDMDL
MODEL 2
REMARK VINA RESULT:     -10.6      0.435      6.109
REMARK SMILES COc1ccc(-n2nc(C(=O)OCCOC(=O)c3ccc(-c4c5nc(c(-c6ccccc6)c6ccc([nH]6)c(-c6ccccc6)c6nc(c(-c7ccccc7)c7ccc4[nH]7)C=C6)C=C5)cc3)c(=O)cc2C)cc1
REMARK SMILES IDX 13 1 12 2 10 3 11 4 9 5 7 6 8 7 69 8 68 9 70 10 66 11 67 12
REMARK SMILES IDX 6 13 3 14 4 15 72 16 5 17 71 18 2 19 1 20 14 21 15 22 16 23
REMARK SMILES IDX 17 24 18 25 19 26 65 27 20 28 64 29 21 30 22 31 23 32 58 33
REMARK SMILES IDX 24 34 63 35 57 36 59 37 25 38 62 39 56 40 55 41 26 43 48 44
REMARK SMILES IDX 33 45 47 46 34 47 37 48 46 49 60 50 35 51 36 52 45 54 61 55
REMARK SMILES IDX 38 56 27 57 28 58 32 59 29 60 31 61 30 62 49 63 50 64 54 65
REMARK SMILES IDX 51 66 53 67 52 68 39 69 40 70 44 71 41 72 43 73 42 74
REMARK H PARENT 59 42 37 53
REMARK Flexibility Score: inf
ROOT
ATOM      1  C   UNL A   1      35.743  21.096  24.941  1.00  0.00     0.275 C 
ENDROOT
BRANCH   1   2
ATOM      2  O   UNL A   1      35.814  22.535  24.904  1.00  0.00    -0.457 OA
BRANCH   2   3
ATOM      3  C   UNL A   1      35.509  23.122  23.731  1.00  0.00     0.363 C 
ATOM      4  O   UNL A   1      36.172  23.114  22.709  1.00  0.00    -0.244 OA
BRANCH   3   5
ATOM      5  C   UNL A   1      34.140  23.778  23.779  1.00  0.00     0.216 A 
ATOM      6  N   UNL A   1      32.847  25.560  24.465  1.00  0.00    -0.237 N 
ATOM      7  N   UNL A   1      34.072  24.963  24.324  1.00  0.00    -0.156 NA
ATOM      8  C   UNL A   1      31.647  24.953  24.089  1.00  0.00     0.044 A 
ATOM      9  C   UNL A   1      31.624  23.751  23.492  1.00  0.00     0.078 A 
ATOM     10  C   UNL A   1      30.327  25.645  24.323  1.00  0.00     0.067 C 
ATOM     11  C   UNL A   1      32.910  23.073  23.288  1.00  0.00     0.215 A 
ATOM     12  O   UNL A   1      32.980  21.965  22.779  1.00  0.00    -0.287 OA
BRANCH   6  13
ATOM     13  C   UNL A   1      32.924  26.856  25.053  1.00  0.00     0.065 A 
ATOM     14  C   UNL A   1      33.093  29.426  26.207  1.00  0.00     0.119 A 
ATOM     15  C   UNL A   1      33.230  29.261  24.829  1.00  0.00     0.048 A 
ATOM     16  C   UNL A   1      32.850  28.312  27.010  1.00  0.00     0.048 A 
ATOM     17  C   UNL A   1      33.159  27.986  24.256  1.00  0.00     0.032 A 
ATOM     18  C   UNL A   1      32.769  27.035  26.436  1.00  0.00     0.032 A 
BRANCH  14  19
ATOM     19  O   UNL A   1      33.167  30.716  26.654  1.00  0.00    -0.497 OA
ATOM     20  C   UNL A   1      34.263  31.008  27.515  1.00  0.00     0.278 C 
ENDBRANCH  14  19
ENDBRANCH   6  13
ENDBRANCH   3   5
ENDBRANCH   2   3
ENDBRANCH   1   2
BRANCH   1  21
ATOM     21  C   UNL A   1      37.147  20.487  24.972  1.00  0.00     0.275 C 
BRANCH  21  22
ATOM     22  O   UNL A   1      38.151  21.514  25.095  1.00  0.00    -0.458 OA
BRANCH  22  23
ATOM     23  C   UNL A   1      39.164  21.201  25.931  1.00  0.00     0.338 C 
ATOM     24  O   UNL A   1      39.784  20.149  25.986  1.00  0.00    -0.246 OA
BRANCH  23  25
ATOM     25  C   UNL A   1      39.559  22.370  26.723  1.00  0.00     0.060 A 
ATOM     26  C   UNL A   1      38.869  23.551  26.486  1.00  0.00     0.016 A 
ATOM     27  C   UNL A   1      40.715  22.376  27.499  1.00  0.00     0.016 A 
ATOM     28  C   UNL A   1      39.405  24.764  26.893  1.00  0.00     0.010 A 
ATOM     29  C   UNL A   1      41.207  23.597  27.985  1.00  0.00     0.010 A 
ATOM     30  C   UNL A   1      40.598  24.814  27.623  1.00  0.00    -0.014 A 
BRANCH  30  31
ATOM     31  C   UNL A   1      41.226  26.142  27.896  1.00  0.00     0.031 A 
ATOM     32  C   UNL A   1      42.529  26.523  27.231  1.00  0.00     0.074 A 
ATOM     33  C   UNL A   1      40.593  27.051  28.667  1.00  0.00     0.049 A 
ATOM     34  N   UNL A   1      43.262  27.597  27.399  1.00  0.00    -0.248 NA
ATOM     35  C   UNL A   1      43.092  25.572  26.259  1.00  0.00     0.031 C 
ATOM     36  C   UNL A   1      39.300  26.854  29.327  1.00  0.00     0.029 A 
ATOM     37  N   UNL A   1      40.937  28.339  29.002  1.00  0.00    -0.354 N 
ATOM     38  C   UNL A   1      44.393  27.418  26.608  1.00  0.00     0.074 A 
ATOM     39  C   UNL A   1      44.256  26.131  25.965  1.00  0.00     0.031 C 
ATOM     40  C   UNL A   1      38.937  27.990  29.939  1.00  0.00     0.029 A 
ATOM     41  C   UNL A   1      40.009  28.967  29.798  1.00  0.00     0.049 A 
ATOM     42  H   UNL A   1      41.771  28.769  28.702  1.00  0.00     0.167 HD
ATOM     43  C   UNL A   1      45.450  28.249  26.433  1.00  0.00     0.031 A 
ATOM     44  C   UNL A   1      40.025  30.181  30.380  1.00  0.00     0.031 A 
ATOM     45  C   UNL A   1      45.561  29.558  27.023  1.00  0.00     0.049 A 
ATOM     46  C   UNL A   1      41.218  31.072  30.182  1.00  0.00     0.074 A 
ATOM     47  C   UNL A   1      46.587  30.479  26.885  1.00  0.00     0.029 A 
ATOM     48  N   UNL A   1      44.611  30.139  27.846  1.00  0.00    -0.354 N 
ATOM     49  N   UNL A   1      42.290  30.873  29.456  1.00  0.00    -0.248 NA
ATOM     50  C   UNL A   1      41.200  32.360  30.889  1.00  0.00     0.031 C 
ATOM     51  C   UNL A   1      46.283  31.595  27.672  1.00  0.00     0.029 A 
ATOM     52  C   UNL A   1      45.037  31.397  28.243  1.00  0.00     0.049 A 
ATOM     53  H   UNL A   1      43.760  29.721  28.110  1.00  0.00     0.167 HD
ATOM     54  C   UNL A   1      43.065  32.014  29.604  1.00  0.00     0.074 A 
ATOM     55  C   UNL A   1      42.321  32.918  30.457  1.00  0.00     0.031 C 
ATOM     56  C   UNL A   1      44.287  32.288  29.088  1.00  0.00     0.031 A 
BRANCH  43  57
ATOM     57  C   UNL A   1      46.605  27.755  25.603  1.00  0.00    -0.014 A 
ATOM     58  C   UNL A   1      47.623  26.955  26.143  1.00  0.00     0.009 A 
ATOM     59  C   UNL A   1      46.632  28.047  24.228  1.00  0.00     0.009 A 
ATOM     60  C   UNL A   1      48.655  26.480  25.331  1.00  0.00     0.001 A 
ATOM     61  C   UNL A   1      47.648  27.546  23.412  1.00  0.00     0.001 A 
ATOM     62  C   UNL A   1      48.662  26.770  23.965  1.00  0.00     0.000 A 
ENDBRANCH  43  57
BRANCH  44  63
ATOM     63  C   UNL A   1      38.902  30.605  31.260  1.00  0.00    -0.014 A 
ATOM     64  C   UNL A   1      37.813  31.328  30.747  1.00  0.00     0.009 A 
ATOM     65  C   UNL A   1      38.934  30.318  32.634  1.00  0.00     0.009 A 
ATOM     66  C   UNL A   1      36.803  31.784  31.598  1.00  0.00     0.001 A 
ATOM     67  C   UNL A   1      37.903  30.738  33.474  1.00  0.00     0.001 A 
ATOM     68  C   UNL A   1      36.845  31.484  32.959  1.00  0.00     0.000 A 
ENDBRANCH  44  63
BRANCH  56  69
ATOM     69  C   UNL A   1      44.868  33.641  29.395  1.00  0.00    -0.014 A 
ATOM     70  C   UNL A   1      44.577  34.763  28.602  1.00  0.00     0.009 A 
ATOM     71  C   UNL A   1      45.723  33.792  30.498  1.00  0.00     0.009 A 
ATOM     72  C   UNL A   1      45.178  35.995  28.873  1.00  0.00     0.001 A 
ATOM     73  C   UNL A   1      46.294  35.032  30.789  1.00  0.00     0.001 A 
ATOM     74  C   UNL A   1      46.034  36.128  29.966  1.00  0.00     0.000 A 
ENDBRANCH  56  69
ENDBRANCH  30  31
ENDBRANCH  23  25
ENDBRANCH  22  23
ENDBRANCH  21  22
ENDBRANCH   1  21
TORSDOF 13
ENDMDL
MODEL 3
REMARK VINA RESULT:     -10.6      3.468      8.788
REMARK SMILES COc1ccc(-n2nc(C(=O)OCCOC(=O)c3ccc(-c4c5nc(c(-c6ccccc6)c6ccc([nH]6)c(-c6ccccc6)c6nc(c(-c7ccccc7)c7ccc4[nH]7)C=C6)C=C5)cc3)c(=O)cc2C)cc1
REMARK SMILES IDX 13 1 12 2 10 3 11 4 9 5 7 6 8 7 69 8 68 9 70 10 66 11 67 12
REMARK SMILES IDX 6 13 3 14 4 15 72 16 5 17 71 18 2 19 1 20 14 21 15 22 16 23
REMARK SMILES IDX 17 24 18 25 19 26 65 27 20 28 64 29 21 30 22 31 23 32 58 33
REMARK SMILES IDX 24 34 63 35 57 36 59 37 25 38 62 39 56 40 55 41 26 43 48 44
REMARK SMILES IDX 33 45 47 46 34 47 37 48 46 49 60 50 35 51 36 52 45 54 61 55
REMARK SMILES IDX 38 56 27 57 28 58 32 59 29 60 31 61 30 62 49 63 50 64 54 65
REMARK SMILES IDX 51 66 53 67 52 68 39 69 40 70 44 71 41 72 43 73 42 74
REMARK H PARENT 59 42 37 53
REMARK Flexibility Score: inf
ROOT
ATOM      1  C   UNL A   1      32.036  29.076  25.172  1.00  0.00     0.275 C 
ENDROOT
BRANCH   1   2
ATOM      2  O   UNL A   1      32.108  29.201  23.738  1.00  0.00    -0.457 OA
BRANCH   2   3
ATOM      3  C   UNL A   1      33.108  28.538  23.126  1.00  0.00     0.363 C 
ATOM      4  O   UNL A   1      34.140  29.009  22.683  1.00  0.00    -0.244 OA
BRANCH   3   5
ATOM      5  C   UNL A   1      32.847  27.042  23.101  1.00  0.00     0.216 A 
ATOM      6  N   UNL A   1      33.623  24.912  23.525  1.00  0.00    -0.237 N 
ATOM      7  N   UNL A   1      33.776  26.272  23.600  1.00  0.00    -0.156 NA
ATOM      8  C   UNL A   1      32.536  24.293  22.907  1.00  0.00     0.044 A 
ATOM      9  C   UNL A   1      31.518  25.005  22.396  1.00  0.00     0.078 A 
ATOM     10  C   UNL A   1      32.456  22.789  22.811  1.00  0.00     0.067 C 
ATOM     11  C   UNL A   1      31.612  26.468  22.472  1.00  0.00     0.215 A 
ATOM     12  O   UNL A   1      30.746  27.193  22.007  1.00  0.00    -0.287 OA
BRANCH   6  13
ATOM     13  C   UNL A   1      34.699  24.198  24.127  1.00  0.00     0.065 A 
ATOM     14  C   UNL A   1      36.825  22.766  25.310  1.00  0.00     0.119 A 
ATOM     15  C   UNL A   1      36.662  22.770  23.925  1.00  0.00     0.048 A 
ATOM     16  C   UNL A   1      35.941  23.494  26.107  1.00  0.00     0.048 A 
ATOM     17  C   UNL A   1      35.601  23.469  23.337  1.00  0.00     0.032 A 
ATOM     18  C   UNL A   1      34.884  24.202  25.518  1.00  0.00     0.032 A 
BRANCH  14  19
ATOM     19  O   UNL A   1      37.902  22.062  25.771  1.00  0.00    -0.497 OA
ATOM     20  C   UNL A   1      38.079  20.767  25.207  1.00  0.00     0.278 C 
ENDBRANCH  14  19
ENDBRANCH   6  13
ENDBRANCH   3   5
ENDBRANCH   2   3
ENDBRANCH   1   2
BRANCH   1  21
ATOM     21  C   UNL A   1      31.753  30.434  25.819  1.00  0.00     0.275 C 
BRANCH  21  22
ATOM     22  O   UNL A   1      32.369  30.525  27.119  1.00  0.00    -0.458 OA
BRANCH  22  23
ATOM     23  C   UNL A   1      33.108  31.639  27.305  1.00  0.00     0.338 C 
ATOM     24  O   UNL A   1      32.712  32.795  27.343  1.00  0.00    -0.246 OA
BRANCH  23  25
ATOM     25  C   UNL A   1      34.499  31.291  27.610  1.00  0.00     0.060 A 
ATOM     26  C   UNL A   1      34.776  29.949  27.834  1.00  0.00     0.016 A 
ATOM     27  C   UNL A   1      35.454  32.263  27.899  1.00  0.00     0.016 A 
ATOM     28  C   UNL A   1      35.943  29.578  28.484  1.00  0.00     0.010 A 
ATOM     29  C   UNL A   1      36.673  31.874  28.477  1.00  0.00     0.010 A 
ATOM     30  C   UNL A   1      36.900  30.534  28.846  1.00  0.00    -0.014 A 
BRANCH  30  31
ATOM     31  C   UNL A   1      38.060  30.116  29.689  1.00  0.00     0.031 A 
ATOM     32  C   UNL A   1      39.180  29.292  29.094  1.00  0.00     0.074 A 
ATOM     33  C   UNL A   1      38.168  30.544  30.964  1.00  0.00     0.049 A 
ATOM     34  N   UNL A   1      40.230  28.773  29.683  1.00  0.00    -0.248 NA
ATOM     35  C   UNL A   1      39.108  29.001  27.653  1.00  0.00     0.031 C 
ATOM     36  C   UNL A   1      37.199  31.395  31.660  1.00  0.00     0.029 A 
ATOM     37  N   UNL A   1      39.158  30.346  31.897  1.00  0.00    -0.354 N 
ATOM     38  C   UNL A   1      40.901  28.048  28.703  1.00  0.00     0.074 A 
ATOM     39  C   UNL A   1      40.138  28.185  27.483  1.00  0.00     0.031 C 
ATOM     40  C   UNL A   1      37.667  31.689  32.882  1.00  0.00     0.029 A 
ATOM     41  C   UNL A   1      38.918  30.974  33.096  1.00  0.00     0.049 A 
ATOM     42  H   UNL A   1      39.962  29.804  31.723  1.00  0.00     0.167 HD
ATOM     43  C   UNL A   1      42.047  27.332  28.808  1.00  0.00     0.031 A 
ATOM     44  C   UNL A   1      39.605  30.956  34.253  1.00  0.00     0.031 A 
ATOM     45  C   UNL A   1      42.843  27.244  30.006  1.00  0.00     0.049 A 
ATOM     46  C   UNL A   1      40.862  30.139  34.345  1.00  0.00     0.074 A 
ATOM     47  C   UNL A   1      44.031  26.558  30.200  1.00  0.00     0.029 A 
ATOM     48  N   UNL A   1      42.544  27.872  31.203  1.00  0.00    -0.354 N 
ATOM     49  N   UNL A   1      41.463  29.436  33.417  1.00  0.00    -0.248 NA
ATOM     50  C   UNL A   1      41.536  30.115  35.651  1.00  0.00     0.031 C 
ATOM     51  C   UNL A   1      44.421  26.724  31.533  1.00  0.00     0.029 A 
ATOM     52  C   UNL A   1      43.513  27.570  32.148  1.00  0.00     0.049 A 
ATOM     53  H   UNL A   1      41.761  28.446  31.360  1.00  0.00     0.167 HD
ATOM     54  C   UNL A   1      42.593  28.901  34.020  1.00  0.00     0.074 A 
ATOM     55  C   UNL A   1      42.614  29.393  35.382  1.00  0.00     0.031 C 
ATOM     56  C   UNL A   1      43.525  28.069  33.498  1.00  0.00     0.031 A 
BRANCH  43  57
ATOM     57  C   UNL A   1      42.497  26.541  27.609  1.00  0.00    -0.014 A 
ATOM     58  C   UNL A   1      42.072  25.223  27.384  1.00  0.00     0.009 A 
ATOM     59  C   UNL A   1      43.315  27.162  26.649  1.00  0.00     0.009 A 
ATOM     60  C   UNL A   1      42.477  24.536  26.236  1.00  0.00     0.001 A 
ATOM     61  C   UNL A   1      43.693  26.484  25.488  1.00  0.00     0.001 A 
ATOM     62  C   UNL A   1      43.280  25.170  25.287  1.00  0.00     0.000 A 
ENDBRANCH  43  57
BRANCH  44  63
ATOM     63  C   UNL A   1      39.089  31.686  35.443  1.00  0.00    -0.014 A 
ATOM     64  C   UNL A   1      39.470  33.011  35.702  1.00  0.00     0.009 A 
ATOM     65  C   UNL A   1      38.235  31.040  36.352  1.00  0.00     0.009 A 
ATOM     66  C   UNL A   1      39.037  33.659  36.863  1.00  0.00     0.001 A 
ATOM     67  C   UNL A   1      37.770  31.702  37.488  1.00  0.00     0.001 A 
ATOM     68  C   UNL A   1      38.184  33.006  37.751  1.00  0.00     0.000 A 
ENDBRANCH  44  63
BRANCH  56  69
ATOM     69  C   UNL A   1      44.672  27.683  34.392  1.00  0.00    -0.014 A 
ATOM     70  C   UNL A   1      44.608  26.554  35.224  1.00  0.00     0.009 A 
ATOM     71  C   UNL A   1      45.835  28.468  34.401  1.00  0.00     0.009 A 
ATOM     72  C   UNL A   1      45.662  26.253  36.090  1.00  0.00     0.001 A 
ATOM     73  C   UNL A   1      46.903  28.145  35.240  1.00  0.00     0.001 A 
ATOM     74  C   UNL A   1      46.808  27.048  36.095  1.00  0.00     0.000 A 
ENDBRANCH  56  69
ENDBRANCH  30  31
ENDBRANCH  23  25
ENDBRANCH  22  23
ENDBRANCH  21  22
ENDBRANCH   1  21
TORSDOF 13
ENDMDL
