MODEL 1
REMARK VINA RESULT:     -13.3      0.000      0.000
REMARK SMILES Cc1ccc(-c2cnnc(-n3nc(C)c4c3NC(=O)C[C@@H]4c3ccc(C(=O)OCCOC(=O)c4ccc(-c5c6nc(c(-c7ccccc7)c7ccc([nH]7)c(-c7ccccc7)c7nc(c(-c8ccccc8)c8ccc5[nH]8)C=C7)C=C6)cc4)cc3)n2)cc1
REMARK SMILES IDX 29 1 28 2 26 3 27 4 25 5 22 6 23 7 83 8 24 9 82 10 21 11
REMARK SMILES IDX 11 12 12 13 16 14 13 15 15 16 17 17 14 18 18 19 20 21 19 22
REMARK SMILES IDX 10 23 6 24 7 25 84 26 8 27 9 28 5 29 1 30 2 31 3 32 86 33
REMARK SMILES IDX 4 34 85 35 30 36 31 37 32 38 33 39 34 40 35 41 81 42 36 43
REMARK SMILES IDX 80 44 37 45 38 46 39 47 74 48 40 49 79 50 73 51 75 52 41 53
REMARK SMILES IDX 78 54 72 55 71 56 42 58 64 59 49 60 63 61 50 62 53 63 62 64
REMARK SMILES IDX 76 65 51 66 52 67 61 69 77 70 54 71 43 72 44 73 48 74 45 75
REMARK SMILES IDX 47 76 46 77 65 78 66 79 70 80 67 81 69 82 68 83 55 84 56 85
REMARK SMILES IDX 60 86 57 87 59 88 58 89
REMARK H PARENT 17 20 75 57 53 68
REMARK Flexibility Score: inf
ROOT
ATOM      1  C   UNL A   1      37.486  19.469  24.914  1.00  0.00     0.275 C 
ENDROOT
BRANCH   1   2
ATOM      2  O   UNL A   1      36.255  20.197  24.979  1.00  0.00    -0.458 OA
BRANCH   2   3
ATOM      3  C   UNL A   1      35.187  19.381  24.838  1.00  0.00     0.338 C 
ATOM      4  O   UNL A   1      35.198  18.212  24.487  1.00  0.00    -0.246 OA
BRANCH   3   5
ATOM      5  C   UNL A   1      33.916  20.091  24.950  1.00  0.00     0.060 A 
ATOM      6  C   UNL A   1      32.273  22.312  24.745  1.00  0.00    -0.040 A 
ATOM      7  C   UNL A   1      32.212  21.323  23.764  1.00  0.00     0.005 A 
ATOM      8  C   UNL A   1      32.993  22.051  25.931  1.00  0.00     0.005 A 
ATOM      9  C   UNL A   1      33.037  20.213  23.871  1.00  0.00     0.016 A 
ATOM     10  C   UNL A   1      33.852  20.972  26.014  1.00  0.00     0.016 A 
BRANCH   6  11
ATOM     11  C   UNL A   1      31.666  23.660  24.408  1.00  0.00     0.064 C 
ATOM     12  N   UNL A   1      33.407  26.356  26.050  1.00  0.00    -0.180 N 
ATOM     13  N   UNL A   1      34.480  25.911  25.341  1.00  0.00    -0.168 NA
ATOM     14  C   UNL A   1      32.424  25.385  26.064  1.00  0.00     0.143 A 
ATOM     15  C   UNL A   1      33.966  24.990  24.523  1.00  0.00     0.066 A 
ATOM     16  C   UNL A   1      32.625  24.685  24.891  1.00  0.00     0.026 A 
ATOM     17  N   UNL A   1      31.417  25.019  26.943  1.00  0.00    -0.310 N 
ATOM     18  C   UNL A   1      34.872  24.333  23.546  1.00  0.00     0.069 C 
ATOM     19  C   UNL A   1      30.450  24.036  26.523  1.00  0.00     0.226 C 
ATOM     20  H   UNL A   1      31.363  25.424  27.838  1.00  0.00     0.171 HD
ATOM     21  C   UNL A   1      30.292  23.858  25.032  1.00  0.00     0.113 C 
ATOM     22  O   UNL A   1      29.783  23.495  27.372  1.00  0.00    -0.275 OA
BRANCH  12  23
ATOM     23  C   UNL A   1      33.205  27.746  26.242  1.00  0.00     0.272 A 
ATOM     24  C   UNL A   1      33.710  29.718  27.245  1.00  0.00     0.095 A 
ATOM     25  C   UNL A   1      32.429  30.168  26.977  1.00  0.00     0.164 A 
ATOM     26  N   UNL A   1      34.113  28.461  26.931  1.00  0.00    -0.208 NA
ATOM     27  N   UNL A   1      31.555  29.405  26.308  1.00  0.00    -0.153 NA
ATOM     28  N   UNL A   1      31.969  28.195  25.896  1.00  0.00    -0.109 NA
BRANCH  24  29
ATOM     29  C   UNL A   1      34.738  30.616  27.769  1.00  0.00     0.002 A 
ATOM     30  C   UNL A   1      37.851  33.304  29.088  1.00  0.00     0.044 C 
ATOM     31  C   UNL A   1      36.775  32.371  28.620  1.00  0.00    -0.051 A 
ATOM     32  C   UNL A   1      35.429  32.700  28.813  1.00  0.00     0.004 A 
ATOM     33  C   UNL A   1      37.101  31.162  28.001  1.00  0.00     0.004 A 
ATOM     34  C   UNL A   1      34.419  31.832  28.391  1.00  0.00     0.011 A 
ATOM     35  C   UNL A   1      36.092  30.294  27.585  1.00  0.00     0.011 A 
ENDBRANCH  24  29
ENDBRANCH  12  23
ENDBRANCH   6  11
ENDBRANCH   3   5
ENDBRANCH   2   3
ENDBRANCH   1   2
BRANCH   1  36
ATOM     36  C   UNL A   1      38.698  20.289  25.369  1.00  0.00     0.275 C 
BRANCH  36  37
ATOM     37  O   UNL A   1      39.543  19.860  26.474  1.00  0.00    -0.458 OA
BRANCH  37  38
ATOM     38  C   UNL A   1      40.849  20.164  26.639  1.00  0.00     0.338 C 
ATOM     39  O   UNL A   1      41.747  19.342  26.544  1.00  0.00    -0.246 OA
BRANCH  38  40
ATOM     40  C   UNL A   1      41.122  21.564  26.989  1.00  0.00     0.060 A 
ATOM     41  C   UNL A   1      41.291  21.877  28.342  1.00  0.00     0.016 A 
ATOM     42  C   UNL A   1      41.349  22.507  25.987  1.00  0.00     0.016 A 
ATOM     43  C   UNL A   1      41.836  23.100  28.699  1.00  0.00     0.010 A 
ATOM     44  C   UNL A   1      41.966  23.684  26.328  1.00  0.00     0.010 A 
ATOM     45  C   UNL A   1      42.187  23.975  27.684  1.00  0.00    -0.014 A 
BRANCH  45  46
ATOM     46  C   UNL A   1      42.352  25.387  27.945  1.00  0.00     0.031 A 
ATOM     47  C   UNL A   1      41.202  26.291  28.056  1.00  0.00     0.074 A 
ATOM     48  C   UNL A   1      43.625  25.575  28.355  1.00  0.00     0.049 A 
ATOM     49  N   UNL A   1      41.312  27.565  28.171  1.00  0.00    -0.248 NA
ATOM     50  C   UNL A   1      39.800  25.874  27.976  1.00  0.00     0.031 C 
ATOM     51  C   UNL A   1      44.248  26.536  29.238  1.00  0.00     0.029 A 
ATOM     52  N   UNL A   1      44.711  24.833  27.858  1.00  0.00    -0.354 N 
ATOM     53  C   UNL A   1      40.096  28.022  28.639  1.00  0.00     0.074 A 
ATOM     54  C   UNL A   1      39.147  26.997  28.306  1.00  0.00     0.031 C 
ATOM     55  C   UNL A   1      45.577  26.531  28.997  1.00  0.00     0.029 A 
ATOM     56  C   UNL A   1      45.798  25.698  27.816  1.00  0.00     0.049 A 
ATOM     57  H   UNL A   1      44.704  23.886  27.592  1.00  0.00     0.167 HD
ATOM     58  C   UNL A   1      40.098  29.102  29.468  1.00  0.00     0.031 A 
ATOM     59  C   UNL A   1      46.161  26.168  26.583  1.00  0.00     0.031 A 
ATOM     60  C   UNL A   1      41.464  29.596  29.613  1.00  0.00     0.049 A 
ATOM     61  C   UNL A   1      45.891  27.654  26.478  1.00  0.00     0.074 A 
ATOM     62  C   UNL A   1      42.432  29.400  30.584  1.00  0.00     0.029 A 
ATOM     63  N   UNL A   1      42.128  30.029  28.478  1.00  0.00    -0.354 N 
ATOM     64  N   UNL A   1      44.917  28.289  27.077  1.00  0.00    -0.248 NA
ATOM     65  C   UNL A   1      46.762  28.543  25.729  1.00  0.00     0.031 C 
ATOM     66  C   UNL A   1      43.696  29.711  30.004  1.00  0.00     0.029 A 
ATOM     67  C   UNL A   1      43.490  30.077  28.685  1.00  0.00     0.049 A 
ATOM     68  H   UNL A   1      41.684  30.271  27.633  1.00  0.00     0.167 HD
ATOM     69  C   UNL A   1      45.098  29.645  26.936  1.00  0.00     0.074 A 
ATOM     70  C   UNL A   1      46.219  29.739  26.012  1.00  0.00     0.031 C 
ATOM     71  C   UNL A   1      44.345  30.570  27.613  1.00  0.00     0.031 A 
BRANCH  58  72
ATOM     72  C   UNL A   1      38.974  29.526  30.379  1.00  0.00    -0.014 A 
ATOM     73  C   UNL A   1      39.167  30.654  31.203  1.00  0.00     0.009 A 
ATOM     74  C   UNL A   1      37.730  28.885  30.497  1.00  0.00     0.009 A 
ATOM     75  C   UNL A   1      38.206  31.092  32.122  1.00  0.00     0.001 A 
ATOM     76  C   UNL A   1      36.761  29.314  31.424  1.00  0.00     0.001 A 
ATOM     77  C   UNL A   1      37.002  30.415  32.238  1.00  0.00     0.000 A 
ENDBRANCH  58  72
BRANCH  59  78
ATOM     78  C   UNL A   1      45.997  25.170  25.464  1.00  0.00    -0.014 A 
ATOM     79  C   UNL A   1      47.124  24.415  25.059  1.00  0.00     0.009 A 
ATOM     80  C   UNL A   1      44.739  24.743  25.012  1.00  0.00     0.009 A 
ATOM     81  C   UNL A   1      46.989  23.221  24.337  1.00  0.00     0.001 A 
ATOM     82  C   UNL A   1      44.609  23.559  24.261  1.00  0.00     0.001 A 
ATOM     83  C   UNL A   1      45.728  22.783  23.952  1.00  0.00     0.000 A 
ENDBRANCH  59  78
BRANCH  71  84
ATOM     84  C   UNL A   1      44.287  32.067  27.361  1.00  0.00    -0.014 A 
ATOM     85  C   UNL A   1      44.226  32.677  26.110  1.00  0.00     0.009 A 
ATOM     86  C   UNL A   1      44.266  32.951  28.472  1.00  0.00     0.009 A 
ATOM     87  C   UNL A   1      44.047  34.061  25.977  1.00  0.00     0.001 A 
ATOM     88  C   UNL A   1      44.085  34.327  28.353  1.00  0.00     0.001 A 
ATOM     89  C   UNL A   1      43.955  34.882  27.096  1.00  0.00     0.000 A 
ENDBRANCH  71  84
ENDBRANCH  45  46
ENDBRANCH  38  40
ENDBRANCH  37  38
ENDBRANCH  36  37
ENDBRANCH   1  36
TORSDOF 14
ENDMDL
MODEL 2
REMARK VINA RESULT:     -12.7      3.594      9.558
REMARK SMILES Cc1ccc(-c2cnnc(-n3nc(C)c4c3NC(=O)C[C@@H]4c3ccc(C(=O)OCCOC(=O)c4ccc(-c5c6nc(c(-c7ccccc7)c7ccc([nH]7)c(-c7ccccc7)c7nc(c(-c8ccccc8)c8ccc5[nH]8)C=C7)C=C6)cc4)cc3)n2)cc1
REMARK SMILES IDX 29 1 28 2 26 3 27 4 25 5 22 6 23 7 83 8 24 9 82 10 21 11
REMARK SMILES IDX 11 12 12 13 16 14 13 15 15 16 17 17 14 18 18 19 20 21 19 22
REMARK SMILES IDX 10 23 6 24 7 25 84 26 8 27 9 28 5 29 1 30 2 31 3 32 86 33
REMARK SMILES IDX 4 34 85 35 30 36 31 37 32 38 33 39 34 40 35 41 81 42 36 43
REMARK SMILES IDX 80 44 37 45 38 46 39 47 74 48 40 49 79 50 73 51 75 52 41 53
REMARK SMILES IDX 78 54 72 55 71 56 42 58 64 59 49 60 63 61 50 62 53 63 62 64
REMARK SMILES IDX 76 65 51 66 52 67 61 69 77 70 54 71 43 72 44 73 48 74 45 75
REMARK SMILES IDX 47 76 46 77 65 78 66 79 70 80 67 81 69 82 68 83 55 84 56 85
REMARK SMILES IDX 60 86 57 87 59 88 58 89
REMARK H PARENT 17 20 75 57 53 68
REMARK Flexibility Score: inf
ROOT
ATOM      1  C   UNL A   1      31.001  31.829  26.180  1.00  0.00     0.275 C 
ENDROOT
BRANCH   1   2
ATOM      2  O   UNL A   1      31.242  30.677  25.364  1.00  0.00    -0.458 OA
BRANCH   2   3
ATOM      3  C   UNL A   1      30.360  30.597  24.344  1.00  0.00     0.338 C 
ATOM      4  O   UNL A   1      29.430  31.355  24.116  1.00  0.00    -0.246 OA
BRANCH   3   5
ATOM      5  C   UNL A   1      30.478  29.351  23.592  1.00  0.00     0.060 A 
ATOM      6  C   UNL A   1      31.105  26.669  23.291  1.00  0.00    -0.040 A 
ATOM      7  C   UNL A   1      29.770  27.049  23.429  1.00  0.00     0.005 A 
ATOM      8  C   UNL A   1      32.077  27.669  23.075  1.00  0.00     0.005 A 
ATOM      9  C   UNL A   1      29.461  28.393  23.579  1.00  0.00     0.016 A 
ATOM     10  C   UNL A   1      31.779  29.002  23.275  1.00  0.00     0.016 A 
BRANCH   6  11
ATOM     11  C   UNL A   1      31.435  25.208  23.518  1.00  0.00     0.064 C 
ATOM     12  N   UNL A   1      34.742  24.785  24.890  1.00  0.00    -0.180 N 
ATOM     13  N   UNL A   1      34.260  25.528  25.922  1.00  0.00    -0.168 NA
ATOM     14  C   UNL A   1      33.912  24.916  23.793  1.00  0.00     0.143 A 
ATOM     15  C   UNL A   1      32.956  25.639  25.657  1.00  0.00     0.066 A 
ATOM     16  C   UNL A   1      32.672  25.179  24.339  1.00  0.00     0.026 A 
ATOM     17  N   UNL A   1      34.082  24.864  22.419  1.00  0.00    -0.310 N 
ATOM     18  C   UNL A   1      32.098  26.353  26.636  1.00  0.00     0.069 C 
ATOM     19  C   UNL A   1      32.917  24.877  21.572  1.00  0.00     0.226 C 
ATOM     20  H   UNL A   1      34.985  24.818  22.028  1.00  0.00     0.171 HD
ATOM     21  C   UNL A   1      31.624  24.439  22.218  1.00  0.00     0.113 C 
ATOM     22  O   UNL A   1      33.065  25.146  20.404  1.00  0.00    -0.275 OA
BRANCH  12  23
ATOM     23  C   UNL A   1      35.622  23.701  25.140  1.00  0.00     0.272 A 
ATOM     24  C   UNL A   1      37.671  22.869  25.647  1.00  0.00     0.095 A 
ATOM     25  C   UNL A   1      37.325  21.677  25.035  1.00  0.00     0.164 A 
ATOM     26  N   UNL A   1      36.839  23.940  25.662  1.00  0.00    -0.208 NA
ATOM     27  N   UNL A   1      36.107  21.500  24.507  1.00  0.00    -0.153 NA
ATOM     28  N   UNL A   1      35.231  22.514  24.605  1.00  0.00    -0.109 NA
BRANCH  24  29
ATOM     29  C   UNL A   1      38.906  22.997  26.420  1.00  0.00     0.002 A 
ATOM     30  C   UNL A   1      42.417  23.385  28.906  1.00  0.00     0.044 C 
ATOM     31  C   UNL A   1      41.192  23.253  28.052  1.00  0.00    -0.051 A 
ATOM     32  C   UNL A   1      40.981  22.090  27.304  1.00  0.00     0.004 A 
ATOM     33  C   UNL A   1      40.257  24.288  27.983  1.00  0.00     0.004 A 
ATOM     34  C   UNL A   1      39.849  21.962  26.496  1.00  0.00     0.011 A 
ATOM     35  C   UNL A   1      39.130  24.161  27.172  1.00  0.00     0.011 A 
ENDBRANCH  24  29
ENDBRANCH  12  23
ENDBRANCH   6  11
ENDBRANCH   3   5
ENDBRANCH   2   3
ENDBRANCH   1   2
BRANCH   1  36
ATOM     36  C   UNL A   1      32.119  32.097  27.192  1.00  0.00     0.275 C 
BRANCH  36  37
ATOM     37  O   UNL A   1      32.697  33.423  27.364  1.00  0.00    -0.458 OA
BRANCH  37  38
ATOM     38  C   UNL A   1      33.192  33.929  28.515  1.00  0.00     0.338 C 
ATOM     39  O   UNL A   1      32.617  34.779  29.177  1.00  0.00    -0.246 OA
BRANCH  38  40
ATOM     40  C   UNL A   1      34.512  33.415  28.904  1.00  0.00     0.060 A 
ATOM     41  C   UNL A   1      34.603  32.691  30.098  1.00  0.00     0.016 A 
ATOM     42  C   UNL A   1      35.594  33.526  28.033  1.00  0.00     0.016 A 
ATOM     43  C   UNL A   1      35.739  31.943  30.359  1.00  0.00     0.010 A 
ATOM     44  C   UNL A   1      36.685  32.722  28.244  1.00  0.00     0.010 A 
ATOM     45  C   UNL A   1      36.754  31.951  29.416  1.00  0.00    -0.014 A 
BRANCH  45  46
ATOM     46  C   UNL A   1      38.102  31.571  29.772  1.00  0.00     0.031 A 
ATOM     47  C   UNL A   1      38.626  30.231  29.486  1.00  0.00     0.074 A 
ATOM     48  C   UNL A   1      38.774  32.703  30.069  1.00  0.00     0.049 A 
ATOM     49  N   UNL A   1      39.774  29.820  29.888  1.00  0.00    -0.248 NA
ATOM     50  C   UNL A   1      37.893  29.178  28.779  1.00  0.00     0.031 C 
ATOM     51  C   UNL A   1      40.165  33.085  29.959  1.00  0.00     0.029 A 
ATOM     52  N   UNL A   1      38.179  33.809  30.701  1.00  0.00    -0.354 N 
ATOM     53  C   UNL A   1      40.085  28.715  29.122  1.00  0.00     0.074 A 
ATOM     54  C   UNL A   1      38.831  28.237  28.611  1.00  0.00     0.031 C 
ATOM     55  C   UNL A   1      40.371  34.161  30.749  1.00  0.00     0.029 A 
ATOM     56  C   UNL A   1      39.150  34.366  31.525  1.00  0.00     0.049 A 
ATOM     57  H   UNL A   1      37.255  34.127  30.584  1.00  0.00     0.167 HD
ATOM     58  C   UNL A   1      41.395  28.497  28.821  1.00  0.00     0.031 A 
ATOM     59  C   UNL A   1      39.027  34.127  32.867  1.00  0.00     0.031 A 
ATOM     60  C   UNL A   1      42.217  29.504  29.485  1.00  0.00     0.049 A 
ATOM     61  C   UNL A   1      40.149  33.237  33.356  1.00  0.00     0.074 A 
ATOM     62  C   UNL A   1      42.769  30.697  29.049  1.00  0.00     0.029 A 
ATOM     63  N   UNL A   1      42.184  29.568  30.867  1.00  0.00    -0.354 N 
ATOM     64  N   UNL A   1      40.732  32.302  32.652  1.00  0.00    -0.248 NA
ATOM     65  C   UNL A   1      40.738  33.397  34.675  1.00  0.00     0.031 C 
ATOM     66  C   UNL A   1      43.057  31.487  30.200  1.00  0.00     0.029 A 
ATOM     67  C   UNL A   1      42.663  30.778  31.322  1.00  0.00     0.049 A 
ATOM     68  H   UNL A   1      41.862  28.842  31.450  1.00  0.00     0.167 HD
ATOM     69  C   UNL A   1      41.840  31.845  33.326  1.00  0.00     0.074 A 
ATOM     70  C   UNL A   1      41.742  32.504  34.620  1.00  0.00     0.031 C 
ATOM     71  C   UNL A   1      42.760  30.999  32.760  1.00  0.00     0.031 A 
BRANCH  58  72
ATOM     72  C   UNL A   1      41.919  27.610  27.719  1.00  0.00    -0.014 A 
ATOM     73  C   UNL A   1      41.157  27.484  26.539  1.00  0.00     0.009 A 
ATOM     74  C   UNL A   1      43.114  26.873  27.761  1.00  0.00     0.009 A 
ATOM     75  C   UNL A   1      41.531  26.642  25.485  1.00  0.00     0.001 A 
ATOM     76  C   UNL A   1      43.493  26.018  26.709  1.00  0.00     0.001 A 
ATOM     77  C   UNL A   1      42.699  25.900  25.574  1.00  0.00     0.000 A 
ENDBRANCH  58  72
BRANCH  59  78
ATOM     78  C   UNL A   1      37.602  34.088  33.363  1.00  0.00    -0.014 A 
ATOM     79  C   UNL A   1      37.354  33.609  34.672  1.00  0.00     0.009 A 
ATOM     80  C   UNL A   1      36.559  34.770  32.718  1.00  0.00     0.009 A 
ATOM     81  C   UNL A   1      36.162  33.902  35.349  1.00  0.00     0.001 A 
ATOM     82  C   UNL A   1      35.351  35.037  33.389  1.00  0.00     0.001 A 
ATOM     83  C   UNL A   1      35.165  34.632  34.713  1.00  0.00     0.000 A 
ENDBRANCH  59  78
BRANCH  71  84
ATOM     84  C   UNL A   1      43.872  30.244  33.468  1.00  0.00    -0.014 A 
ATOM     85  C   UNL A   1      43.695  29.176  34.344  1.00  0.00     0.009 A 
ATOM     86  C   UNL A   1      45.219  30.615  33.221  1.00  0.00     0.009 A 
ATOM     87  C   UNL A   1      44.786  28.457  34.854  1.00  0.00     0.001 A 
ATOM     88  C   UNL A   1      46.312  29.907  33.718  1.00  0.00     0.001 A 
ATOM     89  C   UNL A   1      46.091  28.808  34.524  1.00  0.00     0.000 A 
ENDBRANCH  71  84
ENDBRANCH  45  46
ENDBRANCH  38  40
ENDBRANCH  37  38
ENDBRANCH  36  37
ENDBRANCH   1  36
TORSDOF 14
ENDMDL
MODEL 3
REMARK VINA RESULT:     -12.2      3.053      8.592
REMARK SMILES Cc1ccc(-c2cnnc(-n3nc(C)c4c3NC(=O)C[C@@H]4c3ccc(C(=O)OCCOC(=O)c4ccc(-c5c6nc(c(-c7ccccc7)c7ccc([nH]7)c(-c7ccccc7)c7nc(c(-c8ccccc8)c8ccc5[nH]8)C=C7)C=C6)cc4)cc3)n2)cc1
REMARK SMILES IDX 29 1 28 2 26 3 27 4 25 5 22 6 23 7 83 8 24 9 82 10 21 11
REMARK SMILES IDX 11 12 12 13 16 14 13 15 15 16 17 17 14 18 18 19 20 21 19 22
REMARK SMILES IDX 10 23 6 24 7 25 84 26 8 27 9 28 5 29 1 30 2 31 3 32 86 33
REMARK SMILES IDX 4 34 85 35 30 36 31 37 32 38 33 39 34 40 35 41 81 42 36 43
REMARK SMILES IDX 80 44 37 45 38 46 39 47 74 48 40 49 79 50 73 51 75 52 41 53
REMARK SMILES IDX 78 54 72 55 71 56 42 58 64 59 49 60 63 61 50 62 53 63 62 64
REMARK SMILES IDX 76 65 51 66 52 67 61 69 77 70 54 71 43 72 44 73 48 74 45 75
REMARK SMILES IDX 47 76 46 77 65 78 66 79 70 80 67 81 69 82 68 83 55 84 56 85
REMARK SMILES IDX 60 86 57 87 59 88 58 89
REMARK H PARENT 17 20 75 57 53 68
REMARK Flexibility Score: inf
ROOT
ATOM      1  C   UNL A   1      33.184  30.624  27.243  1.00  0.00     0.275 C 
ENDROOT
BRANCH   1   2
ATOM      2  O   UNL A   1      31.867  30.158  26.930  1.00  0.00    -0.458 OA
BRANCH   2   3
ATOM      3  C   UNL A   1      31.418  30.681  25.767  1.00  0.00     0.338 C 
ATOM      4  O   UNL A   1      30.952  31.796  25.595  1.00  0.00    -0.246 OA
BRANCH   3   5
ATOM      5  C   UNL A   1      31.338  29.691  24.697  1.00  0.00     0.060 A 
ATOM      6  C   UNL A   1      31.335  27.115  23.677  1.00  0.00    -0.040 A 
ATOM      7  C   UNL A   1      30.126  27.793  23.826  1.00  0.00     0.005 A 
ATOM      8  C   UNL A   1      32.541  27.833  23.827  1.00  0.00     0.005 A 
ATOM      9  C   UNL A   1      30.133  29.082  24.337  1.00  0.00     0.016 A 
ATOM     10  C   UNL A   1      32.547  29.097  24.384  1.00  0.00     0.016 A 
BRANCH   6  11
ATOM     11  C   UNL A   1      31.267  25.611  23.494  1.00  0.00     0.064 C 
ATOM     12  N   UNL A   1      33.953  23.934  25.217  1.00  0.00    -0.180 N 
ATOM     13  N   UNL A   1      33.407  24.497  26.329  1.00  0.00    -0.168 NA
ATOM     14  C   UNL A   1      33.471  24.570  24.089  1.00  0.00     0.143 A 
ATOM     15  C   UNL A   1      32.268  25.036  25.890  1.00  0.00     0.066 A 
ATOM     16  C   UNL A   1      32.224  25.026  24.467  1.00  0.00     0.026 A 
ATOM     17  N   UNL A   1      33.960  24.822  22.817  1.00  0.00    -0.310 N 
ATOM     18  C   UNL A   1      31.373  25.691  26.879  1.00  0.00     0.069 C 
ATOM     19  C   UNL A   1      33.073  25.379  21.828  1.00  0.00     0.226 C 
ATOM     20  H   UNL A   1      34.898  24.623  22.594  1.00  0.00     0.171 HD
ATOM     21  C   UNL A   1      31.597  25.177  22.073  1.00  0.00     0.113 C 
ATOM     22  O   UNL A   1      33.562  25.883  20.845  1.00  0.00    -0.275 OA
BRANCH  12  23
ATOM     23  C   UNL A   1      34.482  22.619  25.267  1.00  0.00     0.272 A 
ATOM     24  C   UNL A   1      36.204  21.151  25.097  1.00  0.00     0.095 A 
ATOM     25  C   UNL A   1      35.300  20.143  24.812  1.00  0.00     0.164 A 
ATOM     26  N   UNL A   1      35.815  22.439  25.276  1.00  0.00    -0.208 NA
ATOM     27  N   UNL A   1      33.982  20.383  24.792  1.00  0.00    -0.153 NA
ATOM     28  N   UNL A   1      33.570  21.631  25.069  1.00  0.00    -0.109 NA
BRANCH  24  29
ATOM     29  C   UNL A   1      37.615  20.860  25.345  1.00  0.00     0.002 A 
ATOM     30  C   UNL A   1      41.750  20.067  26.309  1.00  0.00     0.044 C 
ATOM     31  C   UNL A   1      40.313  20.347  25.985  1.00  0.00    -0.051 A 
ATOM     32  C   UNL A   1      39.471  19.308  25.577  1.00  0.00     0.004 A 
ATOM     33  C   UNL A   1      39.804  21.644  26.072  1.00  0.00     0.004 A 
ATOM     34  C   UNL A   1      38.135  19.560  25.261  1.00  0.00     0.011 A 
ATOM     35  C   UNL A   1      38.471  21.897  25.751  1.00  0.00     0.011 A 
ENDBRANCH  24  29
ENDBRANCH  12  23
ENDBRANCH   6  11
ENDBRANCH   3   5
ENDBRANCH   2   3
ENDBRANCH   1   2
BRANCH   1  36
ATOM     36  C   UNL A   1      34.166  29.492  27.562  1.00  0.00     0.275 C 
BRANCH  36  37
ATOM     37  O   UNL A   1      35.600  29.724  27.652  1.00  0.00    -0.458 OA
BRANCH  37  38
ATOM     38  C   UNL A   1      36.282  30.043  28.774  1.00  0.00     0.338 C 
ATOM     39  O   UNL A   1      35.821  30.739  29.666  1.00  0.00    -0.246 OA
BRANCH  38  40
ATOM     40  C   UNL A   1      37.656  29.527  28.835  1.00  0.00     0.060 A 
ATOM     41  C   UNL A   1      38.042  28.833  29.988  1.00  0.00     0.016 A 
ATOM     42  C   UNL A   1      38.486  29.605  27.718  1.00  0.00     0.016 A 
ATOM     43  C   UNL A   1      39.205  28.081  29.977  1.00  0.00     0.010 A 
ATOM     44  C   UNL A   1      39.594  28.797  27.671  1.00  0.00     0.010 A 
ATOM     45  C   UNL A   1      39.951  28.055  28.810  1.00  0.00    -0.014 A 
BRANCH  45  46
ATOM     46  C   UNL A   1      41.344  27.672  28.828  1.00  0.00     0.031 A 
ATOM     47  C   UNL A   1      41.771  26.301  28.523  1.00  0.00     0.074 A 
ATOM     48  C   UNL A   1      42.075  28.807  28.844  1.00  0.00     0.049 A 
ATOM     49  N   UNL A   1      42.983  25.895  28.642  1.00  0.00    -0.248 NA
ATOM     50  C   UNL A   1      40.874  25.215  28.123  1.00  0.00     0.031 C 
ATOM     51  C   UNL A   1      43.387  29.146  28.341  1.00  0.00     0.029 A 
ATOM     52  N   UNL A   1      41.670  29.973  29.519  1.00  0.00    -0.354 N 
ATOM     53  C   UNL A   1      43.078  24.727  27.913  1.00  0.00     0.074 A 
ATOM     54  C   UNL A   1      41.732  24.241  27.791  1.00  0.00     0.031 C 
ATOM     55  C   UNL A   1      43.798  30.275  28.958  1.00  0.00     0.029 A 
ATOM     56  C   UNL A   1      42.827  30.569  30.010  1.00  0.00     0.049 A 
ATOM     57  H   UNL A   1      40.750  30.303  29.623  1.00  0.00     0.167 HD
ATOM     58  C   UNL A   1      44.260  24.455  27.296  1.00  0.00     0.031 A 
ATOM     59  C   UNL A   1      43.062  30.438  31.352  1.00  0.00     0.031 A 
ATOM     60  C   UNL A   1      45.232  25.491  27.636  1.00  0.00     0.049 A 
ATOM     61  C   UNL A   1      44.271  29.562  31.598  1.00  0.00     0.074 A 
ATOM     62  C   UNL A   1      45.652  26.632  26.975  1.00  0.00     0.029 A 
ATOM     63  N   UNL A   1      45.566  25.662  28.968  1.00  0.00    -0.354 N 
ATOM     64  N   UNL A   1      44.645  28.561  30.844  1.00  0.00    -0.248 NA
ATOM     65  C   UNL A   1      45.188  29.810  32.697  1.00  0.00     0.031 C 
ATOM     66  C   UNL A   1      46.236  27.502  27.941  1.00  0.00     0.029 A 
ATOM     67  C   UNL A   1      46.151  26.893  29.180  1.00  0.00     0.049 A 
ATOM     68  H   UNL A   1      45.407  24.992  29.672  1.00  0.00     0.167 HD
ATOM     69  C   UNL A   1      45.891  28.131  31.237  1.00  0.00     0.074 A 
ATOM     70  C   UNL A   1      46.140  28.892  32.453  1.00  0.00     0.031 C 
ATOM     71  C   UNL A   1      46.625  27.222  30.519  1.00  0.00     0.031 A 
BRANCH  58  72
ATOM     72  C   UNL A   1      44.472  23.473  26.171  1.00  0.00    -0.014 A 
ATOM     73  C   UNL A   1      45.340  22.382  26.386  1.00  0.00     0.009 A 
ATOM     74  C   UNL A   1      43.885  23.550  24.897  1.00  0.00     0.009 A 
ATOM     75  C   UNL A   1      45.644  21.450  25.387  1.00  0.00     0.001 A 
ATOM     76  C   UNL A   1      44.192  22.622  23.884  1.00  0.00     0.001 A 
ATOM     77  C   UNL A   1      45.075  21.575  24.129  1.00  0.00     0.000 A 
ENDBRANCH  58  72
BRANCH  59  78
ATOM     78  C   UNL A   1      41.819  30.472  32.207  1.00  0.00    -0.014 A 
ATOM     79  C   UNL A   1      40.959  31.593  32.108  1.00  0.00     0.009 A 
ATOM     80  C   UNL A   1      41.323  29.335  32.863  1.00  0.00     0.009 A 
ATOM     81  C   UNL A   1      39.627  31.538  32.539  1.00  0.00     0.001 A 
ATOM     82  C   UNL A   1      39.992  29.293  33.322  1.00  0.00     0.001 A 
ATOM     83  C   UNL A   1      39.137  30.380  33.130  1.00  0.00     0.000 A 
ENDBRANCH  59  78
BRANCH  71  84
ATOM     84  C   UNL A   1      47.883  26.498  30.968  1.00  0.00    -0.014 A 
ATOM     85  C   UNL A   1      48.205  26.174  32.284  1.00  0.00     0.009 A 
ATOM     86  C   UNL A   1      48.821  26.079  29.988  1.00  0.00     0.009 A 
ATOM     87  C   UNL A   1      49.328  25.392  32.592  1.00  0.00     0.001 A 
ATOM     88  C   UNL A   1      49.938  25.299  30.283  1.00  0.00     0.001 A 
ATOM     89  C   UNL A   1      50.180  24.938  31.592  1.00  0.00     0.000 A 
ENDBRANCH  71  84
ENDBRANCH  45  46
ENDBRANCH  38  40
ENDBRANCH  37  38
ENDBRANCH  36  37
ENDBRANCH   1  36
TORSDOF 14
ENDMDL
