MODEL 1
REMARK VINA RESULT:     -11.3      0.000      0.000
REMARK SMILES Cc1nn(CC(=O)OCCOC(=O)c2ccc(-c3c4nc(c(-c5ccccc5)c5ccc([nH]5)c(-c5ccccc5)c5nc(c(-c6ccccc6)c6ccc3[nH]6)C=C5)C=C4)cc2)c(C)c1S(=O)(=O)N1CCC(C)(C)C1
REMARK SMILES IDX 9 1 8 2 6 3 7 4 5 5 4 6 1 7 2 8 3 9 64 10 62 11 63 12 65 13
REMARK SMILES IDX 66 14 67 15 68 16 69 17 74 18 70 19 71 20 72 21 73 22 10 23
REMARK SMILES IDX 11 24 12 25 13 26 14 27 15 28 61 29 16 30 60 31 17 32 18 33
REMARK SMILES IDX 19 34 54 35 20 36 59 37 53 38 55 39 21 40 58 41 52 42 51 43
REMARK SMILES IDX 22 45 44 46 29 47 43 48 30 49 33 50 42 51 56 52 31 53 32 54
REMARK SMILES IDX 41 56 57 57 34 58 23 59 24 60 28 61 25 62 27 63 26 64 45 65
REMARK SMILES IDX 46 66 50 67 47 68 49 69 48 70 35 71 36 72 40 73 37 74 39 75
REMARK SMILES IDX 38 76
REMARK H PARENT 55 44 33 55
REMARK Flexibility Score: inf
ROOT
ATOM      1  C   UNL A   1      46.032  24.440  26.133  1.00  0.00     0.274 C 
ENDROOT
BRANCH   1   2
ATOM      2  O   UNL A   1      46.807  23.593  25.260  1.00  0.00    -0.461 OA
BRANCH   2   3
ATOM      3  C   UNL A   1      46.161  22.512  24.743  1.00  0.00     0.327 C 
ATOM      4  O   UNL A   1      46.677  21.402  24.625  1.00  0.00    -0.250 OA
BRANCH   3   5
ATOM      5  C   UNL A   1      44.791  22.805  24.193  1.00  0.00     0.266 C 
BRANCH   5   6
ATOM      6  N   UNL A   1      43.690  22.273  24.971  1.00  0.00    -0.257 N 
ATOM      7  C   UNL A   1      42.313  19.378  26.383  1.00  0.00     0.070 C 
ATOM      8  C   UNL A   1      42.533  20.752  25.888  1.00  0.00     0.080 A 
ATOM      9  N   UNL A   1      43.522  20.942  25.005  1.00  0.00    -0.176 NA
ATOM     10  C   UNL A   1      41.879  21.970  26.178  1.00  0.00     0.126 A 
ATOM     11  C   UNL A   1      42.662  22.951  25.577  1.00  0.00     0.056 A 
ATOM     12  C   UNL A   1      42.537  24.429  25.557  1.00  0.00     0.068 C 
BRANCH  10  13
ATOM     13  S   UNL A   1      40.436  22.248  27.085  1.00  0.00     0.246 S 
ATOM     14  O   UNL A   1      40.401  21.109  27.997  1.00  0.00    -0.207 OA
ATOM     15  O   UNL A   1      40.605  23.591  27.566  1.00  0.00    -0.207 OA
BRANCH  13  16
ATOM     16  N   UNL A   1      39.057  22.204  26.164  1.00  0.00    -0.197 NA
ATOM     17  C   UNL A   1      38.622  21.026  25.426  1.00  0.00     0.103 C 
ATOM     18  C   UNL A   1      38.102  23.304  26.102  1.00  0.00     0.109 C 
ATOM     19  C   UNL A   1      37.120  21.228  25.256  1.00  0.00     0.024 C 
ATOM     20  C   UNL A   1      36.896  22.751  25.312  1.00  0.00    -0.020 C 
ATOM     21  C   UNL A   1      36.848  23.328  23.892  1.00  0.00     0.012 C 
ATOM     22  C   UNL A   1      35.586  23.086  26.036  1.00  0.00     0.012 C 
ENDBRANCH  13  16
ENDBRANCH  10  13
ENDBRANCH   5   6
ENDBRANCH   3   5
ENDBRANCH   2   3
ENDBRANCH   1   2
BRANCH   1  23
ATOM     23  C   UNL A   1      45.960  23.927  27.568  1.00  0.00     0.275 C 
BRANCH  23  24
ATOM     24  O   UNL A   1      44.774  24.361  28.236  1.00  0.00    -0.458 OA
BRANCH  24  25
ATOM     25  C   UNL A   1      45.034  25.208  29.256  1.00  0.00     0.338 C 
ATOM     26  O   UNL A   1      46.050  25.242  29.931  1.00  0.00    -0.246 OA
BRANCH  25  27
ATOM     27  C   UNL A   1      43.836  25.956  29.631  1.00  0.00     0.060 A 
ATOM     28  C   UNL A   1      42.908  26.243  28.624  1.00  0.00     0.016 A 
ATOM     29  C   UNL A   1      43.839  26.638  30.853  1.00  0.00     0.016 A 
ATOM     30  C   UNL A   1      42.071  27.330  28.785  1.00  0.00     0.010 A 
ATOM     31  C   UNL A   1      43.015  27.732  31.004  1.00  0.00     0.010 A 
ATOM     32  C   UNL A   1      42.192  28.109  29.940  1.00  0.00    -0.014 A 
BRANCH  32  33
ATOM     33  C   UNL A   1      41.409  29.329  30.031  1.00  0.00     0.031 A 
ATOM     34  C   UNL A   1      42.160  30.585  29.798  1.00  0.00     0.074 A 
ATOM     35  C   UNL A   1      40.065  29.312  30.127  1.00  0.00     0.049 A 
ATOM     36  N   UNL A   1      42.225  31.633  30.551  1.00  0.00    -0.248 NA
ATOM     37  C   UNL A   1      42.995  30.652  28.587  1.00  0.00     0.031 C 
ATOM     38  C   UNL A   1      39.176  28.152  30.022  1.00  0.00     0.029 A 
ATOM     39  N   UNL A   1      39.202  30.365  30.181  1.00  0.00    -0.354 N 
ATOM     40  C   UNL A   1      42.985  32.557  29.843  1.00  0.00     0.074 A 
ATOM     41  C   UNL A   1      43.534  31.864  28.704  1.00  0.00     0.031 C 
ATOM     42  C   UNL A   1      37.922  28.586  29.765  1.00  0.00     0.029 A 
ATOM     43  C   UNL A   1      37.908  30.040  29.802  1.00  0.00     0.049 A 
ATOM     44  H   UNL A   1      39.470  31.269  30.463  1.00  0.00     0.167 HD
ATOM     45  C   UNL A   1      42.941  33.890  30.103  1.00  0.00     0.031 A 
ATOM     46  C   UNL A   1      36.934  30.909  29.436  1.00  0.00     0.031 A 
ATOM     47  C   UNL A   1      42.433  34.184  31.414  1.00  0.00     0.049 A 
ATOM     48  C   UNL A   1      37.320  32.257  29.917  1.00  0.00     0.074 A 
ATOM     49  C   UNL A   1      42.795  33.813  32.695  1.00  0.00     0.029 A 
ATOM     50  N   UNL A   1      41.161  34.691  31.522  1.00  0.00    -0.354 N 
ATOM     51  N   UNL A   1      37.347  32.605  31.171  1.00  0.00    -0.248 NA
ATOM     52  C   UNL A   1      38.070  33.120  29.017  1.00  0.00     0.031 C 
ATOM     53  C   UNL A   1      41.562  33.644  33.390  1.00  0.00     0.029 A 
ATOM     54  C   UNL A   1      40.535  33.964  32.503  1.00  0.00     0.049 A 
ATOM     55  H   UNL A   1      40.775  35.431  31.000  1.00  0.00     0.167 HD
ATOM     56  C   UNL A   1      38.440  33.452  31.282  1.00  0.00     0.074 A 
ATOM     57  C   UNL A   1      38.774  33.820  29.909  1.00  0.00     0.031 C 
ATOM     58  C   UNL A   1      39.150  33.551  32.445  1.00  0.00     0.031 A 
BRANCH  45  59
ATOM     59  C   UNL A   1      43.023  34.920  29.009  1.00  0.00    -0.014 A 
ATOM     60  C   UNL A   1      44.182  35.699  28.877  1.00  0.00     0.009 A 
ATOM     61  C   UNL A   1      41.892  35.326  28.270  1.00  0.00     0.009 A 
ATOM     62  C   UNL A   1      44.194  36.845  28.074  1.00  0.00     0.001 A 
ATOM     63  C   UNL A   1      41.914  36.442  27.432  1.00  0.00     0.001 A 
ATOM     64  C   UNL A   1      43.062  37.216  27.353  1.00  0.00     0.000 A 
ENDBRANCH  45  59
BRANCH  46  65
ATOM     65  C   UNL A   1      35.850  30.703  28.450  1.00  0.00    -0.014 A 
ATOM     66  C   UNL A   1      35.737  29.489  27.754  1.00  0.00     0.009 A 
ATOM     67  C   UNL A   1      34.772  31.605  28.363  1.00  0.00     0.009 A 
ATOM     68  C   UNL A   1      34.579  29.179  27.029  1.00  0.00     0.001 A 
ATOM     69  C   UNL A   1      33.621  31.301  27.630  1.00  0.00     0.001 A 
ATOM     70  C   UNL A   1      33.518  30.080  26.975  1.00  0.00     0.000 A 
ENDBRANCH  46  65
BRANCH  58  71
ATOM     71  C   UNL A   1      38.588  32.904  33.689  1.00  0.00    -0.014 A 
ATOM     72  C   UNL A   1      38.690  31.524  33.942  1.00  0.00     0.009 A 
ATOM     73  C   UNL A   1      38.091  33.728  34.709  1.00  0.00     0.009 A 
ATOM     74  C   UNL A   1      38.272  30.984  35.162  1.00  0.00     0.001 A 
ATOM     75  C   UNL A   1      37.694  33.191  35.937  1.00  0.00     0.001 A 
ATOM     76  C   UNL A   1      37.778  31.819  36.160  1.00  0.00     0.000 A 
ENDBRANCH  58  71
ENDBRANCH  32  33
ENDBRANCH  25  27
ENDBRANCH  24  25
ENDBRANCH  23  24
ENDBRANCH   1  23
TORSDOF 14
ENDMDL
MODEL 2
REMARK VINA RESULT:     -11.0      5.133     10.074
REMARK SMILES Cc1nn(CC(=O)OCCOC(=O)c2ccc(-c3c4nc(c(-c5ccccc5)c5ccc([nH]5)c(-c5ccccc5)c5nc(c(-c6ccccc6)c6ccc3[nH]6)C=C5)C=C4)cc2)c(C)c1S(=O)(=O)N1CCC(C)(C)C1
REMARK SMILES IDX 9 1 8 2 6 3 7 4 5 5 4 6 1 7 2 8 3 9 64 10 62 11 63 12 65 13
REMARK SMILES IDX 66 14 67 15 68 16 69 17 74 18 70 19 71 20 72 21 73 22 10 23
REMARK SMILES IDX 11 24 12 25 13 26 14 27 15 28 61 29 16 30 60 31 17 32 18 33
REMARK SMILES IDX 19 34 54 35 20 36 59 37 53 38 55 39 21 40 58 41 52 42 51 43
REMARK SMILES IDX 22 45 44 46 29 47 43 48 30 49 33 50 42 51 56 52 31 53 32 54
REMARK SMILES IDX 41 56 57 57 34 58 23 59 24 60 28 61 25 62 27 63 26 64 45 65
REMARK SMILES IDX 46 66 50 67 47 68 49 69 48 70 35 71 36 72 40 73 37 74 39 75
REMARK SMILES IDX 38 76
REMARK H PARENT 55 44 33 55
REMARK Flexibility Score: inf
ROOT
ATOM      1  C   UNL A   1      34.284  30.089  27.353  1.00  0.00     0.274 C 
ENDROOT
BRANCH   1   2
ATOM      2  O   UNL A   1      32.879  29.787  27.232  1.00  0.00    -0.461 OA
BRANCH   2   3
ATOM      3  C   UNL A   1      32.305  30.074  26.032  1.00  0.00     0.327 C 
ATOM      4  O   UNL A   1      31.470  30.963  25.870  1.00  0.00    -0.250 OA
BRANCH   3   5
ATOM      5  C   UNL A   1      32.668  29.126  24.921  1.00  0.00     0.266 C 
BRANCH   5   6
ATOM      6  N   UNL A   1      31.937  27.874  24.916  1.00  0.00    -0.257 N 
ATOM      7  C   UNL A   1      28.995  26.279  23.883  1.00  0.00     0.070 C 
ATOM      8  C   UNL A   1      30.280  26.610  24.530  1.00  0.00     0.080 A 
ATOM      9  N   UNL A   1      30.641  27.899  24.570  1.00  0.00    -0.176 NA
ATOM     10  C   UNL A   1      31.259  25.797  25.142  1.00  0.00     0.126 A 
ATOM     11  C   UNL A   1      32.338  26.645  25.374  1.00  0.00     0.056 A 
ATOM     12  C   UNL A   1      33.682  26.388  25.946  1.00  0.00     0.068 C 
BRANCH  10  13
ATOM     13  S   UNL A   1      31.199  24.115  25.528  1.00  0.00     0.246 S 
ATOM     14  O   UNL A   1      30.362  24.086  26.723  1.00  0.00    -0.207 OA
ATOM     15  O   UNL A   1      30.774  23.510  24.297  1.00  0.00    -0.207 OA
BRANCH  13  16
ATOM     16  N   UNL A   1      32.677  23.475  25.929  1.00  0.00    -0.197 NA
ATOM     17  C   UNL A   1      33.037  23.069  27.280  1.00  0.00     0.103 C 
ATOM     18  C   UNL A   1      33.705  23.161  24.943  1.00  0.00     0.109 C 
ATOM     19  C   UNL A   1      34.152  22.049  27.078  1.00  0.00     0.024 C 
ATOM     20  C   UNL A   1      34.801  22.405  25.726  1.00  0.00    -0.020 C 
ATOM     21  C   UNL A   1      36.034  23.288  25.951  1.00  0.00     0.012 C 
ATOM     22  C   UNL A   1      35.220  21.138  24.969  1.00  0.00     0.012 C 
ENDBRANCH  13  16
ENDBRANCH  10  13
ENDBRANCH   5   6
ENDBRANCH   3   5
ENDBRANCH   2   3
ENDBRANCH   1   2
BRANCH   1  23
ATOM     23  C   UNL A   1      34.559  31.464  27.954  1.00  0.00     0.275 C 
BRANCH  23  24
ATOM     24  O   UNL A   1      35.279  31.378  29.186  1.00  0.00    -0.458 OA
BRANCH  24  25
ATOM     25  C   UNL A   1      36.505  31.943  29.109  1.00  0.00     0.338 C 
ATOM     26  O   UNL A   1      36.823  32.900  28.423  1.00  0.00    -0.246 OA
BRANCH  25  27
ATOM     27  C   UNL A   1      37.502  31.114  29.784  1.00  0.00     0.060 A 
ATOM     28  C   UNL A   1      38.831  31.550  29.762  1.00  0.00     0.016 A 
ATOM     29  C   UNL A   1      37.159  29.794  30.098  1.00  0.00     0.016 A 
ATOM     30  C   UNL A   1      39.837  30.614  29.908  1.00  0.00     0.010 A 
ATOM     31  C   UNL A   1      38.165  28.860  30.225  1.00  0.00     0.010 A 
ATOM     32  C   UNL A   1      39.490  29.268  30.057  1.00  0.00    -0.014 A 
BRANCH  32  33
ATOM     33  C   UNL A   1      40.555  28.280  30.064  1.00  0.00     0.031 A 
ATOM     34  C   UNL A   1      41.293  28.151  31.342  1.00  0.00     0.074 A 
ATOM     35  C   UNL A   1      40.732  27.411  29.050  1.00  0.00     0.049 A 
ATOM     36  N   UNL A   1      42.569  28.214  31.543  1.00  0.00    -0.248 NA
ATOM     37  C   UNL A   1      40.492  27.985  32.566  1.00  0.00     0.031 C 
ATOM     38  C   UNL A   1      39.864  27.206  27.887  1.00  0.00     0.029 A 
ATOM     39  N   UNL A   1      41.653  26.415  28.933  1.00  0.00    -0.354 N 
ATOM     40  C   UNL A   1      42.749  27.944  32.895  1.00  0.00     0.074 A 
ATOM     41  C   UNL A   1      41.440  27.934  33.498  1.00  0.00     0.031 C 
ATOM     42  C   UNL A   1      40.152  26.006  27.335  1.00  0.00     0.029 A 
ATOM     43  C   UNL A   1      41.287  25.424  28.034  1.00  0.00     0.049 A 
ATOM     44  H   UNL A   1      42.498  26.399  29.438  1.00  0.00     0.167 HD
ATOM     45  C   UNL A   1      43.938  27.524  33.401  1.00  0.00     0.031 A 
ATOM     46  C   UNL A   1      41.811  24.177  27.953  1.00  0.00     0.031 A 
ATOM     47  C   UNL A   1      45.048  27.829  32.542  1.00  0.00     0.049 A 
ATOM     48  C   UNL A   1      43.111  24.179  28.666  1.00  0.00     0.074 A 
ATOM     49  C   UNL A   1      45.547  28.992  31.986  1.00  0.00     0.029 A 
ATOM     50  N   UNL A   1      45.626  26.803  31.835  1.00  0.00    -0.354 N 
ATOM     51  N   UNL A   1      44.175  24.799  28.243  1.00  0.00    -0.248 NA
ATOM     52  C   UNL A   1      43.123  23.813  30.075  1.00  0.00     0.031 C 
ATOM     53  C   UNL A   1      45.980  28.617  30.681  1.00  0.00     0.029 A 
ATOM     54  C   UNL A   1      45.757  27.247  30.544  1.00  0.00     0.049 A 
ATOM     55  H   UNL A   1      45.895  25.923  32.186  1.00  0.00     0.167 HD
ATOM     56  C   UNL A   1      44.787  25.278  29.392  1.00  0.00     0.074 A 
ATOM     57  C   UNL A   1      44.160  24.545  30.489  1.00  0.00     0.031 C 
ATOM     58  C   UNL A   1      45.537  26.420  29.377  1.00  0.00     0.031 A 
BRANCH  45  59
ATOM     59  C   UNL A   1      44.018  26.512  34.512  1.00  0.00    -0.014 A 
ATOM     60  C   UNL A   1      44.704  26.833  35.693  1.00  0.00     0.009 A 
ATOM     61  C   UNL A   1      43.665  25.159  34.326  1.00  0.00     0.009 A 
ATOM     62  C   UNL A   1      45.048  25.843  36.621  1.00  0.00     0.001 A 
ATOM     63  C   UNL A   1      43.964  24.177  35.270  1.00  0.00     0.001 A 
ATOM     64  C   UNL A   1      44.679  24.517  36.409  1.00  0.00     0.000 A 
ENDBRANCH  45  59
BRANCH  46  65
ATOM     65  C   UNL A   1      41.128  22.924  27.561  1.00  0.00    -0.014 A 
ATOM     66  C   UNL A   1      39.967  22.958  26.774  1.00  0.00     0.009 A 
ATOM     67  C   UNL A   1      41.749  21.673  27.751  1.00  0.00     0.009 A 
ATOM     68  C   UNL A   1      39.468  21.794  26.174  1.00  0.00     0.001 A 
ATOM     69  C   UNL A   1      41.244  20.510  27.163  1.00  0.00     0.001 A 
ATOM     70  C   UNL A   1      40.111  20.573  26.361  1.00  0.00     0.000 A 
ENDBRANCH  46  65
BRANCH  58  71
ATOM     71  C   UNL A   1      45.890  27.032  28.042  1.00  0.00    -0.014 A 
ATOM     72  C   UNL A   1      45.028  27.901  27.351  1.00  0.00     0.009 A 
ATOM     73  C   UNL A   1      47.192  26.860  27.548  1.00  0.00     0.009 A 
ATOM     74  C   UNL A   1      45.442  28.546  26.181  1.00  0.00     0.001 A 
ATOM     75  C   UNL A   1      47.614  27.524  26.393  1.00  0.00     0.001 A 
ATOM     76  C   UNL A   1      46.738  28.361  25.706  1.00  0.00     0.000 A 
ENDBRANCH  58  71
ENDBRANCH  32  33
ENDBRANCH  25  27
ENDBRANCH  24  25
ENDBRANCH  23  24
ENDBRANCH   1  23
TORSDOF 14
ENDMDL
MODEL 3
REMARK VINA RESULT:     -11.0      4.894      9.846
REMARK SMILES Cc1nn(CC(=O)OCCOC(=O)c2ccc(-c3c4nc(c(-c5ccccc5)c5ccc([nH]5)c(-c5ccccc5)c5nc(c(-c6ccccc6)c6ccc3[nH]6)C=C5)C=C4)cc2)c(C)c1S(=O)(=O)N1CCC(C)(C)C1
REMARK SMILES IDX 9 1 8 2 6 3 7 4 5 5 4 6 1 7 2 8 3 9 64 10 62 11 63 12 65 13
REMARK SMILES IDX 66 14 67 15 68 16 69 17 74 18 70 19 71 20 72 21 73 22 10 23
REMARK SMILES IDX 11 24 12 25 13 26 14 27 15 28 61 29 16 30 60 31 17 32 18 33
REMARK SMILES IDX 19 34 54 35 20 36 59 37 53 38 55 39 21 40 58 41 52 42 51 43
REMARK SMILES IDX 22 45 44 46 29 47 43 48 30 49 33 50 42 51 56 52 31 53 32 54
REMARK SMILES IDX 41 56 57 57 34 58 23 59 24 60 28 61 25 62 27 63 26 64 45 65
REMARK SMILES IDX 46 66 50 67 47 68 49 69 48 70 35 71 36 72 40 73 37 74 39 75
REMARK SMILES IDX 38 76
REMARK H PARENT 55 44 33 55
REMARK Flexibility Score: inf
ROOT
ATOM      1  C   UNL A   1      32.948  30.717  27.173  1.00  0.00     0.274 C 
ENDROOT
BRANCH   1   2
ATOM      2  O   UNL A   1      32.943  29.340  27.605  1.00  0.00    -0.461 OA
BRANCH   2   3
ATOM      3  C   UNL A   1      31.900  28.579  27.175  1.00  0.00     0.327 C 
ATOM      4  O   UNL A   1      31.263  27.821  27.905  1.00  0.00    -0.250 OA
BRANCH   3   5
ATOM      5  C   UNL A   1      31.656  28.630  25.692  1.00  0.00     0.266 C 
BRANCH   5   6
ATOM      6  N   UNL A   1      31.773  27.358  25.005  1.00  0.00    -0.257 N 
ATOM      7  C   UNL A   1      30.030  24.880  23.248  1.00  0.00     0.070 C 
ATOM      8  C   UNL A   1      31.057  25.645  23.983  1.00  0.00     0.080 A 
ATOM      9  N   UNL A   1      30.647  26.689  24.716  1.00  0.00    -0.176 NA
ATOM     10  C   UNL A   1      32.459  25.493  24.068  1.00  0.00     0.126 A 
ATOM     11  C   UNL A   1      32.905  26.633  24.731  1.00  0.00     0.056 A 
ATOM     12  C   UNL A   1      34.271  27.089  25.086  1.00  0.00     0.068 C 
BRANCH  10  13
ATOM     13  S   UNL A   1      33.458  24.211  23.485  1.00  0.00     0.246 S 
ATOM     14  O   UNL A   1      32.516  23.106  23.340  1.00  0.00    -0.207 OA
ATOM     15  O   UNL A   1      34.111  24.796  22.348  1.00  0.00    -0.207 OA
BRANCH  13  16
ATOM     16  N   UNL A   1      34.629  23.742  24.563  1.00  0.00    -0.197 NA
ATOM     17  C   UNL A   1      34.350  23.395  25.950  1.00  0.00     0.103 C 
ATOM     18  C   UNL A   1      36.022  23.530  24.188  1.00  0.00     0.109 C 
ATOM     19  C   UNL A   1      35.519  22.501  26.351  1.00  0.00     0.024 C 
ATOM     20  C   UNL A   1      36.688  22.909  25.434  1.00  0.00    -0.020 C 
ATOM     21  C   UNL A   1      37.588  23.924  26.150  1.00  0.00     0.012 C 
ATOM     22  C   UNL A   1      37.526  21.686  25.037  1.00  0.00     0.012 C 
ENDBRANCH  13  16
ENDBRANCH  10  13
ENDBRANCH   5   6
ENDBRANCH   3   5
ENDBRANCH   2   3
ENDBRANCH   1   2
BRANCH   1  23
ATOM     23  C   UNL A   1      34.113  31.525  27.736  1.00  0.00     0.275 C 
BRANCH  23  24
ATOM     24  O   UNL A   1      34.859  30.787  28.706  1.00  0.00    -0.458 OA
BRANCH  24  25
ATOM     25  C   UNL A   1      35.896  31.494  29.209  1.00  0.00     0.338 C 
ATOM     26  O   UNL A   1      35.840  32.597  29.727  1.00  0.00    -0.246 OA
BRANCH  25  27
ATOM     27  C   UNL A   1      37.171  30.877  28.847  1.00  0.00     0.060 A 
ATOM     28  C   UNL A   1      37.141  29.572  28.345  1.00  0.00     0.016 A 
ATOM     29  C   UNL A   1      38.347  31.459  29.335  1.00  0.00     0.016 A 
ATOM     30  C   UNL A   1      38.271  28.787  28.476  1.00  0.00     0.010 A 
ATOM     31  C   UNL A   1      39.466  30.667  29.480  1.00  0.00     0.010 A 
ATOM     32  C   UNL A   1      39.394  29.321  29.115  1.00  0.00    -0.014 A 
BRANCH  32  33
ATOM     33  C   UNL A   1      40.520  28.442  29.375  1.00  0.00     0.031 A 
ATOM     34  C   UNL A   1      40.966  28.380  30.786  1.00  0.00     0.074 A 
ATOM     35  C   UNL A   1      41.000  27.598  28.440  1.00  0.00     0.049 A 
ATOM     36  N   UNL A   1      42.152  28.566  31.263  1.00  0.00    -0.248 NA
ATOM     37  C   UNL A   1      39.932  28.132  31.806  1.00  0.00     0.031 C 
ATOM     38  C   UNL A   1      40.436  27.314  27.117  1.00  0.00     0.029 A 
ATOM     39  N   UNL A   1      42.015  26.697  28.547  1.00  0.00    -0.354 N 
ATOM     40  C   UNL A   1      42.054  28.309  32.626  1.00  0.00     0.074 A 
ATOM     41  C   UNL A   1      40.651  28.169  32.925  1.00  0.00     0.031 C 
ATOM     42  C   UNL A   1      40.952  26.151  26.664  1.00  0.00     0.029 A 
ATOM     43  C   UNL A   1      41.954  25.679  27.607  1.00  0.00     0.049 A 
ATOM     44  H   UNL A   1      42.725  26.761  29.227  1.00  0.00     0.167 HD
ATOM     45  C   UNL A   1      43.135  28.005  33.390  1.00  0.00     0.031 A 
ATOM     46  C   UNL A   1      42.600  24.489  27.666  1.00  0.00     0.031 A 
ATOM     47  C   UNL A   1      44.373  28.419  32.793  1.00  0.00     0.049 A 
ATOM     48  C   UNL A   1      43.703  24.614  28.648  1.00  0.00     0.074 A 
ATOM     49  C   UNL A   1      44.870  29.627  32.340  1.00  0.00     0.029 A 
ATOM     50  N   UNL A   1      45.189  27.457  32.249  1.00  0.00    -0.354 N 
ATOM     51  N   UNL A   1      44.770  25.337  28.461  1.00  0.00    -0.248 NA
ATOM     52  C   UNL A   1      43.438  24.246  30.031  1.00  0.00     0.031 C 
ATOM     53  C   UNL A   1      45.615  29.301  31.170  1.00  0.00     0.029 A 
ATOM     54  C   UNL A   1      45.560  27.917  31.011  1.00  0.00     0.049 A 
ATOM     55  H   UNL A   1      45.457  26.606  32.666  1.00  0.00     0.167 HD
ATOM     56  C   UNL A   1      45.063  25.868  29.708  1.00  0.00     0.074 A 
ATOM     57  C   UNL A   1      44.282  25.073  30.652  1.00  0.00     0.031 C 
ATOM     58  C   UNL A   1      45.685  27.078  29.839  1.00  0.00     0.031 A 
BRANCH  45  59
ATOM     59  C   UNL A   1      43.063  27.000  34.509  1.00  0.00    -0.014 A 
ATOM     60  C   UNL A   1      42.875  25.643  34.209  1.00  0.00     0.009 A 
ATOM     61  C   UNL A   1      42.912  27.384  35.858  1.00  0.00     0.009 A 
ATOM     62  C   UNL A   1      42.519  24.726  35.205  1.00  0.00     0.001 A 
ATOM     63  C   UNL A   1      42.603  26.465  36.860  1.00  0.00     0.001 A 
ATOM     64  C   UNL A   1      42.383  25.137  36.529  1.00  0.00     0.000 A 
ENDBRANCH  45  59
BRANCH  46  65
ATOM     65  C   UNL A   1      42.144  23.177  27.154  1.00  0.00    -0.014 A 
ATOM     66  C   UNL A   1      43.025  22.336  26.456  1.00  0.00     0.009 A 
ATOM     67  C   UNL A   1      40.911  22.632  27.561  1.00  0.00     0.009 A 
ATOM     68  C   UNL A   1      42.697  20.997  26.205  1.00  0.00     0.001 A 
ATOM     69  C   UNL A   1      40.578  21.300  27.300  1.00  0.00     0.001 A 
ATOM     70  C   UNL A   1      41.478  20.477  26.635  1.00  0.00     0.000 A 
ENDBRANCH  46  65
BRANCH  58  71
ATOM     71  C   UNL A   1      46.265  27.726  28.605  1.00  0.00    -0.014 A 
ATOM     72  C   UNL A   1      47.596  27.529  28.195  1.00  0.00     0.009 A 
ATOM     73  C   UNL A   1      45.404  28.420  27.742  1.00  0.00     0.009 A 
ATOM     74  C   UNL A   1      48.058  28.044  26.980  1.00  0.00     0.001 A 
ATOM     75  C   UNL A   1      45.859  28.914  26.517  1.00  0.00     0.001 A 
ATOM     76  C   UNL A   1      47.188  28.732  26.139  1.00  0.00     0.000 A 
ENDBRANCH  58  71
ENDBRANCH  32  33
ENDBRANCH  25  27
ENDBRANCH  24  25
ENDBRANCH  23  24
ENDBRANCH   1  23
TORSDOF 14
ENDMDL
