MODEL 1
REMARK VINA RESULT:     -11.3      0.000      0.000
REMARK SMILES C[C@]1(C(=O)OCCOC(=O)c2ccc(-c3c4nc(c(-c5ccccc5)c5ccc([nH]5)c(-c5ccccc5)c5nc(c(-c6ccccc6)c6ccc3[nH]6)C=C5)C=C4)cc2)CCN(c2ccc([N+](=O)[O-])c(N)n2)C1
REMARK SMILES IDX 6 1 5 2 3 3 4 4 2 5 1 6 59 7 72 8 60 9 61 10 62 11 63 12
REMARK SMILES IDX 71 13 64 14 69 15 65 16 70 17 66 20 67 21 68 22 7 23 8 24
REMARK SMILES IDX 9 25 10 26 11 27 12 28 58 29 13 30 57 31 14 32 15 33 16 34
REMARK SMILES IDX 51 35 17 36 56 37 50 38 52 39 18 40 55 41 49 42 48 43 19 45
REMARK SMILES IDX 41 46 26 47 40 48 27 49 30 50 39 51 53 52 28 53 29 54 38 56
REMARK SMILES IDX 54 57 31 58 20 59 21 60 25 61 22 62 24 63 23 64 42 65 43 66
REMARK SMILES IDX 47 67 44 68 46 69 45 70 32 71 33 72 37 73 34 74 36 75 35 76
REMARK H PARENT 70 18 70 19 52 44 30 55
REMARK Flexibility Score: inf
ROOT
ATOM      1  C   UNL A   1      34.504  20.642  25.061  1.00  0.00     0.274 C 
ENDROOT
BRANCH   1   2
ATOM      2  O   UNL A   1      34.248  22.061  24.960  1.00  0.00    -0.462 OA
BRANCH   2   3
ATOM      3  C   UNL A   1      33.329  22.426  24.028  1.00  0.00     0.313 C 
ATOM      4  O   UNL A   1      32.556  21.650  23.476  1.00  0.00    -0.252 OA
BRANCH   3   5
ATOM      5  C   UNL A   1      33.379  23.901  23.675  1.00  0.00     0.084 C 
ATOM      6  C   UNL A   1      34.674  24.477  24.260  1.00  0.00     0.026 C 
ATOM      7  C   UNL A   1      33.323  24.062  22.147  1.00  0.00     0.042 C 
ATOM      8  C   UNL A   1      32.151  24.720  24.103  1.00  0.00     0.136 C 
ATOM      9  C   UNL A   1      32.852  25.489  21.911  1.00  0.00     0.119 C 
ATOM     10  N   UNL A   1      32.102  25.802  23.119  1.00  0.00    -0.355 N 
BRANCH  10  11
ATOM     11  C   UNL A   1      31.073  26.707  23.074  1.00  0.00     0.131 A 
ATOM     12  C   UNL A   1      29.853  26.421  23.678  1.00  0.00     0.054 A 
ATOM     13  N   UNL A   1      31.284  27.896  22.462  1.00  0.00    -0.207 NA
ATOM     14  C   UNL A   1      28.844  27.380  23.678  1.00  0.00     0.093 A 
ATOM     15  C   UNL A   1      30.297  28.816  22.404  1.00  0.00     0.204 A 
ATOM     16  C   UNL A   1      29.077  28.592  23.027  1.00  0.00     0.311 A 
BRANCH  15  17
ATOM     17  N   UNL A   1      30.651  29.985  21.759  1.00  0.00    -0.378 N 
ATOM     18  H   UNL A   1      31.490  30.030  21.247  1.00  0.00     0.158 HD
ATOM     19  H   UNL A   1      30.063  30.774  21.812  1.00  0.00     0.158 HD
ENDBRANCH  15  17
BRANCH  16  20
ATOM     20  N   UNL A   1      28.032  29.597  23.011  1.00  0.00     0.066 N 
ATOM     21  O   UNL A   1      26.888  29.221  22.712  1.00  0.00    -0.258 OA
ATOM     22  O   UNL A   1      28.348  30.773  23.255  1.00  0.00    -0.258 OA
ENDBRANCH  16  20
ENDBRANCH  10  11
ENDBRANCH   3   5
ENDBRANCH   2   3
ENDBRANCH   1   2
BRANCH   1  23
ATOM     23  C   UNL A   1      36.000  20.348  24.981  1.00  0.00     0.275 C 
BRANCH  23  24
ATOM     24  O   UNL A   1      36.731  21.369  25.683  1.00  0.00    -0.458 OA
BRANCH  24  25
ATOM     25  C   UNL A   1      38.079  21.256  25.649  1.00  0.00     0.338 C 
ATOM     26  O   UNL A   1      38.723  20.342  25.164  1.00  0.00    -0.246 OA
BRANCH  25  27
ATOM     27  C   UNL A   1      38.714  22.436  26.278  1.00  0.00     0.060 A 
ATOM     28  C   UNL A   1      38.169  23.710  26.130  1.00  0.00     0.016 A 
ATOM     29  C   UNL A   1      39.943  22.285  26.918  1.00  0.00     0.016 A 
ATOM     30  C   UNL A   1      38.913  24.837  26.484  1.00  0.00     0.010 A 
ATOM     31  C   UNL A   1      40.632  23.410  27.386  1.00  0.00     0.010 A 
ATOM     32  C   UNL A   1      40.155  24.706  27.124  1.00  0.00    -0.014 A 
BRANCH  32  33
ATOM     33  C   UNL A   1      40.976  25.906  27.467  1.00  0.00     0.031 A 
ATOM     34  C   UNL A   1      40.468  26.917  28.469  1.00  0.00     0.074 A 
ATOM     35  C   UNL A   1      42.189  26.103  26.909  1.00  0.00     0.049 A 
ATOM     36  N   UNL A   1      40.931  28.110  28.749  1.00  0.00    -0.248 NA
ATOM     37  C   UNL A   1      39.272  26.546  29.244  1.00  0.00     0.031 C 
ATOM     38  C   UNL A   1      42.850  25.205  25.960  1.00  0.00     0.029 A 
ATOM     39  N   UNL A   1      43.094  27.124  27.079  1.00  0.00    -0.354 N 
ATOM     40  C   UNL A   1      40.041  28.660  29.664  1.00  0.00     0.074 A 
ATOM     41  C   UNL A   1      39.017  27.667  29.904  1.00  0.00     0.031 C 
ATOM     42  C   UNL A   1      44.076  25.677  25.687  1.00  0.00     0.029 A 
ATOM     43  C   UNL A   1      44.253  26.957  26.362  1.00  0.00     0.049 A 
ATOM     44  H   UNL A   1      42.927  27.901  27.660  1.00  0.00     0.167 HD
ATOM     45  C   UNL A   1      40.066  29.883  30.247  1.00  0.00     0.031 A 
ATOM     46  C   UNL A   1      45.329  27.755  26.226  1.00  0.00     0.031 A 
ATOM     47  C   UNL A   1      41.117  30.851  30.072  1.00  0.00     0.049 A 
ATOM     48  C   UNL A   1      45.345  29.098  26.894  1.00  0.00     0.074 A 
ATOM     49  C   UNL A   1      41.225  32.118  30.622  1.00  0.00     0.029 A 
ATOM     50  N   UNL A   1      42.259  30.644  29.318  1.00  0.00    -0.354 N 
ATOM     51  N   UNL A   1      44.443  29.643  27.672  1.00  0.00    -0.248 NA
ATOM     52  C   UNL A   1      46.518  29.948  26.638  1.00  0.00     0.031 C 
ATOM     53  C   UNL A   1      42.427  32.685  30.182  1.00  0.00     0.029 A 
ATOM     54  C   UNL A   1      43.079  31.757  29.389  1.00  0.00     0.049 A 
ATOM     55  H   UNL A   1      42.458  29.826  28.807  1.00  0.00     0.167 HD
ATOM     56  C   UNL A   1      44.934  30.900  27.993  1.00  0.00     0.074 A 
ATOM     57  C   UNL A   1      46.227  31.026  27.352  1.00  0.00     0.031 C 
ATOM     58  C   UNL A   1      44.357  31.871  28.742  1.00  0.00     0.031 A 
BRANCH  45  59
ATOM     59  C   UNL A   1      38.892  30.265  31.104  1.00  0.00    -0.014 A 
ATOM     60  C   UNL A   1      38.889  30.046  32.489  1.00  0.00     0.009 A 
ATOM     61  C   UNL A   1      37.785  30.893  30.511  1.00  0.00     0.009 A 
ATOM     62  C   UNL A   1      37.787  30.423  33.259  1.00  0.00     0.001 A 
ATOM     63  C   UNL A   1      36.695  31.290  31.286  1.00  0.00     0.001 A 
ATOM     64  C   UNL A   1      36.693  31.048  32.659  1.00  0.00     0.000 A 
ENDBRANCH  45  59
BRANCH  46  65
ATOM     65  C   UNL A   1      46.468  27.319  25.380  1.00  0.00    -0.014 A 
ATOM     66  C   UNL A   1      46.652  27.864  24.100  1.00  0.00     0.009 A 
ATOM     67  C   UNL A   1      47.385  26.366  25.853  1.00  0.00     0.009 A 
ATOM     68  C   UNL A   1      47.727  27.457  23.308  1.00  0.00     0.001 A 
ATOM     69  C   UNL A   1      48.473  25.982  25.069  1.00  0.00     0.001 A 
ATOM     70  C   UNL A   1      48.641  26.523  23.795  1.00  0.00     0.000 A 
ENDBRANCH  46  65
BRANCH  58  71
ATOM     71  C   UNL A   1      45.131  33.144  28.915  1.00  0.00    -0.014 A 
ATOM     72  C   UNL A   1      46.038  33.294  29.975  1.00  0.00     0.009 A 
ATOM     73  C   UNL A   1      44.964  34.194  28.001  1.00  0.00     0.009 A 
ATOM     74  C   UNL A   1      46.743  34.489  30.133  1.00  0.00     0.001 A 
ATOM     75  C   UNL A   1      45.682  35.380  28.153  1.00  0.00     0.001 A 
ATOM     76  C   UNL A   1      46.565  35.530  29.222  1.00  0.00     0.000 A 
ENDBRANCH  58  71
ENDBRANCH  32  33
ENDBRANCH  25  27
ENDBRANCH  24  25
ENDBRANCH  23  24
ENDBRANCH   1  23
TORSDOF 14
ENDMDL
MODEL 2
REMARK VINA RESULT:     -11.1      2.053      2.419
REMARK SMILES C[C@]1(C(=O)OCCOC(=O)c2ccc(-c3c4nc(c(-c5ccccc5)c5ccc([nH]5)c(-c5ccccc5)c5nc(c(-c6ccccc6)c6ccc3[nH]6)C=C5)C=C4)cc2)CCN(c2ccc([N+](=O)[O-])c(N)n2)C1
REMARK SMILES IDX 6 1 5 2 3 3 4 4 2 5 1 6 59 7 72 8 60 9 61 10 62 11 63 12
REMARK SMILES IDX 71 13 64 14 69 15 65 16 70 17 66 20 67 21 68 22 7 23 8 24
REMARK SMILES IDX 9 25 10 26 11 27 12 28 58 29 13 30 57 31 14 32 15 33 16 34
REMARK SMILES IDX 51 35 17 36 56 37 50 38 52 39 18 40 55 41 49 42 48 43 19 45
REMARK SMILES IDX 41 46 26 47 40 48 27 49 30 50 39 51 53 52 28 53 29 54 38 56
REMARK SMILES IDX 54 57 31 58 20 59 21 60 25 61 22 62 24 63 23 64 42 65 43 66
REMARK SMILES IDX 47 67 44 68 46 69 45 70 32 71 33 72 37 73 34 74 36 75 35 76
REMARK H PARENT 70 18 70 19 52 44 30 55
REMARK Flexibility Score: inf
ROOT
ATOM      1  C   UNL A   1      34.883  20.210  24.822  1.00  0.00     0.274 C 
ENDROOT
BRANCH   1   2
ATOM      2  O   UNL A   1      33.895  20.982  24.104  1.00  0.00    -0.462 OA
BRANCH   2   3
ATOM      3  C   UNL A   1      32.735  21.215  24.772  1.00  0.00     0.313 C 
ATOM      4  O   UNL A   1      32.167  20.392  25.483  1.00  0.00    -0.252 OA
BRANCH   3   5
ATOM      5  C   UNL A   1      32.153  22.593  24.511  1.00  0.00     0.084 C 
ATOM      6  C   UNL A   1      31.774  22.665  23.027  1.00  0.00     0.026 C 
ATOM      7  C   UNL A   1      30.935  22.813  25.422  1.00  0.00     0.042 C 
ATOM      8  C   UNL A   1      33.048  23.771  24.924  1.00  0.00     0.136 C 
ATOM      9  C   UNL A   1      30.755  24.321  25.491  1.00  0.00     0.119 C 
ATOM     10  N   UNL A   1      32.092  24.835  25.232  1.00  0.00    -0.355 N 
BRANCH  10  11
ATOM     11  C   UNL A   1      32.479  26.041  25.756  1.00  0.00     0.131 A 
ATOM     12  C   UNL A   1      33.593  26.706  25.252  1.00  0.00     0.054 A 
ATOM     13  N   UNL A   1      31.733  26.586  26.746  1.00  0.00    -0.207 NA
ATOM     14  C   UNL A   1      33.930  27.960  25.754  1.00  0.00     0.093 A 
ATOM     15  C   UNL A   1      32.079  27.776  27.282  1.00  0.00     0.204 A 
ATOM     16  C   UNL A   1      33.157  28.495  26.785  1.00  0.00     0.311 A 
BRANCH  15  17
ATOM     17  N   UNL A   1      31.227  28.218  28.275  1.00  0.00    -0.378 N 
ATOM     18  H   UNL A   1      31.508  28.944  28.878  1.00  0.00     0.158 HD
ATOM     19  H   UNL A   1      30.339  27.806  28.382  1.00  0.00     0.158 HD
ENDBRANCH  15  17
BRANCH  16  20
ATOM     20  N   UNL A   1      33.502  29.796  27.323  1.00  0.00     0.066 N 
ATOM     21  O   UNL A   1      32.636  30.683  27.262  1.00  0.00    -0.258 OA
ATOM     22  O   UNL A   1      34.648  29.959  27.771  1.00  0.00    -0.258 OA
ENDBRANCH  16  20
ENDBRANCH  10  11
ENDBRANCH   3   5
ENDBRANCH   2   3
ENDBRANCH   1   2
BRANCH   1  23
ATOM     23  C   UNL A   1      35.736  21.108  25.716  1.00  0.00     0.275 C 
BRANCH  23  24
ATOM     24  O   UNL A   1      36.872  21.586  24.974  1.00  0.00    -0.458 OA
BRANCH  24  25
ATOM     25  C   UNL A   1      38.084  21.237  25.465  1.00  0.00     0.338 C 
ATOM     26  O   UNL A   1      38.616  20.143  25.386  1.00  0.00    -0.246 OA
BRANCH  25  27
ATOM     27  C   UNL A   1      38.730  22.395  26.123  1.00  0.00     0.060 A 
ATOM     28  C   UNL A   1      38.162  23.666  26.062  1.00  0.00     0.016 A 
ATOM     29  C   UNL A   1      39.990  22.233  26.699  1.00  0.00     0.016 A 
ATOM     30  C   UNL A   1      38.905  24.786  26.437  1.00  0.00     0.010 A 
ATOM     31  C   UNL A   1      40.683  23.345  27.191  1.00  0.00     0.010 A 
ATOM     32  C   UNL A   1      40.176  24.645  27.014  1.00  0.00    -0.014 A 
BRANCH  32  33
ATOM     33  C   UNL A   1      40.995  25.840  27.378  1.00  0.00     0.031 A 
ATOM     34  C   UNL A   1      40.484  26.833  28.396  1.00  0.00     0.074 A 
ATOM     35  C   UNL A   1      42.209  26.047  26.826  1.00  0.00     0.049 A 
ATOM     36  N   UNL A   1      40.945  28.022  28.698  1.00  0.00    -0.248 NA
ATOM     37  C   UNL A   1      39.288  26.448  29.163  1.00  0.00     0.031 C 
ATOM     38  C   UNL A   1      42.872  25.167  25.863  1.00  0.00     0.029 A 
ATOM     39  N   UNL A   1      43.112  27.067  27.015  1.00  0.00    -0.354 N 
ATOM     40  C   UNL A   1      40.053  28.555  29.620  1.00  0.00     0.074 A 
ATOM     41  C   UNL A   1      39.030  27.557  29.842  1.00  0.00     0.031 C 
ATOM     42  C   UNL A   1      44.098  25.645  25.601  1.00  0.00     0.029 A 
ATOM     43  C   UNL A   1      44.273  26.914  26.297  1.00  0.00     0.049 A 
ATOM     44  H   UNL A   1      42.943  27.834  27.608  1.00  0.00     0.167 HD
ATOM     45  C   UNL A   1      40.075  29.768  30.224  1.00  0.00     0.031 A 
ATOM     46  C   UNL A   1      45.347  27.715  26.176  1.00  0.00     0.031 A 
ATOM     47  C   UNL A   1      41.125  30.740  30.067  1.00  0.00     0.049 A 
ATOM     48  C   UNL A   1      45.361  29.047  26.866  1.00  0.00     0.074 A 
ATOM     49  C   UNL A   1      41.230  31.998  30.638  1.00  0.00     0.029 A 
ATOM     50  N   UNL A   1      42.268  30.548  29.311  1.00  0.00    -0.354 N 
ATOM     51  N   UNL A   1      44.457  29.578  27.652  1.00  0.00    -0.248 NA
ATOM     52  C   UNL A   1      46.533  29.903  26.627  1.00  0.00     0.031 C 
ATOM     53  C   UNL A   1      42.432  32.574  30.210  1.00  0.00     0.029 A 
ATOM     54  C   UNL A   1      43.087  31.660  29.402  1.00  0.00     0.049 A 
ATOM     55  H   UNL A   1      42.469  29.739  28.786  1.00  0.00     0.167 HD
ATOM     56  C   UNL A   1      44.946  30.830  27.995  1.00  0.00     0.074 A 
ATOM     57  C   UNL A   1      46.240  30.968  27.359  1.00  0.00     0.031 C 
ATOM     58  C   UNL A   1      44.366  31.787  28.759  1.00  0.00     0.031 A 
BRANCH  45  59
ATOM     59  C   UNL A   1      38.899  30.134  31.085  1.00  0.00    -0.014 A 
ATOM     60  C   UNL A   1      38.901  29.906  32.468  1.00  0.00     0.009 A 
ATOM     61  C   UNL A   1      37.786  30.756  30.497  1.00  0.00     0.009 A 
ATOM     62  C   UNL A   1      37.796  30.268  33.243  1.00  0.00     0.001 A 
ATOM     63  C   UNL A   1      36.693  31.138  31.277  1.00  0.00     0.001 A 
ATOM     64  C   UNL A   1      36.696  30.887  32.648  1.00  0.00     0.000 A 
ENDBRANCH  45  59
BRANCH  46  65
ATOM     65  C   UNL A   1      46.489  27.295  25.325  1.00  0.00    -0.014 A 
ATOM     66  C   UNL A   1      46.671  27.858  24.052  1.00  0.00     0.009 A 
ATOM     67  C   UNL A   1      47.410  26.340  25.786  1.00  0.00     0.009 A 
ATOM     68  C   UNL A   1      47.748  27.465  23.256  1.00  0.00     0.001 A 
ATOM     69  C   UNL A   1      48.499  25.970  24.997  1.00  0.00     0.001 A 
ATOM     70  C   UNL A   1      48.665  26.529  23.730  1.00  0.00     0.000 A 
ENDBRANCH  46  65
BRANCH  58  71
ATOM     71  C   UNL A   1      45.138  33.058  28.955  1.00  0.00    -0.014 A 
ATOM     72  C   UNL A   1      46.049  33.189  30.014  1.00  0.00     0.009 A 
ATOM     73  C   UNL A   1      44.965  34.126  28.064  1.00  0.00     0.009 A 
ATOM     74  C   UNL A   1      46.752  34.381  30.194  1.00  0.00     0.001 A 
ATOM     75  C   UNL A   1      45.681  35.310  28.236  1.00  0.00     0.001 A 
ATOM     76  C   UNL A   1      46.568  35.440  29.304  1.00  0.00     0.000 A 
ENDBRANCH  58  71
ENDBRANCH  32  33
ENDBRANCH  25  27
ENDBRANCH  24  25
ENDBRANCH  23  24
ENDBRANCH   1  23
TORSDOF 14
ENDMDL
MODEL 3
REMARK VINA RESULT:     -11.0      4.073      9.160
REMARK SMILES C[C@]1(C(=O)OCCOC(=O)c2ccc(-c3c4nc(c(-c5ccccc5)c5ccc([nH]5)c(-c5ccccc5)c5nc(c(-c6ccccc6)c6ccc3[nH]6)C=C5)C=C4)cc2)CCN(c2ccc([N+](=O)[O-])c(N)n2)C1
REMARK SMILES IDX 6 1 5 2 3 3 4 4 2 5 1 6 59 7 72 8 60 9 61 10 62 11 63 12
REMARK SMILES IDX 71 13 64 14 69 15 65 16 70 17 66 20 67 21 68 22 7 23 8 24
REMARK SMILES IDX 9 25 10 26 11 27 12 28 58 29 13 30 57 31 14 32 15 33 16 34
REMARK SMILES IDX 51 35 17 36 56 37 50 38 52 39 18 40 55 41 49 42 48 43 19 45
REMARK SMILES IDX 41 46 26 47 40 48 27 49 30 50 39 51 53 52 28 53 29 54 38 56
REMARK SMILES IDX 54 57 31 58 20 59 21 60 25 61 22 62 24 63 23 64 42 65 43 66
REMARK SMILES IDX 47 67 44 68 46 69 45 70 32 71 33 72 37 73 34 74 36 75 35 76
REMARK H PARENT 70 18 70 19 52 44 30 55
REMARK Flexibility Score: inf
ROOT
ATOM      1  C   UNL A   1      32.048  28.905  24.562  1.00  0.00     0.274 C 
ENDROOT
BRANCH   1   2
ATOM      2  O   UNL A   1      31.619  27.632  25.093  1.00  0.00    -0.462 OA
BRANCH   2   3
ATOM      3  C   UNL A   1      31.786  26.566  24.267  1.00  0.00     0.313 C 
ATOM      4  O   UNL A   1      31.367  26.509  23.115  1.00  0.00    -0.252 OA
BRANCH   3   5
ATOM      5  C   UNL A   1      32.500  25.398  24.923  1.00  0.00     0.084 C 
ATOM      6  C   UNL A   1      33.895  25.878  25.338  1.00  0.00     0.026 C 
ATOM      7  C   UNL A   1      31.682  24.914  26.131  1.00  0.00     0.042 C 
ATOM      8  C   UNL A   1      32.571  24.115  24.080  1.00  0.00     0.136 C 
ATOM      9  C   UNL A   1      32.149  23.489  26.386  1.00  0.00     0.119 C 
ATOM     10  N   UNL A   1      32.627  23.050  25.083  1.00  0.00    -0.355 N 
BRANCH  10  11
ATOM     11  C   UNL A   1      32.585  21.722  24.746  1.00  0.00     0.131 A 
ATOM     12  C   UNL A   1      32.385  21.334  23.425  1.00  0.00     0.054 A 
ATOM     13  N   UNL A   1      32.778  20.801  25.720  1.00  0.00    -0.207 NA
ATOM     14  C   UNL A   1      32.411  19.982  23.095  1.00  0.00     0.093 A 
ATOM     15  C   UNL A   1      32.750  19.484  25.425  1.00  0.00     0.204 A 
ATOM     16  C   UNL A   1      32.595  19.049  24.116  1.00  0.00     0.311 A 
BRANCH  15  17
ATOM     17  N   UNL A   1      32.970  18.657  26.510  1.00  0.00    -0.378 N 
ATOM     18  H   UNL A   1      32.229  18.130  26.884  1.00  0.00     0.158 HD
ATOM     19  H   UNL A   1      33.869  18.596  26.908  1.00  0.00     0.158 HD
ENDBRANCH  15  17
BRANCH  16  20
ATOM     20  N   UNL A   1      32.616  17.638  23.788  1.00  0.00     0.066 N 
ATOM     21  O   UNL A   1      32.899  17.331  22.619  1.00  0.00    -0.258 OA
ATOM     22  O   UNL A   1      32.312  16.826  24.676  1.00  0.00    -0.258 OA
ENDBRANCH  16  20
ENDBRANCH  10  11
ENDBRANCH   3   5
ENDBRANCH   2   3
ENDBRANCH   1   2
BRANCH   1  23
ATOM     23  C   UNL A   1      31.435  30.062  25.348  1.00  0.00     0.275 C 
BRANCH  23  24
ATOM     24  O   UNL A   1      32.004  30.103  26.668  1.00  0.00    -0.458 OA
BRANCH  24  25
ATOM     25  C   UNL A   1      32.615  31.261  27.008  1.00  0.00     0.338 C 
ATOM     26  O   UNL A   1      32.139  32.382  26.954  1.00  0.00    -0.246 OA
BRANCH  25  27
ATOM     27  C   UNL A   1      33.987  30.998  27.500  1.00  0.00     0.060 A 
ATOM     28  C   UNL A   1      34.466  29.696  27.634  1.00  0.00     0.016 A 
ATOM     29  C   UNL A   1      34.761  32.065  27.956  1.00  0.00     0.016 A 
ATOM     30  C   UNL A   1      35.637  29.449  28.350  1.00  0.00     0.010 A 
ATOM     31  C   UNL A   1      35.998  31.821  28.564  1.00  0.00     0.010 A 
ATOM     32  C   UNL A   1      36.428  30.508  28.822  1.00  0.00    -0.014 A 
BRANCH  32  33
ATOM     33  C   UNL A   1      37.660  30.252  29.626  1.00  0.00     0.031 A 
ATOM     34  C   UNL A   1      38.839  29.534  29.008  1.00  0.00     0.074 A 
ATOM     35  C   UNL A   1      37.756  30.668  30.906  1.00  0.00     0.049 A 
ATOM     36  N   UNL A   1      39.907  29.045  29.589  1.00  0.00    -0.248 NA
ATOM     37  C   UNL A   1      38.803  29.325  27.552  1.00  0.00     0.031 C 
ATOM     38  C   UNL A   1      36.734  31.414  31.642  1.00  0.00     0.029 A 
ATOM     39  N   UNL A   1      38.782  30.537  31.812  1.00  0.00    -0.354 N 
ATOM     40  C   UNL A   1      40.623  28.400  28.587  1.00  0.00     0.074 A 
ATOM     41  C   UNL A   1      39.878  28.572  27.359  1.00  0.00     0.031 C 
ATOM     42  C   UNL A   1      37.208  31.732  32.856  1.00  0.00     0.029 A 
ATOM     43  C   UNL A   1      38.526  31.132  33.024  1.00  0.00     0.049 A 
ATOM     44  H   UNL A   1      39.620  30.060  31.613  1.00  0.00     0.167 HD
ATOM     45  C   UNL A   1      41.791  27.719  28.678  1.00  0.00     0.031 A 
ATOM     46  C   UNL A   1      39.248  31.167  34.159  1.00  0.00     0.031 A 
ATOM     47  C   UNL A   1      42.578  27.603  29.877  1.00  0.00     0.049 A 
ATOM     48  C   UNL A   1      40.547  30.422  34.236  1.00  0.00     0.074 A 
ATOM     49  C   UNL A   1      43.774  26.930  30.064  1.00  0.00     0.029 A 
ATOM     50  N   UNL A   1      42.265  28.205  31.085  1.00  0.00    -0.354 N 
ATOM     51  N   UNL A   1      41.157  29.728  33.306  1.00  0.00    -0.248 NA
ATOM     52  C   UNL A   1      41.243  30.439  35.531  1.00  0.00     0.031 C 
ATOM     53  C   UNL A   1      44.175  27.111  31.394  1.00  0.00     0.029 A 
ATOM     54  C   UNL A   1      43.246  27.923  32.020  1.00  0.00     0.049 A 
ATOM     55  H   UNL A   1      41.464  28.753  31.252  1.00  0.00     0.167 HD
ATOM     56  C   UNL A   1      42.302  29.223  33.902  1.00  0.00     0.074 A 
ATOM     57  C   UNL A   1      42.320  29.713  35.266  1.00  0.00     0.031 C 
ATOM     58  C   UNL A   1      43.248  28.411  33.372  1.00  0.00     0.031 A 
BRANCH  45  59
ATOM     59  C   UNL A   1      42.274  27.004  27.448  1.00  0.00    -0.014 A 
ATOM     60  C   UNL A   1      41.881  25.690  27.158  1.00  0.00     0.009 A 
ATOM     61  C   UNL A   1      43.109  27.682  26.544  1.00  0.00     0.009 A 
ATOM     62  C   UNL A   1      42.338  25.058  25.999  1.00  0.00     0.001 A 
ATOM     63  C   UNL A   1      43.546  27.055  25.376  1.00  0.00     0.001 A 
ATOM     64  C   UNL A   1      43.166  25.741  25.108  1.00  0.00     0.000 A 
ENDBRANCH  45  59
BRANCH  46  65
ATOM     65  C   UNL A   1      38.730  31.904  35.340  1.00  0.00    -0.014 A 
ATOM     66  C   UNL A   1      38.135  31.210  36.404  1.00  0.00     0.009 A 
ATOM     67  C   UNL A   1      38.841  33.302  35.414  1.00  0.00     0.009 A 
ATOM     68  C   UNL A   1      37.654  31.904  37.516  1.00  0.00     0.001 A 
ATOM     69  C   UNL A   1      38.383  33.988  36.538  1.00  0.00     0.001 A 
ATOM     70  C   UNL A   1      37.784  33.290  37.587  1.00  0.00     0.000 A 
ENDBRANCH  46  65
BRANCH  58  71
ATOM     71  C   UNL A   1      44.384  28.018  34.268  1.00  0.00    -0.014 A 
ATOM     72  C   UNL A   1      44.313  26.856  35.052  1.00  0.00     0.009 A 
ATOM     73  C   UNL A   1      45.541  28.808  34.317  1.00  0.00     0.009 A 
ATOM     74  C   UNL A   1      45.372  26.509  35.893  1.00  0.00     0.001 A 
ATOM     75  C   UNL A   1      46.605  28.449  35.145  1.00  0.00     0.001 A 
ATOM     76  C   UNL A   1      46.517  27.305  35.938  1.00  0.00     0.000 A 
ENDBRANCH  58  71
ENDBRANCH  32  33
ENDBRANCH  25  27
ENDBRANCH  24  25
ENDBRANCH  23  24
ENDBRANCH   1  23
TORSDOF 14
ENDMDL
