MODEL 1
REMARK VINA RESULT:     -10.5      0.000      0.000
REMARK SMILES C[C@@H]1CCC[C@H](S[C@@H]2CCC[C@]([NH2+]C3CC3)(C(=O)OCCOC(=O)c3ccc(-c4c5nc(c(-c6ccccc6)c6ccc([nH]6)c(-c6ccccc6)c6nc(c(-c7ccccc7)c7ccc4[nH]7)C=C6)C=C5)cc3)C2)C1
REMARK SMILES IDX 20 1 19 2 17 3 18 4 12 5 8 6 9 7 73 8 10 9 11 10 7 11 6 12
REMARK SMILES IDX 1 13 2 14 3 15 74 16 4 17 5 18 13 19 14 22 15 23 16 24 21 25
REMARK SMILES IDX 22 26 23 27 24 28 25 29 26 30 72 31 27 32 71 33 28 34 29 35
REMARK SMILES IDX 30 36 65 37 31 38 70 39 64 40 66 41 32 42 69 43 63 44 62 45
REMARK SMILES IDX 33 47 55 48 40 49 54 50 41 51 44 52 53 53 67 54 42 55 43 56
REMARK SMILES IDX 52 58 68 59 45 60 34 61 35 62 39 63 36 64 38 65 37 66 56 67
REMARK SMILES IDX 57 68 61 69 58 70 60 71 59 72 46 73 47 74 51 75 48 76 50 77
REMARK SMILES IDX 49 78
REMARK H PARENT 13 20 13 21 66 46 44 57
REMARK Flexibility Score: inf
ROOT
ATOM      1  C   UNL A   1      36.712  22.810  23.572  1.00  0.00     0.274 C 
ENDROOT
BRANCH   1   2
ATOM      2  O   UNL A   1      35.578  23.484  24.156  1.00  0.00    -0.457 OA
BRANCH   2   3
ATOM      3  C   UNL A   1      34.400  23.306  23.488  1.00  0.00     0.368 C 
ATOM      4  O   UNL A   1      34.309  23.336  22.264  1.00  0.00    -0.245 OA
BRANCH   3   5
ATOM      5  C   UNL A   1      33.192  23.014  24.430  1.00  0.00     0.195 C 
ATOM      6  C   UNL A   1      31.290  24.396  25.525  1.00  0.00     0.053 C 
ATOM      7  C   UNL A   1      31.909  24.193  26.904  1.00  0.00     0.015 C 
ATOM      8  C   UNL A   1      32.331  24.301  24.420  1.00  0.00     0.095 C 
ATOM      9  C   UNL A   1      32.684  22.874  26.955  1.00  0.00     0.008 C 
ATOM     10  C   UNL A   1      33.761  22.823  25.866  1.00  0.00     0.081 C 
BRANCH   6  11
ATOM     11  S   UNL A   1      30.156  25.841  25.329  1.00  0.00    -0.155 SA
BRANCH  11  12
ATOM     12  C   UNL A   1      31.059  27.465  25.388  1.00  0.00     0.047 C 
ATOM     13  C   UNL A   1      32.646  27.241  22.413  1.00  0.00     0.007 C 
ATOM     14  C   UNL A   1      32.324  28.438  23.298  1.00  0.00    -0.013 C 
ATOM     15  C   UNL A   1      33.491  28.765  24.230  1.00  0.00     0.003 C 
ATOM     16  C   UNL A   1      31.007  28.273  24.074  1.00  0.00     0.017 C 
ATOM     17  C   UNL A   1      33.616  27.758  25.372  1.00  0.00     0.001 C 
ATOM     18  C   UNL A   1      32.337  27.677  26.199  1.00  0.00     0.014 C 
ENDBRANCH  11  12
ENDBRANCH   6  11
BRANCH   5  19
ATOM     19  N   UNL A   1      32.587  21.710  24.100  1.00  0.00    -0.330 N 
ATOM     20  H   UNL A   1      32.063  21.865  23.239  1.00  0.00     0.347 HD
ATOM     21  H   UNL A   1      32.127  21.496  24.986  1.00  0.00     0.347 HD
BRANCH  19  22
ATOM     22  C   UNL A   1      33.317  20.473  23.887  1.00  0.00     0.183 C 
ATOM     23  C   UNL A   1      33.706  19.454  24.911  1.00  0.00     0.071 C 
ATOM     24  C   UNL A   1      32.512  19.201  24.051  1.00  0.00     0.071 C 
ENDBRANCH  19  22
ENDBRANCH   5  19
ENDBRANCH   3   5
ENDBRANCH   2   3
ENDBRANCH   1   2
BRANCH   1  25
ATOM     25  C   UNL A   1      36.966  21.487  24.288  1.00  0.00     0.275 C 
BRANCH  25  26
ATOM     26  O   UNL A   1      37.297  21.771  25.664  1.00  0.00    -0.458 OA
BRANCH  26  27
ATOM     27  C   UNL A   1      38.598  21.592  25.981  1.00  0.00     0.338 C 
ATOM     28  O   UNL A   1      39.305  20.640  25.703  1.00  0.00    -0.246 OA
BRANCH  27  29
ATOM     29  C   UNL A   1      39.128  22.760  26.702  1.00  0.00     0.060 A 
ATOM     30  C   UNL A   1      38.546  24.004  26.491  1.00  0.00     0.016 A 
ATOM     31  C   UNL A   1      40.345  22.658  27.371  1.00  0.00     0.016 A 
ATOM     32  C   UNL A   1      39.250  25.160  26.841  1.00  0.00     0.010 A 
ATOM     33  C   UNL A   1      41.006  23.817  27.799  1.00  0.00     0.010 A 
ATOM     34  C   UNL A   1      40.495  25.090  27.491  1.00  0.00    -0.014 A 
BRANCH  34  35
ATOM     35  C   UNL A   1      41.296  26.325  27.764  1.00  0.00     0.031 A 
ATOM     36  C   UNL A   1      40.809  27.351  28.763  1.00  0.00     0.074 A 
ATOM     37  C   UNL A   1      42.496  26.530  27.185  1.00  0.00     0.049 A 
ATOM     38  N   UNL A   1      41.229  28.578  28.961  1.00  0.00    -0.248 NA
ATOM     39  C   UNL A   1      39.708  26.949  29.653  1.00  0.00     0.031 C 
ATOM     40  C   UNL A   1      43.175  25.607  26.277  1.00  0.00     0.029 A 
ATOM     41  N   UNL A   1      43.380  27.578  27.308  1.00  0.00    -0.354 N 
ATOM     42  C   UNL A   1      40.393  29.117  29.934  1.00  0.00     0.074 A 
ATOM     43  C   UNL A   1      39.463  28.074  30.312  1.00  0.00     0.031 C 
ATOM     44  C   UNL A   1      44.401  26.077  26.006  1.00  0.00     0.029 A 
ATOM     45  C   UNL A   1      44.548  27.398  26.608  1.00  0.00     0.049 A 
ATOM     46  H   UNL A   1      43.193  28.380  27.847  1.00  0.00     0.167 HD
ATOM     47  C   UNL A   1      40.387  30.373  30.445  1.00  0.00     0.031 A 
ATOM     48  C   UNL A   1      45.602  28.216  26.419  1.00  0.00     0.031 A 
ATOM     49  C   UNL A   1      41.348  31.394  30.121  1.00  0.00     0.049 A 
ATOM     50  C   UNL A   1      45.556  29.617  26.953  1.00  0.00     0.074 A 
ATOM     51  C   UNL A   1      41.383  32.715  30.537  1.00  0.00     0.029 A 
ATOM     52  N   UNL A   1      42.469  31.196  29.333  1.00  0.00    -0.354 N 
ATOM     53  N   UNL A   1      44.654  30.180  27.717  1.00  0.00    -0.248 NA
ATOM     54  C   UNL A   1      46.649  30.514  26.545  1.00  0.00     0.031 C 
ATOM     55  C   UNL A   1      42.514  33.323  29.980  1.00  0.00     0.029 A 
ATOM     56  C   UNL A   1      43.201  32.369  29.248  1.00  0.00     0.049 A 
ATOM     57  H   UNL A   1      42.710  30.346  28.898  1.00  0.00     0.167 HD
ATOM     58  C   UNL A   1      45.057  31.501  27.864  1.00  0.00     0.074 A 
ATOM     59  C   UNL A   1      46.304  31.647  27.143  1.00  0.00     0.031 C 
ATOM     60  C   UNL A   1      44.433  32.507  28.521  1.00  0.00     0.031 A 
BRANCH  47  61
ATOM     61  C   UNL A   1      39.254  30.743  31.359  1.00  0.00    -0.014 A 
ATOM     62  C   UNL A   1      38.031  31.221  30.871  1.00  0.00     0.009 A 
ATOM     63  C   UNL A   1      39.408  30.555  32.743  1.00  0.00     0.009 A 
ATOM     64  C   UNL A   1      36.991  31.526  31.755  1.00  0.00     0.001 A 
ATOM     65  C   UNL A   1      38.362  30.841  33.622  1.00  0.00     0.001 A 
ATOM     66  C   UNL A   1      37.156  31.332  33.127  1.00  0.00     0.000 A 
ENDBRANCH  47  61
BRANCH  48  67
ATOM     67  C   UNL A   1      46.756  27.757  25.602  1.00  0.00    -0.014 A 
ATOM     68  C   UNL A   1      47.838  27.101  26.206  1.00  0.00     0.009 A 
ATOM     69  C   UNL A   1      46.773  27.961  24.214  1.00  0.00     0.009 A 
ATOM     70  C   UNL A   1      48.912  26.654  25.433  1.00  0.00     0.001 A 
ATOM     71  C   UNL A   1      47.832  27.486  23.440  1.00  0.00     0.001 A 
ATOM     72  C   UNL A   1      48.903  26.838  24.050  1.00  0.00     0.000 A 
ENDBRANCH  48  67
BRANCH  60  73
ATOM     73  C   UNL A   1      45.094  33.853  28.488  1.00  0.00    -0.014 A 
ATOM     74  C   UNL A   1      44.771  34.785  27.490  1.00  0.00     0.009 A 
ATOM     75  C   UNL A   1      46.030  34.200  29.473  1.00  0.00     0.009 A 
ATOM     76  C   UNL A   1      45.397  36.033  27.462  1.00  0.00     0.001 A 
ATOM     77  C   UNL A   1      46.643  35.454  29.451  1.00  0.00     0.001 A 
ATOM     78  C   UNL A   1      46.331  36.366  28.444  1.00  0.00     0.000 A 
ENDBRANCH  60  73
ENDBRANCH  34  35
ENDBRANCH  27  29
ENDBRANCH  26  27
ENDBRANCH  25  26
ENDBRANCH   1  25
TORSDOF 15
ENDMDL
MODEL 2
REMARK VINA RESULT:     -10.5      3.991      7.049
REMARK SMILES C[C@@H]1CCC[C@H](S[C@@H]2CCC[C@]([NH2+]C3CC3)(C(=O)OCCOC(=O)c3ccc(-c4c5nc(c(-c6ccccc6)c6ccc([nH]6)c(-c6ccccc6)c6nc(c(-c7ccccc7)c7ccc4[nH]7)C=C6)C=C5)cc3)C2)C1
REMARK SMILES IDX 20 1 19 2 17 3 18 4 12 5 8 6 9 7 73 8 10 9 11 10 7 11 6 12
REMARK SMILES IDX 1 13 2 14 3 15 74 16 4 17 5 18 13 19 14 22 15 23 16 24 21 25
REMARK SMILES IDX 22 26 23 27 24 28 25 29 26 30 72 31 27 32 71 33 28 34 29 35
REMARK SMILES IDX 30 36 65 37 31 38 70 39 64 40 66 41 32 42 69 43 63 44 62 45
REMARK SMILES IDX 33 47 55 48 40 49 54 50 41 51 44 52 53 53 67 54 42 55 43 56
REMARK SMILES IDX 52 58 68 59 45 60 34 61 35 62 39 63 36 64 38 65 37 66 56 67
REMARK SMILES IDX 57 68 61 69 58 70 60 71 59 72 46 73 47 74 51 75 48 76 50 77
REMARK SMILES IDX 49 78
REMARK H PARENT 13 20 13 21 66 46 44 57
REMARK Flexibility Score: inf
ROOT
ATOM      1  C   UNL A   1      38.015  20.916  25.405  1.00  0.00     0.274 C 
ENDROOT
BRANCH   1   2
ATOM      2  O   UNL A   1      36.922  21.726  25.885  1.00  0.00    -0.457 OA
BRANCH   2   3
ATOM      3  C   UNL A   1      35.915  21.921  24.985  1.00  0.00     0.368 C 
ATOM      4  O   UNL A   1      36.109  22.233  23.814  1.00  0.00    -0.245 OA
BRANCH   3   5
ATOM      5  C   UNL A   1      34.496  21.661  25.578  1.00  0.00     0.195 C 
ATOM      6  C   UNL A   1      32.154  22.761  25.390  1.00  0.00     0.053 C 
ATOM      7  C   UNL A   1      32.241  23.239  26.835  1.00  0.00     0.015 C 
ATOM      8  C   UNL A   1      33.533  22.571  24.775  1.00  0.00     0.095 C 
ATOM      9  C   UNL A   1      33.114  22.292  27.662  1.00  0.00     0.008 C 
ATOM     10  C   UNL A   1      34.513  22.157  27.053  1.00  0.00     0.081 C 
BRANCH   6  11
ATOM     11  S   UNL A   1      30.988  23.671  24.283  1.00  0.00    -0.155 SA
BRANCH  11  12
ATOM     12  C   UNL A   1      31.145  25.516  24.449  1.00  0.00     0.047 C 
ATOM     13  C   UNL A   1      34.402  25.644  25.337  1.00  0.00     0.007 C 
ATOM     14  C   UNL A   1      33.472  26.700  24.754  1.00  0.00    -0.013 C 
ATOM     15  C   UNL A   1      32.833  27.543  25.857  1.00  0.00     0.003 C 
ATOM     16  C   UNL A   1      32.415  26.110  23.806  1.00  0.00     0.017 C 
ATOM     17  C   UNL A   1      31.746  26.779  26.609  1.00  0.00     0.001 C 
ATOM     18  C   UNL A   1      30.648  26.286  25.673  1.00  0.00     0.014 C 
ENDBRANCH  11  12
ENDBRANCH   6  11
BRANCH   5  19
ATOM     19  N   UNL A   1      34.240  20.212  25.682  1.00  0.00    -0.330 N 
ATOM     20  H   UNL A   1      33.649  20.101  26.505  1.00  0.00     0.347 HD
ATOM     21  H   UNL A   1      35.197  19.858  25.647  1.00  0.00     0.347 HD
BRANCH  19  22
ATOM     22  C   UNL A   1      33.626  19.390  24.655  1.00  0.00     0.183 C 
ATOM     23  C   UNL A   1      33.975  17.984  24.280  1.00  0.00     0.071 C 
ATOM     24  C   UNL A   1      32.791  18.231  25.156  1.00  0.00     0.071 C 
ENDBRANCH  19  22
ENDBRANCH   5  19
ENDBRANCH   3   5
ENDBRANCH   2   3
ENDBRANCH   1   2
BRANCH   1  25
ATOM     25  C   UNL A   1      39.346  21.476  25.898  1.00  0.00     0.275 C 
BRANCH  25  26
ATOM     26  O   UNL A   1      39.198  22.900  26.085  1.00  0.00    -0.458 OA
BRANCH  26  27
ATOM     27  C   UNL A   1      40.312  23.532  26.514  1.00  0.00     0.338 C 
ATOM     28  O   UNL A   1      41.467  23.169  26.386  1.00  0.00    -0.246 OA
BRANCH  27  29
ATOM     29  C   UNL A   1      39.975  24.815  27.150  1.00  0.00     0.060 A 
ATOM     30  C   UNL A   1      40.573  25.979  26.682  1.00  0.00     0.016 A 
ATOM     31  C   UNL A   1      39.276  24.820  28.355  1.00  0.00     0.016 A 
ATOM     32  C   UNL A   1      40.579  27.120  27.489  1.00  0.00     0.010 A 
ATOM     33  C   UNL A   1      39.210  25.992  29.119  1.00  0.00     0.010 A 
ATOM     34  C   UNL A   1      39.908  27.146  28.725  1.00  0.00    -0.014 A 
BRANCH  34  35
ATOM     35  C   UNL A   1      40.009  28.332  29.635  1.00  0.00     0.031 A 
ATOM     36  C   UNL A   1      41.194  28.492  30.561  1.00  0.00     0.074 A 
ATOM     37  C   UNL A   1      39.089  29.318  29.611  1.00  0.00     0.049 A 
ATOM     38  N   UNL A   1      41.345  29.307  31.577  1.00  0.00    -0.248 NA
ATOM     39  C   UNL A   1      42.357  27.624  30.316  1.00  0.00     0.031 C 
ATOM     40  C   UNL A   1      37.936  29.389  28.715  1.00  0.00     0.029 A 
ATOM     41  N   UNL A   1      39.005  30.478  30.347  1.00  0.00    -0.354 N 
ATOM     42  C   UNL A   1      42.578  28.994  32.139  1.00  0.00     0.074 A 
ATOM     43  C   UNL A   1      43.151  27.937  31.332  1.00  0.00     0.031 C 
ATOM     44  C   UNL A   1      37.322  30.569  28.882  1.00  0.00     0.029 A 
ATOM     45  C   UNL A   1      37.950  31.282  29.988  1.00  0.00     0.049 A 
ATOM     46  H   UNL A   1      39.640  30.710  31.062  1.00  0.00     0.167 HD
ATOM     47  C   UNL A   1      43.167  29.521  33.241  1.00  0.00     0.031 A 
ATOM     48  C   UNL A   1      37.497  32.436  30.517  1.00  0.00     0.031 A 
ATOM     49  C   UNL A   1      42.634  30.616  34.010  1.00  0.00     0.049 A 
ATOM     50  C   UNL A   1      38.132  32.979  31.762  1.00  0.00     0.074 A 
ATOM     51  C   UNL A   1      43.124  31.173  35.180  1.00  0.00     0.029 A 
ATOM     52  N   UNL A   1      41.511  31.346  33.662  1.00  0.00    -0.354 N 
ATOM     53  N   UNL A   1      39.192  32.553  32.402  1.00  0.00    -0.248 NA
ATOM     54  C   UNL A   1      37.467  34.130  32.393  1.00  0.00     0.031 C 
ATOM     55  C   UNL A   1      42.282  32.228  35.552  1.00  0.00     0.029 A 
ATOM     56  C   UNL A   1      41.290  32.347  34.594  1.00  0.00     0.049 A 
ATOM     57  H   UNL A   1      40.951  31.178  32.869  1.00  0.00     0.167 HD
ATOM     58  C   UNL A   1      39.310  33.367  33.520  1.00  0.00     0.074 A 
ATOM     59  C   UNL A   1      38.237  34.337  33.454  1.00  0.00     0.031 C 
ATOM     60  C   UNL A   1      40.215  33.300  34.525  1.00  0.00     0.031 A 
BRANCH  47  61
ATOM     61  C   UNL A   1      44.427  28.869  33.733  1.00  0.00    -0.014 A 
ATOM     62  C   UNL A   1      44.405  27.742  34.564  1.00  0.00     0.009 A 
ATOM     63  C   UNL A   1      45.666  29.375  33.304  1.00  0.00     0.009 A 
ATOM     64  C   UNL A   1      45.602  27.147  34.975  1.00  0.00     0.001 A 
ATOM     65  C   UNL A   1      46.859  28.768  33.699  1.00  0.00     0.001 A 
ATOM     66  C   UNL A   1      46.826  27.657  34.539  1.00  0.00     0.000 A 
ENDBRANCH  47  61
BRANCH  48  67
ATOM     67  C   UNL A   1      36.315  33.108  29.918  1.00  0.00    -0.014 A 
ATOM     68  C   UNL A   1      36.474  34.032  28.875  1.00  0.00     0.009 A 
ATOM     69  C   UNL A   1      35.021  32.816  30.377  1.00  0.00     0.009 A 
ATOM     70  C   UNL A   1      35.358  34.648  28.302  1.00  0.00     0.001 A 
ATOM     71  C   UNL A   1      33.906  33.409  29.782  1.00  0.00     0.001 A 
ATOM     72  C   UNL A   1      34.076  34.328  28.749  1.00  0.00     0.000 A 
ENDBRANCH  48  67
BRANCH  60  73
ATOM     73  C   UNL A   1      40.082  34.304  35.629  1.00  0.00    -0.014 A 
ATOM     74  C   UNL A   1      39.342  34.005  36.784  1.00  0.00     0.009 A 
ATOM     75  C   UNL A   1      40.716  35.551  35.527  1.00  0.00     0.009 A 
ATOM     76  C   UNL A   1      39.216  34.950  37.804  1.00  0.00     0.001 A 
ATOM     77  C   UNL A   1      40.601  36.487  36.556  1.00  0.00     0.001 A 
ATOM     78  C   UNL A   1      39.847  36.189  37.689  1.00  0.00     0.000 A 
ENDBRANCH  60  73
ENDBRANCH  34  35
ENDBRANCH  27  29
ENDBRANCH  26  27
ENDBRANCH  25  26
ENDBRANCH   1  25
TORSDOF 15
ENDMDL
MODEL 3
REMARK VINA RESULT:     -10.3      4.326      7.760
REMARK SMILES C[C@@H]1CCC[C@H](S[C@@H]2CCC[C@]([NH2+]C3CC3)(C(=O)OCCOC(=O)c3ccc(-c4c5nc(c(-c6ccccc6)c6ccc([nH]6)c(-c6ccccc6)c6nc(c(-c7ccccc7)c7ccc4[nH]7)C=C6)C=C5)cc3)C2)C1
REMARK SMILES IDX 20 1 19 2 17 3 18 4 12 5 8 6 9 7 73 8 10 9 11 10 7 11 6 12
REMARK SMILES IDX 1 13 2 14 3 15 74 16 4 17 5 18 13 19 14 22 15 23 16 24 21 25
REMARK SMILES IDX 22 26 23 27 24 28 25 29 26 30 72 31 27 32 71 33 28 34 29 35
REMARK SMILES IDX 30 36 65 37 31 38 70 39 64 40 66 41 32 42 69 43 63 44 62 45
REMARK SMILES IDX 33 47 55 48 40 49 54 50 41 51 44 52 53 53 67 54 42 55 43 56
REMARK SMILES IDX 52 58 68 59 45 60 34 61 35 62 39 63 36 64 38 65 37 66 56 67
REMARK SMILES IDX 57 68 61 69 58 70 60 71 59 72 46 73 47 74 51 75 48 76 50 77
REMARK SMILES IDX 49 78
REMARK H PARENT 13 20 13 21 66 46 44 57
REMARK Flexibility Score: inf
ROOT
ATOM      1  C   UNL A   1      32.501  31.218  27.160  1.00  0.00     0.274 C 
ENDROOT
BRANCH   1   2
ATOM      2  O   UNL A   1      31.793  30.575  26.080  1.00  0.00    -0.457 OA
BRANCH   2   3
ATOM      3  C   UNL A   1      32.114  29.262  25.887  1.00  0.00     0.368 C 
ATOM      4  O   UNL A   1      32.460  28.513  26.797  1.00  0.00    -0.245 OA
BRANCH   3   5
ATOM      5  C   UNL A   1      31.954  28.795  24.408  1.00  0.00     0.195 C 
ATOM      6  C   UNL A   1      31.653  26.532  23.177  1.00  0.00     0.053 C 
ATOM      7  C   UNL A   1      33.049  26.650  22.576  1.00  0.00     0.015 C 
ATOM      8  C   UNL A   1      31.533  27.306  24.481  1.00  0.00     0.095 C 
ATOM      9  C   UNL A   1      33.439  28.122  22.409  1.00  0.00     0.008 C 
ATOM     10  C   UNL A   1      33.359  28.869  23.745  1.00  0.00     0.081 C 
BRANCH   6  11
ATOM     11  S   UNL A   1      30.933  24.833  23.275  1.00  0.00    -0.155 SA
BRANCH  11  12
ATOM     12  C   UNL A   1      32.188  23.559  23.783  1.00  0.00     0.047 C 
ATOM     13  C   UNL A   1      34.199  25.565  25.611  1.00  0.00     0.007 C 
ATOM     14  C   UNL A   1      34.028  24.052  25.594  1.00  0.00    -0.013 C 
ATOM     15  C   UNL A   1      35.042  23.393  24.661  1.00  0.00     0.003 C 
ATOM     16  C   UNL A   1      32.590  23.615  25.272  1.00  0.00     0.017 C 
ATOM     17  C   UNL A   1      34.692  23.603  23.189  1.00  0.00     0.001 C 
ATOM     18  C   UNL A   1      33.302  23.072  22.855  1.00  0.00     0.014 C 
ENDBRANCH  11  12
ENDBRANCH   6  11
BRANCH   5  19
ATOM     19  N   UNL A   1      31.140  29.764  23.649  1.00  0.00    -0.330 N 
ATOM     20  H   UNL A   1      31.581  29.827  22.732  1.00  0.00     0.347 HD
ATOM     21  H   UNL A   1      31.135  30.546  24.306  1.00  0.00     0.347 HD
BRANCH  19  22
ATOM     22  C   UNL A   1      29.718  29.643  23.384  1.00  0.00     0.183 C 
ATOM     23  C   UNL A   1      28.715  30.747  23.260  1.00  0.00     0.071 C 
ATOM     24  C   UNL A   1      29.264  30.120  22.021  1.00  0.00     0.071 C 
ENDBRANCH  19  22
ENDBRANCH   5  19
ENDBRANCH   3   5
ENDBRANCH   2   3
ENDBRANCH   1   2
BRANCH   1  25
ATOM     25  C   UNL A   1      32.098  32.688  27.254  1.00  0.00     0.275 C 
BRANCH  25  26
ATOM     26  O   UNL A   1      33.296  33.478  27.404  1.00  0.00    -0.458 OA
BRANCH  26  27
ATOM     27  C   UNL A   1      33.371  34.179  28.556  1.00  0.00     0.338 C 
ATOM     28  O   UNL A   1      32.572  34.993  28.982  1.00  0.00    -0.246 OA
BRANCH  27  29
ATOM     29  C   UNL A   1      34.568  33.800  29.324  1.00  0.00     0.060 A 
ATOM     30  C   UNL A   1      35.818  34.196  28.864  1.00  0.00     0.016 A 
ATOM     31  C   UNL A   1      34.459  32.849  30.336  1.00  0.00     0.016 A 
ATOM     32  C   UNL A   1      36.960  33.541  29.333  1.00  0.00     0.010 A 
ATOM     33  C   UNL A   1      35.614  32.259  30.865  1.00  0.00     0.010 A 
ATOM     34  C   UNL A   1      36.881  32.555  30.333  1.00  0.00    -0.014 A 
BRANCH  34  35
ATOM     35  C   UNL A   1      38.092  31.781  30.753  1.00  0.00     0.031 A 
ATOM     36  C   UNL A   1      38.867  32.177  31.990  1.00  0.00     0.074 A 
ATOM     37  C   UNL A   1      38.488  30.676  30.088  1.00  0.00     0.049 A 
ATOM     38  N   UNL A   1      40.057  31.788  32.380  1.00  0.00    -0.248 NA
ATOM     39  C   UNL A   1      38.224  33.133  32.905  1.00  0.00     0.031 C 
ATOM     40  C   UNL A   1      37.808  30.083  28.938  1.00  0.00     0.029 A 
ATOM     41  N   UNL A   1      39.549  29.831  30.313  1.00  0.00    -0.354 N 
ATOM     42  C   UNL A   1      40.337  32.513  33.534  1.00  0.00     0.074 A 
ATOM     43  C   UNL A   1      39.180  33.339  33.802  1.00  0.00     0.031 C 
ATOM     44  C   UNL A   1      38.405  28.924  28.623  1.00  0.00     0.029 A 
ATOM     45  C   UNL A   1      39.590  28.757  29.457  1.00  0.00     0.049 A 
ATOM     46  H   UNL A   1      40.216  29.980  31.022  1.00  0.00     0.167 HD
ATOM     47  C   UNL A   1      41.466  32.507  34.286  1.00  0.00     0.031 A 
ATOM     48  C   UNL A   1      40.500  27.774  29.313  1.00  0.00     0.031 A 
ATOM     49  C   UNL A   1      42.594  31.641  34.063  1.00  0.00     0.049 A 
ATOM     50  C   UNL A   1      41.764  27.810  30.121  1.00  0.00     0.074 A 
ATOM     51  C   UNL A   1      43.808  31.610  34.730  1.00  0.00     0.029 A 
ATOM     52  N   UNL A   1      42.631  30.625  33.123  1.00  0.00    -0.354 N 
ATOM     53  N   UNL A   1      42.103  28.628  31.085  1.00  0.00    -0.248 NA
ATOM     54  C   UNL A   1      42.796  26.821  29.775  1.00  0.00     0.031 C 
ATOM     55  C   UNL A   1      44.590  30.589  34.176  1.00  0.00     0.029 A 
ATOM     56  C   UNL A   1      43.846  29.963  33.190  1.00  0.00     0.049 A 
ATOM     57  H   UNL A   1      41.902  30.407  32.499  1.00  0.00     0.167 HD
ATOM     58  C   UNL A   1      43.394  28.268  31.448  1.00  0.00     0.074 A 
ATOM     59  C   UNL A   1      43.764  27.133  30.627  1.00  0.00     0.031 C 
ATOM     60  C   UNL A   1      44.208  28.843  32.364  1.00  0.00     0.031 A 
BRANCH  47  61
ATOM     61  C   UNL A   1      41.572  33.525  35.385  1.00  0.00    -0.014 A 
ATOM     62  C   UNL A   1      42.047  34.822  35.152  1.00  0.00     0.009 A 
ATOM     63  C   UNL A   1      41.132  33.181  36.675  1.00  0.00     0.009 A 
ATOM     64  C   UNL A   1      42.101  35.749  36.197  1.00  0.00     0.001 A 
ATOM     65  C   UNL A   1      41.169  34.115  37.712  1.00  0.00     0.001 A 
ATOM     66  C   UNL A   1      41.659  35.397  37.473  1.00  0.00     0.000 A 
ENDBRANCH  47  61
BRANCH  48  67
ATOM     67  C   UNL A   1      40.290  26.718  28.289  1.00  0.00    -0.014 A 
ATOM     68  C   UNL A   1      40.827  26.858  27.001  1.00  0.00     0.009 A 
ATOM     69  C   UNL A   1      39.562  25.558  28.600  1.00  0.00     0.009 A 
ATOM     70  C   UNL A   1      40.643  25.854  26.047  1.00  0.00     0.001 A 
ATOM     71  C   UNL A   1      39.407  24.543  27.656  1.00  0.00     0.001 A 
ATOM     72  C   UNL A   1      39.942  24.694  26.378  1.00  0.00     0.000 A 
ENDBRANCH  48  67
BRANCH  60  73
ATOM     73  C   UNL A   1      45.576  28.252  32.525  1.00  0.00    -0.014 A 
ATOM     74  C   UNL A   1      46.660  28.740  31.779  1.00  0.00     0.009 A 
ATOM     75  C   UNL A   1      45.789  27.213  33.443  1.00  0.00     0.009 A 
ATOM     76  C   UNL A   1      47.929  28.178  31.930  1.00  0.00     0.001 A 
ATOM     77  C   UNL A   1      47.063  26.664  33.603  1.00  0.00     0.001 A 
ATOM     78  C   UNL A   1      48.129  27.142  32.842  1.00  0.00     0.000 A 
ENDBRANCH  60  73
ENDBRANCH  34  35
ENDBRANCH  27  29
ENDBRANCH  26  27
ENDBRANCH  25  26
ENDBRANCH   1  25
TORSDOF 15
ENDMDL
