MODEL 1
REMARK VINA RESULT:     -10.7      0.000      0.000
REMARK SMILES C[N@H+]1C[C@@H](Oc2cccc3cccnc23)C[C@H]1C(=O)OCCOC(=O)c1ccc(-c2c3nc(c(-c4ccccc4)c4ccc([nH]4)c(-c4ccccc4)c4nc(c(-c5ccccc5)c5ccc2[nH]5)C=C4)C=C3)cc1
REMARK SMILES IDX 21 1 20 2 18 3 19 4 17 5 1 6 2 7 3 8 4 10 16 11 5 12 6 13
REMARK SMILES IDX 7 14 15 15 8 16 10 17 14 18 9 19 11 20 13 21 12 22 22 23
REMARK SMILES IDX 23 24 24 25 25 26 26 27 27 28 73 29 28 30 72 31 29 32 30 33
REMARK SMILES IDX 31 34 66 35 32 36 71 37 65 38 67 39 33 40 70 41 64 42 63 43
REMARK SMILES IDX 34 45 56 46 41 47 55 48 42 49 45 50 54 51 68 52 43 53 44 54
REMARK SMILES IDX 53 56 69 57 46 58 35 59 36 60 40 61 37 62 39 63 38 64 57 65
REMARK SMILES IDX 58 66 62 67 59 68 61 69 60 70 47 71 48 72 52 73 49 74 51 75
REMARK SMILES IDX 50 76
REMARK H PARENT 2 9 67 44 45 55
REMARK Flexibility Score: inf
ROOT
ATOM      1  C   UNL A   1      32.149  29.362  26.927  1.00  0.00     0.274 C 
ENDROOT
BRANCH   1   2
ATOM      2  O   UNL A   1      31.474  28.093  26.984  1.00  0.00    -0.458 OA
BRANCH   2   3
ATOM      3  C   UNL A   1      31.384  27.379  25.835  1.00  0.00     0.365 C 
ATOM      4  O   UNL A   1      31.900  27.723  24.774  1.00  0.00    -0.245 OA
BRANCH   3   5
ATOM      5  C   UNL A   1      30.562  26.082  25.941  1.00  0.00     0.298 C 
ATOM      6  C   UNL A   1      29.084  26.358  23.953  1.00  0.00     0.333 C 
ATOM      7  N   UNL A   1      29.972  25.509  24.719  1.00  0.00    -0.322 N 
ATOM      8  C   UNL A   1      31.073  24.902  23.969  1.00  0.00     0.308 C 
ATOM      9  H   UNL A   1      29.289  24.799  24.987  1.00  0.00     0.348 HD
ATOM     10  C   UNL A   1      31.916  24.259  25.087  1.00  0.00     0.234 C 
ATOM     11  C   UNL A   1      31.462  24.934  26.391  1.00  0.00     0.128 C 
BRANCH  10  12
ATOM     12  O   UNL A   1      33.335  24.168  24.920  1.00  0.00    -0.482 OA
BRANCH  12  13
ATOM     13  C   UNL A   1      33.914  22.925  25.003  1.00  0.00     0.146 A 
ATOM     14  C   UNL A   1      33.128  21.816  24.664  1.00  0.00     0.049 A 
ATOM     15  C   UNL A   1      35.292  22.803  25.233  1.00  0.00     0.112 A 
ATOM     16  C   UNL A   1      33.686  20.544  24.635  1.00  0.00     0.005 A 
ATOM     17  C   UNL A   1      35.846  21.502  25.183  1.00  0.00     0.004 A 
ATOM     18  N   UNL A   1      36.069  23.882  25.491  1.00  0.00    -0.252 NA
ATOM     19  C   UNL A   1      35.041  20.385  24.898  1.00  0.00     0.010 A 
ATOM     20  C   UNL A   1      37.220  21.350  25.412  1.00  0.00     0.012 A 
ATOM     21  C   UNL A   1      37.390  23.697  25.696  1.00  0.00     0.112 A 
ATOM     22  C   UNL A   1      38.007  22.463  25.669  1.00  0.00     0.021 A 
ENDBRANCH  12  13
ENDBRANCH  10  12
ENDBRANCH   3   5
ENDBRANCH   2   3
ENDBRANCH   1   2
BRANCH   1  23
ATOM     23  C   UNL A   1      33.506  29.314  27.626  1.00  0.00     0.275 C 
BRANCH  23  24
ATOM     24  O   UNL A   1      34.241  30.526  27.395  1.00  0.00    -0.458 OA
BRANCH  24  25
ATOM     25  C   UNL A   1      34.955  30.966  28.454  1.00  0.00     0.338 C 
ATOM     26  O   UNL A   1      34.647  31.816  29.268  1.00  0.00    -0.246 OA
BRANCH  25  27
ATOM     27  C   UNL A   1      36.193  30.190  28.543  1.00  0.00     0.060 A 
ATOM     28  C   UNL A   1      36.534  29.603  29.764  1.00  0.00     0.016 A 
ATOM     29  C   UNL A   1      37.056  30.141  27.451  1.00  0.00     0.016 A 
ATOM     30  C   UNL A   1      37.765  28.976  29.911  1.00  0.00     0.010 A 
ATOM     31  C   UNL A   1      38.288  29.510  27.596  1.00  0.00     0.010 A 
ATOM     32  C   UNL A   1      38.655  28.947  28.832  1.00  0.00    -0.014 A 
BRANCH  32  33
ATOM     33  C   UNL A   1      40.024  28.419  28.993  1.00  0.00     0.031 A 
ATOM     34  C   UNL A   1      41.120  29.367  29.372  1.00  0.00     0.074 A 
ATOM     35  C   UNL A   1      40.285  27.126  28.742  1.00  0.00     0.049 A 
ATOM     36  N   UNL A   1      42.415  29.202  29.309  1.00  0.00    -0.248 NA
ATOM     37  C   UNL A   1      40.699  30.683  29.880  1.00  0.00     0.031 C 
ATOM     38  C   UNL A   1      39.285  26.102  28.437  1.00  0.00     0.029 A 
ATOM     39  N   UNL A   1      41.482  26.464  28.674  1.00  0.00    -0.354 N 
ATOM     40  C   UNL A   1      42.964  30.406  29.728  1.00  0.00     0.074 A 
ATOM     41  C   UNL A   1      41.865  31.291  30.048  1.00  0.00     0.031 C 
ATOM     42  C   UNL A   1      39.915  24.942  28.188  1.00  0.00     0.029 A 
ATOM     43  C   UNL A   1      41.357  25.162  28.256  1.00  0.00     0.049 A 
ATOM     44  H   UNL A   1      42.345  26.879  28.902  1.00  0.00     0.167 HD
ATOM     45  C   UNL A   1      44.271  30.743  29.818  1.00  0.00     0.031 A 
ATOM     46  C   UNL A   1      42.303  24.269  27.913  1.00  0.00     0.031 A 
ATOM     47  C   UNL A   1      45.352  29.852  29.492  1.00  0.00     0.049 A 
ATOM     48  C   UNL A   1      43.747  24.684  27.960  1.00  0.00     0.074 A 
ATOM     49  C   UNL A   1      46.713  30.091  29.528  1.00  0.00     0.029 A 
ATOM     50  N   UNL A   1      45.182  28.539  29.078  1.00  0.00    -0.354 N 
ATOM     51  N   UNL A   1      44.263  25.841  28.302  1.00  0.00    -0.248 NA
ATOM     52  C   UNL A   1      44.738  23.674  27.564  1.00  0.00     0.031 C 
ATOM     53  C   UNL A   1      47.369  28.929  29.107  1.00  0.00     0.029 A 
ATOM     54  C   UNL A   1      46.415  27.955  28.850  1.00  0.00     0.049 A 
ATOM     55  H   UNL A   1      44.315  28.090  28.964  1.00  0.00     0.167 HD
ATOM     56  C   UNL A   1      45.638  25.691  28.188  1.00  0.00     0.074 A 
ATOM     57  C   UNL A   1      45.876  24.330  27.749  1.00  0.00     0.031 C 
ATOM     58  C   UNL A   1      46.618  26.595  28.427  1.00  0.00     0.031 A 
BRANCH  45  59
ATOM     59  C   UNL A   1      44.594  32.147  30.238  1.00  0.00    -0.014 A 
ATOM     60  C   UNL A   1      44.763  33.171  29.295  1.00  0.00     0.009 A 
ATOM     61  C   UNL A   1      44.717  32.451  31.604  1.00  0.00     0.009 A 
ATOM     62  C   UNL A   1      45.077  34.468  29.709  1.00  0.00     0.001 A 
ATOM     63  C   UNL A   1      45.009  33.752  32.016  1.00  0.00     0.001 A 
ATOM     64  C   UNL A   1      45.197  34.757  31.069  1.00  0.00     0.000 A 
ENDBRANCH  45  59
BRANCH  46  65
ATOM     65  C   UNL A   1      41.910  22.916  27.449  1.00  0.00    -0.014 A 
ATOM     66  C   UNL A   1      41.821  22.632  26.078  1.00  0.00     0.009 A 
ATOM     67  C   UNL A   1      41.632  21.898  28.374  1.00  0.00     0.009 A 
ATOM     68  C   UNL A   1      41.447  21.359  25.645  1.00  0.00     0.001 A 
ATOM     69  C   UNL A   1      41.282  20.619  27.937  1.00  0.00     0.001 A 
ATOM     70  C   UNL A   1      41.182  20.352  26.573  1.00  0.00     0.000 A 
ENDBRANCH  46  65
BRANCH  58  71
ATOM     71  C   UNL A   1      48.033  26.123  28.274  1.00  0.00    -0.014 A 
ATOM     72  C   UNL A   1      48.675  26.146  27.028  1.00  0.00     0.009 A 
ATOM     73  C   UNL A   1      48.743  25.698  29.407  1.00  0.00     0.009 A 
ATOM     74  C   UNL A   1      50.003  25.728  26.917  1.00  0.00     0.001 A 
ATOM     75  C   UNL A   1      50.075  25.300  29.295  1.00  0.00     0.001 A 
ATOM     76  C   UNL A   1      50.702  25.310  28.050  1.00  0.00     0.000 A 
ENDBRANCH  58  71
ENDBRANCH  32  33
ENDBRANCH  25  27
ENDBRANCH  24  25
ENDBRANCH  23  24
ENDBRANCH   1  23
TORSDOF 13
ENDMDL
MODEL 2
REMARK VINA RESULT:     -10.6      3.647      8.797
REMARK SMILES C[N@H+]1C[C@@H](Oc2cccc3cccnc23)C[C@H]1C(=O)OCCOC(=O)c1ccc(-c2c3nc(c(-c4ccccc4)c4ccc([nH]4)c(-c4ccccc4)c4nc(c(-c5ccccc5)c5ccc2[nH]5)C=C4)C=C3)cc1
REMARK SMILES IDX 21 1 20 2 18 3 19 4 17 5 1 6 2 7 3 8 4 10 16 11 5 12 6 13
REMARK SMILES IDX 7 14 15 15 8 16 10 17 14 18 9 19 11 20 13 21 12 22 22 23
REMARK SMILES IDX 23 24 24 25 25 26 26 27 27 28 73 29 28 30 72 31 29 32 30 33
REMARK SMILES IDX 31 34 66 35 32 36 71 37 65 38 67 39 33 40 70 41 64 42 63 43
REMARK SMILES IDX 34 45 56 46 41 47 55 48 42 49 45 50 54 51 68 52 43 53 44 54
REMARK SMILES IDX 53 56 69 57 46 58 35 59 36 60 40 61 37 62 39 63 38 64 57 65
REMARK SMILES IDX 58 66 62 67 59 68 61 69 60 70 47 71 48 72 52 73 49 74 51 75
REMARK SMILES IDX 50 76
REMARK H PARENT 2 9 67 44 45 55
REMARK Flexibility Score: inf
ROOT
ATOM      1  C   UNL A   1      37.111  21.392  24.690  1.00  0.00     0.274 C 
ENDROOT
BRANCH   1   2
ATOM      2  O   UNL A   1      35.895  21.189  25.433  1.00  0.00    -0.458 OA
BRANCH   2   3
ATOM      3  C   UNL A   1      34.986  22.194  25.433  1.00  0.00     0.365 C 
ATOM      4  O   UNL A   1      34.721  22.876  26.421  1.00  0.00    -0.245 OA
BRANCH   3   5
ATOM      5  C   UNL A   1      34.276  22.425  24.088  1.00  0.00     0.298 C 
ATOM      6  C   UNL A   1      32.641  20.545  24.145  1.00  0.00     0.333 C 
ATOM      7  N   UNL A   1      32.890  21.953  23.920  1.00  0.00    -0.322 N 
ATOM      8  C   UNL A   1      32.041  22.876  24.674  1.00  0.00     0.308 C 
ATOM      9  H   UNL A   1      32.653  21.981  22.928  1.00  0.00     0.348 HD
ATOM     10  C   UNL A   1      32.691  24.240  24.375  1.00  0.00     0.234 C 
ATOM     11  C   UNL A   1      34.099  23.923  23.847  1.00  0.00     0.128 C 
BRANCH  10  12
ATOM     12  O   UNL A   1      32.640  25.267  25.371  1.00  0.00    -0.482 OA
BRANCH  12  13
ATOM     13  C   UNL A   1      32.161  26.500  25.000  1.00  0.00     0.146 A 
ATOM     14  C   UNL A   1      31.058  26.539  24.138  1.00  0.00     0.049 A 
ATOM     15  C   UNL A   1      32.647  27.661  25.620  1.00  0.00     0.112 A 
ATOM     16  C   UNL A   1      30.471  27.753  23.805  1.00  0.00     0.005 A 
ATOM     17  C   UNL A   1      32.026  28.887  25.282  1.00  0.00     0.004 A 
ATOM     18  N   UNL A   1      33.668  27.618  26.509  1.00  0.00    -0.252 NA
ATOM     19  C   UNL A   1      30.955  28.925  24.372  1.00  0.00     0.010 A 
ATOM     20  C   UNL A   1      32.493  30.062  25.884  1.00  0.00     0.012 A 
ATOM     21  C   UNL A   1      34.084  28.771  27.076  1.00  0.00     0.112 A 
ATOM     22  C   UNL A   1      33.535  30.006  26.798  1.00  0.00     0.021 A 
ENDBRANCH  12  13
ENDBRANCH  10  12
ENDBRANCH   3   5
ENDBRANCH   2   3
ENDBRANCH   1   2
BRANCH   1  23
ATOM     23  C   UNL A   1      38.314  21.580  25.612  1.00  0.00     0.275 C 
BRANCH  23  24
ATOM     24  O   UNL A   1      38.549  22.974  25.864  1.00  0.00    -0.458 OA
BRANCH  24  25
ATOM     25  C   UNL A   1      39.753  23.255  26.407  1.00  0.00     0.338 C 
ATOM     26  O   UNL A   1      40.775  22.597  26.356  1.00  0.00    -0.246 OA
BRANCH  25  27
ATOM     27  C   UNL A   1      39.687  24.571  27.045  1.00  0.00     0.060 A 
ATOM     28  C   UNL A   1      40.422  25.625  26.496  1.00  0.00     0.016 A 
ATOM     29  C   UNL A   1      38.986  24.723  28.239  1.00  0.00     0.016 A 
ATOM     30  C   UNL A   1      40.482  26.846  27.157  1.00  0.00     0.010 A 
ATOM     31  C   UNL A   1      39.042  25.948  28.899  1.00  0.00     0.010 A 
ATOM     32  C   UNL A   1      39.809  27.003  28.373  1.00  0.00    -0.014 A 
BRANCH  32  33
ATOM     33  C   UNL A   1      39.966  28.234  29.173  1.00  0.00     0.031 A 
ATOM     34  C   UNL A   1      41.063  28.293  30.192  1.00  0.00     0.074 A 
ATOM     35  C   UNL A   1      39.102  29.251  29.027  1.00  0.00     0.049 A 
ATOM     36  N   UNL A   1      41.229  29.134  31.179  1.00  0.00    -0.248 NA
ATOM     37  C   UNL A   1      42.105  27.258  30.092  1.00  0.00     0.031 C 
ATOM     38  C   UNL A   1      38.046  29.329  28.018  1.00  0.00     0.029 A 
ATOM     39  N   UNL A   1      38.962  30.402  29.757  1.00  0.00    -0.354 N 
ATOM     40  C   UNL A   1      42.370  28.704  31.843  1.00  0.00     0.074 A 
ATOM     41  C   UNL A   1      42.858  27.534  31.146  1.00  0.00     0.031 C 
ATOM     42  C   UNL A   1      37.346  30.460  28.210  1.00  0.00     0.029 A 
ATOM     43  C   UNL A   1      37.869  31.146  29.389  1.00  0.00     0.049 A 
ATOM     44  H   UNL A   1      39.583  30.669  30.472  1.00  0.00     0.167 HD
ATOM     45  C   UNL A   1      42.944  29.235  32.948  1.00  0.00     0.031 A 
ATOM     46  C   UNL A   1      37.321  32.227  29.974  1.00  0.00     0.031 A 
ATOM     47  C   UNL A   1      42.443  30.397  33.630  1.00  0.00     0.049 A 
ATOM     48  C   UNL A   1      37.938  32.762  31.236  1.00  0.00     0.074 A 
ATOM     49  C   UNL A   1      42.932  31.010  34.768  1.00  0.00     0.029 A 
ATOM     50  N   UNL A   1      41.336  31.125  33.221  1.00  0.00    -0.354 N 
ATOM     51  N   UNL A   1      38.983  32.322  31.895  1.00  0.00    -0.248 NA
ATOM     52  C   UNL A   1      37.293  33.936  31.839  1.00  0.00     0.031 C 
ATOM     53  C   UNL A   1      42.102  32.097  35.066  1.00  0.00     0.029 A 
ATOM     54  C   UNL A   1      41.122  32.182  34.088  1.00  0.00     0.049 A 
ATOM     55  H   UNL A   1      40.786  30.921  32.432  1.00  0.00     0.167 HD
ATOM     56  C   UNL A   1      39.138  33.179  32.976  1.00  0.00     0.074 A 
ATOM     57  C   UNL A   1      38.081  34.167  32.881  1.00  0.00     0.031 C 
ATOM     58  C   UNL A   1      40.070  33.155  33.958  1.00  0.00     0.031 A 
BRANCH  45  59
ATOM     59  C   UNL A   1      44.144  28.529  33.507  1.00  0.00    -0.014 A 
ATOM     60  C   UNL A   1      44.013  27.507  34.459  1.00  0.00     0.009 A 
ATOM     61  C   UNL A   1      45.428  28.884  33.062  1.00  0.00     0.009 A 
ATOM     62  C   UNL A   1      45.145  26.874  34.976  1.00  0.00     0.001 A 
ATOM     63  C   UNL A   1      46.556  28.235  33.565  1.00  0.00     0.001 A 
ATOM     64  C   UNL A   1      46.415  27.236  34.527  1.00  0.00     0.000 A 
ENDBRANCH  45  59
BRANCH  46  65
ATOM     65  C   UNL A   1      36.099  32.839  29.399  1.00  0.00    -0.014 A 
ATOM     66  C   UNL A   1      36.186  33.997  28.612  1.00  0.00     0.009 A 
ATOM     67  C   UNL A   1      34.838  32.264  29.625  1.00  0.00     0.009 A 
ATOM     68  C   UNL A   1      35.033  34.574  28.075  1.00  0.00     0.001 A 
ATOM     69  C   UNL A   1      33.690  32.829  29.066  1.00  0.00     0.001 A 
ATOM     70  C   UNL A   1      33.788  33.987  28.298  1.00  0.00     0.000 A 
ENDBRANCH  46  65
BRANCH  58  71
ATOM     71  C   UNL A   1      40.022  34.259  34.971  1.00  0.00    -0.014 A 
ATOM     72  C   UNL A   1      39.292  34.123  36.160  1.00  0.00     0.009 A 
ATOM     73  C   UNL A   1      40.762  35.431  34.748  1.00  0.00     0.009 A 
ATOM     74  C   UNL A   1      39.287  35.154  37.100  1.00  0.00     0.001 A 
ATOM     75  C   UNL A   1      40.770  36.451  35.699  1.00  0.00     0.001 A 
ATOM     76  C   UNL A   1      40.028  36.314  36.871  1.00  0.00     0.000 A 
ENDBRANCH  58  71
ENDBRANCH  32  33
ENDBRANCH  25  27
ENDBRANCH  24  25
ENDBRANCH  23  24
ENDBRANCH   1  23
TORSDOF 13
ENDMDL
MODEL 3
REMARK VINA RESULT:     -10.6      3.587      6.707
REMARK SMILES C[N@H+]1C[C@@H](Oc2cccc3cccnc23)C[C@H]1C(=O)OCCOC(=O)c1ccc(-c2c3nc(c(-c4ccccc4)c4ccc([nH]4)c(-c4ccccc4)c4nc(c(-c5ccccc5)c5ccc2[nH]5)C=C4)C=C3)cc1
REMARK SMILES IDX 21 1 20 2 18 3 19 4 17 5 1 6 2 7 3 8 4 10 16 11 5 12 6 13
REMARK SMILES IDX 7 14 15 15 8 16 10 17 14 18 9 19 11 20 13 21 12 22 22 23
REMARK SMILES IDX 23 24 24 25 25 26 26 27 27 28 73 29 28 30 72 31 29 32 30 33
REMARK SMILES IDX 31 34 66 35 32 36 71 37 65 38 67 39 33 40 70 41 64 42 63 43
REMARK SMILES IDX 34 45 56 46 41 47 55 48 42 49 45 50 54 51 68 52 43 53 44 54
REMARK SMILES IDX 53 56 69 57 46 58 35 59 36 60 40 61 37 62 39 63 38 64 57 65
REMARK SMILES IDX 58 66 62 67 59 68 61 69 60 70 47 71 48 72 52 73 49 74 51 75
REMARK SMILES IDX 50 76
REMARK H PARENT 2 9 67 44 45 55
REMARK Flexibility Score: inf
ROOT
ATOM      1  C   UNL A   1      32.388  29.238  24.990  1.00  0.00     0.274 C 
ENDROOT
BRANCH   1   2
ATOM      2  O   UNL A   1      31.406  28.205  24.800  1.00  0.00    -0.458 OA
BRANCH   2   3
ATOM      3  C   UNL A   1      31.847  26.925  24.735  1.00  0.00     0.365 C 
ATOM      4  O   UNL A   1      32.943  26.602  24.280  1.00  0.00    -0.245 OA
BRANCH   3   5
ATOM      5  C   UNL A   1      30.861  25.870  25.267  1.00  0.00     0.298 C 
ATOM      6  C   UNL A   1      28.884  26.385  23.839  1.00  0.00     0.333 C 
ATOM      7  N   UNL A   1      29.784  25.390  24.385  1.00  0.00    -0.322 N 
ATOM      8  C   UNL A   1      30.410  24.498  23.408  1.00  0.00     0.308 C 
ATOM      9  H   UNL A   1      29.102  24.880  24.947  1.00  0.00     0.348 HD
ATOM     10  C   UNL A   1      31.432  23.733  24.271  1.00  0.00     0.234 C 
ATOM     11  C   UNL A   1      31.601  24.566  25.551  1.00  0.00     0.128 C 
BRANCH  10  12
ATOM     12  O   UNL A   1      32.657  23.296  23.672  1.00  0.00    -0.482 OA
BRANCH  12  13
ATOM     13  C   UNL A   1      33.228  22.140  24.146  1.00  0.00     0.146 A 
ATOM     14  C   UNL A   1      32.423  20.996  24.216  1.00  0.00     0.049 A 
ATOM     15  C   UNL A   1      34.612  22.076  24.365  1.00  0.00     0.112 A 
ATOM     16  C   UNL A   1      32.969  19.776  24.595  1.00  0.00     0.005 A 
ATOM     17  C   UNL A   1      35.154  20.822  24.735  1.00  0.00     0.004 A 
ATOM     18  N   UNL A   1      35.405  23.165  24.229  1.00  0.00    -0.252 NA
ATOM     19  C   UNL A   1      34.330  19.689  24.859  1.00  0.00     0.010 A 
ATOM     20  C   UNL A   1      36.533  20.729  24.963  1.00  0.00     0.012 A 
ATOM     21  C   UNL A   1      36.731  23.034  24.448  1.00  0.00     0.112 A 
ATOM     22  C   UNL A   1      37.336  21.851  24.814  1.00  0.00     0.021 A 
ENDBRANCH  12  13
ENDBRANCH  10  12
ENDBRANCH   3   5
ENDBRANCH   2   3
ENDBRANCH   1   2
BRANCH   1  23
ATOM     23  C   UNL A   1      31.832  30.408  25.798  1.00  0.00     0.275 C 
BRANCH  23  24
ATOM     24  O   UNL A   1      32.461  30.482  27.086  1.00  0.00    -0.458 OA
BRANCH  24  25
ATOM     25  C   UNL A   1      33.119  31.635  27.331  1.00  0.00     0.338 C 
ATOM     26  O   UNL A   1      32.700  32.774  27.248  1.00  0.00    -0.246 OA
BRANCH  25  27
ATOM     27  C   UNL A   1      34.467  31.317  27.806  1.00  0.00     0.060 A 
ATOM     28  C   UNL A   1      34.763  29.998  28.161  1.00  0.00     0.016 A 
ATOM     29  C   UNL A   1      35.390  32.342  27.998  1.00  0.00     0.016 A 
ATOM     30  C   UNL A   1      35.990  29.696  28.741  1.00  0.00     0.010 A 
ATOM     31  C   UNL A   1      36.620  32.039  28.574  1.00  0.00     0.010 A 
ATOM     32  C   UNL A   1      36.914  30.721  28.968  1.00  0.00    -0.014 A 
BRANCH  32  33
ATOM     33  C   UNL A   1      38.164  30.463  29.709  1.00  0.00     0.031 A 
ATOM     34  C   UNL A   1      39.204  29.586  29.081  1.00  0.00     0.074 A 
ATOM     35  C   UNL A   1      38.333  30.959  30.945  1.00  0.00     0.049 A 
ATOM     36  N   UNL A   1      40.238  29.006  29.631  1.00  0.00    -0.248 NA
ATOM     37  C   UNL A   1      39.049  29.317  27.642  1.00  0.00     0.031 C 
ATOM     38  C   UNL A   1      37.421  31.881  31.622  1.00  0.00     0.029 A 
ATOM     39  N   UNL A   1      39.323  30.724  31.862  1.00  0.00    -0.354 N 
ATOM     40  C   UNL A   1      40.833  28.269  28.616  1.00  0.00     0.074 A 
ATOM     41  C   UNL A   1      40.050  28.478  27.417  1.00  0.00     0.031 C 
ATOM     42  C   UNL A   1      37.883  32.114  32.862  1.00  0.00     0.029 A 
ATOM     43  C   UNL A   1      39.082  31.311  33.080  1.00  0.00     0.049 A 
ATOM     44  H   UNL A   1      40.127  30.189  31.668  1.00  0.00     0.167 HD
ATOM     45  C   UNL A   1      41.927  27.475  28.689  1.00  0.00     0.031 A 
ATOM     46  C   UNL A   1      39.728  31.168  34.252  1.00  0.00     0.031 A 
ATOM     47  C   UNL A   1      42.691  27.276  29.891  1.00  0.00     0.049 A 
ATOM     48  C   UNL A   1      40.903  30.233  34.327  1.00  0.00     0.074 A 
ATOM     49  C   UNL A   1      43.805  26.480  30.086  1.00  0.00     0.029 A 
ATOM     50  N   UNL A   1      42.417  27.894  31.102  1.00  0.00    -0.354 N 
ATOM     51  N   UNL A   1      41.430  29.493  33.381  1.00  0.00    -0.248 NA
ATOM     52  C   UNL A   1      41.563  30.106  35.633  1.00  0.00     0.031 C 
ATOM     53  C   UNL A   1      44.190  26.595  31.427  1.00  0.00     0.029 A 
ATOM     54  C   UNL A   1      43.339  27.494  32.052  1.00  0.00     0.049 A 
ATOM     55  H   UNL A   1      41.678  28.523  31.260  1.00  0.00     0.167 HD
ATOM     56  C   UNL A   1      42.500  28.833  33.969  1.00  0.00     0.074 A 
ATOM     57  C   UNL A   1      42.548  29.262  35.352  1.00  0.00     0.031 C 
ATOM     58  C   UNL A   1      43.367  27.951  33.416  1.00  0.00     0.031 A 
BRANCH  45  59
ATOM     59  C   UNL A   1      42.322  26.730  27.448  1.00  0.00    -0.014 A 
ATOM     60  C   UNL A   1      41.779  25.473  27.146  1.00  0.00     0.009 A 
ATOM     61  C   UNL A   1      43.245  27.305  26.559  1.00  0.00     0.009 A 
ATOM     62  C   UNL A   1      42.173  24.792  25.992  1.00  0.00     0.001 A 
ATOM     63  C   UNL A   1      43.621  26.632  25.396  1.00  0.00     0.001 A 
ATOM     64  C   UNL A   1      43.091  25.373  25.117  1.00  0.00     0.000 A 
ENDBRANCH  45  59
BRANCH  46  65
ATOM     65  C   UNL A   1      39.246  31.890  35.454  1.00  0.00    -0.014 A 
ATOM     66  C   UNL A   1      39.713  33.181  35.744  1.00  0.00     0.009 A 
ATOM     67  C   UNL A   1      38.307  31.298  36.314  1.00  0.00     0.009 A 
ATOM     68  C   UNL A   1      39.260  33.857  36.878  1.00  0.00     0.001 A 
ATOM     69  C   UNL A   1      37.838  31.986  37.434  1.00  0.00     0.001 A 
ATOM     70  C   UNL A   1      38.320  33.262  37.720  1.00  0.00     0.000 A 
ENDBRANCH  46  65
BRANCH  58  71
ATOM     71  C   UNL A   1      44.472  27.442  34.293  1.00  0.00    -0.014 A 
ATOM     72  C   UNL A   1      45.665  28.161  34.450  1.00  0.00     0.009 A 
ATOM     73  C   UNL A   1      44.288  26.248  35.009  1.00  0.00     0.009 A 
ATOM     74  C   UNL A   1      46.666  27.680  35.295  1.00  0.00     0.001 A 
ATOM     75  C   UNL A   1      45.283  25.781  35.867  1.00  0.00     0.001 A 
ATOM     76  C   UNL A   1      46.473  26.494  36.005  1.00  0.00     0.000 A 
ENDBRANCH  58  71
ENDBRANCH  32  33
ENDBRANCH  25  27
ENDBRANCH  24  25
ENDBRANCH  23  24
ENDBRANCH   1  23
TORSDOF 13
ENDMDL
