MODEL 1
REMARK VINA RESULT:     -11.7      0.000      0.000
REMARK SMILES N#C/C(=C/c1ccc(-c2cccc(C(=O)OCCOC(=O)c3ccc(-c4c5nc(c(-c6ccccc6)c6ccc([nH]6)c(-c6ccccc6)c6nc(c(-c7ccccc7)c7ccc4[nH]7)C=C6)C=C5)cc3)c2)o1)c1ccc(F)cc1
REMARK SMILES IDX 17 1 16 2 14 3 15 4 13 5 9 6 10 7 70 8 11 9 12 10 8 11 5 12
REMARK SMILES IDX 6 13 71 14 7 15 4 16 3 17 2 18 1 19 72 20 73 21 78 22 74 23
REMARK SMILES IDX 77 24 75 25 76 26 18 27 19 28 20 29 21 30 22 31 23 32 69 33
REMARK SMILES IDX 24 34 68 35 25 36 26 37 27 38 62 39 28 40 67 41 61 42 63 43
REMARK SMILES IDX 29 44 66 45 60 46 59 47 30 49 52 50 37 51 51 52 38 53 41 54
REMARK SMILES IDX 50 55 64 56 39 57 40 58 49 60 65 61 42 62 31 63 32 64 36 65
REMARK SMILES IDX 33 66 35 67 34 68 53 69 54 70 58 71 55 72 57 73 56 74 43 75
REMARK SMILES IDX 44 76 48 77 45 78 47 79 46 80
REMARK H PARENT 63 48 41 59
REMARK Flexibility Score: inf
ROOT
ATOM      1  C   UNL A   1      33.195  35.022  28.658  1.00  0.00     0.275 C 
ENDROOT
BRANCH   1   2
ATOM      2  O   UNL A   1      33.771  33.815  29.188  1.00  0.00    -0.458 OA
BRANCH   2   3
ATOM      3  C   UNL A   1      35.099  33.619  28.988  1.00  0.00     0.338 C 
ATOM      4  O   UNL A   1      36.008  34.360  29.315  1.00  0.00    -0.246 OA
BRANCH   3   5
ATOM      5  C   UNL A   1      35.306  32.280  28.384  1.00  0.00     0.060 A 
ATOM      6  C   UNL A   1      34.394  30.251  27.431  1.00  0.00     0.018 A 
ATOM      7  C   UNL A   1      35.682  29.712  27.344  1.00  0.00     0.012 A 
ATOM      8  C   UNL A   1      34.210  31.522  27.982  1.00  0.00     0.027 A 
ATOM      9  C   UNL A   1      36.785  30.477  27.724  1.00  0.00     0.002 A 
ATOM     10  C   UNL A   1      36.599  31.773  28.204  1.00  0.00     0.016 A 
BRANCH   6  11
ATOM     11  C   UNL A   1      33.243  29.570  26.883  1.00  0.00     0.134 A 
ATOM     12  C   UNL A   1      31.563  29.354  25.477  1.00  0.00     0.128 A 
ATOM     13  C   UNL A   1      31.528  28.269  26.345  1.00  0.00     0.051 A 
ATOM     14  O   UNL A   1      32.642  30.133  25.803  1.00  0.00    -0.457 OA
ATOM     15  C   UNL A   1      32.590  28.418  27.253  1.00  0.00     0.051 A 
BRANCH  12  16
ATOM     16  C   UNL A   1      30.649  29.687  24.450  1.00  0.00     0.067 C 
ATOM     17  C   UNL A   1      30.615  28.993  23.298  1.00  0.00     0.063 C 
BRANCH  17  18
ATOM     18  C   UNL A   1      29.814  29.571  22.143  1.00  0.00     0.100 C 
ATOM     19  N   UNL A   1      29.150  30.050  21.184  1.00  0.00    -0.192 NA
ENDBRANCH  17  18
BRANCH  17  20
ATOM     20  C   UNL A   1      31.431  27.786  23.007  1.00  0.00    -0.007 A 
ATOM     21  C   UNL A   1      30.886  26.496  23.142  1.00  0.00     0.012 A 
ATOM     22  C   UNL A   1      32.776  27.916  22.620  1.00  0.00     0.012 A 
ATOM     23  C   UNL A   1      31.679  25.365  22.937  1.00  0.00     0.040 A 
ATOM     24  C   UNL A   1      33.564  26.781  22.406  1.00  0.00     0.040 A 
ATOM     25  C   UNL A   1      33.011  25.518  22.576  1.00  0.00     0.123 A 
ATOM     26  F   UNL A   1      33.775  24.434  22.393  1.00  0.00    -0.207 F 
ENDBRANCH  17  20
ENDBRANCH  12  16
ENDBRANCH   6  11
ENDBRANCH   3   5
ENDBRANCH   2   3
ENDBRANCH   1   2
BRANCH   1  27
ATOM     27  C   UNL A   1      32.998  36.049  29.771  1.00  0.00     0.275 C 
BRANCH  27  28
ATOM     28  O   UNL A   1      32.393  35.416  30.912  1.00  0.00    -0.458 OA
BRANCH  28  29
ATOM     29  C   UNL A   1      32.758  35.899  32.121  1.00  0.00     0.338 C 
ATOM     30  O   UNL A   1      32.256  36.810  32.751  1.00  0.00    -0.246 OA
BRANCH  29  31
ATOM     31  C   UNL A   1      33.869  35.085  32.631  1.00  0.00     0.060 A 
ATOM     32  C   UNL A   1      35.163  35.585  32.514  1.00  0.00     0.016 A 
ATOM     33  C   UNL A   1      33.654  33.805  33.130  1.00  0.00     0.016 A 
ATOM     34  C   UNL A   1      36.260  34.798  32.843  1.00  0.00     0.010 A 
ATOM     35  C   UNL A   1      34.754  33.038  33.532  1.00  0.00     0.010 A 
ATOM     36  C   UNL A   1      36.069  33.520  33.373  1.00  0.00    -0.014 A 
BRANCH  36  37
ATOM     37  C   UNL A   1      37.236  32.670  33.726  1.00  0.00     0.031 A 
ATOM     38  C   UNL A   1      37.955  32.894  35.027  1.00  0.00     0.074 A 
ATOM     39  C   UNL A   1      37.658  31.700  32.890  1.00  0.00     0.049 A 
ATOM     40  N   UNL A   1      39.110  32.425  35.424  1.00  0.00    -0.248 NA
ATOM     41  C   UNL A   1      37.291  33.770  36.006  1.00  0.00     0.031 C 
ATOM     42  C   UNL A   1      37.017  31.322  31.628  1.00  0.00     0.029 A 
ATOM     43  N   UNL A   1      38.738  30.856  32.979  1.00  0.00    -0.354 N 
ATOM     44  C   UNL A   1      39.342  33.001  36.667  1.00  0.00     0.074 A 
ATOM     45  C   UNL A   1      38.204  33.843  36.964  1.00  0.00     0.031 C 
ATOM     46  C   UNL A   1      37.704  30.311  31.073  1.00  0.00     0.029 A 
ATOM     47  C   UNL A   1      38.878  30.030  31.889  1.00  0.00     0.049 A 
ATOM     48  H   UNL A   1      39.351  30.843  33.749  1.00  0.00     0.167 HD
ATOM     49  C   UNL A   1      40.414  32.849  37.480  1.00  0.00     0.031 A 
ATOM     50  C   UNL A   1      39.868  29.182  31.554  1.00  0.00     0.031 A 
ATOM     51  C   UNL A   1      41.524  31.978  37.202  1.00  0.00     0.049 A 
ATOM     52  C   UNL A   1      41.068  29.063  32.449  1.00  0.00     0.074 A 
ATOM     53  C   UNL A   1      42.653  31.747  37.968  1.00  0.00     0.029 A 
ATOM     54  N   UNL A   1      41.636  31.181  36.073  1.00  0.00    -0.354 N 
ATOM     55  N   UNL A   1      41.307  29.659  33.591  1.00  0.00    -0.248 NA
ATOM     56  C   UNL A   1      42.144  28.168  31.997  1.00  0.00     0.031 C 
ATOM     57  C   UNL A   1      43.467  30.836  37.285  1.00  0.00     0.029 A 
ATOM     58  C   UNL A   1      42.822  30.468  36.115  1.00  0.00     0.049 A 
ATOM     59  H   UNL A   1      40.971  31.129  35.349  1.00  0.00     0.167 HD
ATOM     60  C   UNL A   1      42.554  29.205  34.000  1.00  0.00     0.074 A 
ATOM     61  C   UNL A   1      43.012  28.269  32.994  1.00  0.00     0.031 C 
ATOM     62  C   UNL A   1      43.258  29.540  35.107  1.00  0.00     0.031 A 
BRANCH  49  63
ATOM     63  C   UNL A   1      40.463  33.683  38.728  1.00  0.00    -0.014 A 
ATOM     64  C   UNL A   1      39.957  33.214  39.948  1.00  0.00     0.009 A 
ATOM     65  C   UNL A   1      41.066  34.951  38.681  1.00  0.00     0.009 A 
ATOM     66  C   UNL A   1      40.028  34.012  41.094  1.00  0.00     0.001 A 
ATOM     67  C   UNL A   1      41.158  35.735  39.832  1.00  0.00     0.001 A 
ATOM     68  C   UNL A   1      40.632  35.268  41.035  1.00  0.00     0.000 A 
ENDBRANCH  49  63
BRANCH  50  69
ATOM     69  C   UNL A   1      39.798  28.431  30.273  1.00  0.00    -0.014 A 
ATOM     70  C   UNL A   1      39.263  27.136  30.232  1.00  0.00     0.009 A 
ATOM     71  C   UNL A   1      40.267  29.010  29.083  1.00  0.00     0.009 A 
ATOM     72  C   UNL A   1      39.212  26.430  29.027  1.00  0.00     0.001 A 
ATOM     73  C   UNL A   1      40.189  28.314  27.875  1.00  0.00     0.001 A 
ATOM     74  C   UNL A   1      39.669  27.022  27.849  1.00  0.00     0.000 A 
ENDBRANCH  50  69
BRANCH  62  75
ATOM     75  C   UNL A   1      44.584  28.864  35.304  1.00  0.00    -0.014 A 
ATOM     76  C   UNL A   1      44.677  27.633  35.971  1.00  0.00     0.009 A 
ATOM     77  C   UNL A   1      45.746  29.449  34.778  1.00  0.00     0.009 A 
ATOM     78  C   UNL A   1      45.917  27.012  36.128  1.00  0.00     0.001 A 
ATOM     79  C   UNL A   1      46.980  28.814  34.918  1.00  0.00     0.001 A 
ATOM     80  C   UNL A   1      47.066  27.600  35.598  1.00  0.00     0.000 A 
ENDBRANCH  62  75
ENDBRANCH  36  37
ENDBRANCH  29  31
ENDBRANCH  28  29
ENDBRANCH  27  28
ENDBRANCH   1  27
TORSDOF 15
ENDMDL
MODEL 2
REMARK VINA RESULT:     -11.6      1.376      2.023
REMARK SMILES N#C/C(=C/c1ccc(-c2cccc(C(=O)OCCOC(=O)c3ccc(-c4c5nc(c(-c6ccccc6)c6ccc([nH]6)c(-c6ccccc6)c6nc(c(-c7ccccc7)c7ccc4[nH]7)C=C6)C=C5)cc3)c2)o1)c1ccc(F)cc1
REMARK SMILES IDX 17 1 16 2 14 3 15 4 13 5 9 6 10 7 70 8 11 9 12 10 8 11 5 12
REMARK SMILES IDX 6 13 71 14 7 15 4 16 3 17 2 18 1 19 72 20 73 21 78 22 74 23
REMARK SMILES IDX 77 24 75 25 76 26 18 27 19 28 20 29 21 30 22 31 23 32 69 33
REMARK SMILES IDX 24 34 68 35 25 36 26 37 27 38 62 39 28 40 67 41 61 42 63 43
REMARK SMILES IDX 29 44 66 45 60 46 59 47 30 49 52 50 37 51 51 52 38 53 41 54
REMARK SMILES IDX 50 55 64 56 39 57 40 58 49 60 65 61 42 62 31 63 32 64 36 65
REMARK SMILES IDX 33 66 35 67 34 68 53 69 54 70 58 71 55 72 57 73 56 74 43 75
REMARK SMILES IDX 44 76 48 77 45 78 47 79 46 80
REMARK H PARENT 63 48 41 59
REMARK Flexibility Score: inf
ROOT
ATOM      1  C   UNL A   1      33.331  35.880  28.696  1.00  0.00     0.275 C 
ENDROOT
BRANCH   1   2
ATOM      2  O   UNL A   1      33.515  34.472  28.933  1.00  0.00    -0.458 OA
BRANCH   2   3
ATOM      3  C   UNL A   1      32.990  33.614  28.022  1.00  0.00     0.338 C 
ATOM      4  O   UNL A   1      31.975  33.770  27.366  1.00  0.00    -0.246 OA
BRANCH   3   5
ATOM      5  C   UNL A   1      33.911  32.464  27.853  1.00  0.00     0.060 A 
ATOM      6  C   UNL A   1      34.262  30.118  27.375  1.00  0.00     0.018 A 
ATOM      7  C   UNL A   1      35.629  30.269  27.637  1.00  0.00     0.012 A 
ATOM      8  C   UNL A   1      33.405  31.212  27.517  1.00  0.00     0.027 A 
ATOM      9  C   UNL A   1      36.144  31.526  27.951  1.00  0.00     0.002 A 
ATOM     10  C   UNL A   1      35.292  32.628  28.018  1.00  0.00     0.016 A 
BRANCH   6  11
ATOM     11  C   UNL A   1      33.714  28.879  26.871  1.00  0.00     0.134 A 
ATOM     12  C   UNL A   1      33.568  27.233  25.417  1.00  0.00     0.128 A 
ATOM     13  C   UNL A   1      32.615  27.009  26.404  1.00  0.00     0.051 A 
ATOM     14  O   UNL A   1      34.256  28.376  25.733  1.00  0.00    -0.457 OA
ATOM     15  C   UNL A   1      32.698  28.069  27.322  1.00  0.00     0.051 A 
BRANCH  12  16
ATOM     16  C   UNL A   1      33.805  26.487  24.239  1.00  0.00     0.067 C 
ATOM     17  C   UNL A   1      32.894  26.443  23.249  1.00  0.00     0.063 C 
BRANCH  17  18
ATOM     18  C   UNL A   1      33.087  25.412  22.149  1.00  0.00     0.100 C 
ATOM     19  N   UNL A   1      33.247  24.557  21.237  1.00  0.00    -0.192 NA
ENDBRANCH  17  18
BRANCH  17  20
ATOM     20  C   UNL A   1      31.621  27.211  23.229  1.00  0.00    -0.007 A 
ATOM     21  C   UNL A   1      30.407  26.605  23.600  1.00  0.00     0.012 A 
ATOM     22  C   UNL A   1      31.608  28.551  22.806  1.00  0.00     0.012 A 
ATOM     23  C   UNL A   1      29.205  27.309  23.509  1.00  0.00     0.040 A 
ATOM     24  C   UNL A   1      30.404  29.256  22.725  1.00  0.00     0.040 A 
ATOM     25  C   UNL A   1      29.214  28.626  23.068  1.00  0.00     0.123 A 
ATOM     26  F   UNL A   1      28.060  29.297  22.967  1.00  0.00    -0.207 F 
ENDBRANCH  17  20
ENDBRANCH  12  16
ENDBRANCH   6  11
ENDBRANCH   3   5
ENDBRANCH   2   3
ENDBRANCH   1   2
BRANCH   1  27
ATOM     27  C   UNL A   1      32.939  36.588  29.992  1.00  0.00     0.275 C 
BRANCH  27  28
ATOM     28  O   UNL A   1      32.493  35.619  30.957  1.00  0.00    -0.458 OA
BRANCH  28  29
ATOM     29  C   UNL A   1      32.725  35.924  32.253  1.00  0.00     0.338 C 
ATOM     30  O   UNL A   1      32.108  36.689  32.970  1.00  0.00    -0.246 OA
BRANCH  29  31
ATOM     31  C   UNL A   1      33.850  35.107  32.727  1.00  0.00     0.060 A 
ATOM     32  C   UNL A   1      35.133  35.642  32.650  1.00  0.00     0.016 A 
ATOM     33  C   UNL A   1      33.661  33.797  33.154  1.00  0.00     0.016 A 
ATOM     34  C   UNL A   1      36.246  34.863  32.944  1.00  0.00     0.010 A 
ATOM     35  C   UNL A   1      34.774  33.034  33.523  1.00  0.00     0.010 A 
ATOM     36  C   UNL A   1      36.079  33.553  33.401  1.00  0.00    -0.014 A 
BRANCH  36  37
ATOM     37  C   UNL A   1      37.263  32.711  33.718  1.00  0.00     0.031 A 
ATOM     38  C   UNL A   1      37.974  32.887  35.030  1.00  0.00     0.074 A 
ATOM     39  C   UNL A   1      37.706  31.791  32.838  1.00  0.00     0.049 A 
ATOM     40  N   UNL A   1      39.138  32.424  35.408  1.00  0.00    -0.248 NA
ATOM     41  C   UNL A   1      37.290  33.703  36.048  1.00  0.00     0.031 C 
ATOM     42  C   UNL A   1      37.076  31.461  31.558  1.00  0.00     0.029 A 
ATOM     43  N   UNL A   1      38.803  30.966  32.890  1.00  0.00    -0.354 N 
ATOM     44  C   UNL A   1      39.355  32.944  36.678  1.00  0.00     0.074 A 
ATOM     45  C   UNL A   1      38.199  33.749  37.011  1.00  0.00     0.031 C 
ATOM     46  C   UNL A   1      37.784  30.491  30.957  1.00  0.00     0.029 A 
ATOM     47  C   UNL A   1      38.963  30.196  31.763  1.00  0.00     0.049 A 
ATOM     48  H   UNL A   1      39.415  30.928  33.661  1.00  0.00     0.167 HD
ATOM     49  C   UNL A   1      40.428  32.775  37.487  1.00  0.00     0.031 A 
ATOM     50  C   UNL A   1      39.971  29.385  31.391  1.00  0.00     0.031 A 
ATOM     51  C   UNL A   1      41.556  31.941  37.170  1.00  0.00     0.049 A 
ATOM     52  C   UNL A   1      41.170  29.247  32.283  1.00  0.00     0.074 A 
ATOM     53  C   UNL A   1      42.688  31.697  37.929  1.00  0.00     0.029 A 
ATOM     54  N   UNL A   1      41.686  31.202  36.006  1.00  0.00    -0.354 N 
ATOM     55  N   UNL A   1      41.395  29.793  33.453  1.00  0.00    -0.248 NA
ATOM     56  C   UNL A   1      42.265  28.397  31.793  1.00  0.00     0.031 C 
ATOM     57  C   UNL A   1      43.521  30.837  37.206  1.00  0.00     0.029 A 
ATOM     58  C   UNL A   1      42.887  30.512  36.018  1.00  0.00     0.049 A 
ATOM     59  H   UNL A   1      41.024  31.171  35.278  1.00  0.00     0.167 HD
ATOM     60  C   UNL A   1      42.649  29.346  33.844  1.00  0.00     0.074 A 
ATOM     61  C   UNL A   1      43.129  28.468  32.797  1.00  0.00     0.031 C 
ATOM     62  C   UNL A   1      43.344  29.641  34.968  1.00  0.00     0.031 A 
BRANCH  49  63
ATOM     63  C   UNL A   1      40.457  33.550  38.773  1.00  0.00    -0.014 A 
ATOM     64  C   UNL A   1      41.095  34.794  38.869  1.00  0.00     0.009 A 
ATOM     65  C   UNL A   1      39.797  33.033  39.900  1.00  0.00     0.009 A 
ATOM     66  C   UNL A   1      41.094  35.496  40.078  1.00  0.00     0.001 A 
ATOM     67  C   UNL A   1      39.777  33.747  41.099  1.00  0.00     0.001 A 
ATOM     68  C   UNL A   1      40.432  34.973  41.189  1.00  0.00     0.000 A 
ENDBRANCH  49  63
BRANCH  50  69
ATOM     69  C   UNL A   1      39.919  28.694  30.076  1.00  0.00    -0.014 A 
ATOM     70  C   UNL A   1      39.458  27.373  29.979  1.00  0.00     0.009 A 
ATOM     71  C   UNL A   1      40.330  29.357  28.908  1.00  0.00     0.009 A 
ATOM     72  C   UNL A   1      39.425  26.725  28.741  1.00  0.00     0.001 A 
ATOM     73  C   UNL A   1      40.268  28.718  27.669  1.00  0.00     0.001 A 
ATOM     74  C   UNL A   1      39.823  27.400  27.587  1.00  0.00     0.000 A 
ENDBRANCH  50  69
BRANCH  62  75
ATOM     75  C   UNL A   1      44.683  28.984  35.137  1.00  0.00    -0.014 A 
ATOM     76  C   UNL A   1      45.861  29.625  34.728  1.00  0.00     0.009 A 
ATOM     77  C   UNL A   1      44.765  27.725  35.752  1.00  0.00     0.009 A 
ATOM     78  C   UNL A   1      47.098  29.004  34.910  1.00  0.00     0.001 A 
ATOM     79  C   UNL A   1      46.004  27.117  35.952  1.00  0.00     0.001 A 
ATOM     80  C   UNL A   1      47.169  27.754  35.526  1.00  0.00     0.000 A 
ENDBRANCH  62  75
ENDBRANCH  36  37
ENDBRANCH  29  31
ENDBRANCH  28  29
ENDBRANCH  27  28
ENDBRANCH   1  27
TORSDOF 15
ENDMDL
MODEL 3
REMARK VINA RESULT:     -11.3      1.504      2.108
REMARK SMILES N#C/C(=C/c1ccc(-c2cccc(C(=O)OCCOC(=O)c3ccc(-c4c5nc(c(-c6ccccc6)c6ccc([nH]6)c(-c6ccccc6)c6nc(c(-c7ccccc7)c7ccc4[nH]7)C=C6)C=C5)cc3)c2)o1)c1ccc(F)cc1
REMARK SMILES IDX 17 1 16 2 14 3 15 4 13 5 9 6 10 7 70 8 11 9 12 10 8 11 5 12
REMARK SMILES IDX 6 13 71 14 7 15 4 16 3 17 2 18 1 19 72 20 73 21 78 22 74 23
REMARK SMILES IDX 77 24 75 25 76 26 18 27 19 28 20 29 21 30 22 31 23 32 69 33
REMARK SMILES IDX 24 34 68 35 25 36 26 37 27 38 62 39 28 40 67 41 61 42 63 43
REMARK SMILES IDX 29 44 66 45 60 46 59 47 30 49 52 50 37 51 51 52 38 53 41 54
REMARK SMILES IDX 50 55 64 56 39 57 40 58 49 60 65 61 42 62 31 63 32 64 36 65
REMARK SMILES IDX 33 66 35 67 34 68 53 69 54 70 58 71 55 72 57 73 56 74 43 75
REMARK SMILES IDX 44 76 48 77 45 78 47 79 46 80
REMARK H PARENT 63 48 41 59
REMARK Flexibility Score: inf
ROOT
ATOM      1  C   UNL A   1      33.997  35.717  29.065  1.00  0.00     0.275 C 
ENDROOT
BRANCH   1   2
ATOM      2  O   UNL A   1      33.908  34.289  29.209  1.00  0.00    -0.458 OA
BRANCH   2   3
ATOM      3  C   UNL A   1      33.257  33.604  28.235  1.00  0.00     0.338 C 
ATOM      4  O   UNL A   1      32.276  33.968  27.612  1.00  0.00    -0.246 OA
BRANCH   3   5
ATOM      5  C   UNL A   1      33.993  32.347  27.952  1.00  0.00     0.060 A 
ATOM      6  C   UNL A   1      33.980  30.015  27.306  1.00  0.00     0.018 A 
ATOM      7  C   UNL A   1      35.361  29.948  27.519  1.00  0.00     0.012 A 
ATOM      8  C   UNL A   1      33.298  31.208  27.556  1.00  0.00     0.027 A 
ATOM      9  C   UNL A   1      36.066  31.091  27.893  1.00  0.00     0.002 A 
ATOM     10  C   UNL A   1      35.388  32.298  28.069  1.00  0.00     0.016 A 
BRANCH   6  11
ATOM     11  C   UNL A   1      33.239  28.908  26.746  1.00  0.00     0.134 A 
ATOM     12  C   UNL A   1      32.640  27.561  25.111  1.00  0.00     0.128 A 
ATOM     13  C   UNL A   1      31.925  27.191  26.244  1.00  0.00     0.051 A 
ATOM     14  O   UNL A   1      33.466  28.604  25.442  1.00  0.00    -0.457 OA
ATOM     15  C   UNL A   1      32.296  28.063  27.282  1.00  0.00     0.051 A 
BRANCH  12  16
ATOM     16  C   UNL A   1      32.543  27.036  23.801  1.00  0.00     0.067 C 
ATOM     17  C   UNL A   1      32.956  25.786  23.522  1.00  0.00     0.063 C 
BRANCH  17  18
ATOM     18  C   UNL A   1      33.083  25.388  22.061  1.00  0.00     0.100 C 
ATOM     19  N   UNL A   1      33.188  25.057  20.848  1.00  0.00    -0.192 NA
ENDBRANCH  17  18
BRANCH  17  20
ATOM     20  C   UNL A   1      33.457  24.810  24.525  1.00  0.00    -0.007 A 
ATOM     21  C   UNL A   1      34.805  24.818  24.927  1.00  0.00     0.012 A 
ATOM     22  C   UNL A   1      32.594  23.842  25.066  1.00  0.00     0.012 A 
ATOM     23  C   UNL A   1      35.286  23.853  25.815  1.00  0.00     0.040 A 
ATOM     24  C   UNL A   1      33.077  22.883  25.961  1.00  0.00     0.040 A 
ATOM     25  C   UNL A   1      34.419  22.893  26.320  1.00  0.00     0.123 A 
ATOM     26  F   UNL A   1      34.883  21.959  27.159  1.00  0.00    -0.207 F 
ENDBRANCH  17  20
ENDBRANCH  12  16
ENDBRANCH   6  11
ENDBRANCH   3   5
ENDBRANCH   2   3
ENDBRANCH   1   2
BRANCH   1  27
ATOM     27  C   UNL A   1      32.905  36.402  29.886  1.00  0.00     0.275 C 
BRANCH  27  28
ATOM     28  O   UNL A   1      32.473  35.525  30.942  1.00  0.00    -0.458 OA
BRANCH  28  29
ATOM     29  C   UNL A   1      32.777  35.918  32.199  1.00  0.00     0.338 C 
ATOM     30  O   UNL A   1      32.222  36.758  32.881  1.00  0.00    -0.246 OA
BRANCH  29  31
ATOM     31  C   UNL A   1      33.894  35.097  32.685  1.00  0.00     0.060 A 
ATOM     32  C   UNL A   1      35.182  35.620  32.604  1.00  0.00     0.016 A 
ATOM     33  C   UNL A   1      33.693  33.793  33.126  1.00  0.00     0.016 A 
ATOM     34  C   UNL A   1      36.287  34.835  32.910  1.00  0.00     0.010 A 
ATOM     35  C   UNL A   1      34.799  33.025  33.506  1.00  0.00     0.010 A 
ATOM     36  C   UNL A   1      36.109  33.531  33.381  1.00  0.00    -0.014 A 
BRANCH  36  37
ATOM     37  C   UNL A   1      37.284  32.683  33.710  1.00  0.00     0.031 A 
ATOM     38  C   UNL A   1      38.002  32.876  35.016  1.00  0.00     0.074 A 
ATOM     39  C   UNL A   1      37.715  31.742  32.846  1.00  0.00     0.049 A 
ATOM     40  N   UNL A   1      39.162  32.407  35.399  1.00  0.00    -0.248 NA
ATOM     41  C   UNL A   1      37.329  33.718  36.021  1.00  0.00     0.031 C 
ATOM     42  C   UNL A   1      37.077  31.395  31.574  1.00  0.00     0.029 A 
ATOM     43  N   UNL A   1      38.803  30.906  32.910  1.00  0.00    -0.354 N 
ATOM     44  C   UNL A   1      39.389  32.949  36.659  1.00  0.00     0.074 A 
ATOM     45  C   UNL A   1      38.242  33.772  36.980  1.00  0.00     0.031 C 
ATOM     46  C   UNL A   1      37.773  30.407  30.989  1.00  0.00     0.029 A 
ATOM     47  C   UNL A   1      38.951  30.114  31.796  1.00  0.00     0.049 A 
ATOM     48  H   UNL A   1      39.417  30.877  33.679  1.00  0.00     0.167 HD
ATOM     49  C   UNL A   1      40.462  32.784  37.467  1.00  0.00     0.031 A 
ATOM     50  C   UNL A   1      39.949  29.285  31.437  1.00  0.00     0.031 A 
ATOM     51  C   UNL A   1      41.580  31.933  37.162  1.00  0.00     0.049 A 
ATOM     52  C   UNL A   1      41.150  29.152  32.327  1.00  0.00     0.074 A 
ATOM     53  C   UNL A   1      42.713  31.691  37.922  1.00  0.00     0.029 A 
ATOM     54  N   UNL A   1      41.699  31.170  36.011  1.00  0.00    -0.354 N 
ATOM     55  N   UNL A   1      41.384  29.717  33.487  1.00  0.00    -0.248 NA
ATOM     56  C   UNL A   1      42.234  28.281  31.850  1.00  0.00     0.031 C 
ATOM     57  C   UNL A   1      43.534  30.808  37.213  1.00  0.00     0.029 A 
ATOM     58  C   UNL A   1      42.892  30.468  36.032  1.00  0.00     0.049 A 
ATOM     59  H   UNL A   1      41.034  31.133  35.286  1.00  0.00     0.167 HD
ATOM     60  C   UNL A   1      42.635  29.264  33.882  1.00  0.00     0.074 A 
ATOM     61  C   UNL A   1      43.102  28.362  32.849  1.00  0.00     0.031 C 
ATOM     62  C   UNL A   1      43.337  29.573  34.998  1.00  0.00     0.031 A 
BRANCH  49  63
ATOM     63  C   UNL A   1      40.504  33.583  38.738  1.00  0.00    -0.014 A 
ATOM     64  C   UNL A   1      41.061  34.868  38.782  1.00  0.00     0.009 A 
ATOM     65  C   UNL A   1      39.938  33.043  39.905  1.00  0.00     0.009 A 
ATOM     66  C   UNL A   1      41.074  35.589  39.979  1.00  0.00     0.001 A 
ATOM     67  C   UNL A   1      39.930  33.776  41.093  1.00  0.00     0.001 A 
ATOM     68  C   UNL A   1      40.505  35.045  41.131  1.00  0.00     0.000 A 
ENDBRANCH  49  63
BRANCH  50  69
ATOM     69  C   UNL A   1      39.885  28.571  30.135  1.00  0.00    -0.014 A 
ATOM     70  C   UNL A   1      39.399  27.257  30.063  1.00  0.00     0.009 A 
ATOM     71  C   UNL A   1      40.311  29.203  28.956  1.00  0.00     0.009 A 
ATOM     72  C   UNL A   1      39.355  26.587  28.837  1.00  0.00     0.001 A 
ATOM     73  C   UNL A   1      40.238  28.541  27.729  1.00  0.00     0.001 A 
ATOM     74  C   UNL A   1      39.768  27.231  27.671  1.00  0.00     0.000 A 
ENDBRANCH  50  69
BRANCH  62  75
ATOM     75  C   UNL A   1      44.669  28.904  35.175  1.00  0.00    -0.014 A 
ATOM     76  C   UNL A   1      45.853  29.526  34.751  1.00  0.00     0.009 A 
ATOM     77  C   UNL A   1      44.740  27.656  35.811  1.00  0.00     0.009 A 
ATOM     78  C   UNL A   1      47.084  28.895  34.942  1.00  0.00     0.001 A 
ATOM     79  C   UNL A   1      45.974  27.039  36.019  1.00  0.00     0.001 A 
ATOM     80  C   UNL A   1      47.144  27.656  35.579  1.00  0.00     0.000 A 
ENDBRANCH  62  75
ENDBRANCH  36  37
ENDBRANCH  29  31
ENDBRANCH  28  29
ENDBRANCH  27  28
ENDBRANCH   1  27
TORSDOF 15
ENDMDL
