MODEL 1
REMARK VINA RESULT:     -11.3      0.000      0.000
REMARK SMILES O=C(OCCOC(=O)c1ccc(-c2c3nc(c(-c4ccccc4)c4ccc([nH]4)c(-c4ccccc4)c4nc(c(-c5ccccc5)c5ccc2[nH]5)C=C4)C=C3)cc1)c1ccc(NC(=O)[C@H]2CCS(=O)(=O)C2)cc1
REMARK SMILES IDX 4 1 3 2 2 3 1 4 57 5 58 6 72 7 59 8 71 9 60 10 61 11 62 12
REMARK SMILES IDX 63 14 64 15 65 16 70 17 66 18 67 19 68 20 69 21 5 22 6 23
REMARK SMILES IDX 7 24 8 25 9 26 10 27 56 28 11 29 55 30 12 31 13 32 14 33
REMARK SMILES IDX 49 34 15 35 54 36 48 37 50 38 16 39 53 40 47 41 46 42 17 44
REMARK SMILES IDX 39 45 24 46 38 47 25 48 28 49 37 50 51 51 26 52 27 53 36 55
REMARK SMILES IDX 52 56 29 57 18 58 19 59 23 60 20 61 22 62 21 63 40 64 41 65
REMARK SMILES IDX 45 66 42 67 44 68 43 69 30 70 31 71 35 72 32 73 34 74 33 75
REMARK H PARENT 61 13 50 43 28 54
REMARK Flexibility Score: inf
ROOT
ATOM      1  C   UNL A   1      42.495  20.683  26.116  1.00  0.00     0.275 C 
ENDROOT
BRANCH   1   2
ATOM      2  O   UNL A   1      41.127  21.015  25.802  1.00  0.00    -0.458 OA
BRANCH   2   3
ATOM      3  C   UNL A   1      40.144  21.574  26.551  1.00  0.00     0.338 C 
ATOM      4  O   UNL A   1      40.271  21.585  27.774  1.00  0.00    -0.246 OA
BRANCH   3   5
ATOM      5  C   UNL A   1      38.834  22.045  25.993  1.00  0.00     0.060 A 
ATOM      6  C   UNL A   1      38.298  23.313  26.146  1.00  0.00     0.018 A 
ATOM      7  C   UNL A   1      38.098  21.145  25.207  1.00  0.00     0.018 A 
ATOM      8  C   UNL A   1      37.217  23.745  25.369  1.00  0.00     0.027 A 
ATOM      9  C   UNL A   1      36.984  21.575  24.464  1.00  0.00     0.027 A 
ATOM     10  C   UNL A   1      36.616  22.918  24.433  1.00  0.00     0.041 A 
BRANCH  10  11
ATOM     11  N   UNL A   1      35.706  23.321  23.432  1.00  0.00    -0.326 N 
ATOM     12  C   UNL A   1      34.441  23.851  23.456  1.00  0.00     0.228 C 
ATOM     13  H   UNL A   1      36.054  23.192  22.519  1.00  0.00     0.169 HD
ATOM     14  O   UNL A   1      33.910  24.150  22.384  1.00  0.00    -0.274 OA
BRANCH  12  15
ATOM     15  C   UNL A   1      33.726  24.120  24.758  1.00  0.00     0.095 C 
ATOM     16  C   UNL A   1      33.803  25.597  25.162  1.00  0.00     0.030 C 
ATOM     17  C   UNL A   1      32.232  23.819  24.765  1.00  0.00     0.150 C 
ATOM     18  C   UNL A   1      32.964  25.772  26.421  1.00  0.00     0.138 C 
ATOM     19  S   UNL A   1      31.732  24.482  26.354  1.00  0.00     0.151 S 
ATOM     20  O   UNL A   1      32.070  23.509  27.376  1.00  0.00    -0.229 OA
ATOM     21  O   UNL A   1      30.421  25.077  26.248  1.00  0.00    -0.229 OA
ENDBRANCH  12  15
ENDBRANCH  10  11
ENDBRANCH   3   5
ENDBRANCH   2   3
ENDBRANCH   1   2
BRANCH   1  22
ATOM     22  C   UNL A   1      43.555  21.550  25.419  1.00  0.00     0.275 C 
BRANCH  22  23
ATOM     23  O   UNL A   1      43.043  22.789  24.904  1.00  0.00    -0.458 OA
BRANCH  23  24
ATOM     24  C   UNL A   1      43.893  23.849  25.005  1.00  0.00     0.338 C 
ATOM     25  O   UNL A   1      44.821  24.111  24.264  1.00  0.00    -0.246 OA
BRANCH  24  26
ATOM     26  C   UNL A   1      43.436  24.736  26.100  1.00  0.00     0.060 A 
ATOM     27  C   UNL A   1      42.486  24.260  27.010  1.00  0.00     0.016 A 
ATOM     28  C   UNL A   1      43.941  26.027  26.240  1.00  0.00     0.016 A 
ATOM     29  C   UNL A   1      42.053  25.073  28.071  1.00  0.00     0.010 A 
ATOM     30  C   UNL A   1      43.545  26.818  27.326  1.00  0.00     0.010 A 
ATOM     31  C   UNL A   1      42.576  26.362  28.243  1.00  0.00    -0.014 A 
BRANCH  31  32
ATOM     32  C   UNL A   1      42.051  27.305  29.279  1.00  0.00     0.031 A 
ATOM     33  C   UNL A   1      42.703  27.338  30.635  1.00  0.00     0.074 A 
ATOM     34  C   UNL A   1      40.978  28.093  29.071  1.00  0.00     0.049 A 
ATOM     35  N   UNL A   1      42.347  27.995  31.711  1.00  0.00    -0.248 NA
ATOM     36  C   UNL A   1      43.915  26.522  30.798  1.00  0.00     0.031 C 
ATOM     37  C   UNL A   1      40.276  28.254  27.806  1.00  0.00     0.029 A 
ATOM     38  N   UNL A   1      40.269  28.888  29.943  1.00  0.00    -0.354 N 
ATOM     39  C   UNL A   1      43.287  27.667  32.679  1.00  0.00     0.074 A 
ATOM     40  C   UNL A   1      44.188  26.704  32.081  1.00  0.00     0.031 C 
ATOM     41  C   UNL A   1      39.188  29.020  27.995  1.00  0.00     0.029 A 
ATOM     42  C   UNL A   1      39.131  29.433  29.395  1.00  0.00     0.049 A 
ATOM     43  H   UNL A   1      40.550  29.052  30.872  1.00  0.00     0.167 HD
ATOM     44  C   UNL A   1      43.416  28.139  33.942  1.00  0.00     0.031 A 
ATOM     45  C   UNL A   1      38.151  30.179  29.945  1.00  0.00     0.031 A 
ATOM     46  C   UNL A   1      42.532  29.091  34.556  1.00  0.00     0.049 A 
ATOM     47  C   UNL A   1      38.252  30.623  31.380  1.00  0.00     0.074 A 
ATOM     48  C   UNL A   1      42.625  29.659  35.816  1.00  0.00     0.029 A 
ATOM     49  N   UNL A   1      41.386  29.604  33.972  1.00  0.00    -0.354 N 
ATOM     50  N   UNL A   1      39.188  30.362  32.259  1.00  0.00    -0.248 NA
ATOM     51  C   UNL A   1      37.182  31.497  31.886  1.00  0.00     0.031 C 
ATOM     52  C   UNL A   1      41.495  30.457  36.020  1.00  0.00     0.029 A 
ATOM     53  C   UNL A   1      40.739  30.447  34.860  1.00  0.00     0.049 A 
ATOM     54  H   UNL A   1      41.077  29.399  33.060  1.00  0.00     0.167 HD
ATOM     55  C   UNL A   1      38.846  31.075  33.402  1.00  0.00     0.074 A 
ATOM     56  C   UNL A   1      37.613  31.775  33.110  1.00  0.00     0.031 C 
ATOM     57  C   UNL A   1      39.512  31.150  34.581  1.00  0.00     0.031 A 
BRANCH  44  58
ATOM     58  C   UNL A   1      44.553  27.586  34.755  1.00  0.00    -0.014 A 
ATOM     59  C   UNL A   1      45.820  28.194  34.752  1.00  0.00     0.009 A 
ATOM     60  C   UNL A   1      44.354  26.430  35.524  1.00  0.00     0.009 A 
ATOM     61  C   UNL A   1      46.881  27.616  35.451  1.00  0.00     0.001 A 
ATOM     62  C   UNL A   1      45.407  25.876  36.252  1.00  0.00     0.001 A 
ATOM     63  C   UNL A   1      46.673  26.459  36.201  1.00  0.00     0.000 A 
ENDBRANCH  44  58
BRANCH  45  64
ATOM     64  C   UNL A   1      36.981  30.580  29.118  1.00  0.00    -0.014 A 
ATOM     65  C   UNL A   1      35.983  29.651  28.784  1.00  0.00     0.009 A 
ATOM     66  C   UNL A   1      36.863  31.899  28.653  1.00  0.00     0.009 A 
ATOM     67  C   UNL A   1      34.903  30.031  27.984  1.00  0.00     0.001 A 
ATOM     68  C   UNL A   1      35.767  32.282  27.874  1.00  0.00     0.001 A 
ATOM     69  C   UNL A   1      34.792  31.346  27.535  1.00  0.00     0.000 A 
ENDBRANCH  45  64
BRANCH  57  70
ATOM     70  C   UNL A   1      38.965  32.057  35.650  1.00  0.00    -0.014 A 
ATOM     71  C   UNL A   1      38.147  31.573  36.683  1.00  0.00     0.009 A 
ATOM     72  C   UNL A   1      39.346  33.410  35.668  1.00  0.00     0.009 A 
ATOM     73  C   UNL A   1      37.710  32.429  37.699  1.00  0.00     0.001 A 
ATOM     74  C   UNL A   1      38.932  34.255  36.700  1.00  0.00     0.001 A 
ATOM     75  C   UNL A   1      38.111  33.765  37.711  1.00  0.00     0.000 A 
ENDBRANCH  57  70
ENDBRANCH  31  32
ENDBRANCH  24  26
ENDBRANCH  23  24
ENDBRANCH  22  23
ENDBRANCH   1  22
TORSDOF 13
ENDMDL
MODEL 2
REMARK VINA RESULT:     -11.1      4.540      6.820
REMARK SMILES O=C(OCCOC(=O)c1ccc(-c2c3nc(c(-c4ccccc4)c4ccc([nH]4)c(-c4ccccc4)c4nc(c(-c5ccccc5)c5ccc2[nH]5)C=C4)C=C3)cc1)c1ccc(NC(=O)[C@H]2CCS(=O)(=O)C2)cc1
REMARK SMILES IDX 4 1 3 2 2 3 1 4 57 5 58 6 72 7 59 8 71 9 60 10 61 11 62 12
REMARK SMILES IDX 63 14 64 15 65 16 70 17 66 18 67 19 68 20 69 21 5 22 6 23
REMARK SMILES IDX 7 24 8 25 9 26 10 27 56 28 11 29 55 30 12 31 13 32 14 33
REMARK SMILES IDX 49 34 15 35 54 36 48 37 50 38 16 39 53 40 47 41 46 42 17 44
REMARK SMILES IDX 39 45 24 46 38 47 25 48 28 49 37 50 51 51 26 52 27 53 36 55
REMARK SMILES IDX 52 56 29 57 18 58 19 59 23 60 20 61 22 62 21 63 40 64 41 65
REMARK SMILES IDX 45 66 42 67 44 68 43 69 30 70 31 71 35 72 32 73 34 74 33 75
REMARK H PARENT 61 13 50 43 28 54
REMARK Flexibility Score: inf
ROOT
ATOM      1  C   UNL A   1      42.251  19.023  26.261  1.00  0.00     0.275 C 
ENDROOT
BRANCH   1   2
ATOM      2  O   UNL A   1      41.910  20.375  25.892  1.00  0.00    -0.458 OA
BRANCH   2   3
ATOM      3  C   UNL A   1      41.521  21.439  26.637  1.00  0.00     0.338 C 
ATOM      4  O   UNL A   1      42.261  21.828  27.538  1.00  0.00    -0.246 OA
BRANCH   3   5
ATOM      5  C   UNL A   1      40.170  22.082  26.534  1.00  0.00     0.060 A 
ATOM      6  C   UNL A   1      39.801  23.287  27.109  1.00  0.00     0.018 A 
ATOM      7  C   UNL A   1      39.199  21.439  25.751  1.00  0.00     0.018 A 
ATOM      8  C   UNL A   1      38.621  23.940  26.736  1.00  0.00     0.027 A 
ATOM      9  C   UNL A   1      37.995  22.083  25.417  1.00  0.00     0.027 A 
ATOM     10  C   UNL A   1      37.755  23.401  25.798  1.00  0.00     0.041 A 
BRANCH  10  11
ATOM     11  N   UNL A   1      36.689  24.078  25.166  1.00  0.00    -0.326 N 
ATOM     12  C   UNL A   1      35.400  23.731  24.846  1.00  0.00     0.228 C 
ATOM     13  H   UNL A   1      36.919  24.997  24.897  1.00  0.00     0.169 HD
ATOM     14  O   UNL A   1      34.676  24.582  24.326  1.00  0.00    -0.274 OA
BRANCH  12  15
ATOM     15  C   UNL A   1      34.852  22.362  25.170  1.00  0.00     0.095 C 
ATOM     16  C   UNL A   1      34.243  22.303  26.576  1.00  0.00     0.030 C 
ATOM     17  C   UNL A   1      33.727  21.871  24.266  1.00  0.00     0.150 C 
ATOM     18  C   UNL A   1      33.629  20.920  26.752  1.00  0.00     0.138 C 
ATOM     19  S   UNL A   1      33.209  20.374  25.105  1.00  0.00     0.151 S 
ATOM     20  O   UNL A   1      34.137  19.314  24.753  1.00  0.00    -0.229 OA
ATOM     21  O   UNL A   1      31.778  20.222  25.001  1.00  0.00    -0.229 OA
ENDBRANCH  12  15
ENDBRANCH  10  11
ENDBRANCH   3   5
ENDBRANCH   2   3
ENDBRANCH   1   2
BRANCH   1  22
ATOM     22  C   UNL A   1      43.521  18.466  25.600  1.00  0.00     0.275 C 
BRANCH  22  23
ATOM     23  O   UNL A   1      43.802  19.035  24.311  1.00  0.00    -0.458 OA
BRANCH  23  24
ATOM     24  C   UNL A   1      45.055  19.549  24.170  1.00  0.00     0.338 C 
ATOM     25  O   UNL A   1      46.013  19.000  23.660  1.00  0.00    -0.246 OA
BRANCH  24  26
ATOM     26  C   UNL A   1      45.055  20.960  24.620  1.00  0.00     0.060 A 
ATOM     27  C   UNL A   1      44.592  21.953  23.751  1.00  0.00     0.016 A 
ATOM     28  C   UNL A   1      45.503  21.310  25.893  1.00  0.00     0.016 A 
ATOM     29  C   UNL A   1      44.561  23.296  24.162  1.00  0.00     0.010 A 
ATOM     30  C   UNL A   1      45.426  22.642  26.318  1.00  0.00     0.010 A 
ATOM     31  C   UNL A   1      44.977  23.658  25.451  1.00  0.00    -0.014 A 
BRANCH  31  32
ATOM     32  C   UNL A   1      45.081  25.086  25.884  1.00  0.00     0.031 A 
ATOM     33  C   UNL A   1      46.432  25.750  25.902  1.00  0.00     0.074 A 
ATOM     34  C   UNL A   1      44.020  25.796  26.316  1.00  0.00     0.049 A 
ATOM     35  N   UNL A   1      46.767  26.937  26.340  1.00  0.00    -0.248 NA
ATOM     36  C   UNL A   1      47.550  24.970  25.352  1.00  0.00     0.031 C 
ATOM     37  C   UNL A   1      42.634  25.350  26.292  1.00  0.00     0.029 A 
ATOM     38  N   UNL A   1      43.952  27.044  26.894  1.00  0.00    -0.354 N 
ATOM     39  C   UNL A   1      48.135  27.044  26.125  1.00  0.00     0.074 A 
ATOM     40  C   UNL A   1      48.574  25.777  25.579  1.00  0.00     0.031 C 
ATOM     41  C   UNL A   1      41.861  26.261  26.907  1.00  0.00     0.029 A 
ATOM     42  C   UNL A   1      42.696  27.378  27.345  1.00  0.00     0.049 A 
ATOM     43  H   UNL A   1      44.730  27.642  26.977  1.00  0.00     0.167 HD
ATOM     44  C   UNL A   1      48.954  28.102  26.332  1.00  0.00     0.031 A 
ATOM     45  C   UNL A   1      42.257  28.454  28.029  1.00  0.00     0.031 A 
ATOM     46  C   UNL A   1      48.540  29.367  26.876  1.00  0.00     0.049 A 
ATOM     47  C   UNL A   1      43.196  29.588  28.341  1.00  0.00     0.074 A 
ATOM     48  C   UNL A   1      49.300  30.508  27.069  1.00  0.00     0.029 A 
ATOM     49  N   UNL A   1      47.265  29.656  27.332  1.00  0.00    -0.354 N 
ATOM     50  N   UNL A   1      44.471  29.701  28.064  1.00  0.00    -0.248 NA
ATOM     51  C   UNL A   1      42.625  30.760  29.025  1.00  0.00     0.031 C 
ATOM     52  C   UNL A   1      48.504  31.462  27.710  1.00  0.00     0.029 A 
ATOM     53  C   UNL A   1      47.227  30.942  27.846  1.00  0.00     0.049 A 
ATOM     54  H   UNL A   1      46.498  29.039  27.297  1.00  0.00     0.167 HD
ATOM     55  C   UNL A   1      44.843  30.970  28.494  1.00  0.00     0.074 A 
ATOM     56  C   UNL A   1      43.662  31.588  29.058  1.00  0.00     0.031 C 
ATOM     57  C   UNL A   1      46.057  31.568  28.409  1.00  0.00     0.031 A 
BRANCH  44  58
ATOM     58  C   UNL A   1      50.405  27.908  25.994  1.00  0.00    -0.014 A 
ATOM     59  C   UNL A   1      50.903  28.186  24.709  1.00  0.00     0.009 A 
ATOM     60  C   UNL A   1      51.284  27.424  26.974  1.00  0.00     0.009 A 
ATOM     61  C   UNL A   1      52.237  27.920  24.397  1.00  0.00     0.001 A 
ATOM     62  C   UNL A   1      52.626  27.195  26.669  1.00  0.00     0.001 A 
ATOM     63  C   UNL A   1      53.097  27.426  25.378  1.00  0.00     0.000 A 
ENDBRANCH  44  58
BRANCH  45  64
ATOM     64  C   UNL A   1      40.832  28.522  28.454  1.00  0.00    -0.014 A 
ATOM     65  C   UNL A   1      40.428  28.016  29.700  1.00  0.00     0.009 A 
ATOM     66  C   UNL A   1      39.868  29.091  27.607  1.00  0.00     0.009 A 
ATOM     67  C   UNL A   1      39.084  28.061  30.078  1.00  0.00     0.001 A 
ATOM     68  C   UNL A   1      38.528  29.158  28.000  1.00  0.00     0.001 A 
ATOM     69  C   UNL A   1      38.137  28.636  29.232  1.00  0.00     0.000 A 
ENDBRANCH  45  64
BRANCH  57  70
ATOM     70  C   UNL A   1      46.185  32.989  28.889  1.00  0.00    -0.014 A 
ATOM     71  C   UNL A   1      46.596  33.294  30.196  1.00  0.00     0.009 A 
ATOM     72  C   UNL A   1      45.968  34.044  27.986  1.00  0.00     0.009 A 
ATOM     73  C   UNL A   1      46.770  34.624  30.591  1.00  0.00     0.001 A 
ATOM     74  C   UNL A   1      46.171  35.370  28.374  1.00  0.00     0.001 A 
ATOM     75  C   UNL A   1      46.567  35.659  29.678  1.00  0.00     0.000 A 
ENDBRANCH  57  70
ENDBRANCH  31  32
ENDBRANCH  24  26
ENDBRANCH  23  24
ENDBRANCH  22  23
ENDBRANCH   1  22
TORSDOF 13
ENDMDL
MODEL 3
REMARK VINA RESULT:     -10.7      4.720      9.783
REMARK SMILES O=C(OCCOC(=O)c1ccc(-c2c3nc(c(-c4ccccc4)c4ccc([nH]4)c(-c4ccccc4)c4nc(c(-c5ccccc5)c5ccc2[nH]5)C=C4)C=C3)cc1)c1ccc(NC(=O)[C@H]2CCS(=O)(=O)C2)cc1
REMARK SMILES IDX 4 1 3 2 2 3 1 4 57 5 58 6 72 7 59 8 71 9 60 10 61 11 62 12
REMARK SMILES IDX 63 14 64 15 65 16 70 17 66 18 67 19 68 20 69 21 5 22 6 23
REMARK SMILES IDX 7 24 8 25 9 26 10 27 56 28 11 29 55 30 12 31 13 32 14 33
REMARK SMILES IDX 49 34 15 35 54 36 48 37 50 38 16 39 53 40 47 41 46 42 17 44
REMARK SMILES IDX 39 45 24 46 38 47 25 48 28 49 37 50 51 51 26 52 27 53 36 55
REMARK SMILES IDX 52 56 29 57 18 58 19 59 23 60 20 61 22 62 21 63 40 64 41 65
REMARK SMILES IDX 45 66 42 67 44 68 43 69 30 70 31 71 35 72 32 73 34 74 33 75
REMARK H PARENT 61 13 50 43 28 54
REMARK Flexibility Score: inf
ROOT
ATOM      1  C   UNL A   1      34.080  34.907  29.658  1.00  0.00     0.275 C 
ENDROOT
BRANCH   1   2
ATOM      2  O   UNL A   1      33.720  33.686  28.980  1.00  0.00    -0.458 OA
BRANCH   2   3
ATOM      3  C   UNL A   1      34.379  32.942  28.058  1.00  0.00     0.338 C 
ATOM      4  O   UNL A   1      35.322  33.453  27.456  1.00  0.00    -0.246 OA
BRANCH   3   5
ATOM      5  C   UNL A   1      33.939  31.580  27.613  1.00  0.00     0.060 A 
ATOM      6  C   UNL A   1      34.717  30.434  27.620  1.00  0.00     0.018 A 
ATOM      7  C   UNL A   1      32.609  31.429  27.191  1.00  0.00     0.018 A 
ATOM      8  C   UNL A   1      34.149  29.166  27.452  1.00  0.00     0.027 A 
ATOM      9  C   UNL A   1      32.055  30.154  26.979  1.00  0.00     0.027 A 
ATOM     10  C   UNL A   1      32.790  29.000  27.242  1.00  0.00     0.041 A 
BRANCH  10  11
ATOM     11  N   UNL A   1      32.081  27.781  27.315  1.00  0.00    -0.326 N 
ATOM     12  C   UNL A   1      31.513  26.954  26.378  1.00  0.00     0.228 C 
ATOM     13  H   UNL A   1      31.970  27.453  28.237  1.00  0.00     0.169 HD
ATOM     14  O   UNL A   1      30.991  25.906  26.761  1.00  0.00    -0.274 OA
BRANCH  12  15
ATOM     15  C   UNL A   1      31.569  27.281  24.906  1.00  0.00     0.095 C 
ATOM     16  C   UNL A   1      33.011  27.415  24.400  1.00  0.00     0.030 C 
ATOM     17  C   UNL A   1      30.953  26.243  23.975  1.00  0.00     0.150 C 
ATOM     18  C   UNL A   1      32.949  27.635  22.894  1.00  0.00     0.138 C 
ATOM     19  S   UNL A   1      31.428  26.867  22.364  1.00  0.00     0.151 S 
ATOM     20  O   UNL A   1      30.510  27.932  22.002  1.00  0.00    -0.229 OA
ATOM     21  O   UNL A   1      31.730  25.767  21.479  1.00  0.00    -0.229 OA
ENDBRANCH  12  15
ENDBRANCH  10  11
ENDBRANCH   3   5
ENDBRANCH   2   3
ENDBRANCH   1   2
BRANCH   1  22
ATOM     22  C   UNL A   1      34.139  34.811  31.190  1.00  0.00     0.275 C 
BRANCH  22  23
ATOM     23  O   UNL A   1      35.351  34.219  31.687  1.00  0.00    -0.458 OA
BRANCH  23  24
ATOM     24  C   UNL A   1      35.261  32.894  31.990  1.00  0.00     0.338 C 
ATOM     25  O   UNL A   1      34.326  32.332  32.526  1.00  0.00    -0.246 OA
BRANCH  24  26
ATOM     26  C   UNL A   1      36.444  32.190  31.442  1.00  0.00     0.060 A 
ATOM     27  C   UNL A   1      37.230  31.412  32.297  1.00  0.00     0.016 A 
ATOM     28  C   UNL A   1      36.779  32.287  30.093  1.00  0.00     0.016 A 
ATOM     29  C   UNL A   1      38.344  30.716  31.799  1.00  0.00     0.010 A 
ATOM     30  C   UNL A   1      37.860  31.554  29.587  1.00  0.00     0.010 A 
ATOM     31  C   UNL A   1      38.674  30.778  30.437  1.00  0.00    -0.014 A 
BRANCH  31  32
ATOM     32  C   UNL A   1      39.920  30.159  29.889  1.00  0.00     0.031 A 
ATOM     33  C   UNL A   1      41.150  31.011  29.725  1.00  0.00     0.074 A 
ATOM     34  C   UNL A   1      39.978  28.876  29.479  1.00  0.00     0.049 A 
ATOM     35  N   UNL A   1      42.299  30.711  29.174  1.00  0.00    -0.248 NA
ATOM     36  C   UNL A   1      41.071  32.381  30.253  1.00  0.00     0.031 C 
ATOM     37  C   UNL A   1      38.921  27.887  29.636  1.00  0.00     0.029 A 
ATOM     38  N   UNL A   1      40.970  28.192  28.813  1.00  0.00    -0.354 N 
ATOM     39  C   UNL A   1      43.077  31.856  29.283  1.00  0.00     0.074 A 
ATOM     40  C   UNL A   1      42.246  32.872  29.893  1.00  0.00     0.031 C 
ATOM     41  C   UNL A   1      39.275  26.753  29.008  1.00  0.00     0.029 A 
ATOM     42  C   UNL A   1      40.605  26.924  28.428  1.00  0.00     0.049 A 
ATOM     43  H   UNL A   1      41.858  28.576  28.630  1.00  0.00     0.167 HD
ATOM     44  C   UNL A   1      44.373  32.047  28.938  1.00  0.00     0.031 A 
ATOM     45  C   UNL A   1      41.257  25.997  27.695  1.00  0.00     0.031 A 
ATOM     46  C   UNL A   1      45.215  31.054  28.329  1.00  0.00     0.049 A 
ATOM     47  C   UNL A   1      42.666  26.253  27.231  1.00  0.00     0.074 A 
ATOM     48  C   UNL A   1      46.556  31.153  27.995  1.00  0.00     0.029 A 
ATOM     49  N   UNL A   1      44.801  29.790  27.942  1.00  0.00    -0.354 N 
ATOM     50  N   UNL A   1      43.411  27.316  27.408  1.00  0.00    -0.248 NA
ATOM     51  C   UNL A   1      43.337  25.166  26.501  1.00  0.00     0.031 C 
ATOM     52  C   UNL A   1      46.932  29.977  27.340  1.00  0.00     0.029 A 
ATOM     53  C   UNL A   1      45.848  29.115  27.335  1.00  0.00     0.049 A 
ATOM     54  H   UNL A   1      43.897  29.426  28.079  1.00  0.00     0.167 HD
ATOM     55  C   UNL A   1      44.650  27.008  26.856  1.00  0.00     0.074 A 
ATOM     56  C   UNL A   1      44.556  25.663  26.331  1.00  0.00     0.031 C 
ATOM     57  C   UNL A   1      45.767  27.776  26.809  1.00  0.00     0.031 A 
BRANCH  44  58
ATOM     58  C   UNL A   1      44.943  33.416  29.187  1.00  0.00    -0.014 A 
ATOM     59  C   UNL A   1      44.865  34.430  28.218  1.00  0.00     0.009 A 
ATOM     60  C   UNL A   1      45.580  33.687  30.406  1.00  0.00     0.009 A 
ATOM     61  C   UNL A   1      45.474  35.666  28.441  1.00  0.00     0.001 A 
ATOM     62  C   UNL A   1      46.154  34.936  30.641  1.00  0.00     0.001 A 
ATOM     63  C   UNL A   1      46.116  35.918  29.652  1.00  0.00     0.000 A 
ENDBRANCH  44  58
BRANCH  45  64
ATOM     64  C   UNL A   1      40.582  24.712  27.367  1.00  0.00    -0.014 A 
ATOM     65  C   UNL A   1      41.040  23.500  27.907  1.00  0.00     0.009 A 
ATOM     66  C   UNL A   1      39.476  24.695  26.503  1.00  0.00     0.009 A 
ATOM     67  C   UNL A   1      40.416  22.296  27.571  1.00  0.00     0.001 A 
ATOM     68  C   UNL A   1      38.838  23.491  26.190  1.00  0.00     0.001 A 
ATOM     69  C   UNL A   1      39.314  22.292  26.719  1.00  0.00     0.000 A 
ENDBRANCH  45  64
BRANCH  57  70
ATOM     70  C   UNL A   1      47.014  27.180  26.213  1.00  0.00    -0.014 A 
ATOM     71  C   UNL A   1      47.918  26.434  26.984  1.00  0.00     0.009 A 
ATOM     72  C   UNL A   1      47.243  27.300  24.832  1.00  0.00     0.009 A 
ATOM     73  C   UNL A   1      49.033  25.836  26.387  1.00  0.00     0.001 A 
ATOM     74  C   UNL A   1      48.341  26.678  24.233  1.00  0.00     0.001 A 
ATOM     75  C   UNL A   1      49.237  25.951  25.012  1.00  0.00     0.000 A 
ENDBRANCH  57  70
ENDBRANCH  31  32
ENDBRANCH  24  26
ENDBRANCH  23  24
ENDBRANCH  22  23
ENDBRANCH   1  22
TORSDOF 13
ENDMDL
