MODEL 1
REMARK VINA RESULT:      -9.8      0.000      0.000
REMARK SMILES O=C(CCC(=O)N1N=C(c2ccc(F)cc2)C[C@@H]1c1ccc2nccnc2c1)OCCOC(=O)c1ccc(-c2c3nc(c(-c4ccccc4)c4ccc([nH]4)c(-c4ccccc4)c4nc(c(-c5ccccc5)c5ccc2[nH]5)C=C4)C=C3)cc1
REMARK SMILES IDX 30 1 29 2 2 3 1 4 3 5 4 6 5 7 6 8 7 9 8 10 18 11 9 12 17 13
REMARK SMILES IDX 19 14 20 15 28 16 21 17 27 18 22 19 26 20 23 21 25 22 24 23
REMARK SMILES IDX 10 24 11 25 16 26 12 27 15 28 13 29 14 30 31 31 32 32 33 33
REMARK SMILES IDX 34 34 35 35 36 36 82 37 37 38 81 39 38 40 39 41 40 42 75 43
REMARK SMILES IDX 41 44 80 45 74 46 76 47 42 48 79 49 73 50 72 51 43 53 65 54
REMARK SMILES IDX 50 55 64 56 51 57 54 58 63 59 77 60 52 61 53 62 62 64 78 65
REMARK SMILES IDX 55 66 44 67 45 68 49 69 46 70 48 71 47 72 66 73 67 74 71 75
REMARK SMILES IDX 68 76 70 77 69 78 56 79 57 80 61 81 58 82 60 83 59 84
REMARK H PARENT 76 52 54 63
REMARK Flexibility Score: inf
ROOT
ATOM      1  C   UNL A   1      44.669  18.449  25.523  1.00  0.00     0.274 C 
ENDROOT
BRANCH   1   2
ATOM      2  O   UNL A   1      44.934  19.835  25.172  1.00  0.00    -0.462 OA
BRANCH   2   3
ATOM      3  C   UNL A   1      44.781  20.460  23.994  1.00  0.00     0.306 C 
ATOM      4  O   UNL A   1      44.633  19.849  22.939  1.00  0.00    -0.252 OA
BRANCH   3   5
ATOM      5  C   UNL A   1      44.574  21.915  24.047  1.00  0.00     0.132 C 
BRANCH   5   6
ATOM      6  C   UNL A   1      45.955  22.526  24.035  1.00  0.00     0.114 C 
BRANCH   6   7
ATOM      7  C   UNL A   1      46.347  23.405  25.227  1.00  0.00     0.243 C 
ATOM      8  O   UNL A   1      46.597  22.767  26.268  1.00  0.00    -0.273 OA
BRANCH   7   9
ATOM      9  N   UNL A   1      46.536  24.795  25.183  1.00  0.00    -0.225 N 
ATOM     10  N   UNL A   1      45.311  25.403  25.003  1.00  0.00    -0.174 NA
ATOM     11  C   UNL A   1      47.552  25.839  25.675  1.00  0.00     0.147 C 
ATOM     12  C   UNL A   1      45.363  26.582  25.514  1.00  0.00     0.071 C 
ATOM     13  C   UNL A   1      46.683  27.072  25.976  1.00  0.00     0.091 C 
BRANCH  11  14
ATOM     14  C   UNL A   1      48.696  26.382  24.770  1.00  0.00    -0.021 A 
ATOM     15  C   UNL A   1      48.371  26.762  23.451  1.00  0.00     0.008 A 
ATOM     16  C   UNL A   1      50.052  26.510  25.114  1.00  0.00     0.036 A 
ATOM     17  C   UNL A   1      49.313  27.354  22.595  1.00  0.00     0.031 A 
ATOM     18  C   UNL A   1      50.983  27.213  24.314  1.00  0.00     0.089 A 
ATOM     19  C   UNL A   1      50.588  27.662  23.031  1.00  0.00     0.089 A 
ATOM     20  N   UNL A   1      52.213  27.530  24.787  1.00  0.00    -0.253 NA
ATOM     21  N   UNL A   1      51.391  28.415  22.244  1.00  0.00    -0.253 NA
ATOM     22  C   UNL A   1      52.947  28.397  24.045  1.00  0.00     0.132 A 
ATOM     23  C   UNL A   1      52.549  28.823  22.797  1.00  0.00     0.132 A 
ENDBRANCH  11  14
BRANCH  12  24
ATOM     24  C   UNL A   1      44.144  27.342  25.744  1.00  0.00    -0.002 A 
ATOM     25  C   UNL A   1      44.165  28.522  26.479  1.00  0.00     0.013 A 
ATOM     26  C   UNL A   1      42.973  26.866  25.139  1.00  0.00     0.013 A 
ATOM     27  C   UNL A   1      42.980  29.244  26.607  1.00  0.00     0.040 A 
ATOM     28  C   UNL A   1      41.793  27.584  25.285  1.00  0.00     0.040 A 
ATOM     29  C   UNL A   1      41.809  28.769  26.014  1.00  0.00     0.123 A 
ATOM     30  F   UNL A   1      40.678  29.472  26.141  1.00  0.00    -0.207 F 
ENDBRANCH  12  24
ENDBRANCH   7   9
ENDBRANCH   6   7
ENDBRANCH   5   6
ENDBRANCH   3   5
ENDBRANCH   2   3
ENDBRANCH   1   2
BRANCH   1  31
ATOM     31  C   UNL A   1      43.175  18.308  25.733  1.00  0.00     0.275 C 
BRANCH  31  32
ATOM     32  O   UNL A   1      42.738  19.356  26.600  1.00  0.00    -0.458 OA
BRANCH  32  33
ATOM     33  C   UNL A   1      41.616  20.035  26.249  1.00  0.00     0.338 C 
ATOM     34  O   UNL A   1      40.581  19.636  25.749  1.00  0.00    -0.246 OA
BRANCH  33  35
ATOM     35  C   UNL A   1      41.798  21.371  26.805  1.00  0.00     0.060 A 
ATOM     36  C   UNL A   1      41.880  22.495  25.970  1.00  0.00     0.016 A 
ATOM     37  C   UNL A   1      41.804  21.483  28.194  1.00  0.00     0.016 A 
ATOM     38  C   UNL A   1      41.953  23.757  26.537  1.00  0.00     0.010 A 
ATOM     39  C   UNL A   1      41.886  22.732  28.761  1.00  0.00     0.010 A 
ATOM     40  C   UNL A   1      41.996  23.857  27.930  1.00  0.00    -0.014 A 
BRANCH  40  41
ATOM     41  C   UNL A   1      42.427  25.092  28.581  1.00  0.00     0.031 A 
ATOM     42  C   UNL A   1      41.388  26.154  28.752  1.00  0.00     0.074 A 
ATOM     43  C   UNL A   1      43.723  25.275  28.858  1.00  0.00     0.049 A 
ATOM     44  N   UNL A   1      41.532  27.399  29.103  1.00  0.00    -0.248 NA
ATOM     45  C   UNL A   1      39.999  25.763  28.441  1.00  0.00     0.031 C 
ATOM     46  C   UNL A   1      44.775  24.269  28.715  1.00  0.00     0.029 A 
ATOM     47  N   UNL A   1      44.372  26.394  29.289  1.00  0.00    -0.354 N 
ATOM     48  C   UNL A   1      40.260  27.947  29.031  1.00  0.00     0.074 A 
ATOM     49  C   UNL A   1      39.363  26.916  28.565  1.00  0.00     0.031 C 
ATOM     50  C   UNL A   1      45.951  24.825  29.052  1.00  0.00     0.029 A 
ATOM     51  C   UNL A   1      45.728  26.228  29.387  1.00  0.00     0.049 A 
ATOM     52  H   UNL A   1      43.912  27.236  29.508  1.00  0.00     0.167 HD
ATOM     53  C   UNL A   1      39.882  29.209  29.332  1.00  0.00     0.031 A 
ATOM     54  C   UNL A   1      46.670  27.133  29.697  1.00  0.00     0.031 A 
ATOM     55  C   UNL A   1      40.812  30.215  29.762  1.00  0.00     0.049 A 
ATOM     56  C   UNL A   1      46.229  28.541  29.990  1.00  0.00     0.074 A 
ATOM     57  C   UNL A   1      40.565  31.523  30.127  1.00  0.00     0.029 A 
ATOM     58  N   UNL A   1      42.183  30.014  29.873  1.00  0.00    -0.354 N 
ATOM     59  N   UNL A   1      45.020  29.054  29.969  1.00  0.00    -0.248 NA
ATOM     60  C   UNL A   1      47.282  29.491  30.365  1.00  0.00     0.031 C 
ATOM     61  C   UNL A   1      41.795  32.131  30.400  1.00  0.00     0.029 A 
ATOM     62  C   UNL A   1      42.799  31.181  30.280  1.00  0.00     0.049 A 
ATOM     63  H   UNL A   1      42.646  29.164  29.688  1.00  0.00     0.167 HD
ATOM     64  C   UNL A   1      45.158  30.375  30.375  1.00  0.00     0.074 A 
ATOM     65  C   UNL A   1      46.572  30.576  30.637  1.00  0.00     0.031 C 
ATOM     66  C   UNL A   1      44.211  31.334  30.530  1.00  0.00     0.031 A 
BRANCH  53  67
ATOM     67  C   UNL A   1      38.432  29.553  29.149  1.00  0.00    -0.014 A 
ATOM     68  C   UNL A   1      37.524  29.516  30.221  1.00  0.00     0.009 A 
ATOM     69  C   UNL A   1      37.956  29.893  27.874  1.00  0.00     0.009 A 
ATOM     70  C   UNL A   1      36.167  29.766  30.011  1.00  0.00     0.001 A 
ATOM     71  C   UNL A   1      36.604  30.177  27.673  1.00  0.00     0.001 A 
ATOM     72  C   UNL A   1      35.709  30.100  28.738  1.00  0.00     0.000 A 
ENDBRANCH  53  67
BRANCH  54  73
ATOM     73  C   UNL A   1      48.093  26.727  29.783  1.00  0.00    -0.014 A 
ATOM     74  C   UNL A   1      48.563  26.048  30.917  1.00  0.00     0.009 A 
ATOM     75  C   UNL A   1      48.987  26.994  28.734  1.00  0.00     0.009 A 
ATOM     76  C   UNL A   1      49.905  25.673  31.015  1.00  0.00     0.001 A 
ATOM     77  C   UNL A   1      50.321  26.592  28.821  1.00  0.00     0.001 A 
ATOM     78  C   UNL A   1      50.781  25.941  29.966  1.00  0.00     0.000 A 
ENDBRANCH  54  73
BRANCH  66  79
ATOM     79  C   UNL A   1      44.673  32.659  31.069  1.00  0.00    -0.014 A 
ATOM     80  C   UNL A   1      44.667  32.941  32.443  1.00  0.00     0.009 A 
ATOM     81  C   UNL A   1      45.152  33.630  30.175  1.00  0.00     0.009 A 
ATOM     82  C   UNL A   1      45.086  34.190  32.905  1.00  0.00     0.001 A 
ATOM     83  C   UNL A   1      45.608  34.860  30.642  1.00  0.00     0.001 A 
ATOM     84  C   UNL A   1      45.561  35.145  32.006  1.00  0.00     0.000 A 
ENDBRANCH  66  79
ENDBRANCH  40  41
ENDBRANCH  33  35
ENDBRANCH  32  33
ENDBRANCH  31  32
ENDBRANCH   1  31
TORSDOF 16
ENDMDL
MODEL 2
REMARK VINA RESULT:      -9.6      5.404     10.707
REMARK SMILES O=C(CCC(=O)N1N=C(c2ccc(F)cc2)C[C@@H]1c1ccc2nccnc2c1)OCCOC(=O)c1ccc(-c2c3nc(c(-c4ccccc4)c4ccc([nH]4)c(-c4ccccc4)c4nc(c(-c5ccccc5)c5ccc2[nH]5)C=C4)C=C3)cc1
REMARK SMILES IDX 30 1 29 2 2 3 1 4 3 5 4 6 5 7 6 8 7 9 8 10 18 11 9 12 17 13
REMARK SMILES IDX 19 14 20 15 28 16 21 17 27 18 22 19 26 20 23 21 25 22 24 23
REMARK SMILES IDX 10 24 11 25 16 26 12 27 15 28 13 29 14 30 31 31 32 32 33 33
REMARK SMILES IDX 34 34 35 35 36 36 82 37 37 38 81 39 38 40 39 41 40 42 75 43
REMARK SMILES IDX 41 44 80 45 74 46 76 47 42 48 79 49 73 50 72 51 43 53 65 54
REMARK SMILES IDX 50 55 64 56 51 57 54 58 63 59 77 60 52 61 53 62 62 64 78 65
REMARK SMILES IDX 55 66 44 67 45 68 49 69 46 70 48 71 47 72 66 73 67 74 71 75
REMARK SMILES IDX 68 76 70 77 69 78 56 79 57 80 61 81 58 82 60 83 59 84
REMARK H PARENT 76 52 54 63
REMARK Flexibility Score: inf
ROOT
ATOM      1  C   UNL A   1      42.691  20.070  26.115  1.00  0.00     0.274 C 
ENDROOT
BRANCH   1   2
ATOM      2  O   UNL A   1      41.532  20.793  26.612  1.00  0.00    -0.462 OA
BRANCH   2   3
ATOM      3  C   UNL A   1      40.266  20.783  26.167  1.00  0.00     0.306 C 
ATOM      4  O   UNL A   1      39.717  19.760  25.766  1.00  0.00    -0.252 OA
BRANCH   3   5
ATOM      5  C   UNL A   1      39.485  22.009  26.388  1.00  0.00     0.132 C 
BRANCH   5   6
ATOM      6  C   UNL A   1      38.221  21.840  25.580  1.00  0.00     0.114 C 
BRANCH   6   7
ATOM      7  C   UNL A   1      37.131  22.906  25.745  1.00  0.00     0.243 C 
ATOM      8  O   UNL A   1      37.570  24.047  25.986  1.00  0.00    -0.273 OA
BRANCH   7   9
ATOM      9  N   UNL A   1      35.758  22.701  25.543  1.00  0.00    -0.225 N 
ATOM     10  N   UNL A   1      35.584  21.538  24.822  1.00  0.00    -0.174 NA
ATOM     11  C   UNL A   1      34.423  23.097  26.196  1.00  0.00     0.147 C 
ATOM     12  C   UNL A   1      34.431  21.049  25.112  1.00  0.00     0.071 C 
ATOM     13  C   UNL A   1      33.524  21.876  25.943  1.00  0.00     0.091 C 
BRANCH  11  14
ATOM     14  C   UNL A   1      33.579  24.310  25.703  1.00  0.00    -0.021 A 
ATOM     15  C   UNL A   1      32.434  24.663  26.447  1.00  0.00     0.008 A 
ATOM     16  C   UNL A   1      33.815  25.088  24.558  1.00  0.00     0.036 A 
ATOM     17  C   UNL A   1      31.669  25.799  26.137  1.00  0.00     0.031 A 
ATOM     18  C   UNL A   1      33.132  26.300  24.301  1.00  0.00     0.089 A 
ATOM     19  C   UNL A   1      32.047  26.669  25.131  1.00  0.00     0.089 A 
ATOM     20  N   UNL A   1      33.553  27.148  23.330  1.00  0.00    -0.253 NA
ATOM     21  N   UNL A   1      31.401  27.851  25.005  1.00  0.00    -0.253 NA
ATOM     22  C   UNL A   1      32.986  28.380  23.309  1.00  0.00     0.132 A 
ATOM     23  C   UNL A   1      31.927  28.722  24.122  1.00  0.00     0.132 A 
ENDBRANCH  11  14
BRANCH  12  24
ATOM     24  C   UNL A   1      34.095  19.682  24.743  1.00  0.00    -0.002 A 
ATOM     25  C   UNL A   1      35.082  18.710  24.626  1.00  0.00     0.013 A 
ATOM     26  C   UNL A   1      32.736  19.383  24.581  1.00  0.00     0.013 A 
ATOM     27  C   UNL A   1      34.693  17.403  24.340  1.00  0.00     0.040 A 
ATOM     28  C   UNL A   1      32.359  18.081  24.281  1.00  0.00     0.040 A 
ATOM     29  C   UNL A   1      33.341  17.102  24.168  1.00  0.00     0.123 A 
ATOM     30  F   UNL A   1      32.978  15.843  23.896  1.00  0.00    -0.207 F 
ENDBRANCH  12  24
ENDBRANCH   7   9
ENDBRANCH   6   7
ENDBRANCH   5   6
ENDBRANCH   3   5
ENDBRANCH   2   3
ENDBRANCH   1   2
BRANCH   1  31
ATOM     31  C   UNL A   1      43.727  21.097  25.701  1.00  0.00     0.275 C 
BRANCH  31  32
ATOM     32  O   UNL A   1      43.393  22.346  26.306  1.00  0.00    -0.458 OA
BRANCH  32  33
ATOM     33  C   UNL A   1      43.661  23.476  25.602  1.00  0.00     0.338 C 
ATOM     34  O   UNL A   1      44.043  23.615  24.456  1.00  0.00    -0.246 OA
BRANCH  33  35
ATOM     35  C   UNL A   1      43.180  24.565  26.446  1.00  0.00     0.060 A 
ATOM     36  C   UNL A   1      43.708  25.859  26.324  1.00  0.00     0.016 A 
ATOM     37  C   UNL A   1      42.127  24.277  27.312  1.00  0.00     0.016 A 
ATOM     38  C   UNL A   1      43.158  26.888  27.071  1.00  0.00     0.010 A 
ATOM     39  C   UNL A   1      41.585  25.292  28.061  1.00  0.00     0.010 A 
ATOM     40  C   UNL A   1      42.127  26.583  27.963  1.00  0.00    -0.014 A 
BRANCH  40  41
ATOM     41  C   UNL A   1      41.750  27.516  29.022  1.00  0.00     0.031 A 
ATOM     42  C   UNL A   1      42.500  27.401  30.311  1.00  0.00     0.074 A 
ATOM     43  C   UNL A   1      40.688  28.312  28.854  1.00  0.00     0.049 A 
ATOM     44  N   UNL A   1      42.247  27.950  31.464  1.00  0.00    -0.248 NA
ATOM     45  C   UNL A   1      43.676  26.508  30.303  1.00  0.00     0.031 C 
ATOM     46  C   UNL A   1      39.926  28.465  27.615  1.00  0.00     0.029 A 
ATOM     47  N   UNL A   1      40.052  29.117  29.753  1.00  0.00    -0.354 N 
ATOM     48  C   UNL A   1      43.212  27.450  32.325  1.00  0.00     0.074 A 
ATOM     49  C   UNL A   1      44.031  26.525  31.577  1.00  0.00     0.031 C 
ATOM     50  C   UNL A   1      38.912  29.319  27.836  1.00  0.00     0.029 A 
ATOM     51  C   UNL A   1      38.939  29.727  29.237  1.00  0.00     0.049 A 
ATOM     52  H   UNL A   1      40.363  29.248  30.677  1.00  0.00     0.167 HD
ATOM     53  C   UNL A   1      43.392  27.745  33.631  1.00  0.00     0.031 A 
ATOM     54  C   UNL A   1      38.042  30.511  29.857  1.00  0.00     0.031 A 
ATOM     55  C   UNL A   1      42.535  28.647  34.347  1.00  0.00     0.049 A 
ATOM     56  C   UNL A   1      38.242  30.794  31.321  1.00  0.00     0.074 A 
ATOM     57  C   UNL A   1      42.617  29.059  35.662  1.00  0.00     0.029 A 
ATOM     58  N   UNL A   1      41.421  29.269  33.794  1.00  0.00    -0.354 N 
ATOM     59  N   UNL A   1      39.182  30.361  32.130  1.00  0.00    -0.248 NA
ATOM     60  C   UNL A   1      37.265  31.687  31.953  1.00  0.00     0.031 C 
ATOM     61  C   UNL A   1      41.516  29.884  35.922  1.00  0.00     0.029 A 
ATOM     62  C   UNL A   1      40.794  30.047  34.748  1.00  0.00     0.049 A 
ATOM     63  H   UNL A   1      41.124  29.170  32.861  1.00  0.00     0.167 HD
ATOM     64  C   UNL A   1      38.939  30.967  33.356  1.00  0.00     0.074 A 
ATOM     65  C   UNL A   1      37.764  31.800  33.175  1.00  0.00     0.031 C 
ATOM     66  C   UNL A   1      39.625  30.861  34.522  1.00  0.00     0.031 A 
BRANCH  53  67
ATOM     67  C   UNL A   1      44.513  27.045  34.345  1.00  0.00    -0.014 A 
ATOM     68  C   UNL A   1      44.323  25.805  34.978  1.00  0.00     0.009 A 
ATOM     69  C   UNL A   1      45.777  27.650  34.412  1.00  0.00     0.009 A 
ATOM     70  C   UNL A   1      45.360  25.211  35.701  1.00  0.00     0.001 A 
ATOM     71  C   UNL A   1      46.822  27.038  35.105  1.00  0.00     0.001 A 
ATOM     72  C   UNL A   1      46.609  25.826  35.760  1.00  0.00     0.000 A 
ENDBRANCH  53  67
BRANCH  54  73
ATOM     73  C   UNL A   1      36.918  31.104  29.093  1.00  0.00    -0.014 A 
ATOM     74  C   UNL A   1      36.963  32.452  28.708  1.00  0.00     0.009 A 
ATOM     75  C   UNL A   1      35.804  30.331  28.728  1.00  0.00     0.009 A 
ATOM     76  C   UNL A   1      35.903  33.024  28.001  1.00  0.00     0.001 A 
ATOM     77  C   UNL A   1      34.760  30.898  27.995  1.00  0.00     0.001 A 
ATOM     78  C   UNL A   1      34.806  32.246  27.641  1.00  0.00     0.000 A 
ENDBRANCH  54  73
BRANCH  66  79
ATOM     79  C   UNL A   1      39.154  31.717  35.664  1.00  0.00    -0.014 A 
ATOM     80  C   UNL A   1      38.198  31.263  36.584  1.00  0.00     0.009 A 
ATOM     81  C   UNL A   1      39.710  32.995  35.832  1.00  0.00     0.009 A 
ATOM     82  C   UNL A   1      37.772  32.094  37.622  1.00  0.00     0.001 A 
ATOM     83  C   UNL A   1      39.313  33.807  36.892  1.00  0.00     0.001 A 
ATOM     84  C   UNL A   1      38.332  33.362  37.777  1.00  0.00     0.000 A 
ENDBRANCH  66  79
ENDBRANCH  40  41
ENDBRANCH  33  35
ENDBRANCH  32  33
ENDBRANCH  31  32
ENDBRANCH   1  31
TORSDOF 16
ENDMDL
MODEL 3
REMARK VINA RESULT:      -9.4      4.551     10.222
REMARK SMILES O=C(CCC(=O)N1N=C(c2ccc(F)cc2)C[C@@H]1c1ccc2nccnc2c1)OCCOC(=O)c1ccc(-c2c3nc(c(-c4ccccc4)c4ccc([nH]4)c(-c4ccccc4)c4nc(c(-c5ccccc5)c5ccc2[nH]5)C=C4)C=C3)cc1
REMARK SMILES IDX 30 1 29 2 2 3 1 4 3 5 4 6 5 7 6 8 7 9 8 10 18 11 9 12 17 13
REMARK SMILES IDX 19 14 20 15 28 16 21 17 27 18 22 19 26 20 23 21 25 22 24 23
REMARK SMILES IDX 10 24 11 25 16 26 12 27 15 28 13 29 14 30 31 31 32 32 33 33
REMARK SMILES IDX 34 34 35 35 36 36 82 37 37 38 81 39 38 40 39 41 40 42 75 43
REMARK SMILES IDX 41 44 80 45 74 46 76 47 42 48 79 49 73 50 72 51 43 53 65 54
REMARK SMILES IDX 50 55 64 56 51 57 54 58 63 59 77 60 52 61 53 62 62 64 78 65
REMARK SMILES IDX 55 66 44 67 45 68 49 69 46 70 48 71 47 72 66 73 67 74 71 75
REMARK SMILES IDX 68 76 70 77 69 78 56 79 57 80 61 81 58 82 60 83 59 84
REMARK H PARENT 76 52 54 63
REMARK Flexibility Score: inf
ROOT
ATOM      1  C   UNL A   1      42.129  19.006  26.939  1.00  0.00     0.274 C 
ENDROOT
BRANCH   1   2
ATOM      2  O   UNL A   1      41.152  19.961  26.446  1.00  0.00    -0.462 OA
BRANCH   2   3
ATOM      3  C   UNL A   1      40.660  21.062  27.037  1.00  0.00     0.306 C 
ATOM      4  O   UNL A   1      40.786  21.273  28.240  1.00  0.00    -0.252 OA
BRANCH   3   5
ATOM      5  C   UNL A   1      40.157  22.116  26.144  1.00  0.00     0.132 C 
BRANCH   5   6
ATOM      6  C   UNL A   1      38.697  21.802  25.923  1.00  0.00     0.114 C 
BRANCH   6   7
ATOM      7  C   UNL A   1      37.727  22.986  25.832  1.00  0.00     0.243 C 
ATOM      8  O   UNL A   1      38.240  24.084  26.123  1.00  0.00    -0.273 OA
BRANCH   7   9
ATOM      9  N   UNL A   1      36.407  22.920  25.364  1.00  0.00    -0.225 N 
ATOM     10  N   UNL A   1      35.775  24.113  25.647  1.00  0.00    -0.174 NA
ATOM     11  C   UNL A   1      35.593  22.155  24.307  1.00  0.00     0.147 C 
ATOM     12  C   UNL A   1      34.843  24.295  24.781  1.00  0.00     0.071 C 
ATOM     13  C   UNL A   1      34.539  23.179  23.855  1.00  0.00     0.091 C 
BRANCH  11  14
ATOM     14  C   UNL A   1      34.771  20.877  24.649  1.00  0.00    -0.021 A 
ATOM     15  C   UNL A   1      33.407  21.037  24.972  1.00  0.00     0.008 A 
ATOM     16  C   UNL A   1      35.251  19.559  24.707  1.00  0.00     0.036 A 
ATOM     17  C   UNL A   1      32.564  19.936  25.197  1.00  0.00     0.031 A 
ATOM     18  C   UNL A   1      34.397  18.436  24.810  1.00  0.00     0.089 A 
ATOM     19  C   UNL A   1      33.016  18.640  25.039  1.00  0.00     0.089 A 
ATOM     20  N   UNL A   1      34.867  17.179  24.612  1.00  0.00    -0.253 NA
ATOM     21  N   UNL A   1      32.123  17.623  25.063  1.00  0.00    -0.253 NA
ATOM     22  C   UNL A   1      33.942  16.193  24.502  1.00  0.00     0.132 A 
ATOM     23  C   UNL A   1      32.600  16.408  24.731  1.00  0.00     0.132 A 
ENDBRANCH  11  14
BRANCH  12  24
ATOM     24  C   UNL A   1      34.209  25.598  24.640  1.00  0.00    -0.002 A 
ATOM     25  C   UNL A   1      33.718  26.024  23.411  1.00  0.00     0.013 A 
ATOM     26  C   UNL A   1      34.060  26.362  25.805  1.00  0.00     0.013 A 
ATOM     27  C   UNL A   1      33.058  27.250  23.352  1.00  0.00     0.040 A 
ATOM     28  C   UNL A   1      33.415  27.590  25.732  1.00  0.00     0.040 A 
ATOM     29  C   UNL A   1      32.916  28.020  24.507  1.00  0.00     0.123 A 
ATOM     30  F   UNL A   1      32.278  29.194  24.439  1.00  0.00    -0.207 F 
ENDBRANCH  12  24
ENDBRANCH   7   9
ENDBRANCH   6   7
ENDBRANCH   5   6
ENDBRANCH   3   5
ENDBRANCH   2   3
ENDBRANCH   1   2
BRANCH   1  31
ATOM     31  C   UNL A   1      42.822  18.397  25.736  1.00  0.00     0.275 C 
BRANCH  31  32
ATOM     32  O   UNL A   1      44.185  18.824  25.735  1.00  0.00    -0.458 OA
BRANCH  32  33
ATOM     33  C   UNL A   1      44.668  19.378  24.593  1.00  0.00     0.338 C 
ATOM     34  O   UNL A   1      44.939  18.864  23.524  1.00  0.00    -0.246 OA
BRANCH  33  35
ATOM     35  C   UNL A   1      44.602  20.818  24.819  1.00  0.00     0.060 A 
ATOM     36  C   UNL A   1      44.540  21.714  23.742  1.00  0.00     0.016 A 
ATOM     37  C   UNL A   1      44.523  21.248  26.142  1.00  0.00     0.016 A 
ATOM     38  C   UNL A   1      44.378  23.067  23.995  1.00  0.00     0.010 A 
ATOM     39  C   UNL A   1      44.372  22.589  26.398  1.00  0.00     0.010 A 
ATOM     40  C   UNL A   1      44.336  23.493  25.325  1.00  0.00    -0.014 A 
BRANCH  40  41
ATOM     41  C   UNL A   1      44.528  24.900  25.669  1.00  0.00     0.031 A 
ATOM     42  C   UNL A   1      45.929  25.418  25.600  1.00  0.00     0.074 A 
ATOM     43  C   UNL A   1      43.501  25.607  26.154  1.00  0.00     0.049 A 
ATOM     44  N   UNL A   1      46.413  26.546  26.036  1.00  0.00    -0.248 NA
ATOM     45  C   UNL A   1      46.929  24.518  24.992  1.00  0.00     0.031 C 
ATOM     46  C   UNL A   1      42.115  25.150  26.236  1.00  0.00     0.029 A 
ATOM     47  N   UNL A   1      43.486  26.857  26.701  1.00  0.00    -0.354 N 
ATOM     48  C   UNL A   1      47.775  26.480  25.780  1.00  0.00     0.074 A 
ATOM     49  C   UNL A   1      48.049  25.192  25.189  1.00  0.00     0.031 C 
ATOM     50  C   UNL A   1      41.376  26.114  26.810  1.00  0.00     0.029 A 
ATOM     51  C   UNL A   1      42.252  27.226  27.168  1.00  0.00     0.049 A 
ATOM     52  H   UNL A   1      44.281  27.435  26.752  1.00  0.00     0.167 HD
ATOM     53  C   UNL A   1      48.711  27.425  26.021  1.00  0.00     0.031 A 
ATOM     54  C   UNL A   1      41.898  28.339  27.830  1.00  0.00     0.031 A 
ATOM     55  C   UNL A   1      48.401  28.683  26.640  1.00  0.00     0.049 A 
ATOM     56  C   UNL A   1      42.966  29.358  28.122  1.00  0.00     0.074 A 
ATOM     57  C   UNL A   1      49.242  29.742  26.918  1.00  0.00     0.029 A 
ATOM     58  N   UNL A   1      47.134  29.041  27.088  1.00  0.00    -0.354 N 
ATOM     59  N   UNL A   1      44.248  29.322  27.840  1.00  0.00    -0.248 NA
ATOM     60  C   UNL A   1      42.532  30.579  28.811  1.00  0.00     0.031 C 
ATOM     61  C   UNL A   1      48.496  30.716  27.591  1.00  0.00     0.029 A 
ATOM     62  C   UNL A   1      47.175  30.297  27.661  1.00  0.00     0.049 A 
ATOM     63  H   UNL A   1      46.328  28.481  27.009  1.00  0.00     0.167 HD
ATOM     64  C   UNL A   1      44.768  30.535  28.271  1.00  0.00     0.074 A 
ATOM     65  C   UNL A   1      43.655  31.282  28.830  1.00  0.00     0.031 C 
ATOM     66  C   UNL A   1      46.040  31.001  28.205  1.00  0.00     0.031 A 
BRANCH  53  67
ATOM     67  C   UNL A   1      50.130  27.092  25.662  1.00  0.00    -0.014 A 
ATOM     68  C   UNL A   1      50.641  27.335  24.375  1.00  0.00     0.009 A 
ATOM     69  C   UNL A   1      50.967  26.498  26.618  1.00  0.00     0.009 A 
ATOM     70  C   UNL A   1      51.940  26.946  24.042  1.00  0.00     0.001 A 
ATOM     71  C   UNL A   1      52.277  26.143  26.294  1.00  0.00     0.001 A 
ATOM     72  C   UNL A   1      52.758  26.355  25.003  1.00  0.00     0.000 A 
ENDBRANCH  53  67
BRANCH  54  73
ATOM     73  C   UNL A   1      40.483  28.557  28.217  1.00  0.00    -0.014 A 
ATOM     74  C   UNL A   1      40.007  28.068  29.442  1.00  0.00     0.009 A 
ATOM     75  C   UNL A   1      39.605  29.266  27.382  1.00  0.00     0.009 A 
ATOM     76  C   UNL A   1      38.672  28.255  29.810  1.00  0.00     0.001 A 
ATOM     77  C   UNL A   1      38.280  29.478  27.766  1.00  0.00     0.001 A 
ATOM     78  C   UNL A   1      37.812  28.964  28.975  1.00  0.00     0.000 A 
ENDBRANCH  54  73
BRANCH  66  79
ATOM     79  C   UNL A   1      46.272  32.405  28.690  1.00  0.00    -0.014 A 
ATOM     80  C   UNL A   1      46.112  33.515  27.847  1.00  0.00     0.009 A 
ATOM     81  C   UNL A   1      46.629  32.613  30.032  1.00  0.00     0.009 A 
ATOM     82  C   UNL A   1      46.354  34.803  28.328  1.00  0.00     0.001 A 
ATOM     83  C   UNL A   1      46.830  33.903  30.520  1.00  0.00     0.001 A 
ATOM     84  C   UNL A   1      46.707  34.995  29.664  1.00  0.00     0.000 A 
ENDBRANCH  66  79
ENDBRANCH  40  41
ENDBRANCH  33  35
ENDBRANCH  32  33
ENDBRANCH  31  32
ENDBRANCH   1  31
TORSDOF 16
ENDMDL
