MODEL 1
REMARK VINA RESULT:      -9.6      0.000      0.000
REMARK SMILES CCc1ccc(S(=O)(=O)CC(=O)OCCOC(=O)c2ccc(-c3c4nc(c(-c5ccccc5)c5ccc([nH]5)c(-c5ccccc5)c5nc(c(-c6ccccc6)c6ccc3[nH]6)C=C5)C=C4)cc2)cc1
REMARK SMILES IDX 14 1 13 2 11 3 12 4 10 5 7 6 8 7 9 8 6 9 3 10 4 11 68 12
REMARK SMILES IDX 5 13 67 14 2 15 1 16 15 17 16 18 17 19 18 20 19 21 20 22
REMARK SMILES IDX 66 23 21 24 65 25 22 26 23 27 24 28 59 29 25 30 64 31 58 32
REMARK SMILES IDX 60 33 26 34 63 35 57 36 56 37 27 39 49 40 34 41 48 42 35 43
REMARK SMILES IDX 38 44 47 45 61 46 36 47 37 48 46 50 62 51 39 52 28 53 29 54
REMARK SMILES IDX 33 55 30 56 32 57 31 58 50 59 51 60 55 61 52 62 54 63 53 64
REMARK SMILES IDX 40 65 41 66 45 67 42 68 44 69 43 70
REMARK H PARENT 60 38 38 49
REMARK Flexibility Score: inf
ROOT
ATOM      1  C   UNL A   1      41.877  19.423  26.550  1.00  0.00     0.274 C 
ENDROOT
BRANCH   1   2
ATOM      2  O   UNL A   1      42.476  19.056  25.287  1.00  0.00    -0.461 OA
BRANCH   2   3
ATOM      3  C   UNL A   1      43.804  19.276  25.189  1.00  0.00     0.321 C 
ATOM      4  O   UNL A   1      44.601  18.450  24.747  1.00  0.00    -0.251 OA
BRANCH   3   5
ATOM      5  C   UNL A   1      44.305  20.586  25.670  1.00  0.00     0.264 C 
BRANCH   5   6
ATOM      6  S   UNL A   1      45.107  21.635  24.529  1.00  0.00     0.189 S 
ATOM      7  O   UNL A   1      44.496  21.368  23.237  1.00  0.00    -0.223 OA
ATOM      8  O   UNL A   1      46.541  21.485  24.687  1.00  0.00    -0.223 OA
BRANCH   6   9
ATOM      9  C   UNL A   1      44.675  23.319  24.895  1.00  0.00     0.067 A 
ATOM     10  C   UNL A   1      44.036  26.018  25.310  1.00  0.00    -0.048 A 
ATOM     11  C   UNL A   1      45.368  25.620  25.142  1.00  0.00     0.005 A 
ATOM     12  C   UNL A   1      43.026  25.047  25.246  1.00  0.00     0.005 A 
ATOM     13  C   UNL A   1      45.691  24.277  24.941  1.00  0.00     0.020 A 
ATOM     14  C   UNL A   1      43.340  23.703  25.028  1.00  0.00     0.020 A 
BRANCH  10  15
ATOM     15  C   UNL A   1      43.699  27.474  25.531  1.00  0.00     0.032 C 
ATOM     16  C   UNL A   1      42.239  27.794  25.244  1.00  0.00     0.009 C 
ENDBRANCH  10  15
ENDBRANCH   6   9
ENDBRANCH   5   6
ENDBRANCH   3   5
ENDBRANCH   2   3
ENDBRANCH   1   2
BRANCH   1  17
ATOM     17  C   UNL A   1      40.495  20.039  26.354  1.00  0.00     0.275 C 
BRANCH  17  18
ATOM     18  O   UNL A   1      40.404  21.274  27.086  1.00  0.00    -0.458 OA
BRANCH  18  19
ATOM     19  C   UNL A   1      39.617  22.219  26.528  1.00  0.00     0.338 C 
ATOM     20  O   UNL A   1      38.803  22.067  25.629  1.00  0.00    -0.246 OA
BRANCH  19  21
ATOM     21  C   UNL A   1      39.888  23.532  27.138  1.00  0.00     0.060 A 
ATOM     22  C   UNL A   1      39.293  24.701  26.654  1.00  0.00     0.016 A 
ATOM     23  C   UNL A   1      40.839  23.600  28.157  1.00  0.00     0.016 A 
ATOM     24  C   UNL A   1      39.702  25.941  27.144  1.00  0.00     0.010 A 
ATOM     25  C   UNL A   1      41.189  24.836  28.701  1.00  0.00     0.010 A 
ATOM     26  C   UNL A   1      40.645  26.021  28.180  1.00  0.00    -0.014 A 
BRANCH  26  27
ATOM     27  C   UNL A   1      41.061  27.336  28.734  1.00  0.00     0.031 A 
ATOM     28  C   UNL A   1      40.048  28.422  28.978  1.00  0.00     0.074 A 
ATOM     29  C   UNL A   1      42.362  27.568  28.997  1.00  0.00     0.049 A 
ATOM     30  N   UNL A   1      40.243  29.665  29.343  1.00  0.00    -0.248 NA
ATOM     31  C   UNL A   1      38.633  28.069  28.783  1.00  0.00     0.031 C 
ATOM     32  C   UNL A   1      43.449  26.603  28.823  1.00  0.00     0.029 A 
ATOM     33  N   UNL A   1      42.989  28.695  29.466  1.00  0.00    -0.354 N 
ATOM     34  C   UNL A   1      38.984  30.250  29.390  1.00  0.00     0.074 A 
ATOM     35  C   UNL A   1      38.030  29.229  29.011  1.00  0.00     0.031 C 
ATOM     36  C   UNL A   1      44.604  27.169  29.205  1.00  0.00     0.029 A 
ATOM     37  C   UNL A   1      44.349  28.552  29.590  1.00  0.00     0.049 A 
ATOM     38  H   UNL A   1      42.511  29.524  29.692  1.00  0.00     0.167 HD
ATOM     39  C   UNL A   1      38.651  31.521  29.717  1.00  0.00     0.031 A 
ATOM     40  C   UNL A   1      45.295  29.442  29.943  1.00  0.00     0.031 A 
ATOM     41  C   UNL A   1      39.589  32.539  30.109  1.00  0.00     0.049 A 
ATOM     42  C   UNL A   1      44.905  30.854  30.261  1.00  0.00     0.074 A 
ATOM     43  C   UNL A   1      39.337  33.850  30.476  1.00  0.00     0.029 A 
ATOM     44  N   UNL A   1      40.961  32.360  30.188  1.00  0.00    -0.354 N 
ATOM     45  N   UNL A   1      43.711  31.393  30.280  1.00  0.00    -0.248 NA
ATOM     46  C   UNL A   1      45.995  31.781  30.593  1.00  0.00     0.031 C 
ATOM     47  C   UNL A   1      40.560  34.474  30.744  1.00  0.00     0.029 A 
ATOM     48  C   UNL A   1      41.569  33.541  30.580  1.00  0.00     0.049 A 
ATOM     49  H   UNL A   1      41.432  31.517  29.994  1.00  0.00     0.167 HD
ATOM     50  C   UNL A   1      43.905  32.723  30.628  1.00  0.00     0.074 A 
ATOM     51  C   UNL A   1      45.327  32.903  30.832  1.00  0.00     0.031 C 
ATOM     52  C   UNL A   1      42.985  33.707  30.762  1.00  0.00     0.031 A 
BRANCH  39  53
ATOM     53  C   UNL A   1      37.199  31.897  29.640  1.00  0.00    -0.014 A 
ATOM     54  C   UNL A   1      36.388  31.904  30.783  1.00  0.00     0.009 A 
ATOM     55  C   UNL A   1      36.653  32.304  28.413  1.00  0.00     0.009 A 
ATOM     56  C   UNL A   1      35.048  32.291  30.696  1.00  0.00     0.001 A 
ATOM     57  C   UNL A   1      35.320  32.710  28.331  1.00  0.00     0.001 A 
ATOM     58  C   UNL A   1      34.517  32.698  29.471  1.00  0.00     0.000 A 
ENDBRANCH  39  53
BRANCH  40  59
ATOM     59  C   UNL A   1      46.718  29.024  29.979  1.00  0.00    -0.014 A 
ATOM     60  C   UNL A   1      47.290  28.551  31.168  1.00  0.00     0.009 A 
ATOM     61  C   UNL A   1      47.504  29.080  28.817  1.00  0.00     0.009 A 
ATOM     62  C   UNL A   1      48.627  28.152  31.197  1.00  0.00     0.001 A 
ATOM     63  C   UNL A   1      48.834  28.658  28.843  1.00  0.00     0.001 A 
ATOM     64  C   UNL A   1      49.396  28.200  30.034  1.00  0.00     0.000 A 
ENDBRANCH  40  59
BRANCH  52  65
ATOM     65  C   UNL A   1      43.498  35.061  31.156  1.00  0.00    -0.014 A 
ATOM     66  C   UNL A   1      43.620  35.420  32.507  1.00  0.00     0.009 A 
ATOM     67  C   UNL A   1      43.872  35.982  30.166  1.00  0.00     0.009 A 
ATOM     68  C   UNL A   1      44.078  36.691  32.859  1.00  0.00     0.001 A 
ATOM     69  C   UNL A   1      44.348  37.244  30.522  1.00  0.00     0.001 A 
ATOM     70  C   UNL A   1      44.443  37.600  31.867  1.00  0.00     0.000 A 
ENDBRANCH  52  65
ENDBRANCH  26  27
ENDBRANCH  19  21
ENDBRANCH  18  19
ENDBRANCH  17  18
ENDBRANCH   1  17
TORSDOF 14
ENDMDL
MODEL 2
REMARK VINA RESULT:      -9.4      5.286     10.832
REMARK SMILES CCc1ccc(S(=O)(=O)CC(=O)OCCOC(=O)c2ccc(-c3c4nc(c(-c5ccccc5)c5ccc([nH]5)c(-c5ccccc5)c5nc(c(-c6ccccc6)c6ccc3[nH]6)C=C5)C=C4)cc2)cc1
REMARK SMILES IDX 14 1 13 2 11 3 12 4 10 5 7 6 8 7 9 8 6 9 3 10 4 11 68 12
REMARK SMILES IDX 5 13 67 14 2 15 1 16 15 17 16 18 17 19 18 20 19 21 20 22
REMARK SMILES IDX 66 23 21 24 65 25 22 26 23 27 24 28 59 29 25 30 64 31 58 32
REMARK SMILES IDX 60 33 26 34 63 35 57 36 56 37 27 39 49 40 34 41 48 42 35 43
REMARK SMILES IDX 38 44 47 45 61 46 36 47 37 48 46 50 62 51 39 52 28 53 29 54
REMARK SMILES IDX 33 55 30 56 32 57 31 58 50 59 51 60 55 61 52 62 54 63 53 64
REMARK SMILES IDX 40 65 41 66 45 67 42 68 44 69 43 70
REMARK H PARENT 60 38 38 49
REMARK Flexibility Score: inf
ROOT
ATOM      1  C   UNL A   1      33.642  34.474  28.309  1.00  0.00     0.274 C 
ENDROOT
BRANCH   1   2
ATOM      2  O   UNL A   1      32.555  35.028  29.083  1.00  0.00    -0.461 OA
BRANCH   2   3
ATOM      3  C   UNL A   1      32.915  35.669  30.215  1.00  0.00     0.321 C 
ATOM      4  O   UNL A   1      32.303  36.630  30.679  1.00  0.00    -0.251 OA
BRANCH   3   5
ATOM      5  C   UNL A   1      34.135  35.182  30.902  1.00  0.00     0.264 C 
BRANCH   5   6
ATOM      6  S   UNL A   1      34.058  34.897  32.623  1.00  0.00     0.189 S 
ATOM      7  O   UNL A   1      32.806  34.197  32.860  1.00  0.00    -0.223 OA
ATOM      8  O   UNL A   1      34.321  36.146  33.313  1.00  0.00    -0.223 OA
BRANCH   6   9
ATOM      9  C   UNL A   1      35.322  33.732  33.070  1.00  0.00     0.067 A 
ATOM     10  C   UNL A   1      37.221  31.847  33.911  1.00  0.00    -0.048 A 
ATOM     11  C   UNL A   1      37.009  33.021  34.646  1.00  0.00     0.005 A 
ATOM     12  C   UNL A   1      36.452  31.621  32.760  1.00  0.00     0.005 A 
ATOM     13  C   UNL A   1      36.069  33.964  34.227  1.00  0.00     0.020 A 
ATOM     14  C   UNL A   1      35.497  32.553  32.343  1.00  0.00     0.020 A 
BRANCH  10  15
ATOM     15  C   UNL A   1      38.243  30.836  34.372  1.00  0.00     0.032 C 
ATOM     16  C   UNL A   1      38.367  29.646  33.429  1.00  0.00     0.009 C 
ENDBRANCH  10  15
ENDBRANCH   6   9
ENDBRANCH   5   6
ENDBRANCH   3   5
ENDBRANCH   2   3
ENDBRANCH   1   2
BRANCH   1  17
ATOM     17  C   UNL A   1      33.415  32.997  28.005  1.00  0.00     0.275 C 
BRANCH  17  18
ATOM     18  O   UNL A   1      34.567  32.235  28.407  1.00  0.00    -0.458 OA
BRANCH  18  19
ATOM     19  C   UNL A   1      34.576  30.946  28.004  1.00  0.00     0.338 C 
ATOM     20  O   UNL A   1      33.669  30.335  27.461  1.00  0.00    -0.246 OA
BRANCH  19  21
ATOM     21  C   UNL A   1      35.866  30.318  28.340  1.00  0.00     0.060 A 
ATOM     22  C   UNL A   1      36.103  29.766  29.602  1.00  0.00     0.016 A 
ATOM     23  C   UNL A   1      36.892  30.375  27.396  1.00  0.00     0.016 A 
ATOM     24  C   UNL A   1      37.386  29.333  29.941  1.00  0.00     0.010 A 
ATOM     25  C   UNL A   1      38.154  29.870  27.709  1.00  0.00     0.010 A 
ATOM     26  C   UNL A   1      38.422  29.371  28.994  1.00  0.00    -0.014 A 
BRANCH  26  27
ATOM     27  C   UNL A   1      39.783  28.880  29.332  1.00  0.00     0.031 A 
ATOM     28  C   UNL A   1      40.744  29.746  30.101  1.00  0.00     0.074 A 
ATOM     29  C   UNL A   1      40.171  27.656  28.923  1.00  0.00     0.049 A 
ATOM     30  N   UNL A   1      42.005  29.532  30.382  1.00  0.00    -0.248 NA
ATOM     31  C   UNL A   1      40.222  31.022  30.619  1.00  0.00     0.031 C 
ATOM     32  C   UNL A   1      39.341  26.704  28.183  1.00  0.00     0.029 A 
ATOM     33  N   UNL A   1      41.371  27.005  29.074  1.00  0.00    -0.354 N 
ATOM     34  C   UNL A   1      42.435  30.654  31.079  1.00  0.00     0.074 A 
ATOM     35  C   UNL A   1      41.304  31.552  31.174  1.00  0.00     0.031 C 
ATOM     36  C   UNL A   1      40.045  25.583  27.968  1.00  0.00     0.029 A 
ATOM     37  C   UNL A   1      41.393  25.760  28.497  1.00  0.00     0.049 A 
ATOM     38  H   UNL A   1      42.140  27.394  29.549  1.00  0.00     0.167 HD
ATOM     39  C   UNL A   1      43.662  30.915  31.591  1.00  0.00     0.031 A 
ATOM     40  C   UNL A   1      42.393  24.868  28.375  1.00  0.00     0.031 A 
ATOM     41  C   UNL A   1      44.789  30.024  31.514  1.00  0.00     0.049 A 
ATOM     42  C   UNL A   1      43.752  25.198  28.916  1.00  0.00     0.074 A 
ATOM     43  C   UNL A   1      46.064  30.201  32.022  1.00  0.00     0.029 A 
ATOM     44  N   UNL A   1      44.776  28.787  30.891  1.00  0.00    -0.354 N 
ATOM     45  N   UNL A   1      44.145  26.273  29.553  1.00  0.00    -0.248 NA
ATOM     46  C   UNL A   1      44.807  24.197  28.707  1.00  0.00     0.031 C 
ATOM     47  C   UNL A   1      46.833  29.084  31.677  1.00  0.00     0.029 A 
ATOM     48  C   UNL A   1      46.025  28.197  30.986  1.00  0.00     0.049 A 
ATOM     49  H   UNL A   1      43.993  28.387  30.446  1.00  0.00     0.167 HD
ATOM     50  C   UNL A   1      45.492  26.077  29.824  1.00  0.00     0.074 A 
ATOM     51  C   UNL A   1      45.843  24.773  29.301  1.00  0.00     0.031 C 
ATOM     52  C   UNL A   1      46.362  26.908  30.447  1.00  0.00     0.031 A 
BRANCH  39  53
ATOM     53  C   UNL A   1      43.861  32.242  32.265  1.00  0.00    -0.014 A 
ATOM     54  C   UNL A   1      43.706  32.383  33.651  1.00  0.00     0.009 A 
ATOM     55  C   UNL A   1      44.264  33.352  31.506  1.00  0.00     0.009 A 
ATOM     56  C   UNL A   1      43.932  33.619  34.264  1.00  0.00     0.001 A 
ATOM     57  C   UNL A   1      44.507  34.580  32.123  1.00  0.00     0.001 A 
ATOM     58  C   UNL A   1      44.336  34.714  33.500  1.00  0.00     0.000 A 
ENDBRANCH  39  53
BRANCH  40  59
ATOM     59  C   UNL A   1      42.148  23.582  27.677  1.00  0.00    -0.014 A 
ATOM     60  C   UNL A   1      41.552  22.508  28.354  1.00  0.00     0.009 A 
ATOM     61  C   UNL A   1      42.495  23.430  26.325  1.00  0.00     0.009 A 
ATOM     62  C   UNL A   1      41.316  21.302  27.692  1.00  0.00     0.001 A 
ATOM     63  C   UNL A   1      42.237  22.231  25.661  1.00  0.00     0.001 A 
ATOM     64  C   UNL A   1      41.653  21.167  26.345  1.00  0.00     0.000 A 
ENDBRANCH  40  59
BRANCH  52  65
ATOM     65  C   UNL A   1      47.771  26.418  30.600  1.00  0.00    -0.014 A 
ATOM     66  C   UNL A   1      48.175  25.735  31.757  1.00  0.00     0.009 A 
ATOM     67  C   UNL A   1      48.702  26.633  29.572  1.00  0.00     0.009 A 
ATOM     68  C   UNL A   1      49.495  25.304  31.896  1.00  0.00     0.001 A 
ATOM     69  C   UNL A   1      50.016  26.183  29.706  1.00  0.00     0.001 A 
ATOM     70  C   UNL A   1      50.413  25.527  30.870  1.00  0.00     0.000 A 
ENDBRANCH  52  65
ENDBRANCH  26  27
ENDBRANCH  19  21
ENDBRANCH  18  19
ENDBRANCH  17  18
ENDBRANCH   1  17
TORSDOF 14
ENDMDL
MODEL 3
REMARK VINA RESULT:      -9.3      5.144     10.371
REMARK SMILES CCc1ccc(S(=O)(=O)CC(=O)OCCOC(=O)c2ccc(-c3c4nc(c(-c5ccccc5)c5ccc([nH]5)c(-c5ccccc5)c5nc(c(-c6ccccc6)c6ccc3[nH]6)C=C5)C=C4)cc2)cc1
REMARK SMILES IDX 14 1 13 2 11 3 12 4 10 5 7 6 8 7 9 8 6 9 3 10 4 11 68 12
REMARK SMILES IDX 5 13 67 14 2 15 1 16 15 17 16 18 17 19 18 20 19 21 20 22
REMARK SMILES IDX 66 23 21 24 65 25 22 26 23 27 24 28 59 29 25 30 64 31 58 32
REMARK SMILES IDX 60 33 26 34 63 35 57 36 56 37 27 39 49 40 34 41 48 42 35 43
REMARK SMILES IDX 38 44 47 45 61 46 36 47 37 48 46 50 62 51 39 52 28 53 29 54
REMARK SMILES IDX 33 55 30 56 32 57 31 58 50 59 51 60 55 61 52 62 54 63 53 64
REMARK SMILES IDX 40 65 41 66 45 67 42 68 44 69 43 70
REMARK H PARENT 60 38 38 49
REMARK Flexibility Score: inf
ROOT
ATOM      1  C   UNL A   1      33.358  34.301  28.624  1.00  0.00     0.274 C 
ENDROOT
BRANCH   1   2
ATOM      2  O   UNL A   1      34.056  34.980  29.691  1.00  0.00    -0.461 OA
BRANCH   2   3
ATOM      3  C   UNL A   1      33.364  35.118  30.842  1.00  0.00     0.321 C 
ATOM      4  O   UNL A   1      32.163  35.378  30.889  1.00  0.00    -0.251 OA
BRANCH   3   5
ATOM      5  C   UNL A   1      34.126  34.965  32.105  1.00  0.00     0.264 C 
BRANCH   5   6
ATOM      6  S   UNL A   1      35.120  33.544  32.306  1.00  0.00     0.189 S 
ATOM      7  O   UNL A   1      34.492  32.497  31.516  1.00  0.00    -0.223 OA
ATOM      8  O   UNL A   1      35.348  33.332  33.723  1.00  0.00    -0.223 OA
BRANCH   6   9
ATOM      9  C   UNL A   1      36.689  33.825  31.521  1.00  0.00     0.067 A 
ATOM     10  C   UNL A   1      39.233  34.149  30.386  1.00  0.00    -0.048 A 
ATOM     11  C   UNL A   1      38.975  34.587  31.692  1.00  0.00     0.005 A 
ATOM     12  C   UNL A   1      38.205  33.526  29.665  1.00  0.00     0.005 A 
ATOM     13  C   UNL A   1      37.708  34.433  32.257  1.00  0.00     0.020 A 
ATOM     14  C   UNL A   1      36.938  33.353  30.231  1.00  0.00     0.020 A 
BRANCH  10  15
ATOM     15  C   UNL A   1      40.607  34.325  29.784  1.00  0.00     0.032 C 
ATOM     16  C   UNL A   1      41.718  34.295  30.824  1.00  0.00     0.009 C 
ENDBRANCH  10  15
ENDBRANCH   6   9
ENDBRANCH   5   6
ENDBRANCH   3   5
ENDBRANCH   2   3
ENDBRANCH   1   2
BRANCH   1  17
ATOM     17  C   UNL A   1      34.247  33.265  27.946  1.00  0.00     0.275 C 
BRANCH  17  18
ATOM     18  O   UNL A   1      33.965  31.958  28.478  1.00  0.00    -0.458 OA
BRANCH  18  19
ATOM     19  C   UNL A   1      34.452  30.924  27.758  1.00  0.00     0.338 C 
ATOM     20  O   UNL A   1      33.917  30.362  26.815  1.00  0.00    -0.246 OA
BRANCH  19  21
ATOM     21  C   UNL A   1      35.761  30.508  28.290  1.00  0.00     0.060 A 
ATOM     22  C   UNL A   1      36.937  30.675  27.553  1.00  0.00     0.016 A 
ATOM     23  C   UNL A   1      35.792  29.843  29.517  1.00  0.00     0.016 A 
ATOM     24  C   UNL A   1      38.131  30.118  28.013  1.00  0.00     0.010 A 
ATOM     25  C   UNL A   1      37.001  29.354  30.013  1.00  0.00     0.010 A 
ATOM     26  C   UNL A   1      38.177  29.461  29.253  1.00  0.00    -0.014 A 
BRANCH  26  27
ATOM     27  C   UNL A   1      39.450  28.895  29.770  1.00  0.00     0.031 A 
ATOM     28  C   UNL A   1      40.208  29.585  30.872  1.00  0.00     0.074 A 
ATOM     29  C   UNL A   1      39.945  27.764  29.229  1.00  0.00     0.049 A 
ATOM     30  N   UNL A   1      41.388  29.303  31.365  1.00  0.00    -0.248 NA
ATOM     31  C   UNL A   1      39.558  30.748  31.499  1.00  0.00     0.031 C 
ATOM     32  C   UNL A   1      39.311  26.982  28.166  1.00  0.00     0.029 A 
ATOM     33  N   UNL A   1      41.103  27.079  29.502  1.00  0.00    -0.354 N 
ATOM     34  C   UNL A   1      41.636  30.266  32.334  1.00  0.00     0.074 A 
ATOM     35  C   UNL A   1      40.488  31.147  32.357  1.00  0.00     0.031 C 
ATOM     36  C   UNL A   1      40.072  25.911  27.896  1.00  0.00     0.029 A 
ATOM     37  C   UNL A   1      41.275  25.964  28.719  1.00  0.00     0.049 A 
ATOM     38  H   UNL A   1      41.746  27.359  30.191  1.00  0.00     0.167 HD
ATOM     39  C   UNL A   1      42.722  30.408  33.131  1.00  0.00     0.031 A 
ATOM     40  C   UNL A   1      42.301  25.096  28.643  1.00  0.00     0.031 A 
ATOM     41  C   UNL A   1      43.863  29.530  33.124  1.00  0.00     0.049 A 
ATOM     42  C   UNL A   1      43.509  25.298  29.508  1.00  0.00     0.074 A 
ATOM     43  C   UNL A   1      45.000  29.588  33.912  1.00  0.00     0.029 A 
ATOM     44  N   UNL A   1      44.010  28.433  32.291  1.00  0.00    -0.354 N 
ATOM     45  N   UNL A   1      43.734  26.227  30.403  1.00  0.00    -0.248 NA
ATOM     46  C   UNL A   1      44.609  24.338  29.339  1.00  0.00     0.031 C 
ATOM     47  C   UNL A   1      45.851  28.545  33.531  1.00  0.00     0.029 A 
ATOM     48  C   UNL A   1      45.227  27.817  32.533  1.00  0.00     0.049 A 
ATOM     49  H   UNL A   1      43.347  28.136  31.626  1.00  0.00     0.167 HD
ATOM     50  C   UNL A   1      45.000  25.963  30.908  1.00  0.00     0.074 A 
ATOM     51  C   UNL A   1      45.484  24.776  30.235  1.00  0.00     0.031 C 
ATOM     52  C   UNL A   1      45.700  26.648  31.843  1.00  0.00     0.031 A 
BRANCH  39  53
ATOM     53  C   UNL A   1      42.745  31.580  34.068  1.00  0.00    -0.014 A 
ATOM     54  C   UNL A   1      42.155  31.506  35.338  1.00  0.00     0.009 A 
ATOM     55  C   UNL A   1      43.414  32.755  33.694  1.00  0.00     0.009 A 
ATOM     56  C   UNL A   1      42.218  32.596  36.210  1.00  0.00     0.001 A 
ATOM     57  C   UNL A   1      43.492  33.836  34.573  1.00  0.00     0.001 A 
ATOM     58  C   UNL A   1      42.890  33.758  35.828  1.00  0.00     0.000 A 
ENDBRANCH  39  53
BRANCH  40  59
ATOM     59  C   UNL A   1      42.238  23.969  27.681  1.00  0.00    -0.014 A 
ATOM     60  C   UNL A   1      41.666  22.745  28.056  1.00  0.00     0.009 A 
ATOM     61  C   UNL A   1      42.736  24.121  26.377  1.00  0.00     0.009 A 
ATOM     62  C   UNL A   1      41.603  21.689  27.145  1.00  0.00     0.001 A 
ATOM     63  C   UNL A   1      42.650  23.071  25.462  1.00  0.00     0.001 A 
ATOM     64  C   UNL A   1      42.088  21.855  25.848  1.00  0.00     0.000 A 
ENDBRANCH  40  59
BRANCH  52  65
ATOM     65  C   UNL A   1      47.059  26.117  32.193  1.00  0.00    -0.014 A 
ATOM     66  C   UNL A   1      48.183  26.455  31.424  1.00  0.00     0.009 A 
ATOM     67  C   UNL A   1      47.218  25.280  33.307  1.00  0.00     0.009 A 
ATOM     68  C   UNL A   1      49.438  25.936  31.747  1.00  0.00     0.001 A 
ATOM     69  C   UNL A   1      48.478  24.780  33.639  1.00  0.00     0.001 A 
ATOM     70  C   UNL A   1      49.584  25.102  32.855  1.00  0.00     0.000 A 
ENDBRANCH  52  65
ENDBRANCH  26  27
ENDBRANCH  19  21
ENDBRANCH  18  19
ENDBRANCH  17  18
ENDBRANCH   1  17
TORSDOF 14
ENDMDL
