MODEL 1
REMARK VINA RESULT:      -9.9      0.000      0.000
REMARK SMILES CCNC(=O)c1ccc(N[C@@H]2COC[C@@]2(C)C(=O)OCCOC(=O)c2ccc(-c3c4nc(c(-c5ccccc5)c5ccc([nH]5)c(-c5ccccc5)c5nc(c(-c6ccccc6)c6ccc3[nH]6)C=C5)C=C4)cc2)nn1
REMARK SMILES IDX 20 1 19 2 17 3 18 4 15 5 11 6 12 7 13 8 14 9 16 10 10 11
REMARK SMILES IDX 9 13 6 14 7 15 74 16 8 17 73 18 4 19 3 20 5 22 2 23 1 24
REMARK SMILES IDX 21 25 22 26 23 27 24 28 25 29 26 30 72 31 27 32 71 33 28 34
REMARK SMILES IDX 29 35 30 36 65 37 31 38 70 39 64 40 66 41 32 42 69 43 63 44
REMARK SMILES IDX 62 45 33 47 55 48 40 49 54 50 41 51 44 52 53 53 67 54 42 55
REMARK SMILES IDX 43 56 52 58 68 59 45 60 34 61 35 62 39 63 36 64 38 65 37 66
REMARK SMILES IDX 56 67 57 68 61 69 58 70 60 71 59 72 46 73 47 74 51 75 48 76
REMARK SMILES IDX 50 77 49 78
REMARK H PARENT 10 12 3 21 66 46 44 57
REMARK Flexibility Score: inf
ROOT
ATOM      1  C   UNL A   1      41.182  19.939  26.514  1.00  0.00     0.274 C 
ENDROOT
BRANCH   1   2
ATOM      2  O   UNL A   1      42.316  20.125  25.636  1.00  0.00    -0.462 OA
BRANCH   2   3
ATOM      3  C   UNL A   1      43.083  19.029  25.392  1.00  0.00     0.316 C 
ATOM      4  O   UNL A   1      42.731  17.886  25.661  1.00  0.00    -0.251 OA
BRANCH   3   5
ATOM      5  C   UNL A   1      44.453  19.362  24.808  1.00  0.00     0.111 C 
ATOM      6  C   UNL A   1      44.905  20.763  25.218  1.00  0.00     0.126 C 
ATOM      7  C   UNL A   1      46.411  20.730  25.025  1.00  0.00     0.186 C 
ATOM      8  O   UNL A   1      46.809  19.363  25.227  1.00  0.00    -0.378 OA
ATOM      9  C   UNL A   1      45.618  18.571  25.414  1.00  0.00     0.181 C 
ATOM     10  C   UNL A   1      44.415  19.081  23.297  1.00  0.00     0.028 C 
BRANCH   6  11
ATOM     11  N   UNL A   1      44.234  21.926  24.665  1.00  0.00    -0.362 N 
ATOM     12  H   UNL A   1      43.604  21.764  23.925  1.00  0.00     0.162 HD
BRANCH  11  13
ATOM     13  C   UNL A   1      44.386  23.232  25.069  1.00  0.00     0.149 A 
ATOM     14  C   UNL A   1      44.968  25.690  26.078  1.00  0.00     0.150 A 
ATOM     15  C   UNL A   1      44.146  24.867  26.819  1.00  0.00     0.040 A 
ATOM     16  N   UNL A   1      45.461  25.333  24.874  1.00  0.00    -0.143 NA
ATOM     17  C   UNL A   1      43.871  23.608  26.305  1.00  0.00     0.051 A 
ATOM     18  N   UNL A   1      45.161  24.084  24.369  1.00  0.00    -0.132 NA
BRANCH  14  19
ATOM     19  C   UNL A   1      45.371  27.003  26.622  1.00  0.00     0.271 C 
ATOM     20  N   UNL A   1      44.587  28.105  26.360  1.00  0.00    -0.351 N 
ATOM     21  H   UNL A   1      44.973  28.975  26.612  1.00  0.00     0.163 HD
ATOM     22  O   UNL A   1      46.420  27.122  27.250  1.00  0.00    -0.267 OA
BRANCH  20  23
ATOM     23  C   UNL A   1      43.265  28.150  25.759  1.00  0.00     0.113 C 
ATOM     24  C   UNL A   1      42.476  29.339  26.271  1.00  0.00     0.027 C 
ENDBRANCH  20  23
ENDBRANCH  14  19
ENDBRANCH  11  13
ENDBRANCH   6  11
ENDBRANCH   3   5
ENDBRANCH   2   3
ENDBRANCH   1   2
BRANCH   1  25
ATOM     25  C   UNL A   1      40.607  21.252  27.054  1.00  0.00     0.275 C 
BRANCH  25  26
ATOM     26  O   UNL A   1      40.245  22.144  25.982  1.00  0.00    -0.458 OA
BRANCH  26  27
ATOM     27  C   UNL A   1      39.183  22.940  26.224  1.00  0.00     0.338 C 
ATOM     28  O   UNL A   1      37.997  22.646  26.128  1.00  0.00    -0.246 OA
BRANCH  27  29
ATOM     29  C   UNL A   1      39.631  24.183  26.866  1.00  0.00     0.060 A 
ATOM     30  C   UNL A   1      39.215  24.359  28.181  1.00  0.00     0.016 A 
ATOM     31  C   UNL A   1      40.357  25.185  26.223  1.00  0.00     0.016 A 
ATOM     32  C   UNL A   1      39.525  25.516  28.879  1.00  0.00     0.010 A 
ATOM     33  C   UNL A   1      40.667  26.365  26.923  1.00  0.00     0.010 A 
ATOM     34  C   UNL A   1      40.254  26.531  28.258  1.00  0.00    -0.014 A 
BRANCH  34  35
ATOM     35  C   UNL A   1      40.488  27.769  29.037  1.00  0.00     0.031 A 
ATOM     36  C   UNL A   1      41.845  28.024  29.624  1.00  0.00     0.074 A 
ATOM     37  C   UNL A   1      39.556  28.742  29.055  1.00  0.00     0.049 A 
ATOM     38  N   UNL A   1      42.269  29.057  30.304  1.00  0.00    -0.248 NA
ATOM     39  C   UNL A   1      42.868  26.993  29.385  1.00  0.00     0.031 C 
ATOM     40  C   UNL A   1      38.259  28.680  28.381  1.00  0.00     0.029 A 
ATOM     41  N   UNL A   1      39.577  29.991  29.626  1.00  0.00    -0.354 N 
ATOM     42  C   UNL A   1      43.601  28.794  30.593  1.00  0.00     0.074 A 
ATOM     43  C   UNL A   1      43.922  27.515  29.996  1.00  0.00     0.031 C 
ATOM     44  C   UNL A   1      37.622  29.852  28.553  1.00  0.00     0.029 A 
ATOM     45  C   UNL A   1      38.437  30.723  29.395  1.00  0.00     0.049 A 
ATOM     46  H   UNL A   1      40.338  30.329  30.151  1.00  0.00     0.167 HD
ATOM     47  C   UNL A   1      44.473  29.541  31.311  1.00  0.00     0.031 A 
ATOM     48  C   UNL A   1      38.085  31.947  29.837  1.00  0.00     0.031 A 
ATOM     49  C   UNL A   1      44.147  30.796  31.932  1.00  0.00     0.049 A 
ATOM     50  C   UNL A   1      39.028  32.696  30.742  1.00  0.00     0.074 A 
ATOM     51  C   UNL A   1      44.928  31.574  32.770  1.00  0.00     0.029 A 
ATOM     52  N   UNL A   1      42.939  31.456  31.780  1.00  0.00    -0.354 N 
ATOM     53  N   UNL A   1      40.258  32.399  31.083  1.00  0.00    -0.248 NA
ATOM     54  C   UNL A   1      38.521  33.940  31.341  1.00  0.00     0.031 C 
ATOM     55  C   UNL A   1      44.171  32.684  33.161  1.00  0.00     0.029 A 
ATOM     56  C   UNL A   1      42.942  32.621  32.527  1.00  0.00     0.049 A 
ATOM     57  H   UNL A   1      42.191  31.144  31.223  1.00  0.00     0.167 HD
ATOM     58  C   UNL A   1      40.671  33.415  31.937  1.00  0.00     0.074 A 
ATOM     59  C   UNL A   1      39.575  34.358  32.027  1.00  0.00     0.031 C 
ATOM     60  C   UNL A   1      41.843  33.547  32.603  1.00  0.00     0.031 A 
BRANCH  47  61
ATOM     61  C   UNL A   1      45.835  28.959  31.543  1.00  0.00    -0.014 A 
ATOM     62  C   UNL A   1      46.905  29.222  30.676  1.00  0.00     0.009 A 
ATOM     63  C   UNL A   1      46.045  28.133  32.658  1.00  0.00     0.009 A 
ATOM     64  C   UNL A   1      48.155  28.644  30.908  1.00  0.00     0.001 A 
ATOM     65  C   UNL A   1      47.300  27.573  32.898  1.00  0.00     0.001 A 
ATOM     66  C   UNL A   1      48.352  27.823  32.018  1.00  0.00     0.000 A 
ENDBRANCH  47  61
BRANCH  48  67
ATOM     67  C   UNL A   1      36.762  32.534  29.486  1.00  0.00    -0.014 A 
ATOM     68  C   UNL A   1      36.601  33.295  28.318  1.00  0.00     0.009 A 
ATOM     69  C   UNL A   1      35.662  32.378  30.344  1.00  0.00     0.009 A 
ATOM     70  C   UNL A   1      35.371  33.888  28.017  1.00  0.00     0.001 A 
ATOM     71  C   UNL A   1      34.429  32.954  30.032  1.00  0.00     0.001 A 
ATOM     72  C   UNL A   1      34.285  33.712  28.872  1.00  0.00     0.000 A 
ENDBRANCH  48  67
BRANCH  60  73
ATOM     73  C   UNL A   1      42.001  34.755  33.481  1.00  0.00    -0.014 A 
ATOM     74  C   UNL A   1      41.474  34.774  34.783  1.00  0.00     0.009 A 
ATOM     75  C   UNL A   1      42.721  35.867  33.021  1.00  0.00     0.009 A 
ATOM     76  C   UNL A   1      41.643  35.896  35.595  1.00  0.00     0.001 A 
ATOM     77  C   UNL A   1      42.910  36.977  33.845  1.00  0.00     0.001 A 
ATOM     78  C   UNL A   1      42.364  36.994  35.128  1.00  0.00     0.000 A 
ENDBRANCH  60  73
ENDBRANCH  34  35
ENDBRANCH  27  29
ENDBRANCH  26  27
ENDBRANCH  25  26
ENDBRANCH   1  25
TORSDOF 15
ENDMDL
MODEL 2
REMARK VINA RESULT:      -9.6      6.016     11.566
REMARK SMILES CCNC(=O)c1ccc(N[C@@H]2COC[C@@]2(C)C(=O)OCCOC(=O)c2ccc(-c3c4nc(c(-c5ccccc5)c5ccc([nH]5)c(-c5ccccc5)c5nc(c(-c6ccccc6)c6ccc3[nH]6)C=C5)C=C4)cc2)nn1
REMARK SMILES IDX 20 1 19 2 17 3 18 4 15 5 11 6 12 7 13 8 14 9 16 10 10 11
REMARK SMILES IDX 9 13 6 14 7 15 74 16 8 17 73 18 4 19 3 20 5 22 2 23 1 24
REMARK SMILES IDX 21 25 22 26 23 27 24 28 25 29 26 30 72 31 27 32 71 33 28 34
REMARK SMILES IDX 29 35 30 36 65 37 31 38 70 39 64 40 66 41 32 42 69 43 63 44
REMARK SMILES IDX 62 45 33 47 55 48 40 49 54 50 41 51 44 52 53 53 67 54 42 55
REMARK SMILES IDX 43 56 52 58 68 59 45 60 34 61 35 62 39 63 36 64 38 65 37 66
REMARK SMILES IDX 56 67 57 68 61 69 58 70 60 71 59 72 46 73 47 74 51 75 48 76
REMARK SMILES IDX 50 77 49 78
REMARK H PARENT 10 12 3 21 66 46 44 57
REMARK Flexibility Score: inf
ROOT
ATOM      1  C   UNL A   1      32.938  35.704  28.803  1.00  0.00     0.274 C 
ENDROOT
BRANCH   1   2
ATOM      2  O   UNL A   1      32.542  34.321  28.946  1.00  0.00    -0.462 OA
BRANCH   2   3
ATOM      3  C   UNL A   1      33.014  33.451  28.013  1.00  0.00     0.316 C 
ATOM      4  O   UNL A   1      32.440  33.222  26.954  1.00  0.00    -0.251 OA
BRANCH   3   5
ATOM      5  C   UNL A   1      34.296  32.741  28.436  1.00  0.00     0.111 C 
ATOM      6  C   UNL A   1      34.498  31.445  27.651  1.00  0.00     0.126 C 
ATOM      7  C   UNL A   1      35.984  31.163  27.791  1.00  0.00     0.186 C 
ATOM      8  O   UNL A   1      36.620  32.444  27.946  1.00  0.00    -0.378 OA
ATOM      9  C   UNL A   1      35.589  33.451  28.021  1.00  0.00     0.181 C 
ATOM     10  C   UNL A   1      34.291  32.608  29.968  1.00  0.00     0.028 C 
BRANCH   6  11
ATOM     11  N   UNL A   1      33.625  30.311  27.899  1.00  0.00    -0.362 N 
ATOM     12  H   UNL A   1      33.450  30.086  28.842  1.00  0.00     0.162 HD
BRANCH  11  13
ATOM     13  C   UNL A   1      33.018  29.520  26.953  1.00  0.00     0.149 A 
ATOM     14  C   UNL A   1      31.535  28.197  25.095  1.00  0.00     0.150 A 
ATOM     15  C   UNL A   1      31.278  27.942  26.426  1.00  0.00     0.040 A 
ATOM     16  N   UNL A   1      32.503  29.046  24.691  1.00  0.00    -0.143 NA
ATOM     17  C   UNL A   1      32.026  28.636  27.366  1.00  0.00     0.051 A 
ATOM     18  N   UNL A   1      33.251  29.713  25.640  1.00  0.00    -0.132 NA
BRANCH  14  19
ATOM     19  C   UNL A   1      30.704  27.560  24.053  1.00  0.00     0.271 C 
ATOM     20  N   UNL A   1      29.770  28.319  23.384  1.00  0.00    -0.351 N 
ATOM     21  H   UNL A   1      29.142  27.821  22.813  1.00  0.00     0.163 HD
ATOM     22  O   UNL A   1      30.804  26.357  23.826  1.00  0.00    -0.267 OA
BRANCH  20  23
ATOM     23  C   UNL A   1      29.590  29.761  23.413  1.00  0.00     0.113 C 
ATOM     24  C   UNL A   1      28.143  30.133  23.153  1.00  0.00     0.027 C 
ENDBRANCH  20  23
ENDBRANCH  14  19
ENDBRANCH  11  13
ENDBRANCH   6  11
ENDBRANCH   3   5
ENDBRANCH   2   3
ENDBRANCH   1   2
BRANCH   1  25
ATOM     25  C   UNL A   1      32.913  36.485  30.120  1.00  0.00     0.275 C 
BRANCH  25  26
ATOM     26  O   UNL A   1      32.396  35.678  31.196  1.00  0.00    -0.458 OA
BRANCH  26  27
ATOM     27  C   UNL A   1      32.802  36.031  32.433  1.00  0.00     0.338 C 
ATOM     28  O   UNL A   1      32.234  36.783  33.216  1.00  0.00    -0.246 OA
BRANCH  27  29
ATOM     29  C   UNL A   1      33.937  35.190  32.840  1.00  0.00     0.060 A 
ATOM     30  C   UNL A   1      35.195  35.749  32.643  1.00  0.00     0.016 A 
ATOM     31  C   UNL A   1      33.818  33.887  33.322  1.00  0.00     0.016 A 
ATOM     32  C   UNL A   1      36.346  35.034  32.935  1.00  0.00     0.010 A 
ATOM     33  C   UNL A   1      34.983  33.155  33.613  1.00  0.00     0.010 A 
ATOM     34  C   UNL A   1      36.253  33.730  33.423  1.00  0.00    -0.014 A 
BRANCH  34  35
ATOM     35  C   UNL A   1      37.522  32.999  33.646  1.00  0.00     0.031 A 
ATOM     36  C   UNL A   1      38.232  33.140  34.960  1.00  0.00     0.074 A 
ATOM     37  C   UNL A   1      37.933  32.073  32.757  1.00  0.00     0.049 A 
ATOM     38  N   UNL A   1      39.330  32.560  35.371  1.00  0.00    -0.248 NA
ATOM     39  C   UNL A   1      37.602  34.023  35.955  1.00  0.00     0.031 C 
ATOM     40  C   UNL A   1      37.238  31.727  31.517  1.00  0.00     0.029 A 
ATOM     41  N   UNL A   1      39.011  31.223  32.785  1.00  0.00    -0.354 N 
ATOM     42  C   UNL A   1      39.536  33.023  36.664  1.00  0.00     0.074 A 
ATOM     43  C   UNL A   1      38.439  33.914  36.977  1.00  0.00     0.031 C 
ATOM     44  C   UNL A   1      37.892  30.716  30.918  1.00  0.00     0.029 A 
ATOM     45  C   UNL A   1      39.080  30.383  31.699  1.00  0.00     0.049 A 
ATOM     46  H   UNL A   1      39.672  31.217  33.515  1.00  0.00     0.167 HD
ATOM     47  C   UNL A   1      40.561  32.749  37.506  1.00  0.00     0.031 A 
ATOM     48  C   UNL A   1      40.013  29.468  31.365  1.00  0.00     0.031 A 
ATOM     49  C   UNL A   1      41.667  31.890  37.184  1.00  0.00     0.049 A 
ATOM     50  C   UNL A   1      41.209  29.282  32.263  1.00  0.00     0.074 A 
ATOM     51  C   UNL A   1      42.808  31.636  37.926  1.00  0.00     0.029 A 
ATOM     52  N   UNL A   1      41.770  31.145  36.021  1.00  0.00    -0.354 N 
ATOM     53  N   UNL A   1      41.440  29.792  33.447  1.00  0.00    -0.248 NA
ATOM     54  C   UNL A   1      42.281  28.410  31.762  1.00  0.00     0.031 C 
ATOM     55  C   UNL A   1      43.622  30.769  37.188  1.00  0.00     0.029 A 
ATOM     56  C   UNL A   1      42.966  30.448  36.013  1.00  0.00     0.049 A 
ATOM     57  H   UNL A   1      41.093  31.115  35.308  1.00  0.00     0.167 HD
ATOM     58  C   UNL A   1      42.684  29.306  33.832  1.00  0.00     0.074 A 
ATOM     59  C   UNL A   1      43.136  28.426  32.774  1.00  0.00     0.031 C 
ATOM     60  C   UNL A   1      43.398  29.577  34.951  1.00  0.00     0.031 A 
BRANCH  47  61
ATOM     61  C   UNL A   1      40.573  33.473  38.818  1.00  0.00    -0.014 A 
ATOM     62  C   UNL A   1      39.975  32.928  39.964  1.00  0.00     0.009 A 
ATOM     63  C   UNL A   1      41.200  34.725  38.903  1.00  0.00     0.009 A 
ATOM     64  C   UNL A   1      39.984  33.640  41.166  1.00  0.00     0.001 A 
ATOM     65  C   UNL A   1      41.224  35.425  40.110  1.00  0.00     0.001 A 
ATOM     66  C   UNL A   1      40.609  34.885  41.238  1.00  0.00     0.000 A 
ENDBRANCH  47  61
BRANCH  48  67
ATOM     67  C   UNL A   1      39.899  28.690  30.101  1.00  0.00    -0.014 A 
ATOM     68  C   UNL A   1      39.404  27.376  30.108  1.00  0.00     0.009 A 
ATOM     69  C   UNL A   1      40.333  29.238  28.883  1.00  0.00     0.009 A 
ATOM     70  C   UNL A   1      39.346  26.629  28.928  1.00  0.00     0.001 A 
ATOM     71  C   UNL A   1      40.257  28.498  27.702  1.00  0.00     0.001 A 
ATOM     72  C   UNL A   1      39.768  27.193  27.725  1.00  0.00     0.000 A 
ENDBRANCH  48  67
BRANCH  60  73
ATOM     73  C   UNL A   1      44.737  28.912  35.089  1.00  0.00    -0.014 A 
ATOM     74  C   UNL A   1      44.856  27.647  35.688  1.00  0.00     0.009 A 
ATOM     75  C   UNL A   1      45.885  29.532  34.574  1.00  0.00     0.009 A 
ATOM     76  C   UNL A   1      46.103  27.031  35.794  1.00  0.00     0.001 A 
ATOM     77  C   UNL A   1      47.127  28.902  34.659  1.00  0.00     0.001 A 
ATOM     78  C   UNL A   1      47.237  27.657  35.276  1.00  0.00     0.000 A 
ENDBRANCH  60  73
ENDBRANCH  34  35
ENDBRANCH  27  29
ENDBRANCH  26  27
ENDBRANCH  25  26
ENDBRANCH   1  25
TORSDOF 15
ENDMDL
MODEL 3
REMARK VINA RESULT:      -9.5      5.099     10.349
REMARK SMILES CCNC(=O)c1ccc(N[C@@H]2COC[C@@]2(C)C(=O)OCCOC(=O)c2ccc(-c3c4nc(c(-c5ccccc5)c5ccc([nH]5)c(-c5ccccc5)c5nc(c(-c6ccccc6)c6ccc3[nH]6)C=C5)C=C4)cc2)nn1
REMARK SMILES IDX 20 1 19 2 17 3 18 4 15 5 11 6 12 7 13 8 14 9 16 10 10 11
REMARK SMILES IDX 9 13 6 14 7 15 74 16 8 17 73 18 4 19 3 20 5 22 2 23 1 24
REMARK SMILES IDX 21 25 22 26 23 27 24 28 25 29 26 30 72 31 27 32 71 33 28 34
REMARK SMILES IDX 29 35 30 36 65 37 31 38 70 39 64 40 66 41 32 42 69 43 63 44
REMARK SMILES IDX 62 45 33 47 55 48 40 49 54 50 41 51 44 52 53 53 67 54 42 55
REMARK SMILES IDX 43 56 52 58 68 59 45 60 34 61 35 62 39 63 36 64 38 65 37 66
REMARK SMILES IDX 56 67 57 68 61 69 58 70 60 71 59 72 46 73 47 74 51 75 48 76
REMARK SMILES IDX 50 77 49 78
REMARK H PARENT 10 12 3 21 66 46 44 57
REMARK Flexibility Score: inf
ROOT
ATOM      1  C   UNL A   1      32.055  29.222  25.814  1.00  0.00     0.274 C 
ENDROOT
BRANCH   1   2
ATOM      2  O   UNL A   1      32.264  27.827  25.495  1.00  0.00    -0.462 OA
BRANCH   2   3
ATOM      3  C   UNL A   1      31.646  27.359  24.376  1.00  0.00     0.316 C 
ATOM      4  O   UNL A   1      30.473  27.592  24.106  1.00  0.00    -0.251 OA
BRANCH   3   5
ATOM      5  C   UNL A   1      32.536  26.463  23.520  1.00  0.00     0.111 C 
ATOM      6  C   UNL A   1      31.718  25.702  22.478  1.00  0.00     0.126 C 
ATOM      7  C   UNL A   1      32.742  25.306  21.428  1.00  0.00     0.186 C 
ATOM      8  O   UNL A   1      33.767  26.315  21.472  1.00  0.00    -0.378 OA
ATOM      9  C   UNL A   1      33.466  27.214  22.559  1.00  0.00     0.181 C 
ATOM     10  C   UNL A   1      33.403  25.606  24.456  1.00  0.00     0.028 C 
BRANCH   6  11
ATOM     11  N   UNL A   1      30.824  24.639  22.903  1.00  0.00    -0.362 N 
ATOM     12  H   UNL A   1      29.861  24.784  22.753  1.00  0.00     0.162 HD
BRANCH  11  13
ATOM     13  C   UNL A   1      31.183  23.449  23.491  1.00  0.00     0.149 A 
ATOM     14  C   UNL A   1      32.218  21.261  24.733  1.00  0.00     0.150 A 
ATOM     15  C   UNL A   1      32.526  21.454  23.402  1.00  0.00     0.040 A 
ATOM     16  N   UNL A   1      31.407  22.094  25.419  1.00  0.00    -0.143 NA
ATOM     17  C   UNL A   1      32.010  22.583  22.783  1.00  0.00     0.051 A 
ATOM     18  N   UNL A   1      30.887  23.201  24.782  1.00  0.00    -0.132 NA
BRANCH  14  19
ATOM     19  C   UNL A   1      32.818  20.129  25.466  1.00  0.00     0.271 C 
ATOM     20  N   UNL A   1      33.996  20.325  26.153  1.00  0.00    -0.351 N 
ATOM     21  H   UNL A   1      34.432  19.512  26.497  1.00  0.00     0.163 HD
ATOM     22  O   UNL A   1      32.306  19.013  25.419  1.00  0.00    -0.267 OA
BRANCH  20  23
ATOM     23  C   UNL A   1      34.678  21.576  26.436  1.00  0.00     0.113 C 
ATOM     24  C   UNL A   1      34.126  22.225  27.690  1.00  0.00     0.027 C 
ENDBRANCH  20  23
ENDBRANCH  14  19
ENDBRANCH  11  13
ENDBRANCH   6  11
ENDBRANCH   3   5
ENDBRANCH   2   3
ENDBRANCH   1   2
BRANCH   1  25
ATOM     25  C   UNL A   1      32.491  29.594  27.234  1.00  0.00     0.275 C 
BRANCH  25  26
ATOM     26  O   UNL A   1      33.915  29.450  27.398  1.00  0.00    -0.458 OA
BRANCH  26  27
ATOM     27  C   UNL A   1      34.546  30.508  27.946  1.00  0.00     0.338 C 
ATOM     28  O   UNL A   1      34.058  31.592  28.247  1.00  0.00    -0.246 OA
BRANCH  27  29
ATOM     29  C   UNL A   1      35.896  30.113  28.375  1.00  0.00     0.060 A 
ATOM     30  C   UNL A   1      36.879  30.187  27.394  1.00  0.00     0.016 A 
ATOM     31  C   UNL A   1      36.206  29.617  29.640  1.00  0.00     0.016 A 
ATOM     32  C   UNL A   1      38.180  29.788  27.658  1.00  0.00     0.010 A 
ATOM     33  C   UNL A   1      37.523  29.204  29.911  1.00  0.00     0.010 A 
ATOM     34  C   UNL A   1      38.517  29.293  28.918  1.00  0.00    -0.014 A 
BRANCH  34  35
ATOM     35  C   UNL A   1      39.907  28.818  29.109  1.00  0.00     0.031 A 
ATOM     36  C   UNL A   1      40.857  29.635  29.934  1.00  0.00     0.074 A 
ATOM     37  C   UNL A   1      40.258  27.580  28.711  1.00  0.00     0.049 A 
ATOM     38  N   UNL A   1      42.099  29.382  30.254  1.00  0.00    -0.248 NA
ATOM     39  C   UNL A   1      40.326  30.886  30.500  1.00  0.00     0.031 C 
ATOM     40  C   UNL A   1      39.372  26.625  28.045  1.00  0.00     0.029 A 
ATOM     41  N   UNL A   1      41.440  26.896  28.852  1.00  0.00    -0.354 N 
ATOM     42  C   UNL A   1      42.508  30.450  31.042  1.00  0.00     0.074 A 
ATOM     43  C   UNL A   1      41.375  31.342  31.170  1.00  0.00     0.031 C 
ATOM     44  C   UNL A   1      40.035  25.469  27.862  1.00  0.00     0.029 A 
ATOM     45  C   UNL A   1      41.406  25.620  28.343  1.00  0.00     0.049 A 
ATOM     46  H   UNL A   1      42.239  27.285  29.277  1.00  0.00     0.167 HD
ATOM     47  C   UNL A   1      43.725  30.678  31.590  1.00  0.00     0.031 A 
ATOM     48  C   UNL A   1      42.379  24.691  28.256  1.00  0.00     0.031 A 
ATOM     49  C   UNL A   1      44.859  29.809  31.438  1.00  0.00     0.049 A 
ATOM     50  C   UNL A   1      43.758  25.029  28.760  1.00  0.00     0.074 A 
ATOM     51  C   UNL A   1      46.162  30.006  31.862  1.00  0.00     0.029 A 
ATOM     52  N   UNL A   1      44.823  28.575  30.810  1.00  0.00    -0.354 N 
ATOM     53  N   UNL A   1      44.159  26.081  29.429  1.00  0.00    -0.248 NA
ATOM     54  C   UNL A   1      44.822  24.055  28.475  1.00  0.00     0.031 C 
ATOM     55  C   UNL A   1      46.925  28.907  31.449  1.00  0.00     0.029 A 
ATOM     56  C   UNL A   1      46.086  28.007  30.813  1.00  0.00     0.049 A 
ATOM     57  H   UNL A   1      44.019  28.162  30.420  1.00  0.00     0.167 HD
ATOM     58  C   UNL A   1      45.520  25.899  29.642  1.00  0.00     0.074 A 
ATOM     59  C   UNL A   1      45.866  24.614  29.069  1.00  0.00     0.031 C 
ATOM     60  C   UNL A   1      46.410  26.728  30.240  1.00  0.00     0.031 A 
BRANCH  47  61
ATOM     61  C   UNL A   1      43.908  31.973  32.321  1.00  0.00    -0.014 A 
ATOM     62  C   UNL A   1      44.290  33.147  31.654  1.00  0.00     0.009 A 
ATOM     63  C   UNL A   1      43.687  32.015  33.706  1.00  0.00     0.009 A 
ATOM     64  C   UNL A   1      44.474  34.332  32.369  1.00  0.00     0.001 A 
ATOM     65  C   UNL A   1      43.854  33.205  34.415  1.00  0.00     0.001 A 
ATOM     66  C   UNL A   1      44.254  34.361  33.747  1.00  0.00     0.000 A 
ENDBRANCH  47  61
BRANCH  48  67
ATOM     67  C   UNL A   1      42.118  23.371  27.619  1.00  0.00    -0.014 A 
ATOM     68  C   UNL A   1      42.387  23.165  26.256  1.00  0.00     0.009 A 
ATOM     69  C   UNL A   1      41.551  22.321  28.358  1.00  0.00     0.009 A 
ATOM     70  C   UNL A   1      42.093  21.940  25.649  1.00  0.00     0.001 A 
ATOM     71  C   UNL A   1      41.277  21.092  27.755  1.00  0.00     0.001 A 
ATOM     72  C   UNL A   1      41.543  20.904  26.400  1.00  0.00     0.000 A 
ENDBRANCH  48  67
BRANCH  60  73
ATOM     73  C   UNL A   1      47.838  26.268  30.309  1.00  0.00    -0.014 A 
ATOM     74  C   UNL A   1      48.701  26.430  29.214  1.00  0.00     0.009 A 
ATOM     75  C   UNL A   1      48.337  25.708  31.494  1.00  0.00     0.009 A 
ATOM     76  C   UNL A   1      50.031  26.015  29.296  1.00  0.00     0.001 A 
ATOM     77  C   UNL A   1      49.674  25.317  31.581  1.00  0.00     0.001 A 
ATOM     78  C   UNL A   1      50.517  25.463  30.481  1.00  0.00     0.000 A 
ENDBRANCH  60  73
ENDBRANCH  34  35
ENDBRANCH  27  29
ENDBRANCH  26  27
ENDBRANCH  25  26
ENDBRANCH   1  25
TORSDOF 15
ENDMDL
