MODEL 1
REMARK VINA RESULT:     -10.2      0.000      0.000
REMARK SMILES COCc1cccc(C(=O)N2C[C@@H](O)C[C@@H]2C(=O)OCCOC(=O)c2ccc(-c3c4nc(c(-c5ccccc5)c5ccc([nH]5)c(-c5ccccc5)c5nc(c(-c6ccccc6)c6ccc3[nH]6)C=C5)C=C4)cc2)c1
REMARK SMILES IDX 20 1 19 2 17 3 18 4 16 5 11 6 12 7 13 8 15 9 9 10 10 11 8 12
REMARK SMILES IDX 4 13 5 14 73 15 6 16 7 17 3 18 2 19 1 20 14 21 21 23 22 24
REMARK SMILES IDX 23 25 24 26 25 27 26 28 72 29 27 30 71 31 28 32 29 33 30 34
REMARK SMILES IDX 65 35 31 36 70 37 64 38 66 39 32 40 69 41 63 42 62 43 33 45
REMARK SMILES IDX 55 46 40 47 54 48 41 49 44 50 53 51 67 52 42 53 43 54 52 56
REMARK SMILES IDX 68 57 45 58 34 59 35 60 39 61 36 62 38 63 37 64 56 65 57 66
REMARK SMILES IDX 61 67 58 68 60 69 59 70 46 71 47 72 51 73 48 74 50 75 49 76
REMARK H PARENT 14 22 66 44 44 55
REMARK Flexibility Score: inf
ROOT
ATOM      1  C   UNL A   1      36.888  20.247  25.014  1.00  0.00     0.274 C 
ENDROOT
BRANCH   1   2
ATOM      2  O   UNL A   1      36.160  21.454  24.714  1.00  0.00    -0.461 OA
BRANCH   2   3
ATOM      3  C   UNL A   1      35.246  21.830  25.648  1.00  0.00     0.329 C 
ATOM      4  O   UNL A   1      35.240  21.413  26.803  1.00  0.00    -0.250 OA
BRANCH   3   5
ATOM      5  C   UNL A   1      34.161  22.767  25.101  1.00  0.00     0.198 C 
ATOM      6  N   UNL A   1      33.324  22.041  24.158  1.00  0.00    -0.322 N 
ATOM      7  C   UNL A   1      32.981  22.886  23.036  1.00  0.00     0.152 C 
ATOM      8  C   UNL A   1      34.210  23.778  22.903  1.00  0.00     0.136 C 
ATOM      9  C   UNL A   1      34.616  24.027  24.359  1.00  0.00     0.071 C 
BRANCH   6  10
ATOM     10  C   UNL A   1      32.509  21.018  24.590  1.00  0.00     0.254 C 
ATOM     11  O   UNL A   1      31.711  21.147  25.511  1.00  0.00    -0.269 OA
BRANCH  10  12
ATOM     12  C   UNL A   1      32.824  19.683  23.993  1.00  0.00     0.040 A 
ATOM     13  C   UNL A   1      33.693  17.410  24.214  1.00  0.00    -0.022 A 
ATOM     14  C   UNL A   1      33.175  17.108  22.949  1.00  0.00     0.006 A 
ATOM     15  C   UNL A   1      33.517  18.702  24.721  1.00  0.00     0.020 A 
ATOM     16  C   UNL A   1      32.496  18.080  22.210  1.00  0.00     0.001 A 
ATOM     17  C   UNL A   1      32.318  19.364  22.729  1.00  0.00     0.014 A 
BRANCH  13  18
ATOM     18  C   UNL A   1      34.428  16.380  25.034  1.00  0.00     0.195 C 
BRANCH  18  19
ATOM     19  O   UNL A   1      33.788  15.108  24.984  1.00  0.00    -0.380 OA
ATOM     20  C   UNL A   1      32.580  15.065  25.730  1.00  0.00     0.195 C 
ENDBRANCH  18  19
ENDBRANCH  13  18
ENDBRANCH  10  12
ENDBRANCH   6  10
BRANCH   8  21
ATOM     21  O   UNL A   1      33.951  24.984  22.211  1.00  0.00    -0.391 OA
ATOM     22  H   UNL A   1      34.694  25.594  22.334  1.00  0.00     0.211 HD
ENDBRANCH   8  21
ENDBRANCH   3   5
ENDBRANCH   2   3
ENDBRANCH   1   2
BRANCH   1  23
ATOM     23  C   UNL A   1      38.405  20.476  24.991  1.00  0.00     0.275 C 
BRANCH  23  24
ATOM     24  O   UNL A   1      39.048  20.069  26.214  1.00  0.00    -0.458 OA
BRANCH  24  25
ATOM     25  C   UNL A   1      40.396  19.965  26.142  1.00  0.00     0.338 C 
ATOM     26  O   UNL A   1      41.042  19.050  25.659  1.00  0.00    -0.246 OA
BRANCH  25  27
ATOM     27  C   UNL A   1      41.036  21.203  26.609  1.00  0.00     0.060 A 
ATOM     28  C   UNL A   1      40.942  21.507  27.969  1.00  0.00     0.016 A 
ATOM     29  C   UNL A   1      41.601  22.115  25.718  1.00  0.00     0.016 A 
ATOM     30  C   UNL A   1      41.383  22.733  28.447  1.00  0.00     0.010 A 
ATOM     31  C   UNL A   1      42.057  23.346  26.202  1.00  0.00     0.010 A 
ATOM     32  C   UNL A   1      41.933  23.668  27.566  1.00  0.00    -0.014 A 
BRANCH  32  33
ATOM     33  C   UNL A   1      42.325  25.000  28.080  1.00  0.00     0.031 A 
ATOM     34  C   UNL A   1      43.773  25.313  28.327  1.00  0.00     0.074 A 
ATOM     35  C   UNL A   1      41.386  25.944  28.274  1.00  0.00     0.049 A 
ATOM     36  N   UNL A   1      44.309  26.392  28.837  1.00  0.00    -0.248 NA
ATOM     37  C   UNL A   1      44.746  24.275  27.950  1.00  0.00     0.031 C 
ATOM     38  C   UNL A   1      39.957  25.783  28.003  1.00  0.00     0.029 A 
ATOM     39  N   UNL A   1      41.498  27.229  28.738  1.00  0.00    -0.354 N 
ATOM     40  C   UNL A   1      45.677  26.155  28.867  1.00  0.00     0.074 A 
ATOM     41  C   UNL A   1      45.889  24.827  28.333  1.00  0.00     0.031 C 
ATOM     42  C   UNL A   1      39.326  26.932  28.295  1.00  0.00     0.029 A 
ATOM     43  C   UNL A   1      40.297  27.887  28.821  1.00  0.00     0.049 A 
ATOM     44  H   UNL A   1      42.358  27.641  28.987  1.00  0.00     0.167 HD
ATOM     45  C   UNL A   1      46.666  26.971  29.302  1.00  0.00     0.031 A 
ATOM     46  C   UNL A   1      40.005  29.112  29.297  1.00  0.00     0.031 A 
ATOM     47  C   UNL A   1      46.454  28.294  29.825  1.00  0.00     0.049 A 
ATOM     48  C   UNL A   1      41.113  29.972  29.836  1.00  0.00     0.074 A 
ATOM     49  C   UNL A   1      47.390  29.197  30.297  1.00  0.00     0.029 A 
ATOM     50  N   UNL A   1      45.215  28.905  29.941  1.00  0.00    -0.354 N 
ATOM     51  N   UNL A   1      42.398  29.723  29.889  1.00  0.00    -0.248 NA
ATOM     52  C   UNL A   1      40.725  31.277  30.387  1.00  0.00     0.031 C 
ATOM     53  C   UNL A   1      46.713  30.341  30.734  1.00  0.00     0.029 A 
ATOM     54  C   UNL A   1      45.360  30.166  30.493  1.00  0.00     0.049 A 
ATOM     55  H   UNL A   1      44.358  28.503  29.670  1.00  0.00     0.167 HD
ATOM     56  C   UNL A   1      42.976  30.846  30.466  1.00  0.00     0.074 A 
ATOM     57  C   UNL A   1      41.902  31.782  30.729  1.00  0.00     0.031 C 
ATOM     58  C   UNL A   1      44.279  31.080  30.753  1.00  0.00     0.031 A 
BRANCH  45  59
ATOM     59  C   UNL A   1      48.066  26.431  29.271  1.00  0.00    -0.014 A 
ATOM     60  C   UNL A   1      48.896  26.616  28.156  1.00  0.00     0.009 A 
ATOM     61  C   UNL A   1      48.571  25.750  30.391  1.00  0.00     0.009 A 
ATOM     62  C   UNL A   1      50.195  26.101  28.149  1.00  0.00     0.001 A 
ATOM     63  C   UNL A   1      49.876  25.257  30.391  1.00  0.00     0.001 A 
ATOM     64  C   UNL A   1      50.685  25.425  29.268  1.00  0.00     0.000 A 
ENDBRANCH  45  59
BRANCH  46  65
ATOM     65  C   UNL A   1      38.596  29.579  29.320  1.00  0.00    -0.014 A 
ATOM     66  C   UNL A   1      37.774  29.322  30.425  1.00  0.00     0.009 A 
ATOM     67  C   UNL A   1      38.070  30.292  28.230  1.00  0.00     0.009 A 
ATOM     68  C   UNL A   1      36.447  29.755  30.433  1.00  0.00     0.001 A 
ATOM     69  C   UNL A   1      36.750  30.747  28.252  1.00  0.00     0.001 A 
ATOM     70  C   UNL A   1      35.938  30.472  29.349  1.00  0.00     0.000 A 
ENDBRANCH  46  65
BRANCH  58  71
ATOM     71  C   UNL A   1      44.612  32.409  31.364  1.00  0.00    -0.014 A 
ATOM     72  C   UNL A   1      44.931  33.515  30.562  1.00  0.00     0.009 A 
ATOM     73  C   UNL A   1      44.574  32.563  32.758  1.00  0.00     0.009 A 
ATOM     74  C   UNL A   1      45.236  34.745  31.147  1.00  0.00     0.001 A 
ATOM     75  C   UNL A   1      44.858  33.800  33.340  1.00  0.00     0.001 A 
ATOM     76  C   UNL A   1      45.196  34.887  32.535  1.00  0.00     0.000 A 
ENDBRANCH  58  71
ENDBRANCH  32  33
ENDBRANCH  25  27
ENDBRANCH  24  25
ENDBRANCH  23  24
ENDBRANCH   1  23
TORSDOF 16
ENDMDL
MODEL 2
REMARK VINA RESULT:     -10.1      3.865      5.808
REMARK SMILES COCc1cccc(C(=O)N2C[C@@H](O)C[C@@H]2C(=O)OCCOC(=O)c2ccc(-c3c4nc(c(-c5ccccc5)c5ccc([nH]5)c(-c5ccccc5)c5nc(c(-c6ccccc6)c6ccc3[nH]6)C=C5)C=C4)cc2)c1
REMARK SMILES IDX 20 1 19 2 17 3 18 4 16 5 11 6 12 7 13 8 15 9 9 10 10 11 8 12
REMARK SMILES IDX 4 13 5 14 73 15 6 16 7 17 3 18 2 19 1 20 14 21 21 23 22 24
REMARK SMILES IDX 23 25 24 26 25 27 26 28 72 29 27 30 71 31 28 32 29 33 30 34
REMARK SMILES IDX 65 35 31 36 70 37 64 38 66 39 32 40 69 41 63 42 62 43 33 45
REMARK SMILES IDX 55 46 40 47 54 48 41 49 44 50 53 51 67 52 42 53 43 54 52 56
REMARK SMILES IDX 68 57 45 58 34 59 35 60 39 61 36 62 38 63 37 64 56 65 57 66
REMARK SMILES IDX 61 67 58 68 60 69 59 70 46 71 47 72 51 73 48 74 50 75 49 76
REMARK H PARENT 14 22 66 44 44 55
REMARK Flexibility Score: inf
ROOT
ATOM      1  C   UNL A   1      36.218  21.144  24.741  1.00  0.00     0.274 C 
ENDROOT
BRANCH   1   2
ATOM      2  O   UNL A   1      35.942  22.087  25.794  1.00  0.00    -0.461 OA
BRANCH   2   3
ATOM      3  C   UNL A   1      34.673  22.059  26.283  1.00  0.00     0.329 C 
ATOM      4  O   UNL A   1      34.335  21.407  27.267  1.00  0.00    -0.250 OA
BRANCH   3   5
ATOM      5  C   UNL A   1      33.673  22.859  25.437  1.00  0.00     0.198 C 
ATOM      6  N   UNL A   1      33.155  22.013  24.371  1.00  0.00    -0.322 N 
ATOM      7  C   UNL A   1      33.019  22.771  23.149  1.00  0.00     0.152 C 
ATOM      8  C   UNL A   1      34.160  23.777  23.251  1.00  0.00     0.136 C 
ATOM      9  C   UNL A   1      34.179  24.126  24.742  1.00  0.00     0.071 C 
BRANCH   6  10
ATOM     10  C   UNL A   1      32.354  20.931  24.664  1.00  0.00     0.254 C 
ATOM     11  O   UNL A   1      31.481  20.963  25.523  1.00  0.00    -0.269 OA
BRANCH  10  12
ATOM     12  C   UNL A   1      32.773  19.655  24.004  1.00  0.00     0.040 A 
ATOM     13  C   UNL A   1      33.943  17.511  24.078  1.00  0.00    -0.022 A 
ATOM     14  C   UNL A   1      33.339  17.160  22.865  1.00  0.00     0.006 A 
ATOM     15  C   UNL A   1      33.657  18.763  24.633  1.00  0.00     0.020 A 
ATOM     16  C   UNL A   1      32.469  18.045  22.224  1.00  0.00     0.001 A 
ATOM     17  C   UNL A   1      32.184  19.289  22.791  1.00  0.00     0.014 A 
BRANCH  13  18
ATOM     18  C   UNL A   1      34.884  16.576  24.794  1.00  0.00     0.195 C 
BRANCH  18  19
ATOM     19  O   UNL A   1      34.198  15.455  25.345  1.00  0.00    -0.380 OA
ATOM     20  C   UNL A   1      32.811  15.693  25.536  1.00  0.00     0.195 C 
ENDBRANCH  18  19
ENDBRANCH  13  18
ENDBRANCH  10  12
ENDBRANCH   6  10
BRANCH   8  21
ATOM     21  O   UNL A   1      33.969  24.921  22.441  1.00  0.00    -0.391 OA
ATOM     22  H   UNL A   1      33.108  24.865  21.999  1.00  0.00     0.211 HD
ENDBRANCH   8  21
ENDBRANCH   3   5
ENDBRANCH   2   3
ENDBRANCH   1   2
BRANCH   1  23
ATOM     23  C   UNL A   1      37.478  20.318  25.031  1.00  0.00     0.275 C 
BRANCH  23  24
ATOM     24  O   UNL A   1      38.459  21.047  25.794  1.00  0.00    -0.458 OA
BRANCH  24  25
ATOM     25  C   UNL A   1      39.646  20.415  25.948  1.00  0.00     0.338 C 
ATOM     26  O   UNL A   1      39.880  19.230  25.776  1.00  0.00    -0.246 OA
BRANCH  25  27
ATOM     27  C   UNL A   1      40.715  21.384  26.227  1.00  0.00     0.060 A 
ATOM     28  C   UNL A   1      42.029  20.911  26.246  1.00  0.00     0.016 A 
ATOM     29  C   UNL A   1      40.431  22.700  26.594  1.00  0.00     0.016 A 
ATOM     30  C   UNL A   1      43.067  21.735  26.658  1.00  0.00     0.010 A 
ATOM     31  C   UNL A   1      41.480  23.535  26.998  1.00  0.00     0.010 A 
ATOM     32  C   UNL A   1      42.799  23.051  27.049  1.00  0.00    -0.014 A 
BRANCH  32  33
ATOM     33  C   UNL A   1      43.906  23.890  27.561  1.00  0.00     0.031 A 
ATOM     34  C   UNL A   1      44.153  23.988  29.039  1.00  0.00     0.074 A 
ATOM     35  C   UNL A   1      44.721  24.521  26.696  1.00  0.00     0.049 A 
ATOM     36  N   UNL A   1      45.024  24.720  29.684  1.00  0.00    -0.248 NA
ATOM     37  C   UNL A   1      43.307  23.150  29.906  1.00  0.00     0.031 C 
ATOM     38  C   UNL A   1      44.627  24.446  25.238  1.00  0.00     0.029 A 
ATOM     39  N   UNL A   1      45.795  25.344  26.922  1.00  0.00    -0.354 N 
ATOM     40  C   UNL A   1      44.817  24.453  31.032  1.00  0.00     0.074 A 
ATOM     41  C   UNL A   1      43.731  23.499  31.113  1.00  0.00     0.031 C 
ATOM     42  C   UNL A   1      45.611  25.184  24.699  1.00  0.00     0.029 A 
ATOM     43  C   UNL A   1      46.368  25.822  25.771  1.00  0.00     0.049 A 
ATOM     44  H   UNL A   1      46.123  25.568  27.823  1.00  0.00     0.167 HD
ATOM     45  C   UNL A   1      45.471  24.960  32.103  1.00  0.00     0.031 A 
ATOM     46  C   UNL A   1      47.373  26.701  25.599  1.00  0.00     0.031 A 
ATOM     47  C   UNL A   1      46.556  25.901  32.020  1.00  0.00     0.049 A 
ATOM     48  C   UNL A   1      48.038  27.299  26.806  1.00  0.00     0.074 A 
ATOM     49  C   UNL A   1      47.280  26.477  33.048  1.00  0.00     0.029 A 
ATOM     50  N   UNL A   1      47.074  26.402  30.836  1.00  0.00    -0.354 N 
ATOM     51  N   UNL A   1      47.811  27.064  28.075  1.00  0.00    -0.248 NA
ATOM     52  C   UNL A   1      49.093  28.290  26.553  1.00  0.00     0.031 C 
ATOM     53  C   UNL A   1      48.212  27.357  32.487  1.00  0.00     0.029 A 
ATOM     54  C   UNL A   1      48.097  27.294  31.108  1.00  0.00     0.049 A 
ATOM     55  H   UNL A   1      46.762  26.159  29.934  1.00  0.00     0.167 HD
ATOM     56  C   UNL A   1      48.703  27.866  28.773  1.00  0.00     0.074 A 
ATOM     57  C   UNL A   1      49.487  28.581  27.786  1.00  0.00     0.031 C 
ATOM     58  C   UNL A   1      48.859  27.999  30.112  1.00  0.00     0.031 A 
BRANCH  45  59
ATOM     59  C   UNL A   1      44.997  24.535  33.462  1.00  0.00    -0.014 A 
ATOM     60  C   UNL A   1      45.583  23.454  34.137  1.00  0.00     0.009 A 
ATOM     61  C   UNL A   1      43.962  25.249  34.089  1.00  0.00     0.009 A 
ATOM     62  C   UNL A   1      45.122  23.075  35.400  1.00  0.00     0.001 A 
ATOM     63  C   UNL A   1      43.519  24.883  35.360  1.00  0.00     0.001 A 
ATOM     64  C   UNL A   1      44.092  23.793  36.012  1.00  0.00     0.000 A 
ENDBRANCH  45  59
BRANCH  46  65
ATOM     65  C   UNL A   1      47.781  27.097  24.228  1.00  0.00    -0.014 A 
ATOM     66  C   UNL A   1      48.909  26.525  23.624  1.00  0.00     0.009 A 
ATOM     67  C   UNL A   1      47.036  28.050  23.515  1.00  0.00     0.009 A 
ATOM     68  C   UNL A   1      49.293  26.912  22.338  1.00  0.00     0.001 A 
ATOM     69  C   UNL A   1      47.407  28.415  22.220  1.00  0.00     0.001 A 
ATOM     70  C   UNL A   1      48.539  27.852  21.635  1.00  0.00     0.000 A 
ENDBRANCH  46  65
BRANCH  58  71
ATOM     71  C   UNL A   1      49.932  28.938  30.581  1.00  0.00    -0.014 A 
ATOM     72  C   UNL A   1      49.651  30.288  30.840  1.00  0.00     0.009 A 
ATOM     73  C   UNL A   1      51.233  28.456  30.796  1.00  0.00     0.009 A 
ATOM     74  C   UNL A   1      50.661  31.146  31.278  1.00  0.00     0.001 A 
ATOM     75  C   UNL A   1      52.235  29.312  31.254  1.00  0.00     0.001 A 
ATOM     76  C   UNL A   1      51.951  30.656  31.488  1.00  0.00     0.000 A 
ENDBRANCH  58  71
ENDBRANCH  32  33
ENDBRANCH  25  27
ENDBRANCH  24  25
ENDBRANCH  23  24
ENDBRANCH   1  23
TORSDOF 16
ENDMDL
MODEL 3
REMARK VINA RESULT:     -10.1      1.596      7.107
REMARK SMILES COCc1cccc(C(=O)N2C[C@@H](O)C[C@@H]2C(=O)OCCOC(=O)c2ccc(-c3c4nc(c(-c5ccccc5)c5ccc([nH]5)c(-c5ccccc5)c5nc(c(-c6ccccc6)c6ccc3[nH]6)C=C5)C=C4)cc2)c1
REMARK SMILES IDX 20 1 19 2 17 3 18 4 16 5 11 6 12 7 13 8 15 9 9 10 10 11 8 12
REMARK SMILES IDX 4 13 5 14 73 15 6 16 7 17 3 18 2 19 1 20 14 21 21 23 22 24
REMARK SMILES IDX 23 25 24 26 25 27 26 28 72 29 27 30 71 31 28 32 29 33 30 34
REMARK SMILES IDX 65 35 31 36 70 37 64 38 66 39 32 40 69 41 63 42 62 43 33 45
REMARK SMILES IDX 55 46 40 47 54 48 41 49 44 50 53 51 67 52 42 53 43 54 52 56
REMARK SMILES IDX 68 57 45 58 34 59 35 60 39 61 36 62 38 63 37 64 56 65 57 66
REMARK SMILES IDX 61 67 58 68 60 69 59 70 46 71 47 72 51 73 48 74 50 75 49 76
REMARK H PARENT 14 22 66 44 44 55
REMARK Flexibility Score: inf
ROOT
ATOM      1  C   UNL A   1      38.413  21.777  25.749  1.00  0.00     0.274 C 
ENDROOT
BRANCH   1   2
ATOM      2  O   UNL A   1      37.328  22.150  24.878  1.00  0.00    -0.461 OA
BRANCH   2   3
ATOM      3  C   UNL A   1      36.106  22.230  25.471  1.00  0.00     0.329 C 
ATOM      4  O   UNL A   1      35.920  22.703  26.588  1.00  0.00    -0.250 OA
BRANCH   3   5
ATOM      5  C   UNL A   1      34.982  21.592  24.644  1.00  0.00     0.198 C 
ATOM      6  N   UNL A   1      33.998  22.608  24.299  1.00  0.00    -0.322 N 
ATOM      7  C   UNL A   1      32.662  22.064  24.387  1.00  0.00     0.152 C 
ATOM      8  C   UNL A   1      32.790  21.044  25.512  1.00  0.00     0.136 C 
ATOM      9  C   UNL A   1      34.184  20.452  25.284  1.00  0.00     0.071 C 
BRANCH   6  10
ATOM     10  C   UNL A   1      34.324  23.635  23.440  1.00  0.00     0.254 C 
ATOM     11  O   UNL A   1      34.989  23.466  22.425  1.00  0.00    -0.269 OA
BRANCH  10  12
ATOM     12  C   UNL A   1      33.988  25.000  23.953  1.00  0.00     0.040 A 
ATOM     13  C   UNL A   1      32.903  27.170  23.663  1.00  0.00    -0.022 A 
ATOM     14  C   UNL A   1      33.142  27.450  25.014  1.00  0.00     0.006 A 
ATOM     15  C   UNL A   1      33.337  25.945  23.145  1.00  0.00     0.020 A 
ATOM     16  C   UNL A   1      33.801  26.522  25.825  1.00  0.00     0.001 A 
ATOM     17  C   UNL A   1      34.222  25.299  25.298  1.00  0.00     0.014 A 
BRANCH  13  18
ATOM     18  C   UNL A   1      32.193  28.151  22.766  1.00  0.00     0.195 C 
BRANCH  18  19
ATOM     19  O   UNL A   1      30.934  27.649  22.325  1.00  0.00    -0.380 OA
ATOM     20  C   UNL A   1      29.871  28.570  22.522  1.00  0.00     0.195 C 
ENDBRANCH  18  19
ENDBRANCH  13  18
ENDBRANCH  10  12
ENDBRANCH   6  10
BRANCH   8  21
ATOM     21  O   UNL A   1      31.782  20.052  25.482  1.00  0.00    -0.391 OA
ATOM     22  H   UNL A   1      31.816  19.532  26.300  1.00  0.00     0.211 HD
ENDBRANCH   8  21
ENDBRANCH   3   5
ENDBRANCH   2   3
ENDBRANCH   1   2
BRANCH   1  23
ATOM     23  C   UNL A   1      39.002  20.412  25.374  1.00  0.00     0.275 C 
BRANCH  23  24
ATOM     24  O   UNL A   1      39.887  19.889  26.384  1.00  0.00    -0.458 OA
BRANCH  24  25
ATOM     25  C   UNL A   1      41.203  19.941  26.071  1.00  0.00     0.338 C 
ATOM     26  O   UNL A   1      41.830  19.155  25.380  1.00  0.00    -0.246 OA
BRANCH  25  27
ATOM     27  C   UNL A   1      41.803  21.189  26.565  1.00  0.00     0.060 A 
ATOM     28  C   UNL A   1      41.757  21.429  27.940  1.00  0.00     0.016 A 
ATOM     29  C   UNL A   1      42.282  22.164  25.691  1.00  0.00     0.016 A 
ATOM     30  C   UNL A   1      42.160  22.654  28.453  1.00  0.00     0.010 A 
ATOM     31  C   UNL A   1      42.701  23.396  26.210  1.00  0.00     0.010 A 
ATOM     32  C   UNL A   1      42.624  23.652  27.591  1.00  0.00    -0.014 A 
BRANCH  32  33
ATOM     33  C   UNL A   1      42.975  24.979  28.146  1.00  0.00     0.031 A 
ATOM     34  C   UNL A   1      41.899  25.998  28.393  1.00  0.00     0.074 A 
ATOM     35  C   UNL A   1      44.251  25.249  28.478  1.00  0.00     0.049 A 
ATOM     36  N   UNL A   1      42.011  27.233  28.807  1.00  0.00    -0.248 NA
ATOM     37  C   UNL A   1      40.514  25.568  28.140  1.00  0.00     0.031 C 
ATOM     38  C   UNL A   1      45.372  24.317  28.352  1.00  0.00     0.029 A 
ATOM     39  N   UNL A   1      44.814  26.386  28.997  1.00  0.00    -0.354 N 
ATOM     40  C   UNL A   1      40.718  27.739  28.841  1.00  0.00     0.074 A 
ATOM     41  C   UNL A   1      39.837  26.680  28.396  1.00  0.00     0.031 C 
ATOM     42  C   UNL A   1      46.489  24.917  28.793  1.00  0.00     0.029 A 
ATOM     43  C   UNL A   1      46.170  26.287  29.182  1.00  0.00     0.049 A 
ATOM     44  H   UNL A   1      44.296  27.194  29.216  1.00  0.00     0.167 HD
ATOM     45  C   UNL A   1      40.304  28.974  29.208  1.00  0.00     0.031 A 
ATOM     46  C   UNL A   1      47.063  27.208  29.590  1.00  0.00     0.031 A 
ATOM     47  C   UNL A   1      41.180  30.023  29.659  1.00  0.00     0.049 A 
ATOM     48  C   UNL A   1      46.586  28.592  29.928  1.00  0.00     0.074 A 
ATOM     49  C   UNL A   1      40.857  31.310  30.048  1.00  0.00     0.029 A 
ATOM     50  N   UNL A   1      42.555  29.900  29.783  1.00  0.00    -0.354 N 
ATOM     51  N   UNL A   1      45.365  29.067  29.924  1.00  0.00    -0.248 NA
ATOM     52  C   UNL A   1      47.614  29.567  30.319  1.00  0.00     0.031 C 
ATOM     53  C   UNL A   1      42.043  31.980  30.372  1.00  0.00     0.029 A 
ATOM     54  C   UNL A   1      43.098  31.094  30.226  1.00  0.00     0.049 A 
ATOM     55  H   UNL A   1      43.070  29.084  29.587  1.00  0.00     0.167 HD
ATOM     56  C   UNL A   1      45.474  30.392  30.325  1.00  0.00     0.074 A 
ATOM     57  C   UNL A   1      46.878  30.639  30.580  1.00  0.00     0.031 C 
ATOM     58  C   UNL A   1      44.498  31.321  30.467  1.00  0.00     0.031 A 
BRANCH  45  59
ATOM     59  C   UNL A   1      38.837  29.270  29.093  1.00  0.00    -0.014 A 
ATOM     60  C   UNL A   1      38.272  29.707  27.885  1.00  0.00     0.009 A 
ATOM     61  C   UNL A   1      38.003  29.083  30.207  1.00  0.00     0.009 A 
ATOM     62  C   UNL A   1      36.904  29.979  27.804  1.00  0.00     0.001 A 
ATOM     63  C   UNL A   1      36.634  29.334  30.117  1.00  0.00     0.001 A 
ATOM     64  C   UNL A   1      36.085  29.789  28.918  1.00  0.00     0.000 A 
ENDBRANCH  45  59
BRANCH  46  65
ATOM     65  C   UNL A   1      48.504  26.859  29.663  1.00  0.00    -0.014 A 
ATOM     66  C   UNL A   1      49.348  27.067  28.564  1.00  0.00     0.009 A 
ATOM     67  C   UNL A   1      49.042  26.317  30.842  1.00  0.00     0.009 A 
ATOM     68  C   UNL A   1      50.700  26.725  28.637  1.00  0.00     0.001 A 
ATOM     69  C   UNL A   1      50.399  26.000  30.922  1.00  0.00     0.001 A 
ATOM     70  C   UNL A   1      51.225  26.197  29.817  1.00  0.00     0.000 A 
ENDBRANCH  46  65
BRANCH  58  71
ATOM     71  C   UNL A   1      44.919  32.681  30.941  1.00  0.00    -0.014 A 
ATOM     72  C   UNL A   1      45.248  33.695  30.029  1.00  0.00     0.009 A 
ATOM     73  C   UNL A   1      44.956  32.959  32.316  1.00  0.00     0.009 A 
ATOM     74  C   UNL A   1      45.636  34.956  30.488  1.00  0.00     0.001 A 
ATOM     75  C   UNL A   1      45.323  34.226  32.771  1.00  0.00     0.001 A 
ATOM     76  C   UNL A   1      45.669  35.220  31.857  1.00  0.00     0.000 A 
ENDBRANCH  58  71
ENDBRANCH  32  33
ENDBRANCH  25  27
ENDBRANCH  24  25
ENDBRANCH  23  24
ENDBRANCH   1  23
TORSDOF 16
ENDMDL
