MODEL 1
REMARK VINA RESULT:     -10.4      0.000      0.000
REMARK SMILES CCOc1cc(N2CCOCC2)ccc1[C@H]([NH3+])C(=O)OCCOC(=O)c1ccc(-c2c3nc(c(-c4ccccc4)c4ccc([nH]4)c(-c4ccccc4)c4nc(c(-c5ccccc5)c5ccc2[nH]5)C=C4)C=C3)cc1
REMARK SMILES IDX 21 1 20 2 18 3 19 4 16 5 15 6 4 7 5 8 6 9 14 10 13 11 3 12
REMARK SMILES IDX 2 13 1 14 7 15 8 16 12 17 9 18 11 19 10 20 17 21 22 25 23 26
REMARK SMILES IDX 24 27 25 28 26 29 27 30 73 31 28 32 72 33 29 34 30 35 31 36
REMARK SMILES IDX 66 37 32 38 71 39 65 40 67 41 33 42 70 43 64 44 63 45 34 47
REMARK SMILES IDX 56 48 41 49 55 50 42 51 45 52 54 53 68 54 43 55 44 56 53 58
REMARK SMILES IDX 69 59 46 60 35 61 36 62 40 63 37 64 39 65 38 66 57 67 58 68
REMARK SMILES IDX 62 69 59 70 61 71 60 72 47 73 48 74 52 75 49 76 51 77 50 78
REMARK H PARENT 17 22 17 23 17 24 67 46 45 57
REMARK Flexibility Score: inf
ROOT
ATOM      1  C   UNL A   1      31.795  27.886  27.274  1.00  0.00     0.274 C 
ENDROOT
BRANCH   1   2
ATOM      2  O   UNL A   1      31.153  27.451  26.061  1.00  0.00    -0.457 OA
BRANCH   2   3
ATOM      3  C   UNL A   1      30.947  26.104  25.962  1.00  0.00     0.370 C 
ATOM      4  O   UNL A   1      30.919  25.331  26.915  1.00  0.00    -0.245 OA
BRANCH   3   5
ATOM      5  C   UNL A   1      30.774  25.648  24.506  1.00  0.00     0.326 C 
BRANCH   5   6
ATOM      6  C   UNL A   1      29.992  26.633  23.662  1.00  0.00     0.063 A 
ATOM      7  C   UNL A   1      30.556  27.586  22.805  1.00  0.00     0.131 A 
ATOM      8  C   UNL A   1      29.801  28.681  22.369  1.00  0.00     0.072 A 
ATOM      9  C   UNL A   1      28.459  28.819  22.742  1.00  0.00     0.040 A 
ATOM     10  C   UNL A   1      28.607  26.693  23.889  1.00  0.00     0.016 A 
ATOM     11  C   UNL A   1      27.851  27.766  23.425  1.00  0.00     0.027 A 
BRANCH   7  12
ATOM     12  O   UNL A   1      31.901  27.576  22.539  1.00  0.00    -0.493 OA
BRANCH  12  13
ATOM     13  C   UNL A   1      32.540  28.795  22.948  1.00  0.00     0.226 C 
ATOM     14  C   UNL A   1      33.800  28.456  23.733  1.00  0.00     0.049 C 
ENDBRANCH  12  13
ENDBRANCH   7  12
BRANCH   9  15
ATOM     15  N   UNL A   1      27.816  30.030  22.551  1.00  0.00    -0.367 N 
ATOM     16  C   UNL A   1      27.851  30.619  21.200  1.00  0.00     0.145 C 
ATOM     17  C   UNL A   1      27.748  31.000  23.646  1.00  0.00     0.145 C 
ATOM     18  C   UNL A   1      28.885  31.754  21.114  1.00  0.00     0.181 C 
ATOM     19  C   UNL A   1      28.802  32.103  23.451  1.00  0.00     0.181 C 
ATOM     20  O   UNL A   1      28.697  32.724  22.157  1.00  0.00    -0.378 OA
ENDBRANCH   9  15
ENDBRANCH   5   6
BRANCH   5  21
ATOM     21  N   UNL A   1      30.378  24.231  24.410  1.00  0.00    -0.342 N 
ATOM     22  H   UNL A   1      29.580  24.142  23.780  1.00  0.00     0.345 HD
ATOM     23  H   UNL A   1      30.120  23.886  25.335  1.00  0.00     0.345 HD
ATOM     24  H   UNL A   1      31.159  23.683  24.049  1.00  0.00     0.345 HD
ENDBRANCH   5  21
ENDBRANCH   3   5
ENDBRANCH   2   3
ENDBRANCH   1   2
BRANCH   1  25
ATOM     25  C   UNL A   1      32.527  29.220  27.085  1.00  0.00     0.275 C 
BRANCH  25  26
ATOM     26  O   UNL A   1      33.938  29.108  27.356  1.00  0.00    -0.458 OA
BRANCH  26  27
ATOM     27  C   UNL A   1      34.509  30.238  27.833  1.00  0.00     0.338 C 
ATOM     28  O   UNL A   1      33.957  31.319  28.008  1.00  0.00    -0.246 OA
BRANCH  27  29
ATOM     29  C   UNL A   1      35.885  29.967  28.283  1.00  0.00     0.060 A 
ATOM     30  C   UNL A   1      36.899  30.069  27.333  1.00  0.00     0.016 A 
ATOM     31  C   UNL A   1      36.184  29.532  29.574  1.00  0.00     0.016 A 
ATOM     32  C   UNL A   1      38.206  29.736  27.637  1.00  0.00     0.010 A 
ATOM     33  C   UNL A   1      37.506  29.186  29.888  1.00  0.00     0.010 A 
ATOM     34  C   UNL A   1      38.518  29.278  28.913  1.00  0.00    -0.014 A 
BRANCH  34  35
ATOM     35  C   UNL A   1      39.897  28.810  29.155  1.00  0.00     0.031 A 
ATOM     36  C   UNL A   1      40.843  29.683  29.923  1.00  0.00     0.074 A 
ATOM     37  C   UNL A   1      40.250  27.561  28.803  1.00  0.00     0.049 A 
ATOM     38  N   UNL A   1      42.107  29.491  30.191  1.00  0.00    -0.248 NA
ATOM     39  C   UNL A   1      40.288  30.930  30.473  1.00  0.00     0.031 C 
ATOM     40  C   UNL A   1      39.366  26.579  28.170  1.00  0.00     0.029 A 
ATOM     41  N   UNL A   1      41.439  26.897  28.951  1.00  0.00    -0.354 N 
ATOM     42  C   UNL A   1      42.507  30.605  30.918  1.00  0.00     0.074 A 
ATOM     43  C   UNL A   1      41.353  31.469  31.047  1.00  0.00     0.031 C 
ATOM     44  C   UNL A   1      40.046  25.436  27.986  1.00  0.00     0.029 A 
ATOM     45  C   UNL A   1      41.422  25.626  28.435  1.00  0.00     0.049 A 
ATOM     46  H   UNL A   1      42.228  27.293  29.386  1.00  0.00     0.167 HD
ATOM     47  C   UNL A   1      43.732  30.881  31.425  1.00  0.00     0.031 A 
ATOM     48  C   UNL A   1      42.419  24.730  28.302  1.00  0.00     0.031 A 
ATOM     49  C   UNL A   1      44.870  30.015  31.288  1.00  0.00     0.049 A 
ATOM     50  C   UNL A   1      43.792  25.102  28.785  1.00  0.00     0.074 A 
ATOM     51  C   UNL A   1      46.172  30.223  31.708  1.00  0.00     0.029 A 
ATOM     52  N   UNL A   1      44.835  28.764  30.692  1.00  0.00    -0.354 N 
ATOM     53  N   UNL A   1      44.185  26.195  29.393  1.00  0.00    -0.248 NA
ATOM     54  C   UNL A   1      44.862  24.121  28.552  1.00  0.00     0.031 C 
ATOM     55  C   UNL A   1      46.933  29.110  31.334  1.00  0.00     0.029 A 
ATOM     56  C   UNL A   1      46.094  28.191  30.722  1.00  0.00     0.049 A 
ATOM     57  H   UNL A   1      44.033  28.345  30.305  1.00  0.00     0.167 HD
ATOM     58  C   UNL A   1      45.544  26.033  29.624  1.00  0.00     0.074 A 
ATOM     59  C   UNL A   1      45.902  24.725  29.110  1.00  0.00     0.031 C 
ATOM     60  C   UNL A   1      46.421  26.890  30.201  1.00  0.00     0.031 A 
BRANCH  47  61
ATOM     61  C   UNL A   1      43.904  32.201  32.116  1.00  0.00    -0.014 A 
ATOM     62  C   UNL A   1      44.243  33.362  31.403  1.00  0.00     0.009 A 
ATOM     63  C   UNL A   1      43.722  32.284  33.506  1.00  0.00     0.009 A 
ATOM     64  C   UNL A   1      44.420  34.574  32.075  1.00  0.00     0.001 A 
ATOM     65  C   UNL A   1      43.879  33.500  34.170  1.00  0.00     0.001 A 
ATOM     66  C   UNL A   1      44.237  34.643  33.456  1.00  0.00     0.000 A 
ENDBRANCH  47  61
BRANCH  48  67
ATOM     67  C   UNL A   1      42.169  23.435  27.622  1.00  0.00    -0.014 A 
ATOM     68  C   UNL A   1      41.623  22.346  28.317  1.00  0.00     0.009 A 
ATOM     69  C   UNL A   1      42.487  23.280  26.263  1.00  0.00     0.009 A 
ATOM     70  C   UNL A   1      41.419  21.125  27.669  1.00  0.00     0.001 A 
ATOM     71  C   UNL A   1      42.256  22.068  25.610  1.00  0.00     0.001 A 
ATOM     72  C   UNL A   1      41.731  20.989  26.316  1.00  0.00     0.000 A 
ENDBRANCH  48  67
BRANCH  60  73
ATOM     73  C   UNL A   1      47.841  26.423  30.325  1.00  0.00    -0.014 A 
ATOM     74  C   UNL A   1      48.762  26.627  29.287  1.00  0.00     0.009 A 
ATOM     75  C   UNL A   1      48.268  25.803  31.509  1.00  0.00     0.009 A 
ATOM     76  C   UNL A   1      50.081  26.192  29.423  1.00  0.00     0.001 A 
ATOM     77  C   UNL A   1      49.592  25.389  31.649  1.00  0.00     0.001 A 
ATOM     78  C   UNL A   1      50.495  25.576  30.604  1.00  0.00     0.000 A 
ENDBRANCH  60  73
ENDBRANCH  34  35
ENDBRANCH  27  29
ENDBRANCH  26  27
ENDBRANCH  25  26
ENDBRANCH   1  25
TORSDOF 16
ENDMDL
MODEL 2
REMARK VINA RESULT:     -10.3      2.771      6.273
REMARK SMILES CCOc1cc(N2CCOCC2)ccc1[C@H]([NH3+])C(=O)OCCOC(=O)c1ccc(-c2c3nc(c(-c4ccccc4)c4ccc([nH]4)c(-c4ccccc4)c4nc(c(-c5ccccc5)c5ccc2[nH]5)C=C4)C=C3)cc1
REMARK SMILES IDX 21 1 20 2 18 3 19 4 16 5 15 6 4 7 5 8 6 9 14 10 13 11 3 12
REMARK SMILES IDX 2 13 1 14 7 15 8 16 12 17 9 18 11 19 10 20 17 21 22 25 23 26
REMARK SMILES IDX 24 27 25 28 26 29 27 30 73 31 28 32 72 33 29 34 30 35 31 36
REMARK SMILES IDX 66 37 32 38 71 39 65 40 67 41 33 42 70 43 64 44 63 45 34 47
REMARK SMILES IDX 56 48 41 49 55 50 42 51 45 52 54 53 68 54 43 55 44 56 53 58
REMARK SMILES IDX 69 59 46 60 35 61 36 62 40 63 37 64 39 65 38 66 57 67 58 68
REMARK SMILES IDX 62 69 59 70 61 71 60 72 47 73 48 74 52 75 49 76 51 77 50 78
REMARK H PARENT 17 22 17 23 17 24 67 46 45 57
REMARK Flexibility Score: inf
ROOT
ATOM      1  C   UNL A   1      31.784  28.335  27.050  1.00  0.00     0.274 C 
ENDROOT
BRANCH   1   2
ATOM      2  O   UNL A   1      31.097  27.716  25.947  1.00  0.00    -0.457 OA
BRANCH   2   3
ATOM      3  C   UNL A   1      31.146  26.351  25.922  1.00  0.00     0.370 C 
ATOM      4  O   UNL A   1      31.436  25.646  26.885  1.00  0.00    -0.245 OA
BRANCH   3   5
ATOM      5  C   UNL A   1      30.817  25.782  24.534  1.00  0.00     0.326 C 
BRANCH   5   6
ATOM      6  C   UNL A   1      30.016  26.736  23.673  1.00  0.00     0.063 A 
ATOM      7  C   UNL A   1      30.561  27.679  22.793  1.00  0.00     0.131 A 
ATOM      8  C   UNL A   1      29.787  28.752  22.338  1.00  0.00     0.072 A 
ATOM      9  C   UNL A   1      28.444  28.879  22.716  1.00  0.00     0.040 A 
ATOM     10  C   UNL A   1      28.631  26.780  23.907  1.00  0.00     0.016 A 
ATOM     11  C   UNL A   1      27.857  27.831  23.424  1.00  0.00     0.027 A 
BRANCH   7  12
ATOM     12  O   UNL A   1      31.904  27.684  22.519  1.00  0.00    -0.493 OA
BRANCH  12  13
ATOM     13  C   UNL A   1      32.558  28.846  23.052  1.00  0.00     0.226 C 
ATOM     14  C   UNL A   1      33.872  28.425  23.697  1.00  0.00     0.049 C 
ENDBRANCH  12  13
ENDBRANCH   7  12
BRANCH   9  15
ATOM     15  N   UNL A   1      27.782  30.075  22.502  1.00  0.00    -0.367 N 
ATOM     16  C   UNL A   1      27.833  30.655  21.147  1.00  0.00     0.145 C 
ATOM     17  C   UNL A   1      27.673  31.052  23.588  1.00  0.00     0.145 C 
ATOM     18  C   UNL A   1      28.847  31.809  21.073  1.00  0.00     0.181 C 
ATOM     19  C   UNL A   1      28.709  32.174  23.406  1.00  0.00     0.181 C 
ATOM     20  O   UNL A   1      28.618  32.783  22.104  1.00  0.00    -0.378 OA
ENDBRANCH   9  15
ENDBRANCH   5   6
BRANCH   5  21
ATOM     21  N   UNL A   1      30.339  24.389  24.603  1.00  0.00    -0.342 N 
ATOM     22  H   UNL A   1      29.380  24.375  24.952  1.00  0.00     0.345 HD
ATOM     23  H   UNL A   1      30.937  23.854  25.232  1.00  0.00     0.345 HD
ATOM     24  H   UNL A   1      30.367  23.973  23.672  1.00  0.00     0.345 HD
ENDBRANCH   5  21
ENDBRANCH   3   5
ENDBRANCH   2   3
ENDBRANCH   1   2
BRANCH   1  25
ATOM     25  C   UNL A   1      31.777  29.864  26.941  1.00  0.00     0.275 C 
BRANCH  25  26
ATOM     26  O   UNL A   1      33.037  30.380  26.469  1.00  0.00    -0.458 OA
BRANCH  26  27
ATOM     27  C   UNL A   1      33.509  31.436  27.169  1.00  0.00     0.338 C 
ATOM     28  O   UNL A   1      32.907  32.474  27.423  1.00  0.00    -0.246 OA
BRANCH  27  29
ATOM     29  C   UNL A   1      34.825  31.120  27.750  1.00  0.00     0.060 A 
ATOM     30  C   UNL A   1      35.048  29.804  28.149  1.00  0.00     0.016 A 
ATOM     31  C   UNL A   1      35.796  32.092  27.992  1.00  0.00     0.016 A 
ATOM     32  C   UNL A   1      36.212  29.434  28.795  1.00  0.00     0.010 A 
ATOM     33  C   UNL A   1      36.977  31.726  28.653  1.00  0.00     0.010 A 
ATOM     34  C   UNL A   1      37.181  30.396  29.066  1.00  0.00    -0.014 A 
BRANCH  34  35
ATOM     35  C   UNL A   1      38.348  29.985  29.872  1.00  0.00     0.031 A 
ATOM     36  C   UNL A   1      39.437  29.182  29.229  1.00  0.00     0.074 A 
ATOM     37  C   UNL A   1      38.485  30.443  31.129  1.00  0.00     0.049 A 
ATOM     38  N   UNL A   1      40.511  28.669  29.767  1.00  0.00    -0.248 NA
ATOM     39  C   UNL A   1      39.306  28.936  27.783  1.00  0.00     0.031 C 
ATOM     40  C   UNL A   1      37.549  31.341  31.809  1.00  0.00     0.029 A 
ATOM     41  N   UNL A   1      39.479  30.234  32.048  1.00  0.00    -0.354 N 
ATOM     42  C   UNL A   1      41.171  28.016  28.735  1.00  0.00     0.074 A 
ATOM     43  C   UNL A   1      40.377  28.196  27.538  1.00  0.00     0.031 C 
ATOM     44  C   UNL A   1      38.017  31.607  33.040  1.00  0.00     0.029 A 
ATOM     45  C   UNL A   1      39.250  30.856  33.250  1.00  0.00     0.049 A 
ATOM     46  H   UNL A   1      40.280  29.692  31.864  1.00  0.00     0.167 HD
ATOM     47  C   UNL A   1      42.334  27.324  28.787  1.00  0.00     0.031 A 
ATOM     48  C   UNL A   1      39.939  30.790  34.405  1.00  0.00     0.031 A 
ATOM     49  C   UNL A   1      43.112  27.153  29.983  1.00  0.00     0.049 A 
ATOM     50  C   UNL A   1      41.173  29.935  34.462  1.00  0.00     0.074 A 
ATOM     51  C   UNL A   1      44.272  26.421  30.163  1.00  0.00     0.029 A 
ATOM     52  N   UNL A   1      42.810  27.736  31.204  1.00  0.00    -0.354 N 
ATOM     53  N   UNL A   1      41.745  29.247  33.504  1.00  0.00    -0.248 NA
ATOM     54  C   UNL A   1      41.849  29.837  35.764  1.00  0.00     0.031 C 
ATOM     55  C   UNL A   1      44.653  26.533  31.506  1.00  0.00     0.029 A 
ATOM     56  C   UNL A   1      43.755  27.372  32.147  1.00  0.00     0.049 A 
ATOM     57  H   UNL A   1      42.038  28.322  31.375  1.00  0.00     0.167 HD
ATOM     58  C   UNL A   1      42.852  28.641  34.081  1.00  0.00     0.074 A 
ATOM     59  C   UNL A   1      42.884  29.062  35.469  1.00  0.00     0.031 C 
ATOM     60  C   UNL A   1      43.759  27.805  33.520  1.00  0.00     0.031 A 
BRANCH  47  61
ATOM     61  C   UNL A   1      42.789  26.656  27.524  1.00  0.00    -0.014 A 
ATOM     62  C   UNL A   1      42.343  25.372  27.174  1.00  0.00     0.009 A 
ATOM     63  C   UNL A   1      43.678  27.325  26.668  1.00  0.00     0.009 A 
ATOM     64  C   UNL A   1      42.801  24.762  26.003  1.00  0.00     0.001 A 
ATOM     65  C   UNL A   1      44.117  26.722  25.489  1.00  0.00     0.001 A 
ATOM     66  C   UNL A   1      43.685  25.437  25.162  1.00  0.00     0.000 A 
ENDBRANCH  47  61
BRANCH  48  67
ATOM     67  C   UNL A   1      39.436  31.494  35.612  1.00  0.00    -0.014 A 
ATOM     68  C   UNL A   1      40.042  32.675  36.065  1.00  0.00     0.009 A 
ATOM     69  C   UNL A   1      38.343  30.976  36.325  1.00  0.00     0.009 A 
ATOM     70  C   UNL A   1      39.574  33.311  37.219  1.00  0.00     0.001 A 
ATOM     71  C   UNL A   1      37.859  31.628  37.460  1.00  0.00     0.001 A 
ATOM     72  C   UNL A   1      38.481  32.790  37.911  1.00  0.00     0.000 A 
ENDBRANCH  48  67
BRANCH  60  73
ATOM     73  C   UNL A   1      44.867  27.316  34.404  1.00  0.00    -0.014 A 
ATOM     74  C   UNL A   1      46.058  28.045  34.541  1.00  0.00     0.009 A 
ATOM     75  C   UNL A   1      44.701  26.130  35.134  1.00  0.00     0.009 A 
ATOM     76  C   UNL A   1      47.076  27.576  35.374  1.00  0.00     0.001 A 
ATOM     77  C   UNL A   1      45.712  25.677  35.982  1.00  0.00     0.001 A 
ATOM     78  C   UNL A   1      46.901  26.396  36.095  1.00  0.00     0.000 A 
ENDBRANCH  60  73
ENDBRANCH  34  35
ENDBRANCH  27  29
ENDBRANCH  26  27
ENDBRANCH  25  26
ENDBRANCH   1  25
TORSDOF 16
ENDMDL
MODEL 3
REMARK VINA RESULT:     -10.3      3.329      5.228
REMARK SMILES CCOc1cc(N2CCOCC2)ccc1[C@H]([NH3+])C(=O)OCCOC(=O)c1ccc(-c2c3nc(c(-c4ccccc4)c4ccc([nH]4)c(-c4ccccc4)c4nc(c(-c5ccccc5)c5ccc2[nH]5)C=C4)C=C3)cc1
REMARK SMILES IDX 21 1 20 2 18 3 19 4 16 5 15 6 4 7 5 8 6 9 14 10 13 11 3 12
REMARK SMILES IDX 2 13 1 14 7 15 8 16 12 17 9 18 11 19 10 20 17 21 22 25 23 26
REMARK SMILES IDX 24 27 25 28 26 29 27 30 73 31 28 32 72 33 29 34 30 35 31 36
REMARK SMILES IDX 66 37 32 38 71 39 65 40 67 41 33 42 70 43 64 44 63 45 34 47
REMARK SMILES IDX 56 48 41 49 55 50 42 51 45 52 54 53 68 54 43 55 44 56 53 58
REMARK SMILES IDX 69 59 46 60 35 61 36 62 40 63 37 64 39 65 38 66 57 67 58 68
REMARK SMILES IDX 62 69 59 70 61 71 60 72 47 73 48 74 52 75 49 76 51 77 50 78
REMARK H PARENT 17 22 17 23 17 24 67 46 45 57
REMARK Flexibility Score: inf
ROOT
ATOM      1  C   UNL A   1      34.557  34.465  31.421  1.00  0.00     0.274 C 
ENDROOT
BRANCH   1   2
ATOM      2  O   UNL A   1      34.077  33.687  30.309  1.00  0.00    -0.457 OA
BRANCH   2   3
ATOM      3  C   UNL A   1      33.556  34.411  29.275  1.00  0.00     0.370 C 
ATOM      4  O   UNL A   1      32.862  35.415  29.405  1.00  0.00    -0.245 OA
BRANCH   3   5
ATOM      5  C   UNL A   1      33.918  33.813  27.907  1.00  0.00     0.326 C 
BRANCH   5   6
ATOM      6  C   UNL A   1      33.245  32.484  27.640  1.00  0.00     0.063 A 
ATOM      7  C   UNL A   1      33.862  31.231  27.750  1.00  0.00     0.131 A 
ATOM      8  C   UNL A   1      33.301  30.109  27.130  1.00  0.00     0.072 A 
ATOM      9  C   UNL A   1      32.093  30.207  26.429  1.00  0.00     0.040 A 
ATOM     10  C   UNL A   1      31.956  32.534  27.083  1.00  0.00     0.016 A 
ATOM     11  C   UNL A   1      31.386  31.407  26.496  1.00  0.00     0.027 A 
BRANCH   7  12
ATOM     12  O   UNL A   1      35.117  31.116  28.290  1.00  0.00    -0.493 OA
BRANCH  12  13
ATOM     13  C   UNL A   1      35.641  29.786  28.157  1.00  0.00     0.226 C 
ATOM     14  C   UNL A   1      37.037  29.860  27.555  1.00  0.00     0.049 C 
ENDBRANCH  12  13
ENDBRANCH   7  12
BRANCH   9  15
ATOM     15  N   UNL A   1      31.702  29.178  25.590  1.00  0.00    -0.367 N 
ATOM     16  C   UNL A   1      32.465  27.918  25.648  1.00  0.00     0.145 C 
ATOM     17  C   UNL A   1      31.117  29.486  24.283  1.00  0.00     0.145 C 
ATOM     18  C   UNL A   1      33.444  27.805  24.467  1.00  0.00     0.181 C 
ATOM     19  C   UNL A   1      32.167  29.317  23.172  1.00  0.00     0.181 C 
ATOM     20  O   UNL A   1      32.783  28.017  23.208  1.00  0.00    -0.378 OA
ENDBRANCH   9  15
ENDBRANCH   5   6
BRANCH   5  21
ATOM     21  N   UNL A   1      35.365  33.892  27.632  1.00  0.00    -0.342 N 
ATOM     22  H   UNL A   1      35.886  33.626  28.469  1.00  0.00     0.345 HD
ATOM     23  H   UNL A   1      35.611  34.846  27.368  1.00  0.00     0.345 HD
ATOM     24  H   UNL A   1      35.601  33.257  26.870  1.00  0.00     0.345 HD
ENDBRANCH   5  21
ENDBRANCH   3   5
ENDBRANCH   2   3
ENDBRANCH   1   2
BRANCH   1  25
ATOM     25  C   UNL A   1      34.341  33.746  32.757  1.00  0.00     0.275 C 
BRANCH  25  26
ATOM     26  O   UNL A   1      34.981  32.454  32.789  1.00  0.00    -0.458 OA
BRANCH  26  27
ATOM     27  C   UNL A   1      36.234  32.461  33.298  1.00  0.00     0.338 C 
ATOM     28  O   UNL A   1      36.562  32.799  34.431  1.00  0.00    -0.246 OA
BRANCH  27  29
ATOM     29  C   UNL A   1      37.176  31.843  32.350  1.00  0.00     0.060 A 
ATOM     30  C   UNL A   1      38.119  30.958  32.872  1.00  0.00     0.016 A 
ATOM     31  C   UNL A   1      37.214  32.178  30.997  1.00  0.00     0.016 A 
ATOM     32  C   UNL A   1      39.106  30.408  32.077  1.00  0.00     0.010 A 
ATOM     33  C   UNL A   1      38.217  31.629  30.185  1.00  0.00     0.010 A 
ATOM     34  C   UNL A   1      39.173  30.750  30.729  1.00  0.00    -0.014 A 
BRANCH  34  35
ATOM     35  C   UNL A   1      40.319  30.243  29.949  1.00  0.00     0.031 A 
ATOM     36  C   UNL A   1      41.544  31.096  29.807  1.00  0.00     0.074 A 
ATOM     37  C   UNL A   1      40.306  28.980  29.489  1.00  0.00     0.049 A 
ATOM     38  N   UNL A   1      42.630  30.868  29.119  1.00  0.00    -0.248 NA
ATOM     39  C   UNL A   1      41.551  32.366  30.551  1.00  0.00     0.031 C 
ATOM     40  C   UNL A   1      39.219  28.018  29.686  1.00  0.00     0.029 A 
ATOM     41  N   UNL A   1      41.249  28.282  28.781  1.00  0.00    -0.354 N 
ATOM     42  C   UNL A   1      43.440  31.978  29.323  1.00  0.00     0.074 A 
ATOM     43  C   UNL A   1      42.720  32.878  30.197  1.00  0.00     0.031 C 
ATOM     44  C   UNL A   1      39.559  26.852  29.113  1.00  0.00     0.029 A 
ATOM     45  C   UNL A   1      40.857  27.005  28.463  1.00  0.00     0.049 A 
ATOM     46  H   UNL A   1      42.121  28.658  28.526  1.00  0.00     0.167 HD
ATOM     47  C   UNL A   1      44.672  32.222  28.818  1.00  0.00     0.031 A 
ATOM     48  C   UNL A   1      41.463  26.078  27.698  1.00  0.00     0.031 A 
ATOM     49  C   UNL A   1      45.376  31.319  27.949  1.00  0.00     0.049 A 
ATOM     50  C   UNL A   1      42.785  26.412  27.068  1.00  0.00     0.074 A 
ATOM     51  C   UNL A   1      46.601  31.492  27.330  1.00  0.00     0.029 A 
ATOM     52  N   UNL A   1      44.916  30.062  27.586  1.00  0.00    -0.354 N 
ATOM     53  N   UNL A   1      43.507  27.500  27.193  1.00  0.00    -0.248 NA
ATOM     54  C   UNL A   1      43.371  25.397  26.182  1.00  0.00     0.031 C 
ATOM     55  C   UNL A   1      46.866  30.351  26.563  1.00  0.00     0.029 A 
ATOM     56  C   UNL A   1      45.827  29.452  26.743  1.00  0.00     0.049 A 
ATOM     57  H   UNL A   1      44.067  29.664  27.885  1.00  0.00     0.167 HD
ATOM     58  C   UNL A   1      44.635  27.299  26.411  1.00  0.00     0.074 A 
ATOM     59  C   UNL A   1      44.512  25.974  25.833  1.00  0.00     0.031 C 
ATOM     60  C   UNL A   1      45.677  28.135  26.182  1.00  0.00     0.031 A 
BRANCH  47  61
ATOM     61  C   UNL A   1      45.298  33.544  29.150  1.00  0.00    -0.014 A 
ATOM     62  C   UNL A   1      45.203  34.638  28.276  1.00  0.00     0.009 A 
ATOM     63  C   UNL A   1      45.992  33.696  30.361  1.00  0.00     0.009 A 
ATOM     64  C   UNL A   1      45.816  35.853  28.599  1.00  0.00     0.001 A 
ATOM     65  C   UNL A   1      46.584  34.916  30.690  1.00  0.00     0.001 A 
ATOM     66  C   UNL A   1      46.503  35.991  29.805  1.00  0.00     0.000 A 
ENDBRANCH  47  61
BRANCH  48  67
ATOM     67  C   UNL A   1      40.789  24.782  27.427  1.00  0.00    -0.014 A 
ATOM     68  C   UNL A   1      41.282  23.585  27.965  1.00  0.00     0.009 A 
ATOM     69  C   UNL A   1      39.645  24.740  26.614  1.00  0.00     0.009 A 
ATOM     70  C   UNL A   1      40.653  22.370  27.677  1.00  0.00     0.001 A 
ATOM     71  C   UNL A   1      39.001  23.530  26.351  1.00  0.00     0.001 A 
ATOM     72  C   UNL A   1      39.512  22.345  26.877  1.00  0.00     0.000 A 
ENDBRANCH  48  67
BRANCH  60  73
ATOM     73  C   UNL A   1      46.769  27.626  25.289  1.00  0.00    -0.014 A 
ATOM     74  C   UNL A   1      46.808  27.965  23.928  1.00  0.00     0.009 A 
ATOM     75  C   UNL A   1      47.789  26.826  25.826  1.00  0.00     0.009 A 
ATOM     76  C   UNL A   1      47.836  27.487  23.115  1.00  0.00     0.001 A 
ATOM     77  C   UNL A   1      48.826  26.368  25.014  1.00  0.00     0.001 A 
ATOM     78  C   UNL A   1      48.845  26.693  23.658  1.00  0.00     0.000 A 
ENDBRANCH  60  73
ENDBRANCH  34  35
ENDBRANCH  27  29
ENDBRANCH  26  27
ENDBRANCH  25  26
ENDBRANCH   1  25
TORSDOF 16
ENDMDL
