MODEL 1
REMARK VINA RESULT:     -10.8      0.000      0.000
REMARK SMILES CC[C@@H]1CCCC[N@H+]1Cc1c(C(=O)OCCOC(=O)c2ccc(-c3c4nc(c(-c5ccccc5)c5ccc([nH]5)c(-c5ccccc5)c5nc(c(-c6ccccc6)c6ccc3[nH]6)C=C5)C=C4)cc2)oc2ccccc12
REMARK SMILES IDX 15 1 14 2 12 3 13 4 11 5 10 6 74 7 68 8 69 9 73 10 70 11
REMARK SMILES IDX 72 12 71 13 9 14 8 15 3 16 4 17 5 18 7 19 6 21 2 22 1 23
REMARK SMILES IDX 16 24 17 25 18 26 19 27 20 28 21 29 67 30 22 31 66 32 23 33
REMARK SMILES IDX 24 34 25 35 60 36 26 37 65 38 59 39 61 40 27 41 64 42 58 43
REMARK SMILES IDX 57 44 28 46 50 47 35 48 49 49 36 50 39 51 48 52 62 53 37 54
REMARK SMILES IDX 38 55 47 57 63 58 40 59 29 60 30 61 34 62 31 63 33 64 32 65
REMARK SMILES IDX 51 66 52 67 56 68 53 69 55 70 54 71 41 72 42 73 46 74 43 75
REMARK SMILES IDX 45 76 44 77
REMARK H PARENT 8 20 61 45 39 56
REMARK Flexibility Score: inf
ROOT
ATOM      1  C   UNL A   1      32.055  27.849  27.262  1.00  0.00     0.275 C 
ENDROOT
BRANCH   1   2
ATOM      2  O   UNL A   1      32.946  26.925  26.597  1.00  0.00    -0.456 OA
BRANCH   2   3
ATOM      3  C   UNL A   1      32.501  25.637  26.470  1.00  0.00     0.374 C 
ATOM      4  O   UNL A   1      31.406  25.247  26.836  1.00  0.00    -0.242 OA
BRANCH   3   5
ATOM      5  C   UNL A   1      33.468  24.834  25.739  1.00  0.00     0.221 A 
ATOM      6  C   UNL A   1      33.677  24.699  24.361  1.00  0.00     0.067 A 
ATOM      7  C   UNL A   1      34.824  23.847  24.230  1.00  0.00     0.030 A 
ATOM      8  O   UNL A   1      34.362  24.069  26.432  1.00  0.00    -0.448 OA
ATOM      9  C   UNL A   1      35.168  23.464  25.522  1.00  0.00     0.135 A 
ATOM     10  C   UNL A   1      35.644  23.374  23.184  1.00  0.00     0.012 A 
ATOM     11  C   UNL A   1      36.219  22.601  25.833  1.00  0.00     0.048 A 
ATOM     12  C   UNL A   1      36.704  22.502  23.460  1.00  0.00     0.001 A 
ATOM     13  C   UNL A   1      36.979  22.113  24.766  1.00  0.00     0.004 A 
BRANCH   6  14
ATOM     14  C   UNL A   1      32.950  25.510  23.334  1.00  0.00     0.304 C 
BRANCH  14  15
ATOM     15  N   UNL A   1      31.794  26.326  23.700  1.00  0.00    -0.329 N 
ATOM     16  C   UNL A   1      31.723  27.695  23.176  1.00  0.00     0.184 C 
ATOM     17  C   UNL A   1      30.402  28.404  23.593  1.00  0.00     0.065 C 
ATOM     18  C   UNL A   1      29.162  27.559  23.366  1.00  0.00     0.012 C 
ATOM     19  C   UNL A   1      30.562  25.527  23.604  1.00  0.00     0.262 C 
ATOM     20  H   UNL A   1      31.930  26.572  24.679  1.00  0.00     0.348 HD
ATOM     21  C   UNL A   1      29.325  26.253  24.115  1.00  0.00     0.062 C 
BRANCH  16  22
ATOM     22  C   UNL A   1      32.845  28.690  23.627  1.00  0.00     0.061 C 
ATOM     23  C   UNL A   1      34.150  28.828  22.858  1.00  0.00     0.010 C 
ENDBRANCH  16  22
ENDBRANCH  14  15
ENDBRANCH   6  14
ENDBRANCH   3   5
ENDBRANCH   2   3
ENDBRANCH   1   2
BRANCH   1  24
ATOM     24  C   UNL A   1      32.656  29.259  27.308  1.00  0.00     0.275 C 
BRANCH  24  25
ATOM     25  O   UNL A   1      34.028  29.171  27.732  1.00  0.00    -0.458 OA
BRANCH  25  26
ATOM     26  C   UNL A   1      34.609  30.310  28.187  1.00  0.00     0.338 C 
ATOM     27  O   UNL A   1      34.063  31.374  28.420  1.00  0.00    -0.246 OA
BRANCH  26  28
ATOM     28  C   UNL A   1      36.046  30.049  28.445  1.00  0.00     0.060 A 
ATOM     29  C   UNL A   1      36.948  30.249  27.410  1.00  0.00     0.016 A 
ATOM     30  C   UNL A   1      36.502  29.497  29.638  1.00  0.00     0.016 A 
ATOM     31  C   UNL A   1      38.263  29.792  27.506  1.00  0.00     0.010 A 
ATOM     32  C   UNL A   1      37.860  29.142  29.773  1.00  0.00     0.010 A 
ATOM     33  C   UNL A   1      38.754  29.230  28.686  1.00  0.00    -0.014 A 
BRANCH  33  34
ATOM     34  C   UNL A   1      40.144  28.665  28.742  1.00  0.00     0.031 A 
ATOM     35  C   UNL A   1      41.301  29.546  29.164  1.00  0.00     0.074 A 
ATOM     36  C   UNL A   1      40.411  27.361  28.499  1.00  0.00     0.049 A 
ATOM     37  N   UNL A   1      42.591  29.339  29.056  1.00  0.00    -0.248 NA
ATOM     38  C   UNL A   1      40.956  30.829  29.795  1.00  0.00     0.031 C 
ATOM     39  C   UNL A   1      39.428  26.314  28.221  1.00  0.00     0.029 A 
ATOM     40  N   UNL A   1      41.615  26.689  28.465  1.00  0.00    -0.354 N 
ATOM     41  C   UNL A   1      43.205  30.489  29.537  1.00  0.00     0.074 A 
ATOM     42  C   UNL A   1      42.148  31.391  29.940  1.00  0.00     0.031 C 
ATOM     43  C   UNL A   1      40.055  25.135  28.092  1.00  0.00     0.029 A 
ATOM     44  C   UNL A   1      41.495  25.356  28.145  1.00  0.00     0.049 A 
ATOM     45  H   UNL A   1      42.479  27.123  28.650  1.00  0.00     0.167 HD
ATOM     46  C   UNL A   1      44.527  30.778  29.632  1.00  0.00     0.031 A 
ATOM     47  C   UNL A   1      42.423  24.421  27.856  1.00  0.00     0.031 A 
ATOM     48  C   UNL A   1      45.590  29.872  29.282  1.00  0.00     0.049 A 
ATOM     49  C   UNL A   1      43.878  24.796  27.834  1.00  0.00     0.074 A 
ATOM     50  C   UNL A   1      46.958  30.095  29.316  1.00  0.00     0.029 A 
ATOM     51  N   UNL A   1      45.411  28.567  28.856  1.00  0.00    -0.354 N 
ATOM     52  N   UNL A   1      44.445  25.930  28.162  1.00  0.00    -0.248 NA
ATOM     53  C   UNL A   1      44.820  23.764  27.374  1.00  0.00     0.031 C 
ATOM     54  C   UNL A   1      47.603  28.941  28.858  1.00  0.00     0.029 A 
ATOM     55  C   UNL A   1      46.640  27.979  28.604  1.00  0.00     0.049 A 
ATOM     56  H   UNL A   1      44.538  28.123  28.749  1.00  0.00     0.167 HD
ATOM     57  C   UNL A   1      45.809  25.740  27.972  1.00  0.00     0.074 A 
ATOM     58  C   UNL A   1      45.986  24.378  27.516  1.00  0.00     0.031 C 
ATOM     59  C   UNL A   1      46.821  26.622  28.157  1.00  0.00     0.031 A 
BRANCH  46  60
ATOM     60  C   UNL A   1      44.904  32.165  30.077  1.00  0.00    -0.014 A 
ATOM     61  C   UNL A   1      45.187  32.466  31.417  1.00  0.00     0.009 A 
ATOM     62  C   UNL A   1      45.010  33.185  29.115  1.00  0.00     0.009 A 
ATOM     63  C   UNL A   1      45.533  33.768  31.789  1.00  0.00     0.001 A 
ATOM     64  C   UNL A   1      45.388  34.475  29.485  1.00  0.00     0.001 A 
ATOM     65  C   UNL A   1      45.637  34.769  30.824  1.00  0.00     0.000 A 
ENDBRANCH  46  60
BRANCH  47  66
ATOM     66  C   UNL A   1      42.002  23.047  27.460  1.00  0.00    -0.014 A 
ATOM     67  C   UNL A   1      41.659  22.754  26.132  1.00  0.00     0.009 A 
ATOM     68  C   UNL A   1      41.910  22.028  28.422  1.00  0.00     0.009 A 
ATOM     69  C   UNL A   1      41.215  21.476  25.782  1.00  0.00     0.001 A 
ATOM     70  C   UNL A   1      41.503  20.742  28.063  1.00  0.00     0.001 A 
ATOM     71  C   UNL A   1      41.145  20.470  26.745  1.00  0.00     0.000 A 
ENDBRANCH  47  66
BRANCH  59  72
ATOM     72  C   UNL A   1      48.222  26.132  27.920  1.00  0.00    -0.014 A 
ATOM     73  C   UNL A   1      48.980  25.550  28.948  1.00  0.00     0.009 A 
ATOM     74  C   UNL A   1      48.780  26.221  26.634  1.00  0.00     0.009 A 
ATOM     75  C   UNL A   1      50.279  25.098  28.700  1.00  0.00     0.001 A 
ATOM     76  C   UNL A   1      50.065  25.742  26.382  1.00  0.00     0.001 A 
ATOM     77  C   UNL A   1      50.817  25.189  27.417  1.00  0.00     0.000 A 
ENDBRANCH  59  72
ENDBRANCH  33  34
ENDBRANCH  26  28
ENDBRANCH  25  26
ENDBRANCH  24  25
ENDBRANCH   1  24
TORSDOF 14
ENDMDL
MODEL 2
REMARK VINA RESULT:     -10.7      3.658      6.698
REMARK SMILES CC[C@@H]1CCCC[N@H+]1Cc1c(C(=O)OCCOC(=O)c2ccc(-c3c4nc(c(-c5ccccc5)c5ccc([nH]5)c(-c5ccccc5)c5nc(c(-c6ccccc6)c6ccc3[nH]6)C=C5)C=C4)cc2)oc2ccccc12
REMARK SMILES IDX 15 1 14 2 12 3 13 4 11 5 10 6 74 7 68 8 69 9 73 10 70 11
REMARK SMILES IDX 72 12 71 13 9 14 8 15 3 16 4 17 5 18 7 19 6 21 2 22 1 23
REMARK SMILES IDX 16 24 17 25 18 26 19 27 20 28 21 29 67 30 22 31 66 32 23 33
REMARK SMILES IDX 24 34 25 35 60 36 26 37 65 38 59 39 61 40 27 41 64 42 58 43
REMARK SMILES IDX 57 44 28 46 50 47 35 48 49 49 36 50 39 51 48 52 62 53 37 54
REMARK SMILES IDX 38 55 47 57 63 58 40 59 29 60 30 61 34 62 31 63 33 64 32 65
REMARK SMILES IDX 51 66 52 67 56 68 53 69 55 70 54 71 41 72 42 73 46 74 43 75
REMARK SMILES IDX 45 76 44 77
REMARK H PARENT 8 20 61 45 39 56
REMARK Flexibility Score: inf
ROOT
ATOM      1  C   UNL A   1      31.365  27.917  26.348  1.00  0.00     0.275 C 
ENDROOT
BRANCH   1   2
ATOM      2  O   UNL A   1      32.510  27.038  26.267  1.00  0.00    -0.456 OA
BRANCH   2   3
ATOM      3  C   UNL A   1      32.254  25.697  26.360  1.00  0.00     0.374 C 
ATOM      4  O   UNL A   1      31.261  25.219  26.878  1.00  0.00    -0.242 OA
BRANCH   3   5
ATOM      5  C   UNL A   1      33.274  24.935  25.657  1.00  0.00     0.221 A 
ATOM      6  C   UNL A   1      33.317  24.488  24.330  1.00  0.00     0.067 A 
ATOM      7  C   UNL A   1      34.603  23.871  24.176  1.00  0.00     0.030 A 
ATOM      8  O   UNL A   1      34.409  24.566  26.319  1.00  0.00    -0.448 OA
ATOM      9  C   UNL A   1      35.202  23.913  25.431  1.00  0.00     0.135 A 
ATOM     10  C   UNL A   1      35.360  23.310  23.126  1.00  0.00     0.012 A 
ATOM     11  C   UNL A   1      36.460  23.384  25.721  1.00  0.00     0.048 A 
ATOM     12  C   UNL A   1      36.624  22.764  23.382  1.00  0.00     0.001 A 
ATOM     13  C   UNL A   1      37.159  22.791  24.666  1.00  0.00     0.004 A 
BRANCH   6  14
ATOM     14  C   UNL A   1      32.286  24.845  23.306  1.00  0.00     0.304 C 
BRANCH  14  15
ATOM     15  N   UNL A   1      31.666  26.169  23.290  1.00  0.00    -0.329 N 
ATOM     16  C   UNL A   1      32.167  27.153  22.323  1.00  0.00     0.184 C 
ATOM     17  C   UNL A   1      31.359  28.481  22.382  1.00  0.00     0.065 C 
ATOM     18  C   UNL A   1      29.855  28.277  22.380  1.00  0.00     0.012 C 
ATOM     19  C   UNL A   1      30.204  26.043  23.395  1.00  0.00     0.262 C 
ATOM     20  H   UNL A   1      32.000  26.638  24.132  1.00  0.00     0.348 HD
ATOM     21  C   UNL A   1      29.488  27.379  23.542  1.00  0.00     0.062 C 
BRANCH  16  22
ATOM     22  C   UNL A   1      33.657  27.609  22.476  1.00  0.00     0.061 C 
ATOM     23  C   UNL A   1      34.074  28.651  23.502  1.00  0.00     0.010 C 
ENDBRANCH  16  22
ENDBRANCH  14  15
ENDBRANCH   6  14
ENDBRANCH   3   5
ENDBRANCH   2   3
ENDBRANCH   1   2
BRANCH   1  24
ATOM     24  C   UNL A   1      31.756  29.364  26.026  1.00  0.00     0.275 C 
BRANCH  24  25
ATOM     25  O   UNL A   1      32.039  30.058  27.254  1.00  0.00    -0.458 OA
BRANCH  25  26
ATOM     26  C   UNL A   1      32.685  31.248  27.158  1.00  0.00     0.338 C 
ATOM     27  O   UNL A   1      32.218  32.313  26.794  1.00  0.00    -0.246 OA
BRANCH  26  28
ATOM     28  C   UNL A   1      34.075  31.083  27.648  1.00  0.00     0.060 A 
ATOM     29  C   UNL A   1      34.615  29.806  27.680  1.00  0.00     0.016 A 
ATOM     30  C   UNL A   1      34.806  32.138  28.187  1.00  0.00     0.016 A 
ATOM     31  C   UNL A   1      35.810  29.549  28.353  1.00  0.00     0.010 A 
ATOM     32  C   UNL A   1      36.069  31.892  28.765  1.00  0.00     0.010 A 
ATOM     33  C   UNL A   1      36.568  30.582  28.909  1.00  0.00    -0.014 A 
BRANCH  33  34
ATOM     34  C   UNL A   1      37.806  30.278  29.705  1.00  0.00     0.031 A 
ATOM     35  C   UNL A   1      38.932  29.485  29.075  1.00  0.00     0.074 A 
ATOM     36  C   UNL A   1      38.001  30.748  30.958  1.00  0.00     0.049 A 
ATOM     37  N   UNL A   1      39.968  28.914  29.640  1.00  0.00    -0.248 NA
ATOM     38  C   UNL A   1      38.884  29.319  27.614  1.00  0.00     0.031 C 
ATOM     39  C   UNL A   1      37.111  31.648  31.692  1.00  0.00     0.029 A 
ATOM     40  N   UNL A   1      39.042  30.537  31.837  1.00  0.00    -0.354 N 
ATOM     41  C   UNL A   1      40.651  28.264  28.617  1.00  0.00     0.074 A 
ATOM     42  C   UNL A   1      39.914  28.513  27.397  1.00  0.00     0.031 C 
ATOM     43  C   UNL A   1      37.660  31.947  32.879  1.00  0.00     0.029 A 
ATOM     44  C   UNL A   1      38.875  31.160  33.053  1.00  0.00     0.049 A 
ATOM     45  H   UNL A   1      39.831  29.990  31.617  1.00  0.00     0.167 HD
ATOM     46  C   UNL A   1      41.784  27.522  28.683  1.00  0.00     0.031 A 
ATOM     47  C   UNL A   1      39.567  31.068  34.206  1.00  0.00     0.031 A 
ATOM     48  C   UNL A   1      42.555  27.307  29.880  1.00  0.00     0.049 A 
ATOM     49  C   UNL A   1      40.741  30.134  34.297  1.00  0.00     0.074 A 
ATOM     50  C   UNL A   1      43.699  26.541  30.043  1.00  0.00     0.029 A 
ATOM     51  N   UNL A   1      42.278  27.874  31.113  1.00  0.00    -0.354 N 
ATOM     52  N   UNL A   1      41.304  29.417  33.357  1.00  0.00    -0.248 NA
ATOM     53  C   UNL A   1      41.361  29.979  35.623  1.00  0.00     0.031 C 
ATOM     54  C   UNL A   1      44.081  26.602  31.387  1.00  0.00     0.029 A 
ATOM     55  C   UNL A   1      43.215  27.459  32.045  1.00  0.00     0.049 A 
ATOM     56  H   UNL A   1      41.525  28.482  31.299  1.00  0.00     0.167 HD
ATOM     57  C   UNL A   1      42.355  28.746  33.969  1.00  0.00     0.074 A 
ATOM     58  C   UNL A   1      42.365  29.154  35.358  1.00  0.00     0.031 C 
ATOM     59  C   UNL A   1      43.231  27.867  33.425  1.00  0.00     0.031 A 
BRANCH  46  60
ATOM     60  C   UNL A   1      42.230  26.825  27.426  1.00  0.00    -0.014 A 
ATOM     61  C   UNL A   1      41.760  25.551  27.074  1.00  0.00     0.009 A 
ATOM     62  C   UNL A   1      43.118  27.485  26.558  1.00  0.00     0.009 A 
ATOM     63  C   UNL A   1      42.200  24.938  25.898  1.00  0.00     0.001 A 
ATOM     64  C   UNL A   1      43.530  26.883  25.369  1.00  0.00     0.001 A 
ATOM     65  C   UNL A   1      43.079  25.605  25.045  1.00  0.00     0.000 A 
ENDBRANCH  46  60
BRANCH  47  66
ATOM     66  C   UNL A   1      39.110  31.810  35.414  1.00  0.00    -0.014 A 
ATOM     67  C   UNL A   1      39.601  33.092  35.700  1.00  0.00     0.009 A 
ATOM     68  C   UNL A   1      38.199  31.222  36.307  1.00  0.00     0.009 A 
ATOM     69  C   UNL A   1      39.206  33.759  36.863  1.00  0.00     0.001 A 
ATOM     70  C   UNL A   1      37.776  31.904  37.449  1.00  0.00     0.001 A 
ATOM     71  C   UNL A   1      38.288  33.168  37.731  1.00  0.00     0.000 A 
ENDBRANCH  47  66
BRANCH  59  72
ATOM     72  C   UNL A   1      44.313  27.323  34.316  1.00  0.00    -0.014 A 
ATOM     73  C   UNL A   1      45.533  27.995  34.486  1.00  0.00     0.009 A 
ATOM     74  C   UNL A   1      44.091  26.132  35.027  1.00  0.00     0.009 A 
ATOM     75  C   UNL A   1      46.520  27.469  35.324  1.00  0.00     0.001 A 
ATOM     76  C   UNL A   1      45.067  25.624  35.886  1.00  0.00     0.001 A 
ATOM     77  C   UNL A   1      46.283  26.288  36.027  1.00  0.00     0.000 A 
ENDBRANCH  59  72
ENDBRANCH  33  34
ENDBRANCH  26  28
ENDBRANCH  25  26
ENDBRANCH  24  25
ENDBRANCH   1  24
TORSDOF 14
ENDMDL
MODEL 3
REMARK VINA RESULT:     -10.4      1.254      3.604
REMARK SMILES CC[C@@H]1CCCC[N@H+]1Cc1c(C(=O)OCCOC(=O)c2ccc(-c3c4nc(c(-c5ccccc5)c5ccc([nH]5)c(-c5ccccc5)c5nc(c(-c6ccccc6)c6ccc3[nH]6)C=C5)C=C4)cc2)oc2ccccc12
REMARK SMILES IDX 15 1 14 2 12 3 13 4 11 5 10 6 74 7 68 8 69 9 73 10 70 11
REMARK SMILES IDX 72 12 71 13 9 14 8 15 3 16 4 17 5 18 7 19 6 21 2 22 1 23
REMARK SMILES IDX 16 24 17 25 18 26 19 27 20 28 21 29 67 30 22 31 66 32 23 33
REMARK SMILES IDX 24 34 25 35 60 36 26 37 65 38 59 39 61 40 27 41 64 42 58 43
REMARK SMILES IDX 57 44 28 46 50 47 35 48 49 49 36 50 39 51 48 52 62 53 37 54
REMARK SMILES IDX 38 55 47 57 63 58 40 59 29 60 30 61 34 62 31 63 33 64 32 65
REMARK SMILES IDX 51 66 52 67 56 68 53 69 55 70 54 71 41 72 42 73 46 74 43 75
REMARK SMILES IDX 45 76 44 77
REMARK H PARENT 8 20 61 45 39 56
REMARK Flexibility Score: inf
ROOT
ATOM      1  C   UNL A   1      33.256  29.390  26.794  1.00  0.00     0.275 C 
ENDROOT
BRANCH   1   2
ATOM      2  O   UNL A   1      33.678  29.306  25.413  1.00  0.00    -0.456 OA
BRANCH   2   3
ATOM      3  C   UNL A   1      33.324  28.168  24.739  1.00  0.00     0.374 C 
ATOM      4  O   UNL A   1      34.036  27.187  24.621  1.00  0.00    -0.242 OA
BRANCH   3   5
ATOM      5  C   UNL A   1      31.945  28.255  24.284  1.00  0.00     0.221 A 
ATOM      6  C   UNL A   1      30.942  27.279  24.241  1.00  0.00     0.067 A 
ATOM      7  C   UNL A   1      29.765  27.961  23.784  1.00  0.00     0.030 A 
ATOM      8  O   UNL A   1      31.468  29.447  23.819  1.00  0.00    -0.448 OA
ATOM      9  C   UNL A   1      30.160  29.265  23.505  1.00  0.00     0.135 A 
ATOM     10  C   UNL A   1      28.400  27.654  23.602  1.00  0.00     0.012 A 
ATOM     11  C   UNL A   1      29.313  30.253  23.003  1.00  0.00     0.048 A 
ATOM     12  C   UNL A   1      27.523  28.620  23.094  1.00  0.00     0.001 A 
ATOM     13  C   UNL A   1      27.978  29.898  22.788  1.00  0.00     0.004 A 
BRANCH   6  14
ATOM     14  C   UNL A   1      31.107  25.902  24.804  1.00  0.00     0.304 C 
BRANCH  14  15
ATOM     15  N   UNL A   1      32.077  24.968  24.237  1.00  0.00    -0.329 N 
ATOM     16  C   UNL A   1      32.328  23.713  24.956  1.00  0.00     0.184 C 
ATOM     17  C   UNL A   1      33.325  22.798  24.188  1.00  0.00     0.065 C 
ATOM     18  C   UNL A   1      32.998  22.646  22.714  1.00  0.00     0.012 C 
ATOM     19  C   UNL A   1      31.880  24.858  22.783  1.00  0.00     0.262 C 
ATOM     20  H   UNL A   1      32.991  25.390  24.397  1.00  0.00     0.348 HD
ATOM     21  C   UNL A   1      32.946  24.023  22.086  1.00  0.00     0.062 C 
BRANCH  16  22
ATOM     22  C   UNL A   1      32.944  23.824  26.391  1.00  0.00     0.061 C 
ATOM     23  C   UNL A   1      34.340  23.307  26.706  1.00  0.00     0.010 C 
ENDBRANCH  16  22
ENDBRANCH  14  15
ENDBRANCH   6  14
ENDBRANCH   3   5
ENDBRANCH   2   3
ENDBRANCH   1   2
BRANCH   1  24
ATOM     24  C   UNL A   1      33.045  30.848  27.218  1.00  0.00     0.275 C 
BRANCH  24  25
ATOM     25  O   UNL A   1      34.326  31.477  27.392  1.00  0.00    -0.458 OA
BRANCH  25  26
ATOM     26  C   UNL A   1      34.885  31.412  28.627  1.00  0.00     0.338 C 
ATOM     27  O   UNL A   1      34.462  31.911  29.654  1.00  0.00    -0.246 OA
BRANCH  26  28
ATOM     28  C   UNL A   1      36.092  30.552  28.566  1.00  0.00     0.060 A 
ATOM     29  C   UNL A   1      36.616  30.067  29.755  1.00  0.00     0.016 A 
ATOM     30  C   UNL A   1      36.782  30.317  27.381  1.00  0.00     0.016 A 
ATOM     31  C   UNL A   1      37.874  29.466  29.793  1.00  0.00     0.010 A 
ATOM     32  C   UNL A   1      38.000  29.607  27.407  1.00  0.00     0.010 A 
ATOM     33  C   UNL A   1      38.597  29.218  28.624  1.00  0.00    -0.014 A 
BRANCH  33  34
ATOM     34  C   UNL A   1      39.987  28.651  28.691  1.00  0.00     0.031 A 
ATOM     35  C   UNL A   1      41.140  29.529  29.126  1.00  0.00     0.074 A 
ATOM     36  C   UNL A   1      40.254  27.347  28.447  1.00  0.00     0.049 A 
ATOM     37  N   UNL A   1      42.431  29.320  29.029  1.00  0.00    -0.248 NA
ATOM     38  C   UNL A   1      40.792  30.811  29.758  1.00  0.00     0.031 C 
ATOM     39  C   UNL A   1      39.272  26.303  28.157  1.00  0.00     0.029 A 
ATOM     40  N   UNL A   1      41.457  26.674  28.422  1.00  0.00    -0.354 N 
ATOM     41  C   UNL A   1      43.042  30.469  29.520  1.00  0.00     0.074 A 
ATOM     42  C   UNL A   1      41.983  31.371  29.915  1.00  0.00     0.031 C 
ATOM     43  C   UNL A   1      39.899  25.123  28.030  1.00  0.00     0.029 A 
ATOM     44  C   UNL A   1      41.339  25.342  28.097  1.00  0.00     0.049 A 
ATOM     45  H   UNL A   1      42.320  27.106  28.616  1.00  0.00     0.167 HD
ATOM     46  C   UNL A   1      44.363  30.755  29.628  1.00  0.00     0.031 A 
ATOM     47  C   UNL A   1      42.267  24.407  27.813  1.00  0.00     0.031 A 
ATOM     48  C   UNL A   1      45.429  29.849  29.284  1.00  0.00     0.049 A 
ATOM     49  C   UNL A   1      43.723  24.780  27.806  1.00  0.00     0.074 A 
ATOM     50  C   UNL A   1      46.796  30.070  29.331  1.00  0.00     0.029 A 
ATOM     51  N   UNL A   1      45.251  28.545  28.853  1.00  0.00    -0.354 N 
ATOM     52  N   UNL A   1      44.289  25.912  28.142  1.00  0.00    -0.248 NA
ATOM     53  C   UNL A   1      44.668  23.748  27.351  1.00  0.00     0.031 C 
ATOM     54  C   UNL A   1      47.444  28.916  28.876  1.00  0.00     0.029 A 
ATOM     55  C   UNL A   1      46.482  27.956  28.611  1.00  0.00     0.049 A 
ATOM     56  H   UNL A   1      44.379  28.103  28.737  1.00  0.00     0.167 HD
ATOM     57  C   UNL A   1      45.654  25.721  27.964  1.00  0.00     0.074 A 
ATOM     58  C   UNL A   1      45.834  24.360  27.506  1.00  0.00     0.031 C 
ATOM     59  C   UNL A   1      46.665  26.601  28.161  1.00  0.00     0.031 A 
BRANCH  46  60
ATOM     60  C   UNL A   1      44.738  32.141  30.080  1.00  0.00    -0.014 A 
ATOM     61  C   UNL A   1      44.838  33.215  29.183  1.00  0.00     0.009 A 
ATOM     62  C   UNL A   1      44.961  32.375  31.447  1.00  0.00     0.009 A 
ATOM     63  C   UNL A   1      45.189  34.487  29.644  1.00  0.00     0.001 A 
ATOM     64  C   UNL A   1      45.280  33.653  31.908  1.00  0.00     0.001 A 
ATOM     65  C   UNL A   1      45.405  34.706  31.004  1.00  0.00     0.000 A 
ENDBRANCH  46  60
BRANCH  47  66
ATOM     66  C   UNL A   1      41.848  23.035  27.410  1.00  0.00    -0.014 A 
ATOM     67  C   UNL A   1      41.429  22.766  26.099  1.00  0.00     0.009 A 
ATOM     68  C   UNL A   1      41.836  21.991  28.350  1.00  0.00     0.009 A 
ATOM     69  C   UNL A   1      40.988  21.488  25.744  1.00  0.00     0.001 A 
ATOM     70  C   UNL A   1      41.431  20.706  27.985  1.00  0.00     0.001 A 
ATOM     71  C   UNL A   1      40.997  20.458  26.685  1.00  0.00     0.000 A 
ENDBRANCH  47  66
BRANCH  59  72
ATOM     72  C   UNL A   1      48.068  26.109  27.936  1.00  0.00    -0.014 A 
ATOM     73  C   UNL A   1      48.681  26.190  26.676  1.00  0.00     0.009 A 
ATOM     74  C   UNL A   1      48.802  25.589  29.014  1.00  0.00     0.009 A 
ATOM     75  C   UNL A   1      49.988  25.729  26.494  1.00  0.00     0.001 A 
ATOM     76  C   UNL A   1      50.117  25.158  28.838  1.00  0.00     0.001 A 
ATOM     77  C   UNL A   1      50.706  25.220  27.576  1.00  0.00     0.000 A 
ENDBRANCH  59  72
ENDBRANCH  33  34
ENDBRANCH  26  28
ENDBRANCH  25  26
ENDBRANCH  24  25
ENDBRANCH   1  24
TORSDOF 14
ENDMDL
