MODEL 1
REMARK VINA RESULT:      -9.3      0.000      0.000
REMARK SMILES COc1ccc([C@@H]2[C@@H](C(=O)c3cccc4c3CCCC4)[C@H](C(=O)OCCOC(=O)c3ccc(-c4c5nc(c(-c6ccccc6)c6ccc([nH]6)c(-c6ccccc6)c6nc(c(-c7ccccc7)c7ccc4[nH]7)C=C6)C=C5)cc3)SC3=NC(=O)S[C@H]32)cc1
REMARK SMILES IDX 25 1 24 2 22 3 23 4 21 5 7 6 8 7 84 8 79 9 83 10 78 11 80 12
REMARK SMILES IDX 81 13 82 14 6 15 3 16 4 17 86 18 5 19 85 20 2 21 1 22 9 23
REMARK SMILES IDX 10 24 11 25 12 26 16 27 13 28 15 29 17 30 14 31 20 32 18 33
REMARK SMILES IDX 19 34 26 35 27 36 28 37 29 38 30 39 31 40 77 41 32 42 76 43
REMARK SMILES IDX 33 44 34 45 35 46 70 47 36 48 75 49 69 50 71 51 37 52 74 53
REMARK SMILES IDX 68 54 67 55 38 57 60 58 45 59 59 60 46 61 49 62 58 63 72 64
REMARK SMILES IDX 47 65 48 66 57 68 73 69 50 70 39 71 40 72 44 73 41 74 43 75
REMARK SMILES IDX 42 76 61 77 62 78 66 79 63 80 65 81 64 82 51 83 52 84 56 85
REMARK SMILES IDX 53 86 55 87 54 88
REMARK H PARENT 71 56 49 67
REMARK Flexibility Score: inf
ROOT
ATOM      1  C   UNL A   1      37.757  32.465  36.355  1.00  0.00     0.274 C 
ENDROOT
BRANCH   1   2
ATOM      2  O   UNL A   1      36.882  33.275  35.504  1.00  0.00    -0.461 OA
BRANCH   2   3
ATOM      3  C   UNL A   1      37.504  34.280  34.828  1.00  0.00     0.320 C 
ATOM      4  O   UNL A   1      38.442  34.908  35.323  1.00  0.00    -0.251 OA
BRANCH   3   5
ATOM      5  C   UNL A   1      36.863  34.754  33.482  1.00  0.00     0.174 C 
ATOM      6  C   UNL A   1      35.961  34.097  31.026  1.00  0.00     0.052 C 
ATOM      7  C   UNL A   1      37.015  33.939  32.177  1.00  0.00     0.095 C 
ATOM      8  C   UNL A   1      34.495  34.274  31.474  1.00  0.00     0.121 C 
ATOM      9  C   UNL A   1      34.388  35.319  32.530  1.00  0.00     0.093 C 
ATOM     10  S   UNL A   1      33.434  34.975  30.162  1.00  0.00    -0.052 SA
ATOM     11  S   UNL A   1      35.097  34.947  34.044  1.00  0.00    -0.093 SA
ATOM     12  N   UNL A   1      33.774  36.431  32.335  1.00  0.00    -0.200 NA
ATOM     13  C   UNL A   1      33.236  36.469  31.078  1.00  0.00     0.306 C 
ATOM     14  O   UNL A   1      32.680  37.438  30.590  1.00  0.00    -0.259 OA
BRANCH   6  15
ATOM     15  C   UNL A   1      36.005  32.883  30.077  1.00  0.00    -0.042 A 
ATOM     16  C   UNL A   1      36.028  30.694  28.303  1.00  0.00     0.118 A 
ATOM     17  C   UNL A   1      36.397  31.962  27.861  1.00  0.00     0.047 A 
ATOM     18  C   UNL A   1      35.691  30.497  29.639  1.00  0.00     0.047 A 
ATOM     19  C   UNL A   1      36.370  33.053  28.736  1.00  0.00     0.008 A 
ATOM     20  C   UNL A   1      35.677  31.584  30.518  1.00  0.00     0.008 A 
BRANCH  16  21
ATOM     21  O   UNL A   1      36.082  29.680  27.386  1.00  0.00    -0.497 OA
ATOM     22  C   UNL A   1      34.791  29.179  27.040  1.00  0.00     0.278 C 
ENDBRANCH  16  21
ENDBRANCH   6  15
BRANCH   7  23
ATOM     23  C   UNL A   1      38.426  33.801  31.522  1.00  0.00     0.168 C 
ATOM     24  O   UNL A   1      38.569  34.675  30.640  1.00  0.00    -0.294 OA
BRANCH  23  25
ATOM     25  C   UNL A   1      39.830  32.966  32.007  1.00  0.00     0.021 A 
ATOM     26  C   UNL A   1      40.626  33.055  30.914  1.00  0.00     0.012 A 
ATOM     27  C   UNL A   1      39.799  31.547  32.336  1.00  0.00    -0.034 A 
ATOM     28  C   UNL A   1      40.135  32.187  29.953  1.00  0.00     0.001 A 
ATOM     29  C   UNL A   1      38.703  30.786  31.886  1.00  0.00    -0.044 A 
ATOM     30  C   UNL A   1      41.308  30.439  32.054  1.00  0.00     0.036 C 
ATOM     31  C   UNL A   1      39.088  31.232  30.378  1.00  0.00     0.004 A 
ATOM     32  C   UNL A   1      38.172  28.820  32.613  1.00  0.00     0.036 C 
ATOM     33  C   UNL A   1      41.348  28.458  32.152  1.00  0.00     0.005 C 
ATOM     34  C   UNL A   1      39.697  27.531  32.628  1.00  0.00     0.005 C 
ENDBRANCH  23  25
ENDBRANCH   7  23
ENDBRANCH   3   5
ENDBRANCH   2   3
ENDBRANCH   1   2
BRANCH   1  35
ATOM     35  C   UNL A   1      37.805  32.909  37.830  1.00  0.00     0.275 C 
BRANCH  35  36
ATOM     36  O   UNL A   1      39.078  32.599  38.434  1.00  0.00    -0.458 OA
BRANCH  36  37
ATOM     37  C   UNL A   1      39.879  33.674  38.384  1.00  0.00     0.338 C 
ATOM     38  O   UNL A   1      39.615  34.758  38.879  1.00  0.00    -0.246 OA
BRANCH  37  39
ATOM     39  C   UNL A   1      41.168  33.482  37.705  1.00  0.00     0.060 A 
ATOM     40  C   UNL A   1      41.139  33.575  35.946  1.00  0.00     0.016 A 
ATOM     41  C   UNL A   1      42.142  32.307  38.557  1.00  0.00     0.016 A 
ATOM     42  C   UNL A   1      42.026  32.524  34.868  1.00  0.00     0.010 A 
ATOM     43  C   UNL A   1      42.998  31.071  37.530  1.00  0.00     0.010 A 
ATOM     44  C   UNL A   1      43.086  31.275  35.554  1.00  0.00    -0.014 A 
BRANCH  44  45
ATOM     45  C   UNL A   1      44.195  30.670  34.251  1.00  0.00     0.031 A 
ATOM     46  C   UNL A   1      44.688  31.430  32.814  1.00  0.00     0.074 A 
ATOM     47  C   UNL A   1      44.441  29.323  34.177  1.00  0.00     0.049 A 
ATOM     48  N   UNL A   1      44.741  30.890  31.590  1.00  0.00    -0.248 NA
ATOM     49  C   UNL A   1      44.851  32.909  32.687  1.00  0.00     0.031 C 
ATOM     50  C   UNL A   1      44.158  28.312  35.196  1.00  0.00     0.029 A 
ATOM     51  N   UNL A   1      44.944  28.543  33.133  1.00  0.00    -0.354 N 
ATOM     52  C   UNL A   1      44.685  31.978  30.693  1.00  0.00     0.074 A 
ATOM     53  C   UNL A   1      44.349  33.116  31.483  1.00  0.00     0.031 C 
ATOM     54  C   UNL A   1      44.515  27.094  34.769  1.00  0.00     0.029 A 
ATOM     55  C   UNL A   1      44.970  27.183  33.393  1.00  0.00     0.049 A 
ATOM     56  H   UNL A   1      45.254  28.930  32.282  1.00  0.00     0.167 HD
ATOM     57  C   UNL A   1      44.994  32.159  29.377  1.00  0.00     0.031 A 
ATOM     58  C   UNL A   1      45.276  26.097  32.646  1.00  0.00     0.031 A 
ATOM     59  C   UNL A   1      45.472  31.116  28.536  1.00  0.00     0.049 A 
ATOM     60  C   UNL A   1      45.649  26.244  31.194  1.00  0.00     0.074 A 
ATOM     61  C   UNL A   1      45.883  31.158  27.217  1.00  0.00     0.029 A 
ATOM     62  N   UNL A   1      45.616  29.817  28.976  1.00  0.00    -0.354 N 
ATOM     63  N   UNL A   1      45.671  27.317  30.444  1.00  0.00    -0.248 NA
ATOM     64  C   UNL A   1      46.053  25.013  30.490  1.00  0.00     0.031 C 
ATOM     65  C   UNL A   1      46.212  29.851  26.837  1.00  0.00     0.029 A 
ATOM     66  C   UNL A   1      46.077  29.032  27.947  1.00  0.00     0.049 A 
ATOM     67  H   UNL A   1      45.420  29.502  29.888  1.00  0.00     0.167 HD
ATOM     68  C   UNL A   1      46.138  26.901  29.201  1.00  0.00     0.074 A 
ATOM     69  C   UNL A   1      46.387  25.480  29.295  1.00  0.00     0.031 C 
ATOM     70  C   UNL A   1      46.349  27.630  28.078  1.00  0.00     0.031 A 
BRANCH  57  71
ATOM     71  C   UNL A   1      44.849  33.572  28.808  1.00  0.00    -0.014 A 
ATOM     72  C   UNL A   1      45.906  34.506  28.879  1.00  0.00     0.009 A 
ATOM     73  C   UNL A   1      43.605  34.025  28.339  1.00  0.00     0.009 A 
ATOM     74  C   UNL A   1      45.679  35.870  28.663  1.00  0.00     0.001 A 
ATOM     75  C   UNL A   1      43.399  35.383  28.059  1.00  0.00     0.001 A 
ATOM     76  C   UNL A   1      44.421  36.309  28.262  1.00  0.00     0.000 A 
ENDBRANCH  57  71
BRANCH  58  77
ATOM     77  C   UNL A   1      45.325  24.740  33.287  1.00  0.00    -0.014 A 
ATOM     78  C   UNL A   1      46.503  24.328  33.937  1.00  0.00     0.009 A 
ATOM     79  C   UNL A   1      44.225  23.866  33.287  1.00  0.00     0.009 A 
ATOM     80  C   UNL A   1      46.583  23.079  34.561  1.00  0.00     0.001 A 
ATOM     81  C   UNL A   1      44.298  22.628  33.939  1.00  0.00     0.001 A 
ATOM     82  C   UNL A   1      45.477  22.233  34.572  1.00  0.00     0.000 A 
ENDBRANCH  58  77
BRANCH  70  83
ATOM     83  C   UNL A   1      46.944  26.951  26.887  1.00  0.00    -0.014 A 
ATOM     84  C   UNL A   1      46.138  26.384  25.891  1.00  0.00     0.009 A 
ATOM     85  C   UNL A   1      48.336  26.999  26.707  1.00  0.00     0.009 A 
ATOM     86  C   UNL A   1      46.722  25.861  24.739  1.00  0.00     0.001 A 
ATOM     87  C   UNL A   1      48.912  26.506  25.540  1.00  0.00     0.001 A 
ATOM     88  C   UNL A   1      48.105  25.933  24.559  1.00  0.00     0.000 A 
ENDBRANCH  70  83
ENDBRANCH  44  45
ENDBRANCH  37  39
ENDBRANCH  36  37
ENDBRANCH  35  36
ENDBRANCH   1  35
TORSDOF 15
ENDMDL
MODEL 2
REMARK VINA RESULT:      -9.2      6.952     11.961
REMARK SMILES COc1ccc([C@@H]2[C@@H](C(=O)c3cccc4c3CCCC4)[C@H](C(=O)OCCOC(=O)c3ccc(-c4c5nc(c(-c6ccccc6)c6ccc([nH]6)c(-c6ccccc6)c6nc(c(-c7ccccc7)c7ccc4[nH]7)C=C6)C=C5)cc3)SC3=NC(=O)S[C@H]32)cc1
REMARK SMILES IDX 25 1 24 2 22 3 23 4 21 5 7 6 8 7 84 8 79 9 83 10 78 11 80 12
REMARK SMILES IDX 81 13 82 14 6 15 3 16 4 17 86 18 5 19 85 20 2 21 1 22 9 23
REMARK SMILES IDX 10 24 11 25 12 26 16 27 13 28 15 29 17 30 14 31 20 32 18 33
REMARK SMILES IDX 19 34 26 35 27 36 28 37 29 38 30 39 31 40 77 41 32 42 76 43
REMARK SMILES IDX 33 44 34 45 35 46 70 47 36 48 75 49 69 50 71 51 37 52 74 53
REMARK SMILES IDX 68 54 67 55 38 57 60 58 45 59 59 60 46 61 49 62 58 63 72 64
REMARK SMILES IDX 47 65 48 66 57 68 73 69 50 70 39 71 40 72 44 73 41 74 43 75
REMARK SMILES IDX 42 76 61 77 62 78 66 79 63 80 65 81 64 82 51 83 52 84 56 85
REMARK SMILES IDX 53 86 55 87 54 88
REMARK H PARENT 71 56 49 67
REMARK Flexibility Score: inf
ROOT
ATOM      1  C   UNL A   1      44.421  39.934  29.356  1.00  0.00     0.274 C 
ENDROOT
BRANCH   1   2
ATOM      2  O   UNL A   1      44.812  40.597  28.111  1.00  0.00    -0.461 OA
BRANCH   2   3
ATOM      3  C   UNL A   1      44.720  41.955  28.127  1.00  0.00     0.320 C 
ATOM      4  O   UNL A   1      44.836  42.598  29.173  1.00  0.00    -0.251 OA
BRANCH   3   5
ATOM      5  C   UNL A   1      44.262  42.667  26.812  1.00  0.00     0.174 C 
ATOM      6  C   UNL A   1      44.947  43.695  24.413  1.00  0.00     0.052 C 
ATOM      7  C   UNL A   1      45.249  43.474  25.937  1.00  0.00     0.095 C 
ATOM      8  C   UNL A   1      44.300  42.505  23.675  1.00  0.00     0.121 C 
ATOM      9  C   UNL A   1      43.141  41.973  24.443  1.00  0.00     0.093 C 
ATOM     10  S   UNL A   1      43.502  42.995  22.106  1.00  0.00    -0.052 SA
ATOM     11  S   UNL A   1      43.500  41.211  25.934  1.00  0.00    -0.093 SA
ATOM     12  N   UNL A   1      41.934  42.052  24.006  1.00  0.00    -0.200 NA
ATOM     13  C   UNL A   1      41.907  42.638  22.770  1.00  0.00     0.306 C 
ATOM     14  O   UNL A   1      40.892  42.924  22.159  1.00  0.00    -0.259 OA
BRANCH   6  15
ATOM     15  C   UNL A   1      46.236  44.060  23.649  1.00  0.00    -0.042 A 
ATOM     16  C   UNL A   1      48.549  44.740  22.192  1.00  0.00     0.118 A 
ATOM     17  C   UNL A   1      47.581  45.703  22.466  1.00  0.00     0.047 A 
ATOM     18  C   UNL A   1      48.396  43.446  22.681  1.00  0.00     0.047 A 
ATOM     19  C   UNL A   1      46.424  45.364  23.174  1.00  0.00     0.008 A 
ATOM     20  C   UNL A   1      47.247  43.109  23.402  1.00  0.00     0.008 A 
BRANCH  16  21
ATOM     21  O   UNL A   1      49.652  45.152  21.495  1.00  0.00    -0.497 OA
ATOM     22  C   UNL A   1      49.924  44.333  20.358  1.00  0.00     0.278 C 
ENDBRANCH  16  21
ENDBRANCH   6  15
BRANCH   7  23
ATOM     23  C   UNL A   1      45.871  44.791  26.500  1.00  0.00     0.168 C 
ATOM     24  O   UNL A   1      45.252  45.778  26.046  1.00  0.00    -0.294 OA
BRANCH  23  25
ATOM     25  C   UNL A   1      46.927  45.085  27.804  1.00  0.00     0.021 A 
ATOM     26  C   UNL A   1      47.716  46.081  27.334  1.00  0.00     0.012 A 
ATOM     27  C   UNL A   1      47.850  44.066  28.283  1.00  0.00    -0.034 A 
ATOM     28  C   UNL A   1      48.596  45.533  26.415  1.00  0.00     0.001 A 
ATOM     29  C   UNL A   1      48.141  42.982  27.433  1.00  0.00    -0.044 A 
ATOM     30  C   UNL A   1      49.513  44.532  29.061  1.00  0.00     0.036 C 
ATOM     31  C   UNL A   1      48.660  44.057  26.338  1.00  0.00     0.004 A 
ATOM     32  C   UNL A   1      49.076  41.133  28.049  1.00  0.00     0.036 C 
ATOM     33  C   UNL A   1      51.004  43.293  29.480  1.00  0.00     0.005 C 
ATOM     34  C   UNL A   1      50.749  41.393  29.108  1.00  0.00     0.005 C 
ENDBRANCH  23  25
ENDBRANCH   7  23
ENDBRANCH   3   5
ENDBRANCH   2   3
ENDBRANCH   1   2
BRANCH   1  35
ATOM     35  C   UNL A   1      45.347  38.778  29.786  1.00  0.00     0.275 C 
BRANCH  35  36
ATOM     36  O   UNL A   1      46.470  38.641  28.891  1.00  0.00    -0.458 OA
BRANCH  36  37
ATOM     37  C   UNL A   1      46.244  37.638  28.028  1.00  0.00     0.338 C 
ATOM     38  O   UNL A   1      46.581  37.644  26.856  1.00  0.00    -0.246 OA
BRANCH  37  39
ATOM     39  C   UNL A   1      45.569  36.457  28.582  1.00  0.00     0.060 A 
ATOM     40  C   UNL A   1      46.612  35.119  29.058  1.00  0.00     0.016 A 
ATOM     41  C   UNL A   1      44.033  36.199  27.788  1.00  0.00     0.016 A 
ATOM     42  C   UNL A   1      46.270  33.427  28.782  1.00  0.00     0.010 A 
ATOM     43  C   UNL A   1      43.641  34.482  27.326  1.00  0.00     0.010 A 
ATOM     44  C   UNL A   1      44.742  32.970  28.000  1.00  0.00    -0.014 A 
BRANCH  44  45
ATOM     45  C   UNL A   1      44.462  31.196  28.260  1.00  0.00     0.031 A 
ATOM     46  C   UNL A   1      45.289  29.865  27.604  1.00  0.00     0.074 A 
ATOM     47  C   UNL A   1      43.253  30.793  28.767  1.00  0.00     0.049 A 
ATOM     48  N   UNL A   1      44.750  28.756  27.081  1.00  0.00    -0.248 NA
ATOM     49  C   UNL A   1      46.741  29.893  27.261  1.00  0.00     0.031 C 
ATOM     50  C   UNL A   1      42.238  31.629  29.409  1.00  0.00     0.029 A 
ATOM     51  N   UNL A   1      42.629  29.544  28.757  1.00  0.00    -0.354 N 
ATOM     52  C   UNL A   1      45.738  28.221  26.227  1.00  0.00     0.074 A 
ATOM     53  C   UNL A   1      46.746  29.225  26.122  1.00  0.00     0.031 C 
ATOM     54  C   UNL A   1      41.173  30.897  29.761  1.00  0.00     0.029 A 
ATOM     55  C   UNL A   1      41.352  29.535  29.291  1.00  0.00     0.049 A 
ATOM     56  H   UNL A   1      43.064  28.735  28.400  1.00  0.00     0.167 HD
ATOM     57  C   UNL A   1      45.962  27.004  25.654  1.00  0.00     0.031 A 
ATOM     58  C   UNL A   1      40.387  28.591  29.383  1.00  0.00     0.031 A 
ATOM     59  C   UNL A   1      45.087  25.894  25.812  1.00  0.00     0.049 A 
ATOM     60  C   UNL A   1      40.592  27.221  28.790  1.00  0.00     0.074 A 
ATOM     61  C   UNL A   1      45.209  24.596  25.353  1.00  0.00     0.029 A 
ATOM     62  N   UNL A   1      43.910  25.974  26.526  1.00  0.00    -0.354 N 
ATOM     63  N   UNL A   1      41.596  26.761  28.086  1.00  0.00    -0.248 NA
ATOM     64  C   UNL A   1      39.521  26.236  29.022  1.00  0.00     0.031 C 
ATOM     65  C   UNL A   1      44.053  23.904  25.735  1.00  0.00     0.029 A 
ATOM     66  C   UNL A   1      43.269  24.760  26.494  1.00  0.00     0.049 A 
ATOM     67  H   UNL A   1      43.580  26.779  26.987  1.00  0.00     0.167 HD
ATOM     68  C   UNL A   1      41.301  25.424  27.836  1.00  0.00     0.074 A 
ATOM     69  C   UNL A   1      40.028  25.146  28.462  1.00  0.00     0.031 C 
ATOM     70  C   UNL A   1      42.022  24.502  27.154  1.00  0.00     0.031 A 
BRANCH  57  71
ATOM     71  C   UNL A   1      47.244  26.836  24.834  1.00  0.00    -0.014 A 
ATOM     72  C   UNL A   1      48.389  26.215  25.380  1.00  0.00     0.009 A 
ATOM     73  C   UNL A   1      47.363  27.436  23.571  1.00  0.00     0.009 A 
ATOM     74  C   UNL A   1      49.641  26.346  24.769  1.00  0.00     0.001 A 
ATOM     75  C   UNL A   1      48.608  27.508  22.929  1.00  0.00     0.001 A 
ATOM     76  C   UNL A   1      49.751  27.002  23.546  1.00  0.00     0.000 A 
ENDBRANCH  57  71
BRANCH  58  77
ATOM     77  C   UNL A   1      39.131  28.880  30.155  1.00  0.00    -0.014 A 
ATOM     78  C   UNL A   1      38.005  29.378  29.476  1.00  0.00     0.009 A 
ATOM     79  C   UNL A   1      39.026  28.647  31.537  1.00  0.00     0.009 A 
ATOM     80  C   UNL A   1      36.812  29.644  30.156  1.00  0.00     0.001 A 
ATOM     81  C   UNL A   1      37.820  28.884  32.210  1.00  0.00     0.001 A 
ATOM     82  C   UNL A   1      36.715  29.386  31.521  1.00  0.00     0.000 A 
ENDBRANCH  58  77
BRANCH  70  83
ATOM     83  C   UNL A   1      41.518  23.096  27.103  1.00  0.00    -0.014 A 
ATOM     84  C   UNL A   1      40.456  22.731  26.266  1.00  0.00     0.009 A 
ATOM     85  C   UNL A   1      42.211  22.104  27.814  1.00  0.00     0.009 A 
ATOM     86  C   UNL A   1      40.086  21.391  26.156  1.00  0.00     0.001 A 
ATOM     87  C   UNL A   1      41.860  20.764  27.677  1.00  0.00     0.001 A 
ATOM     88  C   UNL A   1      40.794  20.409  26.851  1.00  0.00     0.000 A 
ENDBRANCH  70  83
ENDBRANCH  44  45
ENDBRANCH  37  39
ENDBRANCH  36  37
ENDBRANCH  35  36
ENDBRANCH   1  35
TORSDOF 15
ENDMDL
MODEL 3
REMARK VINA RESULT:      -9.0      7.143     13.619
REMARK SMILES COc1ccc([C@@H]2[C@@H](C(=O)c3cccc4c3CCCC4)[C@H](C(=O)OCCOC(=O)c3ccc(-c4c5nc(c(-c6ccccc6)c6ccc([nH]6)c(-c6ccccc6)c6nc(c(-c7ccccc7)c7ccc4[nH]7)C=C6)C=C5)cc3)SC3=NC(=O)S[C@H]32)cc1
REMARK SMILES IDX 25 1 24 2 22 3 23 4 21 5 7 6 8 7 84 8 79 9 83 10 78 11 80 12
REMARK SMILES IDX 81 13 82 14 6 15 3 16 4 17 86 18 5 19 85 20 2 21 1 22 9 23
REMARK SMILES IDX 10 24 11 25 12 26 16 27 13 28 15 29 17 30 14 31 20 32 18 33
REMARK SMILES IDX 19 34 26 35 27 36 28 37 29 38 30 39 31 40 77 41 32 42 76 43
REMARK SMILES IDX 33 44 34 45 35 46 70 47 36 48 75 49 69 50 71 51 37 52 74 53
REMARK SMILES IDX 68 54 67 55 38 57 60 58 45 59 59 60 46 61 49 62 58 63 72 64
REMARK SMILES IDX 47 65 48 66 57 68 73 69 50 70 39 71 40 72 44 73 41 74 43 75
REMARK SMILES IDX 42 76 61 77 62 78 66 79 63 80 65 81 64 82 51 83 52 84 56 85
REMARK SMILES IDX 53 86 55 87 54 88
REMARK H PARENT 71 56 49 67
REMARK Flexibility Score: inf
ROOT
ATOM      1  C   UNL A   1      43.090  40.755  26.420  1.00  0.00     0.274 C 
ENDROOT
BRANCH   1   2
ATOM      2  O   UNL A   1      43.136  41.130  25.006  1.00  0.00    -0.461 OA
BRANCH   2   3
ATOM      3  C   UNL A   1      42.097  41.900  24.579  1.00  0.00     0.320 C 
ATOM      4  O   UNL A   1      40.944  41.703  24.969  1.00  0.00    -0.251 OA
BRANCH   3   5
ATOM      5  C   UNL A   1      42.373  42.914  23.421  1.00  0.00     0.174 C 
ATOM      6  C   UNL A   1      44.148  43.967  21.682  1.00  0.00     0.052 C 
ATOM      7  C   UNL A   1      43.798  43.430  23.115  1.00  0.00     0.095 C 
ATOM      8  C   UNL A   1      43.500  43.211  20.503  1.00  0.00     0.121 C 
ATOM      9  C   UNL A   1      42.041  43.026  20.732  1.00  0.00     0.093 C 
ATOM     10  S   UNL A   1      43.504  44.181  18.954  1.00  0.00    -0.052 SA
ATOM     11  S   UNL A   1      41.597  41.976  22.010  1.00  0.00    -0.093 SA
ATOM     12  N   UNL A   1      41.153  43.597  19.998  1.00  0.00    -0.200 NA
ATOM     13  C   UNL A   1      41.747  44.328  19.006  1.00  0.00     0.306 C 
ATOM     14  O   UNL A   1      41.152  45.047  18.221  1.00  0.00    -0.259 OA
BRANCH   6  15
ATOM     15  C   UNL A   1      45.673  43.952  21.452  1.00  0.00    -0.042 A 
ATOM     16  C   UNL A   1      48.467  43.893  21.099  1.00  0.00     0.118 A 
ATOM     17  C   UNL A   1      47.740  42.707  21.159  1.00  0.00     0.047 A 
ATOM     18  C   UNL A   1      47.805  45.116  21.166  1.00  0.00     0.047 A 
ATOM     19  C   UNL A   1      46.355  42.733  21.351  1.00  0.00     0.008 A 
ATOM     20  C   UNL A   1      46.418  45.144  21.344  1.00  0.00     0.008 A 
BRANCH  16  21
ATOM     21  O   UNL A   1      49.817  43.783  20.908  1.00  0.00    -0.497 OA
ATOM     22  C   UNL A   1      50.573  44.272  22.016  1.00  0.00     0.278 C 
ENDBRANCH  16  21
ENDBRANCH   6  15
BRANCH   7  23
ATOM     23  C   UNL A   1      44.524  44.338  24.158  1.00  0.00     0.168 C 
ATOM     24  O   UNL A   1      44.463  45.532  23.794  1.00  0.00    -0.294 OA
BRANCH  23  25
ATOM     25  C   UNL A   1      45.028  44.052  25.760  1.00  0.00     0.021 A 
ATOM     26  C   UNL A   1      45.879  45.078  25.996  1.00  0.00     0.012 A 
ATOM     27  C   UNL A   1      45.771  42.853  26.125  1.00  0.00    -0.034 A 
ATOM     28  C   UNL A   1      47.057  44.825  25.312  1.00  0.00     0.001 A 
ATOM     29  C   UNL A   1      46.403  42.128  25.097  1.00  0.00    -0.044 A 
ATOM     30  C   UNL A   1      47.019  42.865  27.548  1.00  0.00     0.036 C 
ATOM     31  C   UNL A   1      47.221  43.476  24.729  1.00  0.00     0.004 A 
ATOM     32  C   UNL A   1      47.153  40.108  25.279  1.00  0.00     0.036 C 
ATOM     33  C   UNL A   1      48.326  41.436  27.979  1.00  0.00     0.005 C 
ATOM     34  C   UNL A   1      48.321  39.827  26.875  1.00  0.00     0.005 C 
ENDBRANCH  23  25
ENDBRANCH   7  23
ENDBRANCH   3   5
ENDBRANCH   2   3
ENDBRANCH   1   2
BRANCH   1  35
ATOM     35  C   UNL A   1      43.278  39.249  26.691  1.00  0.00     0.275 C 
BRANCH  35  36
ATOM     36  O   UNL A   1      44.650  38.845  26.501  1.00  0.00    -0.458 OA
BRANCH  36  37
ATOM     37  C   UNL A   1      44.914  37.765  27.252  1.00  0.00     0.338 C 
ATOM     38  O   UNL A   1      46.021  37.270  27.388  1.00  0.00    -0.246 OA
BRANCH  37  39
ATOM     39  C   UNL A   1      43.768  37.186  27.967  1.00  0.00     0.060 A 
ATOM     40  C   UNL A   1      43.681  37.523  29.694  1.00  0.00     0.016 A 
ATOM     41  C   UNL A   1      43.358  35.621  27.305  1.00  0.00     0.016 A 
ATOM     42  C   UNL A   1      43.218  36.370  30.923  1.00  0.00     0.010 A 
ATOM     43  C   UNL A   1      42.997  34.304  28.509  1.00  0.00     0.010 A 
ATOM     44  C   UNL A   1      42.750  34.728  30.437  1.00  0.00    -0.014 A 
BRANCH  44  45
ATOM     45  C   UNL A   1      41.901  33.927  31.826  1.00  0.00     0.031 A 
ATOM     46  C   UNL A   1      40.236  33.758  32.122  1.00  0.00     0.074 A 
ATOM     47  C   UNL A   1      42.607  33.700  32.980  1.00  0.00     0.049 A 
ATOM     48  N   UNL A   1      39.594  33.970  33.278  1.00  0.00    -0.248 NA
ATOM     49  C   UNL A   1      39.222  33.628  31.033  1.00  0.00     0.031 C 
ATOM     50  C   UNL A   1      44.058  33.755  33.157  1.00  0.00     0.029 A 
ATOM     51  N   UNL A   1      42.170  33.435  34.280  1.00  0.00    -0.354 N 
ATOM     52  C   UNL A   1      38.251  34.221  32.924  1.00  0.00     0.074 A 
ATOM     53  C   UNL A   1      38.245  34.379  31.507  1.00  0.00     0.031 C 
ATOM     54  C   UNL A   1      44.392  33.497  34.428  1.00  0.00     0.029 A 
ATOM     55  C   UNL A   1      43.184  33.351  35.220  1.00  0.00     0.049 A 
ATOM     56  H   UNL A   1      41.220  33.317  34.508  1.00  0.00     0.167 HD
ATOM     57  C   UNL A   1      37.060  34.205  33.589  1.00  0.00     0.031 A 
ATOM     58  C   UNL A   1      43.198  33.213  36.566  1.00  0.00     0.031 A 
ATOM     59  C   UNL A   1      36.945  33.920  34.978  1.00  0.00     0.049 A 
ATOM     60  C   UNL A   1      41.910  33.164  37.346  1.00  0.00     0.074 A 
ATOM     61  C   UNL A   1      35.817  33.804  35.768  1.00  0.00     0.029 A 
ATOM     62  N   UNL A   1      38.041  33.681  35.778  1.00  0.00    -0.354 N 
ATOM     63  N   UNL A   1      40.677  33.306  36.928  1.00  0.00    -0.248 NA
ATOM     64  C   UNL A   1      42.026  32.921  38.795  1.00  0.00     0.031 C 
ATOM     65  C   UNL A   1      36.246  33.564  37.079  1.00  0.00     0.029 A 
ATOM     66  C   UNL A   1      37.628  33.453  37.069  1.00  0.00     0.049 A 
ATOM     67  H   UNL A   1      38.977  33.675  35.472  1.00  0.00     0.167 HD
ATOM     68  C   UNL A   1      39.873  33.119  38.049  1.00  0.00     0.074 A 
ATOM     69  C   UNL A   1      40.755  32.854  39.163  1.00  0.00     0.031 C 
ATOM     70  C   UNL A   1      38.522  33.157  38.150  1.00  0.00     0.031 A 
BRANCH  57  71
ATOM     71  C   UNL A   1      35.794  34.472  32.771  1.00  0.00    -0.014 A 
ATOM     72  C   UNL A   1      35.351  33.565  31.783  1.00  0.00     0.009 A 
ATOM     73  C   UNL A   1      35.127  35.703  32.876  1.00  0.00     0.009 A 
ATOM     74  C   UNL A   1      34.404  33.945  30.827  1.00  0.00     0.001 A 
ATOM     75  C   UNL A   1      34.130  36.056  31.956  1.00  0.00     0.001 A 
ATOM     76  C   UNL A   1      33.800  35.197  30.909  1.00  0.00     0.000 A 
ENDBRANCH  57  71
BRANCH  58  77
ATOM     77  C   UNL A   1      44.503  33.024  37.284  1.00  0.00    -0.014 A 
ATOM     78  C   UNL A   1      45.156  34.144  37.831  1.00  0.00     0.009 A 
ATOM     79  C   UNL A   1      45.092  31.761  37.456  1.00  0.00     0.009 A 
ATOM     80  C   UNL A   1      46.365  34.007  38.522  1.00  0.00     0.001 A 
ATOM     81  C   UNL A   1      46.287  31.623  38.175  1.00  0.00     0.001 A 
ATOM     82  C   UNL A   1      46.924  32.745  38.704  1.00  0.00     0.000 A 
ENDBRANCH  58  77
BRANCH  70  83
ATOM     83  C   UNL A   1      37.895  32.834  39.467  1.00  0.00    -0.014 A 
ATOM     84  C   UNL A   1      37.443  31.541  39.762  1.00  0.00     0.009 A 
ATOM     85  C   UNL A   1      37.880  33.818  40.468  1.00  0.00     0.009 A 
ATOM     86  C   UNL A   1      36.968  31.246  41.040  1.00  0.00     0.001 A 
ATOM     87  C   UNL A   1      37.436  33.511  41.751  1.00  0.00     0.001 A 
ATOM     88  C   UNL A   1      36.976  32.226  42.034  1.00  0.00     0.000 A 
ENDBRANCH  70  83
ENDBRANCH  44  45
ENDBRANCH  37  39
ENDBRANCH  36  37
ENDBRANCH  35  36
ENDBRANCH   1  35
TORSDOF 15
ENDMDL
