MODEL 1
REMARK VINA RESULT:     -10.7      0.000      0.000
REMARK SMILES CS(=O)(=O)c1ccc(N2N=C(C(=O)OCCOC(=O)c3ccc(-c4c5nc(c(-c6ccccc6)c6ccc([nH]6)c(-c6ccccc6)c6nc(c(-c7ccccc7)c7ccc4[nH]7)C=C6)C=C5)cc3)C[C@H]2c2ccco2)cc1
REMARK SMILES IDX 15 1 14 2 12 3 13 4 11 5 9 6 10 7 69 8 68 9 8 10 5 11 6 12
REMARK SMILES IDX 76 13 7 14 75 15 2 16 1 17 3 18 4 19 70 20 71 21 74 22 72 23
REMARK SMILES IDX 73 24 16 25 17 26 18 27 19 28 20 29 21 30 67 31 22 32 66 33
REMARK SMILES IDX 23 34 24 35 25 36 60 37 26 38 65 39 59 40 61 41 27 42 64 43
REMARK SMILES IDX 58 44 57 45 28 47 50 48 35 49 49 50 36 51 39 52 48 53 62 54
REMARK SMILES IDX 37 55 38 56 47 58 63 59 40 60 29 61 30 62 34 63 31 64 33 65
REMARK SMILES IDX 32 66 51 67 52 68 56 69 53 70 55 71 54 72 41 73 42 74 46 75
REMARK SMILES IDX 43 76 45 77 44 78
REMARK H PARENT 61 46 39 57
REMARK Flexibility Score: inf
ROOT
ATOM      1  C   UNL A   1      35.580  22.318  24.638  1.00  0.00     0.275 C 
ENDROOT
BRANCH   1   2
ATOM      2  O   UNL A   1      34.801  23.479  24.972  1.00  0.00    -0.458 OA
BRANCH   2   3
ATOM      3  C   UNL A   1      34.444  24.252  23.932  1.00  0.00     0.354 C 
ATOM      4  O   UNL A   1      34.844  24.204  22.785  1.00  0.00    -0.245 OA
BRANCH   3   5
ATOM      5  C   UNL A   1      33.423  25.246  24.403  1.00  0.00     0.148 C 
ATOM      6  N   UNL A   1      31.956  26.764  24.405  1.00  0.00    -0.254 N 
ATOM      7  N   UNL A   1      32.703  25.964  23.594  1.00  0.00    -0.169 NA
ATOM      8  C   UNL A   1      32.302  26.664  25.826  1.00  0.00     0.180 C 
ATOM      9  C   UNL A   1      33.134  25.376  25.861  1.00  0.00     0.101 C 
BRANCH   6  10
ATOM     10  C   UNL A   1      31.043  27.657  23.870  1.00  0.00     0.060 A 
ATOM     11  C   UNL A   1      29.151  29.446  22.801  1.00  0.00     0.067 A 
ATOM     12  C   UNL A   1      28.764  28.149  23.130  1.00  0.00     0.022 A 
ATOM     13  C   UNL A   1      30.474  29.855  22.989  1.00  0.00     0.022 A 
ATOM     14  C   UNL A   1      29.713  27.266  23.659  1.00  0.00     0.029 A 
ATOM     15  C   UNL A   1      31.410  28.961  23.519  1.00  0.00     0.029 A 
BRANCH  11  16
ATOM     16  S   UNL A   1      28.017  30.649  22.151  1.00  0.00     0.175 S 
ATOM     17  C   UNL A   1      28.859  32.204  22.099  1.00  0.00     0.163 C 
ATOM     18  O   UNL A   1      26.941  30.765  23.116  1.00  0.00    -0.224 OA
ATOM     19  O   UNL A   1      27.754  30.257  20.779  1.00  0.00    -0.224 OA
ENDBRANCH  11  16
ENDBRANCH   6  10
BRANCH   8  20
ATOM     20  C   UNL A   1      33.048  27.818  26.424  1.00  0.00     0.128 A 
ATOM     21  C   UNL A   1      34.393  28.082  26.589  1.00  0.00     0.048 A 
ATOM     22  O   UNL A   1      32.310  28.848  26.936  1.00  0.00    -0.467 OA
ATOM     23  C   UNL A   1      34.480  29.337  27.237  1.00  0.00     0.042 A 
ATOM     24  C   UNL A   1      33.186  29.762  27.425  1.00  0.00     0.195 A 
ENDBRANCH   8  20
ENDBRANCH   3   5
ENDBRANCH   2   3
ENDBRANCH   1   2
BRANCH   1  25
ATOM     25  C   UNL A   1      36.691  22.150  25.676  1.00  0.00     0.275 C 
BRANCH  25  26
ATOM     26  O   UNL A   1      37.654  23.212  25.532  1.00  0.00    -0.458 OA
BRANCH  26  27
ATOM     27  C   UNL A   1      38.860  22.978  26.104  1.00  0.00     0.338 C 
ATOM     28  O   UNL A   1      39.529  21.961  26.031  1.00  0.00    -0.246 OA
BRANCH  27  29
ATOM     29  C   UNL A   1      39.343  24.224  26.730  1.00  0.00     0.060 A 
ATOM     30  C   UNL A   1      38.970  24.472  28.053  1.00  0.00     0.016 A 
ATOM     31  C   UNL A   1      40.143  25.136  26.038  1.00  0.00     0.016 A 
ATOM     32  C   UNL A   1      39.399  25.632  28.695  1.00  0.00     0.010 A 
ATOM     33  C   UNL A   1      40.558  26.310  26.675  1.00  0.00     0.010 A 
ATOM     34  C   UNL A   1      40.182  26.565  28.004  1.00  0.00    -0.014 A 
BRANCH  34  35
ATOM     35  C   UNL A   1      40.586  27.819  28.673  1.00  0.00     0.031 A 
ATOM     36  C   UNL A   1      39.610  28.950  28.801  1.00  0.00     0.074 A 
ATOM     37  C   UNL A   1      41.817  27.927  29.203  1.00  0.00     0.049 A 
ATOM     38  N   UNL A   1      39.770  30.116  29.372  1.00  0.00    -0.248 NA
ATOM     39  C   UNL A   1      38.274  28.735  28.225  1.00  0.00     0.031 C 
ATOM     40  C   UNL A   1      42.837  26.879  29.197  1.00  0.00     0.029 A 
ATOM     41  N   UNL A   1      42.407  28.973  29.864  1.00  0.00    -0.354 N 
ATOM     42  C   UNL A   1      38.555  30.771  29.237  1.00  0.00     0.074 A 
ATOM     43  C   UNL A   1      37.667  29.876  28.524  1.00  0.00     0.031 C 
ATOM     44  C   UNL A   1      43.930  27.333  29.835  1.00  0.00     0.029 A 
ATOM     45  C   UNL A   1      43.686  28.702  30.281  1.00  0.00     0.049 A 
ATOM     46  H   UNL A   1      41.957  29.833  30.026  1.00  0.00     0.167 HD
ATOM     47  C   UNL A   1      38.208  32.005  29.670  1.00  0.00     0.031 A 
ATOM     48  C   UNL A   1      44.563  29.476  30.943  1.00  0.00     0.031 A 
ATOM     49  C   UNL A   1      39.084  32.911  30.357  1.00  0.00     0.049 A 
ATOM     50  C   UNL A   1      44.188  30.879  31.317  1.00  0.00     0.074 A 
ATOM     51  C   UNL A   1      38.817  34.188  30.823  1.00  0.00     0.029 A 
ATOM     52  N   UNL A   1      40.407  32.640  30.665  1.00  0.00    -0.354 N 
ATOM     53  N   UNL A   1      43.042  31.494  31.160  1.00  0.00    -0.248 NA
ATOM     54  C   UNL A   1      45.236  31.699  31.942  1.00  0.00     0.031 C 
ATOM     55  C   UNL A   1      39.990  34.696  31.398  1.00  0.00     0.029 A 
ATOM     56  C   UNL A   1      40.978  33.732  31.294  1.00  0.00     0.049 A 
ATOM     57  H   UNL A   1      40.871  31.795  30.465  1.00  0.00     0.167 HD
ATOM     58  C   UNL A   1      43.231  32.774  31.661  1.00  0.00     0.074 A 
ATOM     59  C   UNL A   1      44.601  32.847  32.129  1.00  0.00     0.031 C 
ATOM     60  C   UNL A   1      42.347  33.796  31.728  1.00  0.00     0.031 A 
BRANCH  47  61
ATOM     61  C   UNL A   1      36.804  32.444  29.394  1.00  0.00    -0.014 A 
ATOM     62  C   UNL A   1      36.487  33.080  28.184  1.00  0.00     0.009 A 
ATOM     63  C   UNL A   1      35.793  32.218  30.340  1.00  0.00     0.009 A 
ATOM     64  C   UNL A   1      35.179  33.497  27.933  1.00  0.00     0.001 A 
ATOM     65  C   UNL A   1      34.487  32.635  30.083  1.00  0.00     0.001 A 
ATOM     66  C   UNL A   1      34.181  33.276  28.883  1.00  0.00     0.000 A 
ENDBRANCH  47  61
BRANCH  48  67
ATOM     67  C   UNL A   1      45.905  28.946  31.277  1.00  0.00    -0.014 A 
ATOM     68  C   UNL A   1      46.960  29.077  30.364  1.00  0.00     0.009 A 
ATOM     69  C   UNL A   1      46.129  28.311  32.506  1.00  0.00     0.009 A 
ATOM     70  C   UNL A   1      48.223  28.570  30.676  1.00  0.00     0.001 A 
ATOM     71  C   UNL A   1      47.394  27.808  32.814  1.00  0.00     0.001 A 
ATOM     72  C   UNL A   1      48.438  27.936  31.900  1.00  0.00     0.000 A 
ENDBRANCH  48  67
BRANCH  60  73
ATOM     73  C   UNL A   1      42.847  35.084  32.303  1.00  0.00    -0.014 A 
ATOM     74  C   UNL A   1      42.674  35.360  33.668  1.00  0.00     0.009 A 
ATOM     75  C   UNL A   1      43.507  36.016  31.490  1.00  0.00     0.009 A 
ATOM     76  C   UNL A   1      43.142  36.559  34.205  1.00  0.00     0.001 A 
ATOM     77  C   UNL A   1      43.977  37.212  32.033  1.00  0.00     0.001 A 
ATOM     78  C   UNL A   1      43.792  37.484  33.389  1.00  0.00     0.000 A 
ENDBRANCH  60  73
ENDBRANCH  34  35
ENDBRANCH  27  29
ENDBRANCH  26  27
ENDBRANCH  25  26
ENDBRANCH   1  25
TORSDOF 14
ENDMDL
MODEL 2
REMARK VINA RESULT:     -10.6      3.224      8.398
REMARK SMILES CS(=O)(=O)c1ccc(N2N=C(C(=O)OCCOC(=O)c3ccc(-c4c5nc(c(-c6ccccc6)c6ccc([nH]6)c(-c6ccccc6)c6nc(c(-c7ccccc7)c7ccc4[nH]7)C=C6)C=C5)cc3)C[C@H]2c2ccco2)cc1
REMARK SMILES IDX 15 1 14 2 12 3 13 4 11 5 9 6 10 7 69 8 68 9 8 10 5 11 6 12
REMARK SMILES IDX 76 13 7 14 75 15 2 16 1 17 3 18 4 19 70 20 71 21 74 22 72 23
REMARK SMILES IDX 73 24 16 25 17 26 18 27 19 28 20 29 21 30 67 31 22 32 66 33
REMARK SMILES IDX 23 34 24 35 25 36 60 37 26 38 65 39 59 40 61 41 27 42 64 43
REMARK SMILES IDX 58 44 57 45 28 47 50 48 35 49 49 50 36 51 39 52 48 53 62 54
REMARK SMILES IDX 37 55 38 56 47 58 63 59 40 60 29 61 30 62 34 63 31 64 33 65
REMARK SMILES IDX 32 66 51 67 52 68 56 69 53 70 55 71 54 72 41 73 42 74 46 75
REMARK SMILES IDX 43 76 45 77 44 78
REMARK H PARENT 61 46 39 57
REMARK Flexibility Score: inf
ROOT
ATOM      1  C   UNL A   1      33.661  27.356  26.081  1.00  0.00     0.275 C 
ENDROOT
BRANCH   1   2
ATOM      2  O   UNL A   1      32.907  26.194  26.463  1.00  0.00    -0.458 OA
BRANCH   2   3
ATOM      3  C   UNL A   1      32.189  25.624  25.480  1.00  0.00     0.354 C 
ATOM      4  O   UNL A   1      31.075  25.921  25.092  1.00  0.00    -0.245 OA
BRANCH   3   5
ATOM      5  C   UNL A   1      32.992  24.504  24.885  1.00  0.00     0.148 C 
ATOM      6  N   UNL A   1      33.690  22.569  24.415  1.00  0.00    -0.254 N 
ATOM      7  N   UNL A   1      32.701  23.250  25.058  1.00  0.00    -0.169 NA
ATOM      8  C   UNL A   1      34.769  23.421  23.905  1.00  0.00     0.180 C 
ATOM      9  C   UNL A   1      34.133  24.815  23.976  1.00  0.00     0.101 C 
BRANCH   6  10
ATOM     10  C   UNL A   1      33.684  21.185  24.376  1.00  0.00     0.060 A 
ATOM     11  C   UNL A   1      33.640  18.372  24.259  1.00  0.00     0.067 A 
ATOM     12  C   UNL A   1      32.579  19.101  23.726  1.00  0.00     0.022 A 
ATOM     13  C   UNL A   1      34.716  19.033  24.859  1.00  0.00     0.022 A 
ATOM     14  C   UNL A   1      32.609  20.499  23.792  1.00  0.00     0.029 A 
ATOM     15  C   UNL A   1      34.731  20.430  24.915  1.00  0.00     0.029 A 
BRANCH  11  16
ATOM     16  S   UNL A   1      33.709  16.599  24.201  1.00  0.00     0.175 S 
ATOM     17  C   UNL A   1      35.059  16.083  25.223  1.00  0.00     0.163 C 
ATOM     18  O   UNL A   1      34.034  16.243  22.834  1.00  0.00    -0.224 OA
ATOM     19  O   UNL A   1      32.490  16.126  24.830  1.00  0.00    -0.224 OA
ENDBRANCH  11  16
ENDBRANCH   6  10
BRANCH   8  20
ATOM     20  C   UNL A   1      36.074  23.372  24.640  1.00  0.00     0.128 A 
ATOM     21  C   UNL A   1      37.269  22.727  24.390  1.00  0.00     0.048 A 
ATOM     22  O   UNL A   1      36.168  24.078  25.806  1.00  0.00    -0.467 OA
ATOM     23  C   UNL A   1      38.135  23.055  25.460  1.00  0.00     0.042 A 
ATOM     24  C   UNL A   1      37.419  23.880  26.294  1.00  0.00     0.195 A 
ENDBRANCH   8  20
ENDBRANCH   3   5
ENDBRANCH   2   3
ENDBRANCH   1   2
BRANCH   1  25
ATOM     25  C   UNL A   1      33.512  28.424  27.166  1.00  0.00     0.275 C 
BRANCH  25  26
ATOM     26  O   UNL A   1      34.100  29.660  26.715  1.00  0.00    -0.458 OA
BRANCH  26  27
ATOM     27  C   UNL A   1      34.506  30.498  27.700  1.00  0.00     0.338 C 
ATOM     28  O   UNL A   1      33.852  31.370  28.247  1.00  0.00    -0.246 OA
BRANCH  27  29
ATOM     29  C   UNL A   1      35.855  30.095  28.144  1.00  0.00     0.060 A 
ATOM     30  C   UNL A   1      36.881  30.112  27.195  1.00  0.00     0.016 A 
ATOM     31  C   UNL A   1      36.115  29.708  29.460  1.00  0.00     0.016 A 
ATOM     32  C   UNL A   1      38.175  29.745  27.558  1.00  0.00     0.010 A 
ATOM     33  C   UNL A   1      37.409  29.320  29.821  1.00  0.00     0.010 A 
ATOM     34  C   UNL A   1      38.443  29.331  28.869  1.00  0.00    -0.014 A 
BRANCH  34  35
ATOM     35  C   UNL A   1      39.805  28.890  29.233  1.00  0.00     0.031 A 
ATOM     36  C   UNL A   1      40.281  27.523  28.841  1.00  0.00     0.074 A 
ATOM     37  C   UNL A   1      40.630  29.732  29.879  1.00  0.00     0.049 A 
ATOM     38  N   UNL A   1      41.446  26.965  29.049  1.00  0.00    -0.248 NA
ATOM     39  C   UNL A   1      39.326  26.679  28.106  1.00  0.00     0.031 C 
ATOM     40  C   UNL A   1      40.309  31.105  30.264  1.00  0.00     0.029 A 
ATOM     41  N   UNL A   1      41.919  29.551  30.310  1.00  0.00    -0.354 N 
ATOM     42  C   UNL A   1      41.372  25.711  28.461  1.00  0.00     0.074 A 
ATOM     43  C   UNL A   1      40.046  25.585  27.892  1.00  0.00     0.031 C 
ATOM     44  C   UNL A   1      41.378  31.649  30.870  1.00  0.00     0.029 A 
ATOM     45  C   UNL A   1      42.450  30.658  30.922  1.00  0.00     0.049 A 
ATOM     46  H   UNL A   1      42.415  28.709  30.192  1.00  0.00     0.167 HD
ATOM     47  C   UNL A   1      42.323  24.750  28.396  1.00  0.00     0.031 A 
ATOM     48  C   UNL A   1      43.663  30.847  31.469  1.00  0.00     0.031 A 
ATOM     49  C   UNL A   1      43.633  24.852  28.975  1.00  0.00     0.049 A 
ATOM     50  C   UNL A   1      44.661  29.729  31.477  1.00  0.00     0.074 A 
ATOM     51  C   UNL A   1      44.659  23.921  28.966  1.00  0.00     0.029 A 
ATOM     52  N   UNL A   1      44.095  25.951  29.681  1.00  0.00    -0.354 N 
ATOM     53  N   UNL A   1      44.568  28.538  30.939  1.00  0.00    -0.248 NA
ATOM     54  C   UNL A   1      45.925  29.976  32.188  1.00  0.00     0.031 C 
ATOM     55  C   UNL A   1      45.737  24.452  29.686  1.00  0.00     0.029 A 
ATOM     56  C   UNL A   1      45.382  25.714  30.133  1.00  0.00     0.049 A 
ATOM     57  H   UNL A   1      43.584  26.777  29.837  1.00  0.00     0.167 HD
ATOM     58  C   UNL A   1      45.757  27.892  31.248  1.00  0.00     0.074 A 
ATOM     59  C   UNL A   1      46.556  28.822  32.020  1.00  0.00     0.031 C 
ATOM     60  C   UNL A   1      46.149  26.639  30.920  1.00  0.00     0.031 A 
BRANCH  47  61
ATOM     61  C   UNL A   1      41.960  23.492  27.672  1.00  0.00    -0.014 A 
ATOM     62  C   UNL A   1      42.341  23.312  26.334  1.00  0.00     0.009 A 
ATOM     63  C   UNL A   1      41.243  22.481  28.327  1.00  0.00     0.009 A 
ATOM     64  C   UNL A   1      41.994  22.142  25.657  1.00  0.00     0.001 A 
ATOM     65  C   UNL A   1      40.899  21.312  27.647  1.00  0.00     0.001 A 
ATOM     66  C   UNL A   1      41.271  21.145  26.313  1.00  0.00     0.000 A 
ENDBRANCH  47  61
BRANCH  48  67
ATOM     67  C   UNL A   1      43.997  32.153  32.081  1.00  0.00    -0.014 A 
ATOM     68  C   UNL A   1      44.602  33.157  31.313  1.00  0.00     0.009 A 
ATOM     69  C   UNL A   1      43.709  32.396  33.431  1.00  0.00     0.009 A 
ATOM     70  C   UNL A   1      44.923  34.386  31.894  1.00  0.00     0.001 A 
ATOM     71  C   UNL A   1      44.029  33.626  34.006  1.00  0.00     0.001 A 
ATOM     72  C   UNL A   1      44.637  34.619  33.238  1.00  0.00     0.000 A 
ENDBRANCH  48  67
BRANCH  60  73
ATOM     73  C   UNL A   1      47.489  26.200  31.420  1.00  0.00    -0.014 A 
ATOM     74  C   UNL A   1      48.627  26.355  30.615  1.00  0.00     0.009 A 
ATOM     75  C   UNL A   1      47.622  25.647  32.702  1.00  0.00     0.009 A 
ATOM     76  C   UNL A   1      49.878  25.949  31.082  1.00  0.00     0.001 A 
ATOM     77  C   UNL A   1      48.876  25.245  33.165  1.00  0.00     0.001 A 
ATOM     78  C   UNL A   1      50.001  25.394  32.355  1.00  0.00     0.000 A 
ENDBRANCH  60  73
ENDBRANCH  34  35
ENDBRANCH  27  29
ENDBRANCH  26  27
ENDBRANCH  25  26
ENDBRANCH   1  25
TORSDOF 14
ENDMDL
MODEL 3
REMARK VINA RESULT:     -10.5      3.224      8.297
REMARK SMILES CS(=O)(=O)c1ccc(N2N=C(C(=O)OCCOC(=O)c3ccc(-c4c5nc(c(-c6ccccc6)c6ccc([nH]6)c(-c6ccccc6)c6nc(c(-c7ccccc7)c7ccc4[nH]7)C=C6)C=C5)cc3)C[C@H]2c2ccco2)cc1
REMARK SMILES IDX 15 1 14 2 12 3 13 4 11 5 9 6 10 7 69 8 68 9 8 10 5 11 6 12
REMARK SMILES IDX 76 13 7 14 75 15 2 16 1 17 3 18 4 19 70 20 71 21 74 22 72 23
REMARK SMILES IDX 73 24 16 25 17 26 18 27 19 28 20 29 21 30 67 31 22 32 66 33
REMARK SMILES IDX 23 34 24 35 25 36 60 37 26 38 65 39 59 40 61 41 27 42 64 43
REMARK SMILES IDX 58 44 57 45 28 47 50 48 35 49 49 50 36 51 39 52 48 53 62 54
REMARK SMILES IDX 37 55 38 56 47 58 63 59 40 60 29 61 30 62 34 63 31 64 33 65
REMARK SMILES IDX 32 66 51 67 52 68 56 69 53 70 55 71 54 72 41 73 42 74 46 75
REMARK SMILES IDX 43 76 45 77 44 78
REMARK H PARENT 61 46 39 57
REMARK Flexibility Score: inf
ROOT
ATOM      1  C   UNL A   1      33.406  27.266  26.493  1.00  0.00     0.275 C 
ENDROOT
BRANCH   1   2
ATOM      2  O   UNL A   1      32.845  26.715  25.290  1.00  0.00    -0.458 OA
BRANCH   2   3
ATOM      3  C   UNL A   1      32.181  25.556  25.441  1.00  0.00     0.354 C 
ATOM      4  O   UNL A   1      31.084  25.375  25.934  1.00  0.00    -0.245 OA
BRANCH   3   5
ATOM      5  C   UNL A   1      33.023  24.445  24.885  1.00  0.00     0.148 C 
ATOM      6  N   UNL A   1      33.757  22.516  24.441  1.00  0.00    -0.254 N 
ATOM      7  N   UNL A   1      32.730  23.188  25.032  1.00  0.00    -0.169 NA
ATOM      8  C   UNL A   1      34.859  23.378  23.999  1.00  0.00     0.180 C 
ATOM      9  C   UNL A   1      34.212  24.768  24.044  1.00  0.00     0.101 C 
BRANCH   6  10
ATOM     10  C   UNL A   1      33.762  21.134  24.391  1.00  0.00     0.060 A 
ATOM     11  C   UNL A   1      33.807  18.319  24.322  1.00  0.00     0.067 A 
ATOM     12  C   UNL A   1      34.923  19.015  24.782  1.00  0.00     0.022 A 
ATOM     13  C   UNL A   1      32.675  19.013  23.885  1.00  0.00     0.022 A 
ATOM     14  C   UNL A   1      34.891  20.415  24.810  1.00  0.00     0.029 A 
ATOM     15  C   UNL A   1      32.660  20.411  23.921  1.00  0.00     0.029 A 
BRANCH  11  16
ATOM     16  S   UNL A   1      33.738  16.545  24.273  1.00  0.00     0.175 S 
ATOM     17  C   UNL A   1      35.066  15.931  25.268  1.00  0.00     0.163 C 
ATOM     18  O   UNL A   1      34.004  16.159  22.901  1.00  0.00    -0.224 OA
ATOM     19  O   UNL A   1      32.500  16.171  24.931  1.00  0.00    -0.224 OA
ENDBRANCH  11  16
ENDBRANCH   6  10
BRANCH   8  20
ATOM     20  C   UNL A   1      36.120  23.331  24.806  1.00  0.00     0.128 A 
ATOM     21  C   UNL A   1      36.510  23.952  25.976  1.00  0.00     0.048 A 
ATOM     22  O   UNL A   1      37.135  22.541  24.344  1.00  0.00    -0.467 OA
ATOM     23  C   UNL A   1      37.832  23.520  26.239  1.00  0.00     0.042 A 
ATOM     24  C   UNL A   1      38.166  22.662  25.218  1.00  0.00     0.195 A 
ENDBRANCH   8  20
ENDBRANCH   3   5
ENDBRANCH   2   3
ENDBRANCH   1   2
BRANCH   1  25
ATOM     25  C   UNL A   1      33.633  28.765  26.293  1.00  0.00     0.275 C 
BRANCH  25  26
ATOM     26  O   UNL A   1      33.603  29.435  27.570  1.00  0.00    -0.458 OA
BRANCH  26  27
ATOM     27  C   UNL A   1      34.402  30.525  27.667  1.00  0.00     0.338 C 
ATOM     28  O   UNL A   1      34.079  31.694  27.540  1.00  0.00    -0.246 OA
BRANCH  27  29
ATOM     29  C   UNL A   1      35.741  30.097  28.116  1.00  0.00     0.060 A 
ATOM     30  C   UNL A   1      36.789  30.175  27.196  1.00  0.00     0.016 A 
ATOM     31  C   UNL A   1      35.971  29.627  29.412  1.00  0.00     0.016 A 
ATOM     32  C   UNL A   1      38.075  29.787  27.566  1.00  0.00     0.010 A 
ATOM     33  C   UNL A   1      37.257  29.218  29.778  1.00  0.00     0.010 A 
ATOM     34  C   UNL A   1      38.313  29.292  28.854  1.00  0.00    -0.014 A 
BRANCH  34  35
ATOM     35  C   UNL A   1      39.668  28.830  29.222  1.00  0.00     0.031 A 
ATOM     36  C   UNL A   1      40.534  29.675  30.108  1.00  0.00     0.074 A 
ATOM     37  C   UNL A   1      40.105  27.632  28.794  1.00  0.00     0.049 A 
ATOM     38  N   UNL A   1      41.738  29.431  30.557  1.00  0.00    -0.248 NA
ATOM     39  C   UNL A   1      39.965  30.954  30.559  1.00  0.00     0.031 C 
ATOM     40  C   UNL A   1      39.338  26.692  27.978  1.00  0.00     0.029 A 
ATOM     41  N   UNL A   1      41.302  27.000  29.006  1.00  0.00    -0.354 N 
ATOM     42  C   UNL A   1      42.069  30.517  31.354  1.00  0.00     0.074 A 
ATOM     43  C   UNL A   1      40.942  31.426  31.323  1.00  0.00     0.031 C 
ATOM     44  C   UNL A   1      40.083  25.594  27.763  1.00  0.00     0.029 A 
ATOM     45  C   UNL A   1      41.378  25.763  28.418  1.00  0.00     0.049 A 
ATOM     46  H   UNL A   1      42.036  27.394  29.530  1.00  0.00     0.167 HD
ATOM     47  C   UNL A   1      43.207  30.738  32.052  1.00  0.00     0.031 A 
ATOM     48  C   UNL A   1      42.382  24.870  28.405  1.00  0.00     0.031 A 
ATOM     49  C   UNL A   1      44.341  29.857  32.073  1.00  0.00     0.049 A 
ATOM     50  C   UNL A   1      43.672  25.187  29.099  1.00  0.00     0.074 A 
ATOM     51  C   UNL A   1      45.542  30.007  32.747  1.00  0.00     0.029 A 
ATOM     52  N   UNL A   1      44.418  28.663  31.376  1.00  0.00    -0.354 N 
ATOM     53  N   UNL A   1      43.980  26.231  29.829  1.00  0.00    -0.248 NA
ATOM     54  C   UNL A   1      44.761  24.209  28.949  1.00  0.00     0.031 C 
ATOM     55  C   UNL A   1      46.355  28.908  32.439  1.00  0.00     0.029 A 
ATOM     56  C   UNL A   1      45.655  28.075  31.584  1.00  0.00     0.049 A 
ATOM     57  H   UNL A   1      43.701  28.287  30.817  1.00  0.00     0.167 HD
ATOM     58  C   UNL A   1      45.297  26.039  30.221  1.00  0.00     0.074 A 
ATOM     59  C   UNL A   1      45.730  24.779  29.651  1.00  0.00     0.031 C 
ATOM     60  C   UNL A   1      46.076  26.838  30.987  1.00  0.00     0.031 A 
BRANCH  47  61
ATOM     61  C   UNL A   1      43.274  32.004  32.847  1.00  0.00    -0.014 A 
ATOM     62  C   UNL A   1      43.776  33.178  32.265  1.00  0.00     0.009 A 
ATOM     63  C   UNL A   1      42.829  32.028  34.176  1.00  0.00     0.009 A 
ATOM     64  C   UNL A   1      43.846  34.355  33.012  1.00  0.00     0.001 A 
ATOM     65  C   UNL A   1      42.899  33.208  34.918  1.00  0.00     0.001 A 
ATOM     66  C   UNL A   1      43.411  34.368  34.337  1.00  0.00     0.000 A 
ENDBRANCH  47  61
BRANCH  48  67
ATOM     67  C   UNL A   1      42.215  23.588  27.683  1.00  0.00    -0.014 A 
ATOM     68  C   UNL A   1      41.681  22.472  28.343  1.00  0.00     0.009 A 
ATOM     69  C   UNL A   1      42.588  23.480  26.336  1.00  0.00     0.009 A 
ATOM     70  C   UNL A   1      41.531  21.262  27.663  1.00  0.00     0.001 A 
ATOM     71  C   UNL A   1      42.434  22.270  25.661  1.00  0.00     0.001 A 
ATOM     72  C   UNL A   1      41.908  21.162  26.324  1.00  0.00     0.000 A 
ENDBRANCH  48  67
BRANCH  60  73
ATOM     73  C   UNL A   1      47.481  26.380  31.226  1.00  0.00    -0.014 A 
ATOM     74  C   UNL A   1      48.486  26.673  30.293  1.00  0.00     0.009 A 
ATOM     75  C   UNL A   1      47.807  25.670  32.391  1.00  0.00     0.009 A 
ATOM     76  C   UNL A   1      49.796  26.249  30.516  1.00  0.00     0.001 A 
ATOM     77  C   UNL A   1      49.120  25.251  32.611  1.00  0.00     0.001 A 
ATOM     78  C   UNL A   1      50.112  25.539  31.674  1.00  0.00     0.000 A 
ENDBRANCH  60  73
ENDBRANCH  34  35
ENDBRANCH  27  29
ENDBRANCH  26  27
ENDBRANCH  25  26
ENDBRANCH   1  25
TORSDOF 14
ENDMDL
