MODEL 1
REMARK VINA RESULT:     -11.1      0.000      0.000
REMARK SMILES CC(=O)O[C@H]1C[C@@H](C(=O)OCCOC(=O)c2ccc(-c3c4nc(c(-c5ccccc5)c5ccc([nH]5)c(-c5ccccc5)c5nc(c(-c6ccccc6)c6ccc3[nH]6)C=C5)C=C4)cc2)N(S(=O)(=O)c2ccc(F)cc2)C1
REMARK SMILES IDX 11 1 10 2 8 3 9 4 7 5 5 6 6 7 75 8 64 9 4 10 2 11 1 12 3 13
REMARK SMILES IDX 65 14 66 15 67 16 68 17 69 18 74 19 70 20 73 21 71 22 72 23
REMARK SMILES IDX 12 24 13 25 14 26 15 27 16 28 17 29 63 30 18 31 62 32 19 33
REMARK SMILES IDX 20 34 21 35 56 36 22 37 61 38 55 39 57 40 23 41 60 42 54 43
REMARK SMILES IDX 53 44 24 46 46 47 31 48 45 49 32 50 35 51 44 52 58 53 33 54
REMARK SMILES IDX 34 55 43 57 59 58 36 59 25 60 26 61 30 62 27 63 29 64 28 65
REMARK SMILES IDX 47 66 48 67 52 68 49 69 51 70 50 71 37 72 38 73 42 74 39 75
REMARK SMILES IDX 41 76 40 77
REMARK H PARENT 57 45 35 56
REMARK Flexibility Score: inf
ROOT
ATOM      1  C   UNL A   1      37.407  20.514  24.740  1.00  0.00     0.274 C 
ENDROOT
BRANCH   1   2
ATOM      2  O   UNL A   1      36.258  21.226  25.271  1.00  0.00    -0.461 OA
BRANCH   2   3
ATOM      3  C   UNL A   1      35.069  20.741  24.848  1.00  0.00     0.324 C 
ATOM      4  O   UNL A   1      34.838  19.532  24.748  1.00  0.00    -0.250 OA
BRANCH   3   5
ATOM      5  C   UNL A   1      34.006  21.725  24.467  1.00  0.00     0.187 C 
ATOM      6  C   UNL A   1      33.292  23.405  22.957  1.00  0.00     0.194 C 
ATOM      7  C   UNL A   1      34.562  22.835  23.582  1.00  0.00     0.079 C 
ATOM      8  C   UNL A   1      32.187  23.145  24.002  1.00  0.00     0.148 C 
ATOM      9  N   UNL A   1      32.825  22.362  25.136  1.00  0.00    -0.180 NA
BRANCH   6  10
ATOM     10  O   UNL A   1      33.487  24.803  22.698  1.00  0.00    -0.461 OA
BRANCH  10  11
ATOM     11  C   UNL A   1      32.840  25.466  21.709  1.00  0.00     0.302 C 
ATOM     12  C   UNL A   1      31.656  26.305  22.096  1.00  0.00     0.139 C 
ATOM     13  O   UNL A   1      33.195  25.359  20.540  1.00  0.00    -0.253 OA
ENDBRANCH  10  11
ENDBRANCH   6  10
BRANCH   9  14
ATOM     14  S   UNL A   1      33.017  23.316  26.549  1.00  0.00     0.243 S 
ATOM     15  O   UNL A   1      32.032  22.864  27.518  1.00  0.00    -0.207 OA
ATOM     16  O   UNL A   1      34.422  23.321  26.876  1.00  0.00    -0.207 OA
BRANCH  14  17
ATOM     17  C   UNL A   1      32.668  25.005  26.131  1.00  0.00     0.082 A 
ATOM     18  C   UNL A   1      33.727  25.868  25.793  1.00  0.00     0.025 A 
ATOM     19  C   UNL A   1      31.351  25.482  26.192  1.00  0.00     0.025 A 
ATOM     20  C   UNL A   1      33.447  27.192  25.442  1.00  0.00     0.040 A 
ATOM     21  C   UNL A   1      31.083  26.806  25.838  1.00  0.00     0.040 A 
ATOM     22  C   UNL A   1      32.129  27.642  25.452  1.00  0.00     0.123 A 
ATOM     23  F   UNL A   1      31.859  28.898  25.071  1.00  0.00    -0.207 F 
ENDBRANCH  14  17
ENDBRANCH   9  14
ENDBRANCH   3   5
ENDBRANCH   2   3
ENDBRANCH   1   2
BRANCH   1  24
ATOM     24  C   UNL A   1      38.625  20.455  25.692  1.00  0.00     0.275 C 
BRANCH  24  25
ATOM     25  O   UNL A   1      39.569  19.380  25.453  1.00  0.00    -0.458 OA
BRANCH  25  26
ATOM     26  C   UNL A   1      40.778  19.645  25.971  1.00  0.00     0.338 C 
ATOM     27  O   UNL A   1      41.722  18.868  25.978  1.00  0.00    -0.246 OA
BRANCH  26  28
ATOM     28  C   UNL A   1      41.029  20.966  26.515  1.00  0.00     0.060 A 
ATOM     29  C   UNL A   1      41.627  21.898  25.657  1.00  0.00     0.016 A 
ATOM     30  C   UNL A   1      41.033  21.152  27.897  1.00  0.00     0.016 A 
ATOM     31  C   UNL A   1      42.207  23.045  26.180  1.00  0.00     0.010 A 
ATOM     32  C   UNL A   1      41.590  22.319  28.420  1.00  0.00     0.010 A 
ATOM     33  C   UNL A   1      42.166  23.273  27.563  1.00  0.00    -0.014 A 
BRANCH  33  34
ATOM     34  C   UNL A   1      42.511  24.612  28.075  1.00  0.00     0.031 A 
ATOM     35  C   UNL A   1      41.495  25.685  28.286  1.00  0.00     0.074 A 
ATOM     36  C   UNL A   1      43.815  24.830  28.322  1.00  0.00     0.049 A 
ATOM     37  N   UNL A   1      41.686  26.918  28.681  1.00  0.00    -0.248 NA
ATOM     38  C   UNL A   1      40.091  25.340  28.030  1.00  0.00     0.031 C 
ATOM     39  C   UNL A   1      44.877  23.831  28.153  1.00  0.00     0.029 A 
ATOM     40  N   UNL A   1      44.471  25.951  28.745  1.00  0.00    -0.354 N 
ATOM     41  C   UNL A   1      40.430  27.503  28.720  1.00  0.00     0.074 A 
ATOM     42  C   UNL A   1      39.482  26.492  28.296  1.00  0.00     0.031 C 
ATOM     43  C   UNL A   1      46.054  24.392  28.452  1.00  0.00     0.029 A 
ATOM     44  C   UNL A   1      45.831  25.790  28.793  1.00  0.00     0.049 A 
ATOM     45  H   UNL A   1      44.013  26.788  28.990  1.00  0.00     0.167 HD
ATOM     46  C   UNL A   1      40.108  28.770  29.076  1.00  0.00     0.031 A 
ATOM     47  C   UNL A   1      46.803  26.681  29.049  1.00  0.00     0.031 A 
ATOM     48  C   UNL A   1      41.069  29.772  29.468  1.00  0.00     0.049 A 
ATOM     49  C   UNL A   1      46.425  28.087  29.379  1.00  0.00     0.074 A 
ATOM     50  C   UNL A   1      40.843  31.076  29.875  1.00  0.00     0.029 A 
ATOM     51  N   UNL A   1      42.444  29.584  29.485  1.00  0.00    -0.354 N 
ATOM     52  N   UNL A   1      45.229  28.619  29.443  1.00  0.00    -0.248 NA
ATOM     53  C   UNL A   1      47.523  29.010  29.680  1.00  0.00     0.031 C 
ATOM     54  C   UNL A   1      42.083  31.688  30.096  1.00  0.00     0.029 A 
ATOM     55  C   UNL A   1      43.080  30.753  29.867  1.00  0.00     0.049 A 
ATOM     56  H   UNL A   1      42.901  28.741  29.258  1.00  0.00     0.167 HD
ATOM     57  C   UNL A   1      45.428  29.943  29.798  1.00  0.00     0.074 A 
ATOM     58  C   UNL A   1      46.859  30.125  29.952  1.00  0.00     0.031 C 
ATOM     59  C   UNL A   1      44.506  30.919  29.984  1.00  0.00     0.031 A 
BRANCH  46  60
ATOM     60  C   UNL A   1      38.657  29.159  29.029  1.00  0.00    -0.014 A 
ATOM     61  C   UNL A   1      37.847  29.078  30.171  1.00  0.00     0.009 A 
ATOM     62  C   UNL A   1      38.108  29.663  27.839  1.00  0.00     0.009 A 
ATOM     63  C   UNL A   1      36.507  29.472  30.117  1.00  0.00     0.001 A 
ATOM     64  C   UNL A   1      36.773  30.073  27.793  1.00  0.00     0.001 A 
ATOM     65  C   UNL A   1      35.972  29.972  28.929  1.00  0.00     0.000 A 
ENDBRANCH  46  60
BRANCH  47  66
ATOM     66  C   UNL A   1      48.213  26.237  28.966  1.00  0.00    -0.014 A 
ATOM     67  C   UNL A   1      48.919  26.331  27.760  1.00  0.00     0.009 A 
ATOM     68  C   UNL A   1      48.885  25.815  30.125  1.00  0.00     0.009 A 
ATOM     69  C   UNL A   1      50.277  26.010  27.717  1.00  0.00     0.001 A 
ATOM     70  C   UNL A   1      50.246  25.513  30.082  1.00  0.00     0.001 A 
ATOM     71  C   UNL A   1      50.940  25.609  28.876  1.00  0.00     0.000 A 
ENDBRANCH  47  66
BRANCH  59  72
ATOM     72  C   UNL A   1      45.037  32.266  30.373  1.00  0.00    -0.014 A 
ATOM     73  C   UNL A   1      45.411  33.202  29.396  1.00  0.00     0.009 A 
ATOM     74  C   UNL A   1      45.171  32.599  31.729  1.00  0.00     0.009 A 
ATOM     75  C   UNL A   1      45.941  34.437  29.772  1.00  0.00     0.001 A 
ATOM     76  C   UNL A   1      45.684  33.842  32.101  1.00  0.00     0.001 A 
ATOM     77  C   UNL A   1      46.075  34.755  31.123  1.00  0.00     0.000 A 
ENDBRANCH  59  72
ENDBRANCH  33  34
ENDBRANCH  26  28
ENDBRANCH  25  26
ENDBRANCH  24  25
ENDBRANCH   1  24
TORSDOF 15
ENDMDL
MODEL 2
REMARK VINA RESULT:     -11.1      1.983      3.344
REMARK SMILES CC(=O)O[C@H]1C[C@@H](C(=O)OCCOC(=O)c2ccc(-c3c4nc(c(-c5ccccc5)c5ccc([nH]5)c(-c5ccccc5)c5nc(c(-c6ccccc6)c6ccc3[nH]6)C=C5)C=C4)cc2)N(S(=O)(=O)c2ccc(F)cc2)C1
REMARK SMILES IDX 11 1 10 2 8 3 9 4 7 5 5 6 6 7 75 8 64 9 4 10 2 11 1 12 3 13
REMARK SMILES IDX 65 14 66 15 67 16 68 17 69 18 74 19 70 20 73 21 71 22 72 23
REMARK SMILES IDX 12 24 13 25 14 26 15 27 16 28 17 29 63 30 18 31 62 32 19 33
REMARK SMILES IDX 20 34 21 35 56 36 22 37 61 38 55 39 57 40 23 41 60 42 54 43
REMARK SMILES IDX 53 44 24 46 46 47 31 48 45 49 32 50 35 51 44 52 58 53 33 54
REMARK SMILES IDX 34 55 43 57 59 58 36 59 25 60 26 61 30 62 27 63 29 64 28 65
REMARK SMILES IDX 47 66 48 67 52 68 49 69 51 70 50 71 37 72 38 73 42 74 39 75
REMARK SMILES IDX 41 76 40 77
REMARK H PARENT 57 45 35 56
REMARK Flexibility Score: inf
ROOT
ATOM      1  C   UNL A   1      37.691  20.954  25.433  1.00  0.00     0.274 C 
ENDROOT
BRANCH   1   2
ATOM      2  O   UNL A   1      36.999  21.730  24.419  1.00  0.00    -0.461 OA
BRANCH   2   3
ATOM      3  C   UNL A   1      36.583  22.943  24.847  1.00  0.00     0.324 C 
ATOM      4  O   UNL A   1      37.326  23.735  25.436  1.00  0.00    -0.250 OA
BRANCH   3   5
ATOM      5  C   UNL A   1      35.152  23.318  24.610  1.00  0.00     0.187 C 
ATOM      6  C   UNL A   1      33.456  24.957  24.827  1.00  0.00     0.194 C 
ATOM      7  C   UNL A   1      34.706  24.444  25.535  1.00  0.00     0.079 C 
ATOM      8  C   UNL A   1      32.897  23.731  24.076  1.00  0.00     0.148 C 
ATOM      9  N   UNL A   1      33.878  22.593  24.293  1.00  0.00    -0.180 NA
BRANCH   6  10
ATOM     10  O   UNL A   1      32.541  25.466  25.809  1.00  0.00    -0.461 OA
BRANCH  10  11
ATOM     11  C   UNL A   1      31.545  24.718  26.345  1.00  0.00     0.302 C 
ATOM     12  C   UNL A   1      30.183  24.833  25.725  1.00  0.00     0.139 C 
ATOM     13  O   UNL A   1      31.749  23.998  27.317  1.00  0.00    -0.253 OA
ENDBRANCH  10  11
ENDBRANCH   6  10
BRANCH   9  14
ATOM     14  S   UNL A   1      33.253  21.398  25.354  1.00  0.00     0.243 S 
ATOM     15  O   UNL A   1      34.006  21.479  26.594  1.00  0.00    -0.207 OA
ATOM     16  O   UNL A   1      31.816  21.536  25.357  1.00  0.00    -0.207 OA
BRANCH  14  17
ATOM     17  C   UNL A   1      33.530  19.805  24.624  1.00  0.00     0.082 A 
ATOM     18  C   UNL A   1      32.534  19.233  23.812  1.00  0.00     0.025 A 
ATOM     19  C   UNL A   1      34.712  19.105  24.902  1.00  0.00     0.025 A 
ATOM     20  C   UNL A   1      32.764  17.988  23.218  1.00  0.00     0.040 A 
ATOM     21  C   UNL A   1      34.933  17.863  24.304  1.00  0.00     0.040 A 
ATOM     22  C   UNL A   1      33.966  17.324  23.457  1.00  0.00     0.123 A 
ATOM     23  F   UNL A   1      34.203  16.153  22.851  1.00  0.00    -0.207 F 
ENDBRANCH  14  17
ENDBRANCH   9  14
ENDBRANCH   3   5
ENDBRANCH   2   3
ENDBRANCH   1   2
BRANCH   1  24
ATOM     24  C   UNL A   1      38.757  19.979  24.880  1.00  0.00     0.275 C 
BRANCH  24  25
ATOM     25  O   UNL A   1      39.468  19.188  25.866  1.00  0.00    -0.458 OA
BRANCH  25  26
ATOM     26  C   UNL A   1      40.742  19.583  26.008  1.00  0.00     0.338 C 
ATOM     27  O   UNL A   1      41.720  18.921  25.689  1.00  0.00    -0.246 OA
BRANCH  26  28
ATOM     28  C   UNL A   1      41.007  20.914  26.519  1.00  0.00     0.060 A 
ATOM     29  C   UNL A   1      41.611  21.819  25.637  1.00  0.00     0.016 A 
ATOM     30  C   UNL A   1      41.016  21.134  27.896  1.00  0.00     0.016 A 
ATOM     31  C   UNL A   1      42.203  22.973  26.131  1.00  0.00     0.010 A 
ATOM     32  C   UNL A   1      41.584  22.308  28.389  1.00  0.00     0.010 A 
ATOM     33  C   UNL A   1      42.167  23.235  27.508  1.00  0.00    -0.014 A 
BRANCH  33  34
ATOM     34  C   UNL A   1      42.525  24.583  27.986  1.00  0.00     0.031 A 
ATOM     35  C   UNL A   1      41.511  25.648  28.244  1.00  0.00     0.074 A 
ATOM     36  C   UNL A   1      43.838  24.818  28.157  1.00  0.00     0.049 A 
ATOM     37  N   UNL A   1      41.711  26.887  28.614  1.00  0.00    -0.248 NA
ATOM     38  C   UNL A   1      40.098  25.285  28.070  1.00  0.00     0.031 C 
ATOM     39  C   UNL A   1      44.901  23.828  27.939  1.00  0.00     0.029 A 
ATOM     40  N   UNL A   1      44.505  25.950  28.531  1.00  0.00    -0.354 N 
ATOM     41  C   UNL A   1      40.452  27.459  28.718  1.00  0.00     0.074 A 
ATOM     42  C   UNL A   1      39.493  26.434  28.358  1.00  0.00     0.031 C 
ATOM     43  C   UNL A   1      46.087  24.405  28.165  1.00  0.00     0.029 A 
ATOM     44  C   UNL A   1      45.868  25.804  28.505  1.00  0.00     0.049 A 
ATOM     45  H   UNL A   1      44.052  26.784  28.793  1.00  0.00     0.167 HD
ATOM     46  C   UNL A   1      40.136  28.727  29.079  1.00  0.00     0.031 A 
ATOM     47  C   UNL A   1      46.842  26.707  28.696  1.00  0.00     0.031 A 
ATOM     48  C   UNL A   1      41.107  29.743  29.406  1.00  0.00     0.049 A 
ATOM     49  C   UNL A   1      46.467  28.113  29.033  1.00  0.00     0.074 A 
ATOM     50  C   UNL A   1      40.889  31.049  29.813  1.00  0.00     0.029 A 
ATOM     51  N   UNL A   1      42.483  29.569  29.347  1.00  0.00    -0.354 N 
ATOM     52  N   UNL A   1      45.271  28.634  29.159  1.00  0.00    -0.248 NA
ATOM     53  C   UNL A   1      47.571  29.051  29.263  1.00  0.00     0.031 C 
ATOM     54  C   UNL A   1      42.133  31.676  29.957  1.00  0.00     0.029 A 
ATOM     55  C   UNL A   1      43.126  30.749  29.682  1.00  0.00     0.049 A 
ATOM     56  H   UNL A   1      42.935  28.728  29.104  1.00  0.00     0.167 HD
ATOM     57  C   UNL A   1      45.475  29.963  29.489  1.00  0.00     0.074 A 
ATOM     58  C   UNL A   1      46.911  30.161  29.560  1.00  0.00     0.031 C 
ATOM     59  C   UNL A   1      44.554  30.931  29.716  1.00  0.00     0.031 A 
BRANCH  46  60
ATOM     60  C   UNL A   1      38.681  29.099  29.109  1.00  0.00    -0.014 A 
ATOM     61  C   UNL A   1      37.938  29.028  30.298  1.00  0.00     0.009 A 
ATOM     62  C   UNL A   1      38.059  29.579  27.947  1.00  0.00     0.009 A 
ATOM     63  C   UNL A   1      36.593  29.407  30.315  1.00  0.00     0.001 A 
ATOM     64  C   UNL A   1      36.719  29.974  27.971  1.00  0.00     0.001 A 
ATOM     65  C   UNL A   1      35.985  29.882  29.152  1.00  0.00     0.000 A 
ENDBRANCH  46  60
BRANCH  47  66
ATOM     66  C   UNL A   1      48.250  26.278  28.538  1.00  0.00    -0.014 A 
ATOM     67  C   UNL A   1      48.955  25.737  29.621  1.00  0.00     0.009 A 
ATOM     68  C   UNL A   1      48.858  26.317  27.272  1.00  0.00     0.009 A 
ATOM     69  C   UNL A   1      50.246  25.239  29.437  1.00  0.00     0.001 A 
ATOM     70  C   UNL A   1      50.141  25.800  27.089  1.00  0.00     0.001 A 
ATOM     71  C   UNL A   1      50.834  25.264  28.173  1.00  0.00     0.000 A 
ENDBRANCH  47  66
BRANCH  59  72
ATOM     72  C   UNL A   1      45.092  32.287  30.061  1.00  0.00    -0.014 A 
ATOM     73  C   UNL A   1      45.355  32.640  31.394  1.00  0.00     0.009 A 
ATOM     74  C   UNL A   1      45.331  33.223  29.044  1.00  0.00     0.009 A 
ATOM     75  C   UNL A   1      45.817  33.919  31.705  1.00  0.00     0.001 A 
ATOM     76  C   UNL A   1      45.812  34.495  29.357  1.00  0.00     0.001 A 
ATOM     77  C   UNL A   1      46.046  34.844  30.687  1.00  0.00     0.000 A 
ENDBRANCH  59  72
ENDBRANCH  33  34
ENDBRANCH  26  28
ENDBRANCH  25  26
ENDBRANCH  24  25
ENDBRANCH   1  24
TORSDOF 15
ENDMDL
MODEL 3
REMARK VINA RESULT:     -10.9      2.586      7.307
REMARK SMILES CC(=O)O[C@H]1C[C@@H](C(=O)OCCOC(=O)c2ccc(-c3c4nc(c(-c5ccccc5)c5ccc([nH]5)c(-c5ccccc5)c5nc(c(-c6ccccc6)c6ccc3[nH]6)C=C5)C=C4)cc2)N(S(=O)(=O)c2ccc(F)cc2)C1
REMARK SMILES IDX 11 1 10 2 8 3 9 4 7 5 5 6 6 7 75 8 64 9 4 10 2 11 1 12 3 13
REMARK SMILES IDX 65 14 66 15 67 16 68 17 69 18 74 19 70 20 73 21 71 22 72 23
REMARK SMILES IDX 12 24 13 25 14 26 15 27 16 28 17 29 63 30 18 31 62 32 19 33
REMARK SMILES IDX 20 34 21 35 56 36 22 37 61 38 55 39 57 40 23 41 60 42 54 43
REMARK SMILES IDX 53 44 24 46 46 47 31 48 45 49 32 50 35 51 44 52 58 53 33 54
REMARK SMILES IDX 34 55 43 57 59 58 36 59 25 60 26 61 30 62 27 63 29 64 28 65
REMARK SMILES IDX 47 66 48 67 52 68 49 69 51 70 50 71 37 72 38 73 42 74 39 75
REMARK SMILES IDX 41 76 40 77
REMARK H PARENT 57 45 35 56
REMARK Flexibility Score: inf
ROOT
ATOM      1  C   UNL A   1      32.066  29.871  25.563  1.00  0.00     0.274 C 
ENDROOT
BRANCH   1   2
ATOM      2  O   UNL A   1      31.196  28.714  25.447  1.00  0.00    -0.461 OA
BRANCH   2   3
ATOM      3  C   UNL A   1      30.959  28.333  24.171  1.00  0.00     0.324 C 
ATOM      4  O   UNL A   1      30.713  29.139  23.268  1.00  0.00    -0.250 OA
BRANCH   3   5
ATOM      5  C   UNL A   1      30.974  26.867  23.863  1.00  0.00     0.187 C 
ATOM      6  C   UNL A   1      30.721  24.656  24.672  1.00  0.00     0.194 C 
ATOM      7  C   UNL A   1      31.202  26.033  25.118  1.00  0.00     0.079 C 
ATOM      8  C   UNL A   1      30.971  24.624  23.150  1.00  0.00     0.148 C 
ATOM      9  N   UNL A   1      31.492  25.995  22.758  1.00  0.00    -0.180 NA
BRANCH   6  10
ATOM     10  O   UNL A   1      31.468  23.651  25.374  1.00  0.00    -0.461 OA
BRANCH  10  11
ATOM     11  C   UNL A   1      31.304  23.401  26.696  1.00  0.00     0.302 C 
ATOM     12  C   UNL A   1      32.504  22.924  27.464  1.00  0.00     0.139 C 
ATOM     13  O   UNL A   1      30.210  23.534  27.234  1.00  0.00    -0.253 OA
ENDBRANCH  10  11
ENDBRANCH   6  10
BRANCH   9  14
ATOM     14  S   UNL A   1      33.161  25.961  22.365  1.00  0.00     0.243 S 
ATOM     15  O   UNL A   1      33.278  25.501  20.992  1.00  0.00    -0.207 OA
ATOM     16  O   UNL A   1      33.722  27.230  22.765  1.00  0.00    -0.207 OA
BRANCH  14  17
ATOM     17  C   UNL A   1      33.959  24.787  23.429  1.00  0.00     0.082 A 
ATOM     18  C   UNL A   1      34.036  23.438  23.037  1.00  0.00     0.025 A 
ATOM     19  C   UNL A   1      34.460  25.197  24.672  1.00  0.00     0.025 A 
ATOM     20  C   UNL A   1      34.686  22.518  23.866  1.00  0.00     0.040 A 
ATOM     21  C   UNL A   1      35.108  24.271  25.492  1.00  0.00     0.040 A 
ATOM     22  C   UNL A   1      35.228  22.947  25.076  1.00  0.00     0.123 A 
ATOM     23  F   UNL A   1      35.891  22.074  25.846  1.00  0.00    -0.207 F 
ENDBRANCH  14  17
ENDBRANCH   9  14
ENDBRANCH   3   5
ENDBRANCH   2   3
ENDBRANCH   1   2
BRANCH   1  24
ATOM     24  C   UNL A   1      32.618  30.121  26.986  1.00  0.00     0.275 C 
BRANCH  24  25
ATOM     25  O   UNL A   1      33.997  29.731  27.212  1.00  0.00    -0.458 OA
BRANCH  25  26
ATOM     26  C   UNL A   1      34.648  30.608  27.991  1.00  0.00     0.338 C 
ATOM     27  O   UNL A   1      34.166  31.638  28.440  1.00  0.00    -0.246 OA
BRANCH  26  28
ATOM     28  C   UNL A   1      36.007  30.304  28.396  1.00  0.00     0.060 A 
ATOM     29  C   UNL A   1      36.978  30.288  27.387  1.00  0.00     0.016 A 
ATOM     30  C   UNL A   1      36.238  29.692  29.628  1.00  0.00     0.016 A 
ATOM     31  C   UNL A   1      38.205  29.683  27.619  1.00  0.00     0.010 A 
ATOM     32  C   UNL A   1      37.482  29.110  29.871  1.00  0.00     0.010 A 
ATOM     33  C   UNL A   1      38.472  29.116  28.873  1.00  0.00    -0.014 A 
BRANCH  33  34
ATOM     34  C   UNL A   1      39.859  28.746  29.208  1.00  0.00     0.031 A 
ATOM     35  C   UNL A   1      40.823  29.701  29.831  1.00  0.00     0.074 A 
ATOM     36  C   UNL A   1      40.227  27.491  28.895  1.00  0.00     0.049 A 
ATOM     37  N   UNL A   1      42.085  29.507  30.121  1.00  0.00    -0.248 NA
ATOM     38  C   UNL A   1      40.318  31.036  30.176  1.00  0.00     0.031 C 
ATOM     39  C   UNL A   1      39.343  26.486  28.292  1.00  0.00     0.029 A 
ATOM     40  N   UNL A   1      41.429  26.853  29.017  1.00  0.00    -0.354 N 
ATOM     41  C   UNL A   1      42.531  30.694  30.683  1.00  0.00     0.074 A 
ATOM     42  C   UNL A   1      41.407  31.609  30.680  1.00  0.00     0.031 C 
ATOM     43  C   UNL A   1      40.040  25.364  28.081  1.00  0.00     0.029 A 
ATOM     44  C   UNL A   1      41.418  25.585  28.496  1.00  0.00     0.049 A 
ATOM     45  H   UNL A   1      42.220  27.262  29.437  1.00  0.00     0.167 HD
ATOM     46  C   UNL A   1      43.769  30.984  31.151  1.00  0.00     0.031 A 
ATOM     47  C   UNL A   1      42.418  24.704  28.334  1.00  0.00     0.031 A 
ATOM     48  C   UNL A   1      44.884  30.069  31.119  1.00  0.00     0.049 A 
ATOM     49  C   UNL A   1      43.787  25.072  28.804  1.00  0.00     0.074 A 
ATOM     50  C   UNL A   1      46.171  30.255  31.595  1.00  0.00     0.029 A 
ATOM     51  N   UNL A   1      44.847  28.798  30.562  1.00  0.00    -0.354 N 
ATOM     52  N   UNL A   1      44.189  26.187  29.362  1.00  0.00    -0.248 NA
ATOM     53  C   UNL A   1      44.835  24.061  28.631  1.00  0.00     0.031 C 
ATOM     54  C   UNL A   1      46.922  29.114  31.287  1.00  0.00     0.029 A 
ATOM     55  C   UNL A   1      46.093  28.200  30.657  1.00  0.00     0.049 A 
ATOM     56  H   UNL A   1      44.050  28.382  30.160  1.00  0.00     0.167 HD
ATOM     57  C   UNL A   1      45.540  26.014  29.615  1.00  0.00     0.074 A 
ATOM     58  C   UNL A   1      45.881  24.678  29.163  1.00  0.00     0.031 C 
ATOM     59  C   UNL A   1      46.416  26.882  30.174  1.00  0.00     0.031 A 
BRANCH  46  60
ATOM     60  C   UNL A   1      43.996  32.359  31.713  1.00  0.00    -0.014 A 
ATOM     61  C   UNL A   1      43.818  32.623  33.080  1.00  0.00     0.009 A 
ATOM     62  C   UNL A   1      44.445  33.391  30.873  1.00  0.00     0.009 A 
ATOM     63  C   UNL A   1      44.063  33.901  33.590  1.00  0.00     0.001 A 
ATOM     64  C   UNL A   1      44.705  34.662  31.390  1.00  0.00     0.001 A 
ATOM     65  C   UNL A   1      44.509  34.919  32.746  1.00  0.00     0.000 A 
ENDBRANCH  46  60
BRANCH  47  66
ATOM     66  C   UNL A   1      42.128  23.413  27.670  1.00  0.00    -0.014 A 
ATOM     67  C   UNL A   1      41.517  22.371  28.378  1.00  0.00     0.009 A 
ATOM     68  C   UNL A   1      42.370  23.261  26.294  1.00  0.00     0.009 A 
ATOM     69  C   UNL A   1      41.152  21.196  27.718  1.00  0.00     0.001 A 
ATOM     70  C   UNL A   1      41.986  22.094  25.635  1.00  0.00     0.001 A 
ATOM     71  C   UNL A   1      41.379  21.061  26.348  1.00  0.00     0.000 A 
ENDBRANCH  47  66
BRANCH  59  72
ATOM     72  C   UNL A   1      47.827  26.397  30.320  1.00  0.00    -0.014 A 
ATOM     73  C   UNL A   1      48.749  26.538  29.271  1.00  0.00     0.009 A 
ATOM     74  C   UNL A   1      48.236  25.787  31.515  1.00  0.00     0.009 A 
ATOM     75  C   UNL A   1      50.048  26.046  29.406  1.00  0.00     0.001 A 
ATOM     76  C   UNL A   1      49.541  25.314  31.653  1.00  0.00     0.001 A 
ATOM     77  C   UNL A   1      50.442  25.436  30.596  1.00  0.00     0.000 A 
ENDBRANCH  59  72
ENDBRANCH  33  34
ENDBRANCH  26  28
ENDBRANCH  25  26
ENDBRANCH  24  25
ENDBRANCH   1  24
TORSDOF 15
ENDMDL
