MODEL 1
REMARK VINA RESULT:     -11.7      0.000      0.000
REMARK SMILES COC(=O)c1c(NC(=O)[C@@H]2[C@H]3CC[C@H](CC3)[C@H]2C(=O)OCCOC(=O)c2ccc(-c3c4nc(c(-c5ccccc5)c5ccc([nH]5)c(-c5ccccc5)c5nc(c(-c6ccccc6)c6ccc3[nH]6)C=C5)C=C4)cc2)sc(C)c1-c1ccc(C)cc1
REMARK SMILES IDX 21 1 20 2 18 3 19 4 17 5 10 6 11 7 12 8 16 9 14 10 13 11
REMARK SMILES IDX 15 12 8 13 7 14 9 16 6 17 5 18 77 19 74 20 75 21 76 22 3 23
REMARK SMILES IDX 4 24 2 25 1 26 78 27 79 28 84 29 80 30 83 31 81 32 82 33
REMARK SMILES IDX 22 34 23 35 24 36 25 37 26 38 27 39 73 40 28 41 72 42 29 43
REMARK SMILES IDX 30 44 31 45 66 46 32 47 71 48 65 49 67 50 33 51 70 52 64 53
REMARK SMILES IDX 63 54 34 56 56 57 41 58 55 59 42 60 45 61 54 62 68 63 43 64
REMARK SMILES IDX 44 65 53 67 69 68 46 69 35 70 36 71 40 72 37 73 39 74 38 75
REMARK SMILES IDX 57 76 58 77 62 78 59 79 61 80 60 81 47 82 48 83 52 84 49 85
REMARK SMILES IDX 51 86 50 87
REMARK H PARENT 7 15 67 55 45 66
REMARK Flexibility Score: inf
ROOT
ATOM      1  C   UNL A   1      37.336  20.317  24.830  1.00  0.00     0.274 C 
ENDROOT
BRANCH   1   2
ATOM      2  O   UNL A   1      36.263  19.353  24.761  1.00  0.00    -0.462 OA
BRANCH   2   3
ATOM      3  C   UNL A   1      35.038  19.903  24.931  1.00  0.00     0.310 C 
ATOM      4  O   UNL A   1      34.000  19.240  24.962  1.00  0.00    -0.252 OA
BRANCH   3   5
ATOM      5  C   UNL A   1      34.961  21.418  24.862  1.00  0.00     0.115 C 
ATOM      6  C   UNL A   1      33.656  22.173  24.399  1.00  0.00     0.096 C 
ATOM      7  C   UNL A   1      33.151  22.896  25.638  1.00  0.00     0.002 C 
ATOM      8  C   UNL A   1      32.907  21.894  26.770  1.00  0.00     0.005 C 
ATOM      9  C   UNL A   1      34.215  23.928  26.099  1.00  0.00     0.005 C 
ATOM     10  C   UNL A   1      35.369  21.797  26.327  1.00  0.00     0.004 C 
ATOM     11  C   UNL A   1      34.247  21.429  27.322  1.00  0.00     0.005 C 
ATOM     12  C   UNL A   1      35.569  23.294  26.356  1.00  0.00     0.005 C 
BRANCH   6  13
ATOM     13  C   UNL A   1      33.838  23.079  23.111  1.00  0.00     0.229 C 
ATOM     14  N   UNL A   1      32.862  23.837  22.458  1.00  0.00    -0.317 N 
ATOM     15  H   UNL A   1      32.688  23.629  21.512  1.00  0.00     0.170 HD
ATOM     16  O   UNL A   1      34.919  22.990  22.504  1.00  0.00    -0.274 OA
BRANCH  14  17
ATOM     17  C   UNL A   1      32.116  24.868  23.037  1.00  0.00     0.111 A 
ATOM     18  C   UNL A   1      32.376  26.226  23.255  1.00  0.00     0.102 A 
ATOM     19  C   UNL A   1      31.422  26.725  24.239  1.00  0.00     0.012 A 
ATOM     20  S   UNL A   1      30.401  24.717  23.136  1.00  0.00    -0.122 S 
ATOM     21  C   UNL A   1      30.415  25.802  24.467  1.00  0.00     0.012 A 
ATOM     22  C   UNL A   1      29.422  25.725  25.578  1.00  0.00     0.057 C 
BRANCH  18  23
ATOM     23  C   UNL A   1      33.460  26.977  22.625  1.00  0.00     0.341 C 
ATOM     24  O   UNL A   1      33.793  26.816  21.466  1.00  0.00    -0.246 OA
BRANCH  23  25
ATOM     25  O   UNL A   1      33.957  27.942  23.452  1.00  0.00    -0.465 OA
ATOM     26  C   UNL A   1      34.124  29.243  22.892  1.00  0.00     0.282 C 
ENDBRANCH  23  25
ENDBRANCH  18  23
BRANCH  19  27
ATOM     27  C   UNL A   1      31.290  28.035  24.861  1.00  0.00    -0.016 A 
ATOM     28  C   UNL A   1      31.909  28.224  26.101  1.00  0.00     0.009 A 
ATOM     29  C   UNL A   1      30.719  29.124  24.196  1.00  0.00     0.009 A 
ATOM     30  C   UNL A   1      31.986  29.493  26.663  1.00  0.00     0.004 A 
ATOM     31  C   UNL A   1      30.795  30.402  24.766  1.00  0.00     0.004 A 
ATOM     32  C   UNL A   1      31.441  30.595  25.995  1.00  0.00    -0.051 A 
ATOM     33  C   UNL A   1      31.579  31.958  26.606  1.00  0.00     0.044 C 
ENDBRANCH  19  27
ENDBRANCH  14  17
ENDBRANCH   6  13
ENDBRANCH   3   5
ENDBRANCH   2   3
ENDBRANCH   1   2
BRANCH   1  34
ATOM     34  C   UNL A   1      38.727  19.692  25.023  1.00  0.00     0.275 C 
BRANCH  34  35
ATOM     35  O   UNL A   1      39.436  20.192  26.174  1.00  0.00    -0.458 OA
BRANCH  35  36
ATOM     36  C   UNL A   1      40.784  20.061  26.106  1.00  0.00     0.338 C 
ATOM     37  O   UNL A   1      41.402  19.142  25.595  1.00  0.00    -0.246 OA
BRANCH  36  38
ATOM     38  C   UNL A   1      41.454  21.268  26.619  1.00  0.00     0.060 A 
ATOM     39  C   UNL A   1      41.520  21.455  28.002  1.00  0.00     0.016 A 
ATOM     40  C   UNL A   1      41.879  22.279  25.762  1.00  0.00     0.016 A 
ATOM     41  C   UNL A   1      42.004  22.634  28.549  1.00  0.00     0.010 A 
ATOM     42  C   UNL A   1      42.364  23.473  26.308  1.00  0.00     0.010 A 
ATOM     43  C   UNL A   1      42.417  23.660  27.704  1.00  0.00    -0.014 A 
BRANCH  43  44
ATOM     44  C   UNL A   1      42.810  24.961  28.287  1.00  0.00     0.031 A 
ATOM     45  C   UNL A   1      41.753  25.995  28.544  1.00  0.00     0.074 A 
ATOM     46  C   UNL A   1      44.094  25.198  28.610  1.00  0.00     0.049 A 
ATOM     47  N   UNL A   1      41.893  27.253  28.871  1.00  0.00    -0.248 NA
ATOM     48  C   UNL A   1      40.354  25.556  28.408  1.00  0.00     0.031 C 
ATOM     49  C   UNL A   1      45.191  24.234  28.499  1.00  0.00     0.029 A 
ATOM     50  N   UNL A   1      44.695  26.333  29.092  1.00  0.00    -0.354 N 
ATOM     51  C   UNL A   1      40.604  27.769  28.928  1.00  0.00     0.074 A 
ATOM     52  C   UNL A   1      39.697  26.691  28.604  1.00  0.00     0.031 C 
ATOM     53  C   UNL A   1      46.332  24.822  28.892  1.00  0.00     0.029 A 
ATOM     54  C   UNL A   1      46.058  26.219  29.211  1.00  0.00     0.049 A 
ATOM     55  H   UNL A   1      44.198  27.149  29.330  1.00  0.00     0.167 HD
ATOM     56  C   UNL A   1      40.221  29.035  29.218  1.00  0.00     0.031 A 
ATOM     57  C   UNL A   1      46.987  27.153  29.492  1.00  0.00     0.031 A 
ATOM     58  C   UNL A   1      41.137  30.089  29.563  1.00  0.00     0.049 A 
ATOM     59  C   UNL A   1      46.539  28.569  29.731  1.00  0.00     0.074 A 
ATOM     60  C   UNL A   1      40.855  31.406  29.881  1.00  0.00     0.029 A 
ATOM     61  N   UNL A   1      42.513  29.941  29.642  1.00  0.00    -0.354 N 
ATOM     62  N   UNL A   1      45.324  29.060  29.749  1.00  0.00    -0.248 NA
ATOM     63  C   UNL A   1      47.594  29.560  29.983  1.00  0.00     0.031 C 
ATOM     64  C   UNL A   1      42.066  32.068  30.100  1.00  0.00     0.029 A 
ATOM     65  C   UNL A   1      43.097  31.150  29.981  1.00  0.00     0.049 A 
ATOM     66  H   UNL A   1      43.002  29.102  29.482  1.00  0.00     0.167 HD
ATOM     67  C   UNL A   1      45.465  30.410  30.040  1.00  0.00     0.074 A 
ATOM     68  C   UNL A   1      46.883  30.655  30.211  1.00  0.00     0.031 C 
ATOM     69  C   UNL A   1      44.510  31.365  30.155  1.00  0.00     0.031 A 
BRANCH  56  70
ATOM     70  C   UNL A   1      38.759  29.364  29.121  1.00  0.00    -0.014 A 
ATOM     71  C   UNL A   1      38.163  29.726  27.904  1.00  0.00     0.009 A 
ATOM     72  C   UNL A   1      37.954  29.259  30.267  1.00  0.00     0.009 A 
ATOM     73  C   UNL A   1      36.793  29.998  27.843  1.00  0.00     0.001 A 
ATOM     74  C   UNL A   1      36.583  29.504  30.198  1.00  0.00     0.001 A 
ATOM     75  C   UNL A   1      36.004  29.879  28.987  1.00  0.00     0.000 A 
ENDBRANCH  56  70
BRANCH  57  76
ATOM     76  C   UNL A   1      48.432  26.801  29.494  1.00  0.00    -0.014 A 
ATOM     77  C   UNL A   1      49.201  26.918  28.327  1.00  0.00     0.009 A 
ATOM     78  C   UNL A   1      49.043  26.312  30.660  1.00  0.00     0.009 A 
ATOM     79  C   UNL A   1      50.541  26.522  28.319  1.00  0.00     0.001 A 
ATOM     80  C   UNL A   1      50.391  25.950  30.659  1.00  0.00     0.001 A 
ATOM     81  C   UNL A   1      51.136  26.042  29.486  1.00  0.00     0.000 A 
ENDBRANCH  57  76
BRANCH  69  82
ATOM     82  C   UNL A   1      44.966  32.745  30.531  1.00  0.00    -0.014 A 
ATOM     83  C   UNL A   1      45.092  33.134  31.873  1.00  0.00     0.009 A 
ATOM     84  C   UNL A   1      45.308  33.657  29.521  1.00  0.00     0.009 A 
ATOM     85  C   UNL A   1      45.519  34.423  32.195  1.00  0.00     0.001 A 
ATOM     86  C   UNL A   1      45.766  34.935  29.847  1.00  0.00     0.001 A 
ATOM     87  C   UNL A   1      45.861  35.320  31.182  1.00  0.00     0.000 A 
ENDBRANCH  69  82
ENDBRANCH  43  44
ENDBRANCH  36  38
ENDBRANCH  35  36
ENDBRANCH  34  35
ENDBRANCH   1  34
TORSDOF 16
ENDMDL
MODEL 2
REMARK VINA RESULT:     -11.5      2.111      5.679
REMARK SMILES COC(=O)c1c(NC(=O)[C@@H]2[C@H]3CC[C@H](CC3)[C@H]2C(=O)OCCOC(=O)c2ccc(-c3c4nc(c(-c5ccccc5)c5ccc([nH]5)c(-c5ccccc5)c5nc(c(-c6ccccc6)c6ccc3[nH]6)C=C5)C=C4)cc2)sc(C)c1-c1ccc(C)cc1
REMARK SMILES IDX 21 1 20 2 18 3 19 4 17 5 10 6 11 7 12 8 16 9 14 10 13 11
REMARK SMILES IDX 15 12 8 13 7 14 9 16 6 17 5 18 77 19 74 20 75 21 76 22 3 23
REMARK SMILES IDX 4 24 2 25 1 26 78 27 79 28 84 29 80 30 83 31 81 32 82 33
REMARK SMILES IDX 22 34 23 35 24 36 25 37 26 38 27 39 73 40 28 41 72 42 29 43
REMARK SMILES IDX 30 44 31 45 66 46 32 47 71 48 65 49 67 50 33 51 70 52 64 53
REMARK SMILES IDX 63 54 34 56 56 57 41 58 55 59 42 60 45 61 54 62 68 63 43 64
REMARK SMILES IDX 44 65 53 67 69 68 46 69 35 70 36 71 40 72 37 73 39 74 38 75
REMARK SMILES IDX 57 76 58 77 62 78 59 79 61 80 60 81 47 82 48 83 52 84 49 85
REMARK SMILES IDX 51 86 50 87
REMARK H PARENT 7 15 67 55 45 66
REMARK Flexibility Score: inf
ROOT
ATOM      1  C   UNL A   1      37.226  19.828  24.522  1.00  0.00     0.274 C 
ENDROOT
BRANCH   1   2
ATOM      2  O   UNL A   1      36.119  19.032  25.000  1.00  0.00    -0.462 OA
BRANCH   2   3
ATOM      3  C   UNL A   1      34.964  19.729  25.103  1.00  0.00     0.310 C 
ATOM      4  O   UNL A   1      33.853  19.196  25.111  1.00  0.00    -0.252 OA
BRANCH   3   5
ATOM      5  C   UNL A   1      35.073  21.239  24.987  1.00  0.00     0.115 C 
ATOM      6  C   UNL A   1      33.889  22.128  24.440  1.00  0.00     0.096 C 
ATOM      7  C   UNL A   1      33.420  22.947  25.632  1.00  0.00     0.002 C 
ATOM      8  C   UNL A   1      33.008  22.021  26.780  1.00  0.00     0.005 C 
ATOM      9  C   UNL A   1      34.579  23.861  26.114  1.00  0.00     0.005 C 
ATOM     10  C   UNL A   1      35.458  21.618  26.458  1.00  0.00     0.004 C 
ATOM     11  C   UNL A   1      34.257  21.420  27.408  1.00  0.00     0.005 C 
ATOM     12  C   UNL A   1      35.834  23.081  26.454  1.00  0.00     0.005 C 
BRANCH   6  13
ATOM     13  C   UNL A   1      34.236  22.961  23.136  1.00  0.00     0.229 C 
ATOM     14  N   UNL A   1      33.341  23.547  22.238  1.00  0.00    -0.317 N 
ATOM     15  H   UNL A   1      33.389  23.256  21.299  1.00  0.00     0.170 HD
ATOM     16  O   UNL A   1      35.422  22.965  22.766  1.00  0.00    -0.274 OA
BRANCH  14  17
ATOM     17  C   UNL A   1      32.384  24.515  22.562  1.00  0.00     0.111 A 
ATOM     18  C   UNL A   1      32.234  25.861  22.210  1.00  0.00     0.102 A 
ATOM     19  C   UNL A   1      31.295  26.479  23.140  1.00  0.00     0.012 A 
ATOM     20  S   UNL A   1      30.825  24.015  23.102  1.00  0.00    -0.122 S 
ATOM     21  C   UNL A   1      30.658  25.521  23.911  1.00  0.00     0.012 A 
ATOM     22  C   UNL A   1      29.876  25.674  25.172  1.00  0.00     0.057 C 
BRANCH  18  23
ATOM     23  C   UNL A   1      32.950  26.521  21.120  1.00  0.00     0.341 C 
ATOM     24  O   UNL A   1      33.390  27.652  21.203  1.00  0.00    -0.246 OA
BRANCH  23  25
ATOM     25  O   UNL A   1      33.161  25.678  20.067  1.00  0.00    -0.465 OA
ATOM     26  C   UNL A   1      32.112  25.577  19.106  1.00  0.00     0.282 C 
ENDBRANCH  23  25
ENDBRANCH  18  23
BRANCH  19  27
ATOM     27  C   UNL A   1      30.837  27.855  23.260  1.00  0.00    -0.016 A 
ATOM     28  C   UNL A   1      29.744  28.240  22.478  1.00  0.00     0.009 A 
ATOM     29  C   UNL A   1      31.341  28.729  24.228  1.00  0.00     0.009 A 
ATOM     30  C   UNL A   1      29.136  29.475  22.676  1.00  0.00     0.004 A 
ATOM     31  C   UNL A   1      30.729  29.974  24.424  1.00  0.00     0.004 A 
ATOM     32  C   UNL A   1      29.615  30.347  23.659  1.00  0.00    -0.051 A 
ATOM     33  C   UNL A   1      28.911  31.653  23.879  1.00  0.00     0.044 C 
ENDBRANCH  19  27
ENDBRANCH  14  17
ENDBRANCH   6  13
ENDBRANCH   3   5
ENDBRANCH   2   3
ENDBRANCH   1   2
BRANCH   1  34
ATOM     34  C   UNL A   1      38.462  19.793  25.435  1.00  0.00     0.275 C 
BRANCH  34  35
ATOM     35  O   UNL A   1      38.882  21.092  25.898  1.00  0.00    -0.458 OA
BRANCH  35  36
ATOM     36  C   UNL A   1      39.969  21.077  26.709  1.00  0.00     0.338 C 
ATOM     37  O   UNL A   1      40.644  20.104  27.004  1.00  0.00    -0.246 OA
BRANCH  36  38
ATOM     38  C   UNL A   1      40.346  22.444  27.106  1.00  0.00     0.060 A 
ATOM     39  C   UNL A   1      39.656  23.516  26.536  1.00  0.00     0.016 A 
ATOM     40  C   UNL A   1      41.458  22.684  27.908  1.00  0.00     0.016 A 
ATOM     41  C   UNL A   1      40.053  24.827  26.750  1.00  0.00     0.010 A 
ATOM     42  C   UNL A   1      41.868  24.004  28.125  1.00  0.00     0.010 A 
ATOM     43  C   UNL A   1      41.174  25.081  27.536  1.00  0.00    -0.014 A 
BRANCH  43  44
ATOM     44  C   UNL A   1      41.670  26.469  27.657  1.00  0.00     0.031 A 
ATOM     45  C   UNL A   1      42.952  26.848  26.975  1.00  0.00     0.074 A 
ATOM     46  C   UNL A   1      40.963  27.384  28.346  1.00  0.00     0.049 A 
ATOM     47  N   UNL A   1      43.659  27.941  27.098  1.00  0.00    -0.248 NA
ATOM     48  C   UNL A   1      43.515  25.864  26.036  1.00  0.00     0.031 C 
ATOM     49  C   UNL A   1      39.655  27.157  28.966  1.00  0.00     0.029 A 
ATOM     50  N   UNL A   1      41.252  28.690  28.645  1.00  0.00    -0.354 N 
ATOM     51  C   UNL A   1      44.777  27.754  26.294  1.00  0.00     0.074 A 
ATOM     52  C   UNL A   1      44.654  26.447  25.687  1.00  0.00     0.031 C 
ATOM     53  C   UNL A   1      39.262  28.284  29.580  1.00  0.00     0.029 A 
ATOM     54  C   UNL A   1      40.318  29.283  29.458  1.00  0.00     0.049 A 
ATOM     55  H   UNL A   1      42.051  29.158  28.309  1.00  0.00     0.167 HD
ATOM     56  C   UNL A   1      45.814  28.600  26.092  1.00  0.00     0.031 A 
ATOM     57  C   UNL A   1      40.339  30.477  30.079  1.00  0.00     0.031 A 
ATOM     58  C   UNL A   1      45.906  29.908  26.684  1.00  0.00     0.049 A 
ATOM     59  C   UNL A   1      41.541  31.364  29.900  1.00  0.00     0.074 A 
ATOM     60  C   UNL A   1      46.910  30.849  26.540  1.00  0.00     0.029 A 
ATOM     61  N   UNL A   1      44.954  30.459  27.528  1.00  0.00    -0.354 N 
ATOM     62  N   UNL A   1      42.611  31.169  29.168  1.00  0.00    -0.248 NA
ATOM     63  C   UNL A   1      41.539  32.633  30.639  1.00  0.00     0.031 C 
ATOM     64  C   UNL A   1      46.590  31.950  27.340  1.00  0.00     0.029 A 
ATOM     65  C   UNL A   1      45.358  31.721  27.931  1.00  0.00     0.049 A 
ATOM     66  H   UNL A   1      44.116  30.020  27.798  1.00  0.00     0.167 HD
ATOM     67  C   UNL A   1      43.396  32.301  29.336  1.00  0.00     0.074 A 
ATOM     68  C   UNL A   1      42.669  33.186  30.224  1.00  0.00     0.031 C 
ATOM     69  C   UNL A   1      44.611  32.585  28.807  1.00  0.00     0.031 A 
BRANCH  56  70
ATOM     70  C   UNL A   1      46.955  28.120  25.241  1.00  0.00    -0.014 A 
ATOM     71  C   UNL A   1      48.095  27.527  25.801  1.00  0.00     0.009 A 
ATOM     72  C   UNL A   1      46.858  28.222  23.843  1.00  0.00     0.009 A 
ATOM     73  C   UNL A   1      49.126  27.064  24.979  1.00  0.00     0.001 A 
ATOM     74  C   UNL A   1      47.876  27.734  23.023  1.00  0.00     0.001 A 
ATOM     75  C   UNL A   1      49.012  27.161  23.592  1.00  0.00     0.000 A 
ENDBRANCH  56  70
BRANCH  57  76
ATOM     76  C   UNL A   1      39.226  30.877  30.981  1.00  0.00    -0.014 A 
ATOM     77  C   UNL A   1      39.240  30.526  32.339  1.00  0.00     0.009 A 
ATOM     78  C   UNL A   1      38.123  31.586  30.478  1.00  0.00     0.009 A 
ATOM     79  C   UNL A   1      38.160  30.846  33.165  1.00  0.00     0.001 A 
ATOM     80  C   UNL A   1      37.060  31.935  31.313  1.00  0.00     0.001 A 
ATOM     81  C   UNL A   1      37.073  31.554  32.652  1.00  0.00     0.000 A 
ENDBRANCH  57  76
BRANCH  69  82
ATOM     82  C   UNL A   1      45.202  33.927  29.134  1.00  0.00    -0.014 A 
ATOM     83  C   UNL A   1      46.096  34.092  30.203  1.00  0.00     0.009 A 
ATOM     84  C   UNL A   1      44.883  35.034  28.333  1.00  0.00     0.009 A 
ATOM     85  C   UNL A   1      46.631  35.350  30.484  1.00  0.00     0.001 A 
ATOM     86  C   UNL A   1      45.445  36.284  28.598  1.00  0.00     0.001 A 
ATOM     87  C   UNL A   1      46.310  36.443  29.679  1.00  0.00     0.000 A 
ENDBRANCH  69  82
ENDBRANCH  43  44
ENDBRANCH  36  38
ENDBRANCH  35  36
ENDBRANCH  34  35
ENDBRANCH   1  34
TORSDOF 16
ENDMDL
MODEL 3
REMARK VINA RESULT:     -11.2      4.094      7.535
REMARK SMILES COC(=O)c1c(NC(=O)[C@@H]2[C@H]3CC[C@H](CC3)[C@H]2C(=O)OCCOC(=O)c2ccc(-c3c4nc(c(-c5ccccc5)c5ccc([nH]5)c(-c5ccccc5)c5nc(c(-c6ccccc6)c6ccc3[nH]6)C=C5)C=C4)cc2)sc(C)c1-c1ccc(C)cc1
REMARK SMILES IDX 21 1 20 2 18 3 19 4 17 5 10 6 11 7 12 8 16 9 14 10 13 11
REMARK SMILES IDX 15 12 8 13 7 14 9 16 6 17 5 18 77 19 74 20 75 21 76 22 3 23
REMARK SMILES IDX 4 24 2 25 1 26 78 27 79 28 84 29 80 30 83 31 81 32 82 33
REMARK SMILES IDX 22 34 23 35 24 36 25 37 26 38 27 39 73 40 28 41 72 42 29 43
REMARK SMILES IDX 30 44 31 45 66 46 32 47 71 48 65 49 67 50 33 51 70 52 64 53
REMARK SMILES IDX 63 54 34 56 56 57 41 58 55 59 42 60 45 61 54 62 68 63 43 64
REMARK SMILES IDX 44 65 53 67 69 68 46 69 35 70 36 71 40 72 37 73 39 74 38 75
REMARK SMILES IDX 57 76 58 77 62 78 59 79 61 80 60 81 47 82 48 83 52 84 49 85
REMARK SMILES IDX 51 86 50 87
REMARK H PARENT 7 15 67 55 45 66
REMARK Flexibility Score: inf
ROOT
ATOM      1  C   UNL A   1      37.827  23.400  25.744  1.00  0.00     0.274 C 
ENDROOT
BRANCH   1   2
ATOM      2  O   UNL A   1      36.500  23.843  25.384  1.00  0.00    -0.462 OA
BRANCH   2   3
ATOM      3  C   UNL A   1      35.969  23.154  24.348  1.00  0.00     0.310 C 
ATOM      4  O   UNL A   1      36.655  22.604  23.483  1.00  0.00    -0.252 OA
BRANCH   3   5
ATOM      5  C   UNL A   1      34.467  23.265  24.159  1.00  0.00     0.115 C 
ATOM      6  C   UNL A   1      33.704  22.488  23.017  1.00  0.00     0.096 C 
ATOM      7  C   UNL A   1      32.839  21.465  23.739  1.00  0.00     0.002 C 
ATOM      8  C   UNL A   1      33.712  20.561  24.614  1.00  0.00     0.005 C 
ATOM      9  C   UNL A   1      31.815  22.205  24.641  1.00  0.00     0.005 C 
ATOM     10  C   UNL A   1      33.963  22.855  25.585  1.00  0.00     0.004 C 
ATOM     11  C   UNL A   1      34.179  21.346  25.831  1.00  0.00     0.005 C 
ATOM     12  C   UNL A   1      32.481  23.144  25.629  1.00  0.00     0.005 C 
BRANCH   6  13
ATOM     13  C   UNL A   1      32.939  23.415  21.983  1.00  0.00     0.229 C 
ATOM     14  N   UNL A   1      31.766  24.143  22.198  1.00  0.00    -0.317 N 
ATOM     15  H   UNL A   1      30.997  23.939  21.619  1.00  0.00     0.170 HD
ATOM     16  O   UNL A   1      33.316  23.373  20.800  1.00  0.00    -0.274 OA
BRANCH  14  17
ATOM     17  C   UNL A   1      31.596  25.138  23.165  1.00  0.00     0.111 A 
ATOM     18  C   UNL A   1      32.323  26.292  23.483  1.00  0.00     0.102 A 
ATOM     19  C   UNL A   1      31.925  26.736  24.814  1.00  0.00     0.012 A 
ATOM     20  S   UNL A   1      30.039  25.382  23.864  1.00  0.00    -0.122 S 
ATOM     21  C   UNL A   1      30.801  26.054  25.249  1.00  0.00     0.012 A 
ATOM     22  C   UNL A   1      30.226  25.934  26.620  1.00  0.00     0.057 C 
BRANCH  18  23
ATOM     23  C   UNL A   1      33.339  26.897  22.624  1.00  0.00     0.341 C 
ATOM     24  O   UNL A   1      34.103  26.245  21.938  1.00  0.00    -0.246 OA
BRANCH  23  25
ATOM     25  O   UNL A   1      33.240  28.259  22.601  1.00  0.00    -0.465 OA
ATOM     26  C   UNL A   1      34.431  28.993  22.880  1.00  0.00     0.282 C 
ENDBRANCH  23  25
ENDBRANCH  18  23
BRANCH  19  27
ATOM     27  C   UNL A   1      32.408  27.835  25.638  1.00  0.00    -0.016 A 
ATOM     28  C   UNL A   1      33.633  27.659  26.290  1.00  0.00     0.009 A 
ATOM     29  C   UNL A   1      31.781  29.084  25.660  1.00  0.00     0.009 A 
ATOM     30  C   UNL A   1      34.245  28.727  26.938  1.00  0.00     0.004 A 
ATOM     31  C   UNL A   1      32.399  30.157  26.316  1.00  0.00     0.004 A 
ATOM     32  C   UNL A   1      33.640  29.988  26.945  1.00  0.00    -0.051 A 
ATOM     33  C   UNL A   1      34.346  31.129  27.614  1.00  0.00     0.044 C 
ENDBRANCH  19  27
ENDBRANCH  14  17
ENDBRANCH   6  13
ENDBRANCH   3   5
ENDBRANCH   2   3
ENDBRANCH   1   2
BRANCH   1  34
ATOM     34  C   UNL A   1      38.615  24.410  26.594  1.00  0.00     0.275 C 
BRANCH  34  35
ATOM     35  O   UNL A   1      40.040  24.197  26.580  1.00  0.00    -0.458 OA
BRANCH  35  36
ATOM     36  C   UNL A   1      40.769  25.284  26.222  1.00  0.00     0.338 C 
ATOM     37  O   UNL A   1      41.167  25.557  25.102  1.00  0.00    -0.246 OA
BRANCH  36  38
ATOM     38  C   UNL A   1      40.920  26.210  27.357  1.00  0.00     0.060 A 
ATOM     39  C   UNL A   1      40.055  26.076  28.445  1.00  0.00     0.016 A 
ATOM     40  C   UNL A   1      41.795  27.290  27.297  1.00  0.00     0.016 A 
ATOM     41  C   UNL A   1      40.044  27.000  29.478  1.00  0.00     0.010 A 
ATOM     42  C   UNL A   1      41.786  28.231  28.334  1.00  0.00     0.010 A 
ATOM     43  C   UNL A   1      40.902  28.096  29.423  1.00  0.00    -0.014 A 
BRANCH  43  44
ATOM     44  C   UNL A   1      40.798  29.146  30.459  1.00  0.00     0.031 A 
ATOM     45  C   UNL A   1      41.767  29.140  31.604  1.00  0.00     0.074 A 
ATOM     46  C   UNL A   1      39.864  30.109  30.356  1.00  0.00     0.049 A 
ATOM     47  N   UNL A   1      41.745  29.842  32.707  1.00  0.00    -0.248 NA
ATOM     48  C   UNL A   1      42.908  28.215  31.498  1.00  0.00     0.031 C 
ATOM     49  C   UNL A   1      38.934  30.276  29.237  1.00  0.00     0.029 A 
ATOM     50  N   UNL A   1      39.540  31.129  31.213  1.00  0.00    -0.354 N 
ATOM     51  C   UNL A   1      42.836  29.407  33.448  1.00  0.00     0.074 A 
ATOM     52  C   UNL A   1      43.501  28.384  32.672  1.00  0.00     0.031 C 
ATOM     53  C   UNL A   1      38.137  31.328  29.483  1.00  0.00     0.029 A 
ATOM     54  C   UNL A   1      38.453  31.862  30.803  1.00  0.00     0.049 A 
ATOM     55  H   UNL A   1      40.037  31.318  32.042  1.00  0.00     0.167 HD
ATOM     56  C   UNL A   1      43.237  29.826  34.672  1.00  0.00     0.031 A 
ATOM     57  C   UNL A   1      37.758  32.818  31.446  1.00  0.00     0.031 A 
ATOM     58  C   UNL A   1      42.578  30.864  35.418  1.00  0.00     0.049 A 
ATOM     59  C   UNL A   1      38.178  33.207  32.836  1.00  0.00     0.074 A 
ATOM     60  C   UNL A   1      42.906  31.369  36.664  1.00  0.00     0.029 A 
ATOM     61  N   UNL A   1      41.462  31.560  34.982  1.00  0.00    -0.354 N 
ATOM     62  N   UNL A   1      39.189  32.769  33.548  1.00  0.00    -0.248 NA
ATOM     63  C   UNL A   1      37.356  34.218  33.515  1.00  0.00     0.031 C 
ATOM     64  C   UNL A   1      41.954  32.335  37.004  1.00  0.00     0.029 A 
ATOM     65  C   UNL A   1      41.073  32.476  35.945  1.00  0.00     0.049 A 
ATOM     66  H   UNL A   1      41.014  31.424  34.116  1.00  0.00     0.167 HD
ATOM     67  C   UNL A   1      39.140  33.469  34.745  1.00  0.00     0.074 A 
ATOM     68  C   UNL A   1      38.013  34.375  34.655  1.00  0.00     0.031 C 
ATOM     69  C   UNL A   1      39.954  33.373  35.826  1.00  0.00     0.031 A 
BRANCH  56  70
ATOM     70  C   UNL A   1      44.407  29.125  35.303  1.00  0.00    -0.014 A 
ATOM     71  C   UNL A   1      45.703  29.656  35.246  1.00  0.00     0.009 A 
ATOM     72  C   UNL A   1      44.191  27.933  36.014  1.00  0.00     0.009 A 
ATOM     73  C   UNL A   1      46.765  28.994  35.869  1.00  0.00     0.001 A 
ATOM     74  C   UNL A   1      45.247  27.289  36.659  1.00  0.00     0.001 A 
ATOM     75  C   UNL A   1      46.535  27.817  36.581  1.00  0.00     0.000 A 
ENDBRANCH  56  70
BRANCH  57  76
ATOM     76  C   UNL A   1      36.555  33.425  30.817  1.00  0.00    -0.014 A 
ATOM     77  C   UNL A   1      35.294  33.312  31.420  1.00  0.00     0.009 A 
ATOM     78  C   UNL A   1      36.657  34.097  29.587  1.00  0.00     0.009 A 
ATOM     79  C   UNL A   1      34.157  33.826  30.790  1.00  0.00     0.001 A 
ATOM     80  C   UNL A   1      35.526  34.641  28.976  1.00  0.00     0.001 A 
ATOM     81  C   UNL A   1      34.275  34.493  29.571  1.00  0.00     0.000 A 
ENDBRANCH  57  76
BRANCH  69  82
ATOM     82  C   UNL A   1      39.682  34.306  36.971  1.00  0.00    -0.014 A 
ATOM     83  C   UNL A   1      40.095  35.647  36.936  1.00  0.00     0.009 A 
ATOM     84  C   UNL A   1      38.967  33.840  38.085  1.00  0.00     0.009 A 
ATOM     85  C   UNL A   1      39.828  36.493  38.013  1.00  0.00     0.001 A 
ATOM     86  C   UNL A   1      38.674  34.698  39.146  1.00  0.00     0.001 A 
ATOM     87  C   UNL A   1      39.114  36.020  39.114  1.00  0.00     0.000 A 
ENDBRANCH  69  82
ENDBRANCH  43  44
ENDBRANCH  36  38
ENDBRANCH  35  36
ENDBRANCH  34  35
ENDBRANCH   1  34
TORSDOF 16
ENDMDL
