MODEL 1
REMARK VINA RESULT:      -9.3      0.000      0.000
REMARK SMILES CN(CCO)C(=O)N[C@H]1C=C[C@@H](C(=O)OCCOC(=O)c2ccc(-c3c4nc(c(-c5ccccc5)c5ccc([nH]5)c(-c5ccccc5)c5nc(c(-c6ccccc6)c6ccc3[nH]6)C=C5)C=C4)cc2)C1
REMARK SMILES IDX 15 1 13 2 14 3 12 4 9 5 10 6 69 7 11 8 8 9 6 10 7 11 2 13
REMARK SMILES IDX 1 14 3 15 4 16 5 17 16 19 17 20 18 21 19 22 20 23 21 24
REMARK SMILES IDX 22 25 68 26 23 27 67 28 24 29 25 30 26 31 61 32 27 33 66 34
REMARK SMILES IDX 60 35 62 36 28 37 65 38 59 39 58 40 29 42 51 43 36 44 50 45
REMARK SMILES IDX 37 46 40 47 49 48 63 49 38 50 39 51 48 53 64 54 41 55 30 56
REMARK SMILES IDX 31 57 35 58 32 59 34 60 33 61 52 62 53 63 57 64 54 65 56 66
REMARK SMILES IDX 55 67 42 68 43 69 47 70 44 71 46 72 45 73
REMARK H PARENT 8 12 5 18 62 41 40 52
REMARK Flexibility Score: inf
ROOT
ATOM      1  O   UNL A   1      33.737  33.797  28.894  1.00  0.00    -0.462 OA
ENDROOT
BRANCH   1   2
ATOM      2  C   UNL A   1      34.603  33.016  28.197  1.00  0.00     0.312 C 
ATOM      3  O   UNL A   1      35.569  33.434  27.568  1.00  0.00    -0.252 OA
BRANCH   2   4
ATOM      4  C   UNL A   1      34.266  31.533  28.285  1.00  0.00     0.124 C 
ATOM      5  C   UNL A   1      33.695  29.687  26.737  1.00  0.00     0.107 C 
ATOM      6  C   UNL A   1      35.096  29.594  27.273  1.00  0.00    -0.006 C 
ATOM      7  C   UNL A   1      33.238  31.045  27.261  1.00  0.00     0.048 C 
ATOM      8  C   UNL A   1      35.421  30.611  28.080  1.00  0.00    -0.014 C 
BRANCH   5   9
ATOM      9  N   UNL A   1      33.778  29.615  25.295  1.00  0.00    -0.332 N 
ATOM     10  C   UNL A   1      33.419  28.775  24.316  1.00  0.00     0.317 C 
ATOM     11  O   UNL A   1      33.774  29.136  23.188  1.00  0.00    -0.249 OA
ATOM     12  H   UNL A   1      34.226  30.411  24.928  1.00  0.00     0.165 HD
BRANCH  10  13
ATOM     13  N   UNL A   1      32.738  27.603  24.502  1.00  0.00    -0.326 N 
ATOM     14  C   UNL A   1      33.484  26.373  24.241  1.00  0.00     0.148 C 
BRANCH  13  15
ATOM     15  C   UNL A   1      31.335  27.386  24.861  1.00  0.00     0.149 C 
BRANCH  15  16
ATOM     16  C   UNL A   1      31.074  26.601  26.154  1.00  0.00     0.177 C 
BRANCH  16  17
ATOM     17  O   UNL A   1      31.073  27.402  27.327  1.00  0.00    -0.395 OA
ATOM     18  H   UNL A   1      31.847  27.985  27.320  1.00  0.00     0.210 HD
ENDBRANCH  16  17
ENDBRANCH  15  16
ENDBRANCH  13  15
ENDBRANCH  10  13
ENDBRANCH   5   9
ENDBRANCH   2   4
ENDBRANCH   1   2
BRANCH   1  19
ATOM     19  C   UNL A   1      33.975  35.216  28.870  1.00  0.00     0.274 C 
BRANCH  19  20
ATOM     20  C   UNL A   1      32.902  35.946  29.681  1.00  0.00     0.275 C 
BRANCH  20  21
ATOM     21  O   UNL A   1      32.480  35.159  30.814  1.00  0.00    -0.458 OA
BRANCH  21  22
ATOM     22  C   UNL A   1      32.848  35.633  32.025  1.00  0.00     0.338 C 
ATOM     23  O   UNL A   1      32.284  36.478  32.704  1.00  0.00    -0.246 OA
BRANCH  22  24
ATOM     24  C   UNL A   1      34.026  34.903  32.515  1.00  0.00     0.060 A 
ATOM     25  C   UNL A   1      35.277  35.509  32.391  1.00  0.00     0.016 A 
ATOM     26  C   UNL A   1      33.915  33.594  32.988  1.00  0.00     0.016 A 
ATOM     27  C   UNL A   1      36.432  34.805  32.715  1.00  0.00     0.010 A 
ATOM     28  C   UNL A   1      35.077  32.892  33.328  1.00  0.00     0.010 A 
ATOM     29  C   UNL A   1      36.340  33.488  33.178  1.00  0.00    -0.014 A 
BRANCH  29  30
ATOM     30  C   UNL A   1      37.579  32.732  33.476  1.00  0.00     0.031 A 
ATOM     31  C   UNL A   1      38.311  32.960  34.766  1.00  0.00     0.074 A 
ATOM     32  C   UNL A   1      38.026  31.819  32.596  1.00  0.00     0.049 A 
ATOM     33  N   UNL A   1      39.427  32.421  35.188  1.00  0.00    -0.248 NA
ATOM     34  C   UNL A   1      37.709  33.918  35.707  1.00  0.00     0.031 C 
ATOM     35  C   UNL A   1      37.377  31.473  31.331  1.00  0.00     0.029 A 
ATOM     36  N   UNL A   1      39.134  31.011  32.637  1.00  0.00    -0.354 N 
ATOM     37  C   UNL A   1      39.670  32.984  36.433  1.00  0.00     0.074 A 
ATOM     38  C   UNL A   1      38.595  33.918  36.693  1.00  0.00     0.031 C 
ATOM     39  C   UNL A   1      38.095  30.516  30.719  1.00  0.00     0.029 A 
ATOM     40  C   UNL A   1      39.273  30.216  31.527  1.00  0.00     0.049 A 
ATOM     41  H   UNL A   1      39.768  31.003  33.391  1.00  0.00     0.167 HD
ATOM     42  C   UNL A   1      40.697  32.745  37.283  1.00  0.00     0.031 A 
ATOM     43  C   UNL A   1      40.252  29.357  31.189  1.00  0.00     0.031 A 
ATOM     44  C   UNL A   1      41.769  31.821  37.024  1.00  0.00     0.049 A 
ATOM     45  C   UNL A   1      41.416  29.163  32.117  1.00  0.00     0.074 A 
ATOM     46  C   UNL A   1      42.848  31.502  37.830  1.00  0.00     0.029 A 
ATOM     47  N   UNL A   1      41.900  31.070  35.866  1.00  0.00    -0.354 N 
ATOM     48  N   UNL A   1      41.631  29.698  33.294  1.00  0.00    -0.248 NA
ATOM     49  C   UNL A   1      42.475  28.248  31.667  1.00  0.00     0.031 C 
ATOM     50  C   UNL A   1      43.655  30.590  37.141  1.00  0.00     0.029 A 
ATOM     51  C   UNL A   1      43.054  30.307  35.925  1.00  0.00     0.049 A 
ATOM     52  H   UNL A   1      41.266  31.077  35.113  1.00  0.00     0.167 HD
ATOM     53  C   UNL A   1      42.838  29.170  33.734  1.00  0.00     0.074 A 
ATOM     54  C   UNL A   1      43.301  28.263  32.704  1.00  0.00     0.031 C 
ATOM     55  C   UNL A   1      43.502  29.414  34.890  1.00  0.00     0.031 A 
BRANCH  42  56
ATOM     56  C   UNL A   1      40.729  33.529  38.563  1.00  0.00    -0.014 A 
ATOM     57  C   UNL A   1      40.115  33.047  39.729  1.00  0.00     0.009 A 
ATOM     58  C   UNL A   1      41.411  34.756  38.608  1.00  0.00     0.009 A 
ATOM     59  C   UNL A   1      40.159  33.793  40.909  1.00  0.00     0.001 A 
ATOM     60  C   UNL A   1      41.473  35.488  39.794  1.00  0.00     0.001 A 
ATOM     61  C   UNL A   1      40.839  35.010  40.941  1.00  0.00     0.000 A 
ENDBRANCH  42  56
BRANCH  43  62
ATOM     62  C   UNL A   1      40.185  28.631  29.896  1.00  0.00    -0.014 A 
ATOM     63  C   UNL A   1      40.696  29.211  28.725  1.00  0.00     0.009 A 
ATOM     64  C   UNL A   1      39.605  27.354  29.827  1.00  0.00     0.009 A 
ATOM     65  C   UNL A   1      40.610  28.533  27.506  1.00  0.00     0.001 A 
ATOM     66  C   UNL A   1      39.543  26.670  28.613  1.00  0.00     0.001 A 
ATOM     67  C   UNL A   1      40.038  27.262  27.453  1.00  0.00     0.000 A 
ENDBRANCH  43  62
BRANCH  55  68
ATOM     68  C   UNL A   1      44.786  28.667  35.109  1.00  0.00    -0.014 A 
ATOM     69  C   UNL A   1      46.024  29.237  34.776  1.00  0.00     0.009 A 
ATOM     70  C   UNL A   1      44.756  27.387  35.686  1.00  0.00     0.009 A 
ATOM     71  C   UNL A   1      47.207  28.527  34.989  1.00  0.00     0.001 A 
ATOM     72  C   UNL A   1      45.942  26.690  35.919  1.00  0.00     0.001 A 
ATOM     73  C   UNL A   1      47.165  27.257  35.563  1.00  0.00     0.000 A 
ENDBRANCH  55  68
ENDBRANCH  29  30
ENDBRANCH  22  24
ENDBRANCH  21  22
ENDBRANCH  20  21
ENDBRANCH  19  20
ENDBRANCH   1  19
TORSDOF 16
ENDMDL
MODEL 2
REMARK VINA RESULT:      -9.1      0.725      6.189
REMARK SMILES CN(CCO)C(=O)N[C@H]1C=C[C@@H](C(=O)OCCOC(=O)c2ccc(-c3c4nc(c(-c5ccccc5)c5ccc([nH]5)c(-c5ccccc5)c5nc(c(-c6ccccc6)c6ccc3[nH]6)C=C5)C=C4)cc2)C1
REMARK SMILES IDX 15 1 13 2 14 3 12 4 9 5 10 6 69 7 11 8 8 9 6 10 7 11 2 13
REMARK SMILES IDX 1 14 3 15 4 16 5 17 16 19 17 20 18 21 19 22 20 23 21 24
REMARK SMILES IDX 22 25 68 26 23 27 67 28 24 29 25 30 26 31 61 32 27 33 66 34
REMARK SMILES IDX 60 35 62 36 28 37 65 38 59 39 58 40 29 42 51 43 36 44 50 45
REMARK SMILES IDX 37 46 40 47 49 48 63 49 38 50 39 51 48 53 64 54 41 55 30 56
REMARK SMILES IDX 31 57 35 58 32 59 34 60 33 61 52 62 53 63 57 64 54 65 56 66
REMARK SMILES IDX 55 67 42 68 43 69 47 70 44 71 46 72 45 73
REMARK H PARENT 8 12 5 18 62 41 40 52
REMARK Flexibility Score: inf
ROOT
ATOM      1  O   UNL A   1      34.104  33.745  29.114  1.00  0.00    -0.462 OA
ENDROOT
BRANCH   1   2
ATOM      2  C   UNL A   1      34.813  32.948  28.273  1.00  0.00     0.312 C 
ATOM      3  O   UNL A   1      35.722  33.332  27.546  1.00  0.00    -0.252 OA
BRANCH   2   4
ATOM      4  C   UNL A   1      34.375  31.489  28.329  1.00  0.00     0.124 C 
ATOM      5  C   UNL A   1      33.604  29.744  26.752  1.00  0.00     0.107 C 
ATOM      6  C   UNL A   1      35.018  29.534  27.218  1.00  0.00    -0.006 C 
ATOM      7  C   UNL A   1      33.269  31.111  27.340  1.00  0.00     0.048 C 
ATOM      8  C   UNL A   1      35.450  30.497  28.041  1.00  0.00    -0.014 C 
BRANCH   5   9
ATOM      9  N   UNL A   1      33.617  29.717  25.306  1.00  0.00    -0.332 N 
ATOM     10  C   UNL A   1      33.117  28.964  24.318  1.00  0.00     0.317 C 
ATOM     11  O   UNL A   1      33.466  29.322  23.187  1.00  0.00    -0.249 OA
ATOM     12  H   UNL A   1      34.144  30.466  24.945  1.00  0.00     0.165 HD
BRANCH  10  13
ATOM     13  N   UNL A   1      32.306  27.878  24.498  1.00  0.00    -0.326 N 
ATOM     14  C   UNL A   1      31.352  27.958  25.603  1.00  0.00     0.148 C 
BRANCH  13  15
ATOM     15  C   UNL A   1      32.289  26.597  23.787  1.00  0.00     0.149 C 
BRANCH  15  16
ATOM     16  C   UNL A   1      31.247  26.449  22.670  1.00  0.00     0.177 C 
BRANCH  16  17
ATOM     17  O   UNL A   1      31.304  27.470  21.686  1.00  0.00    -0.395 OA
ATOM     18  H   UNL A   1      30.549  28.068  21.797  1.00  0.00     0.210 HD
ENDBRANCH  16  17
ENDBRANCH  15  16
ENDBRANCH  13  15
ENDBRANCH  10  13
ENDBRANCH   5   9
ENDBRANCH   2   4
ENDBRANCH   1   2
BRANCH   1  19
ATOM     19  C   UNL A   1      34.077  35.152  28.810  1.00  0.00     0.274 C 
BRANCH  19  20
ATOM     20  C   UNL A   1      32.914  35.827  29.540  1.00  0.00     0.275 C 
BRANCH  20  21
ATOM     21  O   UNL A   1      32.512  35.065  30.697  1.00  0.00    -0.458 OA
BRANCH  21  22
ATOM     22  C   UNL A   1      32.857  35.591  31.893  1.00  0.00     0.338 C 
ATOM     23  O   UNL A   1      32.268  36.447  32.535  1.00  0.00    -0.246 OA
BRANCH  22  24
ATOM     24  C   UNL A   1      34.045  34.905  32.420  1.00  0.00     0.060 A 
ATOM     25  C   UNL A   1      35.274  35.562  32.343  1.00  0.00     0.016 A 
ATOM     26  C   UNL A   1      33.971  33.590  32.882  1.00  0.00     0.016 A 
ATOM     27  C   UNL A   1      36.445  34.904  32.704  1.00  0.00     0.010 A 
ATOM     28  C   UNL A   1      35.148  32.933  33.260  1.00  0.00     0.010 A 
ATOM     29  C   UNL A   1      36.391  33.581  33.157  1.00  0.00    -0.014 A 
BRANCH  29  30
ATOM     30  C   UNL A   1      37.648  32.874  33.494  1.00  0.00     0.031 A 
ATOM     31  C   UNL A   1      38.227  31.868  32.542  1.00  0.00     0.074 A 
ATOM     32  C   UNL A   1      38.283  33.162  34.644  1.00  0.00     0.049 A 
ATOM     33  N   UNL A   1      39.297  31.126  32.677  1.00  0.00    -0.248 NA
ATOM     34  C   UNL A   1      37.512  31.673  31.271  1.00  0.00     0.031 C 
ATOM     35  C   UNL A   1      37.845  34.153  35.627  1.00  0.00     0.029 A 
ATOM     36  N   UNL A   1      39.436  32.646  35.177  1.00  0.00    -0.354 N 
ATOM     37  C   UNL A   1      39.376  30.364  31.520  1.00  0.00     0.074 A 
ATOM     38  C   UNL A   1      38.238  30.723  30.699  1.00  0.00     0.031 C 
ATOM     39  C   UNL A   1      38.726  34.180  36.642  1.00  0.00     0.029 A 
ATOM     40  C   UNL A   1      39.761  33.179  36.400  1.00  0.00     0.049 A 
ATOM     41  H   UNL A   1      39.979  31.960  34.726  1.00  0.00     0.167 HD
ATOM     42  C   UNL A   1      40.310  29.448  31.172  1.00  0.00     0.031 A 
ATOM     43  C   UNL A   1      40.767  32.879  37.241  1.00  0.00     0.031 A 
ATOM     44  C   UNL A   1      41.439  29.088  31.988  1.00  0.00     0.049 A 
ATOM     45  C   UNL A   1      41.750  31.810  36.862  1.00  0.00     0.074 A 
ATOM     46  C   UNL A   1      42.447  28.179  31.715  1.00  0.00     0.029 A 
ATOM     47  N   UNL A   1      41.706  29.615  33.242  1.00  0.00    -0.354 N 
ATOM     48  N   UNL A   1      41.816  31.101  35.762  1.00  0.00    -0.248 NA
ATOM     49  C   UNL A   1      42.797  31.497  37.846  1.00  0.00     0.031 C 
ATOM     50  C   UNL A   1      43.300  28.125  32.823  1.00  0.00     0.029 A 
ATOM     51  C   UNL A   1      42.847  29.035  33.766  1.00  0.00     0.049 A 
ATOM     52  H   UNL A   1      41.163  30.302  33.693  1.00  0.00     0.167 HD
ATOM     53  C   UNL A   1      42.921  30.273  35.911  1.00  0.00     0.074 A 
ATOM     54  C   UNL A   1      43.503  30.577  37.203  1.00  0.00     0.031 C 
ATOM     55  C   UNL A   1      43.411  29.345  35.053  1.00  0.00     0.031 A 
BRANCH  42  56
ATOM     56  C   UNL A   1      40.128  28.741  29.860  1.00  0.00    -0.014 A 
ATOM     57  C   UNL A   1      39.454  27.513  29.781  1.00  0.00     0.009 A 
ATOM     58  C   UNL A   1      40.614  29.329  28.682  1.00  0.00     0.009 A 
ATOM     59  C   UNL A   1      39.295  26.873  28.550  1.00  0.00     0.001 A 
ATOM     60  C   UNL A   1      40.434  28.700  27.450  1.00  0.00     0.001 A 
ATOM     61  C   UNL A   1      39.782  27.468  27.386  1.00  0.00     0.000 A 
ENDBRANCH  42  56
BRANCH  43  62
ATOM     62  C   UNL A   1      40.881  33.588  38.540  1.00  0.00    -0.014 A 
ATOM     63  C   UNL A   1      41.637  34.766  38.646  1.00  0.00     0.009 A 
ATOM     64  C   UNL A   1      40.238  33.087  39.682  1.00  0.00     0.009 A 
ATOM     65  C   UNL A   1      41.760  35.417  39.875  1.00  0.00     0.001 A 
ATOM     66  C   UNL A   1      40.344  33.753  40.904  1.00  0.00     0.001 A 
ATOM     67  C   UNL A   1      41.111  34.912  41.001  1.00  0.00     0.000 A 
ENDBRANCH  43  62
BRANCH  55  68
ATOM     68  C   UNL A   1      44.651  28.613  35.477  1.00  0.00    -0.014 A 
ATOM     69  C   UNL A   1      45.927  29.115  35.183  1.00  0.00     0.009 A 
ATOM     70  C   UNL A   1      44.538  27.419  36.209  1.00  0.00     0.009 A 
ATOM     71  C   UNL A   1      47.069  28.419  35.588  1.00  0.00     0.001 A 
ATOM     72  C   UNL A   1      45.680  26.740  36.632  1.00  0.00     0.001 A 
ATOM     73  C   UNL A   1      46.944  27.236  36.315  1.00  0.00     0.000 A 
ENDBRANCH  55  68
ENDBRANCH  29  30
ENDBRANCH  22  24
ENDBRANCH  21  22
ENDBRANCH  20  21
ENDBRANCH  19  20
ENDBRANCH   1  19
TORSDOF 16
ENDMDL
MODEL 3
REMARK VINA RESULT:      -9.1      5.687     10.669
REMARK SMILES CN(CCO)C(=O)N[C@H]1C=C[C@@H](C(=O)OCCOC(=O)c2ccc(-c3c4nc(c(-c5ccccc5)c5ccc([nH]5)c(-c5ccccc5)c5nc(c(-c6ccccc6)c6ccc3[nH]6)C=C5)C=C4)cc2)C1
REMARK SMILES IDX 15 1 13 2 14 3 12 4 9 5 10 6 69 7 11 8 8 9 6 10 7 11 2 13
REMARK SMILES IDX 1 14 3 15 4 16 5 17 16 19 17 20 18 21 19 22 20 23 21 24
REMARK SMILES IDX 22 25 68 26 23 27 67 28 24 29 25 30 26 31 61 32 27 33 66 34
REMARK SMILES IDX 60 35 62 36 28 37 65 38 59 39 58 40 29 42 51 43 36 44 50 45
REMARK SMILES IDX 37 46 40 47 49 48 63 49 38 50 39 51 48 53 64 54 41 55 30 56
REMARK SMILES IDX 31 57 35 58 32 59 34 60 33 61 52 62 53 63 57 64 54 65 56 66
REMARK SMILES IDX 55 67 42 68 43 69 47 70 44 71 46 72 45 73
REMARK H PARENT 8 12 5 18 62 41 40 52
REMARK Flexibility Score: inf
ROOT
ATOM      1  O   UNL A   1      35.492  21.371  26.121  1.00  0.00    -0.462 OA
ENDROOT
BRANCH   1   2
ATOM      2  C   UNL A   1      34.220  21.829  26.246  1.00  0.00     0.312 C 
ATOM      3  O   UNL A   1      33.214  21.134  26.147  1.00  0.00    -0.252 OA
BRANCH   2   4
ATOM      4  C   UNL A   1      34.153  23.322  26.546  1.00  0.00     0.124 C 
ATOM      5  C   UNL A   1      34.174  25.449  25.281  1.00  0.00     0.107 C 
ATOM      6  C   UNL A   1      32.813  25.090  25.807  1.00  0.00    -0.006 C 
ATOM      7  C   UNL A   1      34.989  24.202  25.615  1.00  0.00     0.048 C 
ATOM      8  C   UNL A   1      32.790  23.922  26.458  1.00  0.00    -0.014 C 
BRANCH   5   9
ATOM      9  N   UNL A   1      34.039  25.696  23.862  1.00  0.00    -0.332 N 
ATOM     10  C   UNL A   1      33.468  25.117  22.799  1.00  0.00     0.317 C 
ATOM     11  O   UNL A   1      33.685  25.701  21.731  1.00  0.00    -0.249 OA
ATOM     12  H   UNL A   1      34.497  26.529  23.605  1.00  0.00     0.165 HD
BRANCH  10  13
ATOM     13  N   UNL A   1      32.722  23.972  22.840  1.00  0.00    -0.326 N 
ATOM     14  C   UNL A   1      31.284  24.144  23.045  1.00  0.00     0.148 C 
BRANCH  13  15
ATOM     15  C   UNL A   1      33.153  22.573  22.779  1.00  0.00     0.149 C 
BRANCH  15  16
ATOM     16  C   UNL A   1      32.041  21.517  22.706  1.00  0.00     0.177 C 
BRANCH  16  17
ATOM     17  O   UNL A   1      31.738  21.086  21.388  1.00  0.00    -0.395 OA
ATOM     18  H   UNL A   1      31.291  20.226  21.425  1.00  0.00     0.210 HD
ENDBRANCH  16  17
ENDBRANCH  15  16
ENDBRANCH  13  15
ENDBRANCH  10  13
ENDBRANCH   5   9
ENDBRANCH   2   4
ENDBRANCH   1   2
BRANCH   1  19
ATOM     19  C   UNL A   1      35.720  20.337  25.147  1.00  0.00     0.274 C 
BRANCH  19  20
ATOM     20  C   UNL A   1      37.222  20.112  24.957  1.00  0.00     0.275 C 
BRANCH  20  21
ATOM     21  O   UNL A   1      37.973  21.295  25.299  1.00  0.00    -0.458 OA
BRANCH  21  22
ATOM     22  C   UNL A   1      39.122  21.083  25.979  1.00  0.00     0.338 C 
ATOM     23  O   UNL A   1      39.729  20.032  26.116  1.00  0.00    -0.246 OA
BRANCH  22  24
ATOM     24  C   UNL A   1      39.649  22.357  26.487  1.00  0.00     0.060 A 
ATOM     25  C   UNL A   1      39.083  23.541  26.012  1.00  0.00     0.016 A 
ATOM     26  C   UNL A   1      40.758  22.390  27.333  1.00  0.00     0.016 A 
ATOM     27  C   UNL A   1      39.635  24.770  26.359  1.00  0.00     0.010 A 
ATOM     28  C   UNL A   1      41.304  23.627  27.694  1.00  0.00     0.010 A 
ATOM     29  C   UNL A   1      40.756  24.821  27.196  1.00  0.00    -0.014 A 
BRANCH  29  30
ATOM     30  C   UNL A   1      41.364  26.132  27.520  1.00  0.00     0.031 A 
ATOM     31  C   UNL A   1      42.698  26.509  26.945  1.00  0.00     0.074 A 
ATOM     32  C   UNL A   1      40.698  26.994  28.310  1.00  0.00     0.049 A 
ATOM     33  N   UNL A   1      43.403  27.594  27.141  1.00  0.00    -0.248 NA
ATOM     34  C   UNL A   1      43.319  25.541  26.027  1.00  0.00     0.031 C 
ATOM     35  C   UNL A   1      39.375  26.762  28.890  1.00  0.00     0.029 A 
ATOM     36  N   UNL A   1      41.047  28.243  28.756  1.00  0.00    -0.354 N 
ATOM     37  C   UNL A   1      44.557  27.435  26.386  1.00  0.00     0.074 A 
ATOM     38  C   UNL A   1      44.465  26.142  25.740  1.00  0.00     0.031 C 
ATOM     39  C   UNL A   1      39.020  27.840  29.610  1.00  0.00     0.029 A 
ATOM     40  C   UNL A   1      40.107  28.814  29.576  1.00  0.00     0.049 A 
ATOM     41  H   UNL A   1      41.891  28.687  28.511  1.00  0.00     0.167 HD
ATOM     42  C   UNL A   1      45.600  28.287  26.245  1.00  0.00     0.031 A 
ATOM     43  C   UNL A   1      40.127  29.982  30.244  1.00  0.00     0.031 A 
ATOM     44  C   UNL A   1      45.695  29.570  26.889  1.00  0.00     0.049 A 
ATOM     45  C   UNL A   1      41.327  30.878  30.125  1.00  0.00     0.074 A 
ATOM     46  C   UNL A   1      46.707  30.510  26.797  1.00  0.00     0.029 A 
ATOM     47  N   UNL A   1      44.743  30.091  27.751  1.00  0.00    -0.354 N 
ATOM     48  N   UNL A   1      42.409  30.716  29.404  1.00  0.00    -0.248 NA
ATOM     49  C   UNL A   1      41.307  32.116  30.917  1.00  0.00     0.031 C 
ATOM     50  C   UNL A   1      46.387  31.581  27.638  1.00  0.00     0.029 A 
ATOM     51  C   UNL A   1      45.154  31.328  28.218  1.00  0.00     0.049 A 
ATOM     52  H   UNL A   1      43.898  29.647  27.996  1.00  0.00     0.167 HD
ATOM     53  C   UNL A   1      43.190  31.840  29.639  1.00  0.00     0.074 A 
ATOM     54  C   UNL A   1      42.451  32.681  30.559  1.00  0.00     0.031 C 
ATOM     55  C   UNL A   1      44.410  32.149  29.135  1.00  0.00     0.031 A 
BRANCH  42  56
ATOM     56  C   UNL A   1      46.745  27.838  25.383  1.00  0.00    -0.014 A 
ATOM     57  C   UNL A   1      47.835  27.140  25.925  1.00  0.00     0.009 A 
ATOM     58  C   UNL A   1      46.717  28.093  24.004  1.00  0.00     0.009 A 
ATOM     59  C   UNL A   1      48.889  26.731  25.105  1.00  0.00     0.001 A 
ATOM     60  C   UNL A   1      47.760  27.664  23.183  1.00  0.00     0.001 A 
ATOM     61  C   UNL A   1      48.849  26.991  23.735  1.00  0.00     0.000 A 
ENDBRANCH  42  56
BRANCH  43  62
ATOM     62  C   UNL A   1      38.980  30.362  31.107  1.00  0.00    -0.014 A 
ATOM     63  C   UNL A   1      38.936  29.961  32.451  1.00  0.00     0.009 A 
ATOM     64  C   UNL A   1      37.923  31.124  30.587  1.00  0.00     0.009 A 
ATOM     65  C   UNL A   1      37.844  30.302  33.252  1.00  0.00     0.001 A 
ATOM     66  C   UNL A   1      36.844  31.483  31.397  1.00  0.00     0.001 A 
ATOM     67  C   UNL A   1      36.802  31.066  32.726  1.00  0.00     0.000 A 
ENDBRANCH  43  62
BRANCH  55  68
ATOM     68  C   UNL A   1      45.006  33.462  29.551  1.00  0.00    -0.014 A 
ATOM     69  C   UNL A   1      45.837  33.560  30.677  1.00  0.00     0.009 A 
ATOM     70  C   UNL A   1      44.757  34.613  28.785  1.00  0.00     0.009 A 
ATOM     71  C   UNL A   1      46.383  34.791  31.046  1.00  0.00     0.001 A 
ATOM     72  C   UNL A   1      45.324  35.836  29.143  1.00  0.00     0.001 A 
ATOM     73  C   UNL A   1      46.130  35.926  30.277  1.00  0.00     0.000 A 
ENDBRANCH  55  68
ENDBRANCH  29  30
ENDBRANCH  22  24
ENDBRANCH  21  22
ENDBRANCH  20  21
ENDBRANCH  19  20
ENDBRANCH   1  19
TORSDOF 16
ENDMDL
