MODEL 1
REMARK VINA RESULT:     -10.0      0.000      0.000
REMARK SMILES CC[C@H](C)[C@@H](NC(=O)[C@@H]1CCCN1C(=O)C1CC1)C(=O)OCCOC(=O)c1ccc(-c2c3nc(c(-c4ccccc4)c4ccc([nH]4)c(-c4ccccc4)c4nc(c(-c5ccccc5)c5ccc2[nH]5)C=C4)C=C3)cc1
REMARK SMILES IDX 22 1 21 2 19 3 20 4 5 5 3 6 4 7 2 8 1 9 6 10 7 11 8 13 9 14
REMARK SMILES IDX 10 15 13 16 11 17 12 18 14 19 15 20 16 21 17 22 18 23 23 24
REMARK SMILES IDX 24 25 25 26 26 27 27 28 28 29 74 30 29 31 73 32 30 33 31 34
REMARK SMILES IDX 32 35 67 36 33 37 72 38 66 39 68 40 34 41 71 42 65 43 64 44
REMARK SMILES IDX 35 46 57 47 42 48 56 49 43 50 46 51 55 52 69 53 44 54 45 55
REMARK SMILES IDX 54 57 70 58 47 59 36 60 37 61 41 62 38 63 40 64 39 65 58 66
REMARK SMILES IDX 59 67 63 68 60 69 62 70 61 71 48 72 49 73 53 74 50 75 52 76
REMARK SMILES IDX 51 77
REMARK H PARENT 6 12 68 45 46 56
REMARK Flexibility Score: inf
ROOT
ATOM      1  C   UNL A   1      38.967  20.807  25.470  1.00  0.00     0.274 C 
ENDROOT
BRANCH   1   2
ATOM      2  O   UNL A   1      37.775  20.598  24.677  1.00  0.00    -0.461 OA
BRANCH   2   3
ATOM      3  C   UNL A   1      36.916  21.654  24.584  1.00  0.00     0.329 C 
ATOM      4  O   UNL A   1      36.634  22.226  23.537  1.00  0.00    -0.250 OA
BRANCH   3   5
ATOM      5  C   UNL A   1      36.479  22.187  25.965  1.00  0.00     0.195 C 
BRANCH   5   6
ATOM      6  C   UNL A   1      36.491  23.742  26.143  1.00  0.00     0.019 C 
ATOM      7  C   UNL A   1      37.930  24.288  26.094  1.00  0.00     0.010 C 
BRANCH   6   8
ATOM      8  C   UNL A   1      35.565  24.474  25.130  1.00  0.00     0.002 C 
ATOM      9  C   UNL A   1      34.343  25.212  25.665  1.00  0.00     0.004 C 
ENDBRANCH   6   8
ENDBRANCH   5   6
BRANCH   5  10
ATOM     10  N   UNL A   1      35.255  21.566  26.548  1.00  0.00    -0.341 N 
ATOM     11  C   UNL A   1      33.993  21.301  26.090  1.00  0.00     0.243 C 
ATOM     12  H   UNL A   1      35.386  21.278  27.481  1.00  0.00     0.164 HD
ATOM     13  O   UNL A   1      33.090  21.272  26.931  1.00  0.00    -0.273 OA
BRANCH  11  14
ATOM     14  C   UNL A   1      33.726  21.012  24.605  1.00  0.00     0.174 C 
ATOM     15  C   UNL A   1      32.946  22.235  24.089  1.00  0.00     0.037 C 
ATOM     16  N   UNL A   1      32.881  19.887  24.148  1.00  0.00    -0.330 N 
ATOM     17  C   UNL A   1      32.402  21.767  22.759  1.00  0.00     0.024 C 
ATOM     18  C   UNL A   1      32.018  20.328  23.052  1.00  0.00     0.120 C 
BRANCH  16  19
ATOM     19  C   UNL A   1      32.981  18.506  24.305  1.00  0.00     0.226 C 
ATOM     20  O   UNL A   1      32.005  17.869  24.704  1.00  0.00    -0.275 OA
BRANCH  19  21
ATOM     21  C   UNL A   1      34.196  17.684  24.048  1.00  0.00     0.079 C 
ATOM     22  C   UNL A   1      34.583  16.353  24.606  1.00  0.00     0.014 C 
ATOM     23  C   UNL A   1      34.149  16.463  23.168  1.00  0.00     0.014 C 
ENDBRANCH  19  21
ENDBRANCH  16  19
ENDBRANCH  11  14
ENDBRANCH   5  10
ENDBRANCH   3   5
ENDBRANCH   2   3
ENDBRANCH   1   2
BRANCH   1  24
ATOM     24  C   UNL A   1      39.712  19.520  25.800  1.00  0.00     0.275 C 
BRANCH  24  25
ATOM     25  O   UNL A   1      40.807  19.797  26.681  1.00  0.00    -0.458 OA
BRANCH  25  26
ATOM     26  C   UNL A   1      41.986  20.018  26.065  1.00  0.00     0.338 C 
ATOM     27  O   UNL A   1      42.539  19.327  25.229  1.00  0.00    -0.246 OA
BRANCH  26  28
ATOM     28  C   UNL A   1      42.492  21.327  26.482  1.00  0.00     0.060 A 
ATOM     29  C   UNL A   1      42.551  21.622  27.846  1.00  0.00     0.016 A 
ATOM     30  C   UNL A   1      42.801  22.288  25.521  1.00  0.00     0.016 A 
ATOM     31  C   UNL A   1      42.883  22.899  28.266  1.00  0.00     0.010 A 
ATOM     32  C   UNL A   1      43.143  23.570  25.941  1.00  0.00     0.010 A 
ATOM     33  C   UNL A   1      43.156  23.883  27.312  1.00  0.00    -0.014 A 
BRANCH  33  34
ATOM     34  C   UNL A   1      43.339  25.279  27.743  1.00  0.00     0.031 A 
ATOM     35  C   UNL A   1      44.728  25.771  28.012  1.00  0.00     0.074 A 
ATOM     36  C   UNL A   1      42.274  26.085  27.876  1.00  0.00     0.049 A 
ATOM     37  N   UNL A   1      45.115  26.892  28.558  1.00  0.00    -0.248 NA
ATOM     38  C   UNL A   1      45.829  24.875  27.617  1.00  0.00     0.031 C 
ATOM     39  C   UNL A   1      40.893  25.725  27.555  1.00  0.00     0.029 A 
ATOM     40  N   UNL A   1      42.193  27.374  28.331  1.00  0.00    -0.354 N 
ATOM     41  C   UNL A   1      46.501  26.823  28.604  1.00  0.00     0.074 A 
ATOM     42  C   UNL A   1      46.888  25.553  28.032  1.00  0.00     0.031 C 
ATOM     43  C   UNL A   1      40.095  26.768  27.839  1.00  0.00     0.029 A 
ATOM     44  C   UNL A   1      40.904  27.839  28.411  1.00  0.00     0.049 A 
ATOM     45  H   UNL A   1      42.979  27.913  28.575  1.00  0.00     0.167 HD
ATOM     46  C   UNL A   1      47.368  27.739  29.094  1.00  0.00     0.031 A 
ATOM     47  C   UNL A   1      40.434  28.985  28.935  1.00  0.00     0.031 A 
ATOM     48  C   UNL A   1      46.961  28.993  29.668  1.00  0.00     0.049 A 
ATOM     49  C   UNL A   1      41.409  29.955  29.540  1.00  0.00     0.074 A 
ATOM     50  C   UNL A   1      47.746  29.988  30.222  1.00  0.00     0.029 A 
ATOM     51  N   UNL A   1      45.644  29.420  29.756  1.00  0.00    -0.354 N 
ATOM     52  N   UNL A   1      42.715  29.865  29.628  1.00  0.00    -0.248 NA
ATOM     53  C   UNL A   1      40.845  31.178  30.126  1.00  0.00     0.031 C 
ATOM     54  C   UNL A   1      46.898  31.005  30.676  1.00  0.00     0.029 A 
ATOM     55  C   UNL A   1      45.591  30.660  30.365  1.00  0.00     0.049 A 
ATOM     56  H   UNL A   1      44.863  28.916  29.432  1.00  0.00     0.167 HD
ATOM     57  C   UNL A   1      43.131  31.023  30.268  1.00  0.00     0.074 A 
ATOM     58  C   UNL A   1      41.940  31.807  30.530  1.00  0.00     0.031 C 
ATOM     59  C   UNL A   1      44.386  31.409  30.611  1.00  0.00     0.031 A 
BRANCH  46  60
ATOM     60  C   UNL A   1      48.824  27.380  29.077  1.00  0.00    -0.014 A 
ATOM     61  C   UNL A   1      49.419  26.691  30.145  1.00  0.00     0.009 A 
ATOM     62  C   UNL A   1      49.614  27.743  27.975  1.00  0.00     0.009 A 
ATOM     63  C   UNL A   1      50.787  26.403  30.123  1.00  0.00     0.001 A 
ATOM     64  C   UNL A   1      50.976  27.434  27.947  1.00  0.00     0.001 A 
ATOM     65  C   UNL A   1      51.562  26.772  29.025  1.00  0.00     0.000 A 
ENDBRANCH  46  60
BRANCH  47  66
ATOM     66  C   UNL A   1      38.974  29.245  28.953  1.00  0.00    -0.014 A 
ATOM     67  C   UNL A   1      38.211  28.960  30.095  1.00  0.00     0.009 A 
ATOM     68  C   UNL A   1      38.337  29.796  27.829  1.00  0.00     0.009 A 
ATOM     69  C   UNL A   1      36.837  29.209  30.105  1.00  0.00     0.001 A 
ATOM     70  C   UNL A   1      36.967  30.067  27.852  1.00  0.00     0.001 A 
ATOM     71  C   UNL A   1      36.218  29.767  28.987  1.00  0.00     0.000 A 
ENDBRANCH  47  66
BRANCH  59  72
ATOM     72  C   UNL A   1      44.523  32.746  31.276  1.00  0.00    -0.014 A 
ATOM     73  C   UNL A   1      44.660  33.919  30.519  1.00  0.00     0.009 A 
ATOM     74  C   UNL A   1      44.476  32.832  32.675  1.00  0.00     0.009 A 
ATOM     75  C   UNL A   1      44.776  35.156  31.156  1.00  0.00     0.001 A 
ATOM     76  C   UNL A   1      44.568  34.071  33.307  1.00  0.00     0.001 A 
ATOM     77  C   UNL A   1      44.726  35.230  32.548  1.00  0.00     0.000 A 
ENDBRANCH  59  72
ENDBRANCH  33  34
ENDBRANCH  26  28
ENDBRANCH  25  26
ENDBRANCH  24  25
ENDBRANCH   1  24
TORSDOF 17
ENDMDL
MODEL 2
REMARK VINA RESULT:     -10.0      3.082      7.299
REMARK SMILES CC[C@H](C)[C@@H](NC(=O)[C@@H]1CCCN1C(=O)C1CC1)C(=O)OCCOC(=O)c1ccc(-c2c3nc(c(-c4ccccc4)c4ccc([nH]4)c(-c4ccccc4)c4nc(c(-c5ccccc5)c5ccc2[nH]5)C=C4)C=C3)cc1
REMARK SMILES IDX 22 1 21 2 19 3 20 4 5 5 3 6 4 7 2 8 1 9 6 10 7 11 8 13 9 14
REMARK SMILES IDX 10 15 13 16 11 17 12 18 14 19 15 20 16 21 17 22 18 23 23 24
REMARK SMILES IDX 24 25 25 26 26 27 27 28 28 29 74 30 29 31 73 32 30 33 31 34
REMARK SMILES IDX 32 35 67 36 33 37 72 38 66 39 68 40 34 41 71 42 65 43 64 44
REMARK SMILES IDX 35 46 57 47 42 48 56 49 43 50 46 51 55 52 69 53 44 54 45 55
REMARK SMILES IDX 54 57 70 58 47 59 36 60 37 61 41 62 38 63 40 64 39 65 58 66
REMARK SMILES IDX 59 67 63 68 60 69 62 70 61 71 48 72 49 73 53 74 50 75 52 76
REMARK SMILES IDX 51 77
REMARK H PARENT 6 12 68 45 46 56
REMARK Flexibility Score: inf
ROOT
ATOM      1  C   UNL A   1      35.308  21.545  25.853  1.00  0.00     0.274 C 
ENDROOT
BRANCH   1   2
ATOM      2  O   UNL A   1      34.980  22.887  25.422  1.00  0.00    -0.461 OA
BRANCH   2   3
ATOM      3  C   UNL A   1      33.841  23.430  25.941  1.00  0.00     0.329 C 
ATOM      4  O   UNL A   1      33.453  23.254  27.091  1.00  0.00    -0.250 OA
BRANCH   3   5
ATOM      5  C   UNL A   1      32.979  24.135  24.872  1.00  0.00     0.195 C 
BRANCH   5   6
ATOM      6  C   UNL A   1      32.852  23.407  23.493  1.00  0.00     0.019 C 
ATOM      7  C   UNL A   1      31.468  22.749  23.346  1.00  0.00     0.010 C 
BRANCH   6   8
ATOM      8  C   UNL A   1      33.178  24.334  22.287  1.00  0.00     0.002 C 
ATOM      9  C   UNL A   1      33.648  25.757  22.570  1.00  0.00     0.004 C 
ENDBRANCH   6   8
ENDBRANCH   5   6
BRANCH   5  10
ATOM     10  N   UNL A   1      31.673  24.680  25.341  1.00  0.00    -0.341 N 
ATOM     11  C   UNL A   1      31.278  25.810  26.002  1.00  0.00     0.243 C 
ATOM     12  H   UNL A   1      30.917  24.087  25.123  1.00  0.00     0.164 HD
ATOM     13  O   UNL A   1      30.254  25.727  26.686  1.00  0.00    -0.273 OA
BRANCH  11  14
ATOM     14  C   UNL A   1      32.053  27.130  25.863  1.00  0.00     0.174 C 
ATOM     15  C   UNL A   1      32.052  27.750  27.273  1.00  0.00     0.037 C 
ATOM     16  N   UNL A   1      31.577  28.253  25.027  1.00  0.00    -0.330 N 
ATOM     17  C   UNL A   1      32.494  29.175  27.028  1.00  0.00     0.024 C 
ATOM     18  C   UNL A   1      31.782  29.518  25.732  1.00  0.00     0.120 C 
BRANCH  16  19
ATOM     19  C   UNL A   1      31.312  28.370  23.664  1.00  0.00     0.226 C 
ATOM     20  O   UNL A   1      32.092  28.999  22.946  1.00  0.00    -0.275 OA
BRANCH  19  21
ATOM     21  C   UNL A   1      30.130  27.810  22.953  1.00  0.00     0.079 C 
ATOM     22  C   UNL A   1      28.843  27.288  23.504  1.00  0.00     0.014 C 
ATOM     23  C   UNL A   1      28.865  28.607  22.777  1.00  0.00     0.014 C 
ENDBRANCH  19  21
ENDBRANCH  16  19
ENDBRANCH  11  14
ENDBRANCH   5  10
ENDBRANCH   3   5
ENDBRANCH   2   3
ENDBRANCH   1   2
BRANCH   1  24
ATOM     24  C   UNL A   1      36.446  20.912  25.062  1.00  0.00     0.275 C 
BRANCH  24  25
ATOM     25  O   UNL A   1      37.571  21.799  25.024  1.00  0.00    -0.458 OA
BRANCH  25  26
ATOM     26  C   UNL A   1      38.626  21.406  25.766  1.00  0.00     0.338 C 
ATOM     27  O   UNL A   1      39.107  20.292  25.859  1.00  0.00    -0.246 OA
BRANCH  26  28
ATOM     28  C   UNL A   1      39.216  22.587  26.399  1.00  0.00     0.060 A 
ATOM     29  C   UNL A   1      38.714  23.848  26.067  1.00  0.00     0.016 A 
ATOM     30  C   UNL A   1      40.325  22.446  27.230  1.00  0.00     0.016 A 
ATOM     31  C   UNL A   1      39.345  24.990  26.533  1.00  0.00     0.010 A 
ATOM     32  C   UNL A   1      40.956  23.592  27.706  1.00  0.00     0.010 A 
ATOM     33  C   UNL A   1      40.484  24.863  27.334  1.00  0.00    -0.014 A 
BRANCH  33  34
ATOM     34  C   UNL A   1      41.257  26.065  27.689  1.00  0.00     0.031 A 
ATOM     35  C   UNL A   1      40.619  27.094  28.570  1.00  0.00     0.074 A 
ATOM     36  C   UNL A   1      42.510  26.214  27.233  1.00  0.00     0.049 A 
ATOM     37  N   UNL A   1      41.037  28.294  28.872  1.00  0.00    -0.248 NA
ATOM     38  C   UNL A   1      39.337  26.722  29.191  1.00  0.00     0.031 C 
ATOM     39  C   UNL A   1      43.247  25.228  26.441  1.00  0.00     0.029 A 
ATOM     40  N   UNL A   1      43.379  27.264  27.364  1.00  0.00    -0.354 N 
ATOM     41  C   UNL A   1      40.053  28.834  29.689  1.00  0.00     0.074 A 
ATOM     42  C   UNL A   1      39.020  27.834  29.838  1.00  0.00     0.031 C 
ATOM     43  C   UNL A   1      44.457  25.730  26.142  1.00  0.00     0.029 A 
ATOM     44  C   UNL A   1      44.552  27.086  26.673  1.00  0.00     0.049 A 
ATOM     45  H   UNL A   1      43.183  28.065  27.900  1.00  0.00     0.167 HD
ATOM     46  C   UNL A   1      40.016  30.064  30.253  1.00  0.00     0.031 A 
ATOM     47  C   UNL A   1      45.563  27.946  26.458  1.00  0.00     0.031 A 
ATOM     48  C   UNL A   1      41.050  31.048  30.085  1.00  0.00     0.049 A 
ATOM     49  C   UNL A   1      45.466  29.331  27.032  1.00  0.00     0.074 A 
ATOM     50  C   UNL A   1      41.110  32.336  30.584  1.00  0.00     0.029 A 
ATOM     51  N   UNL A   1      42.213  30.842  29.356  1.00  0.00    -0.354 N 
ATOM     52  N   UNL A   1      44.512  29.856  27.763  1.00  0.00    -0.248 NA
ATOM     53  C   UNL A   1      46.581  30.243  26.745  1.00  0.00     0.031 C 
ATOM     54  C   UNL A   1      42.298  32.921  30.129  1.00  0.00     0.029 A 
ATOM     55  C   UNL A   1      42.994  31.982  29.383  1.00  0.00     0.049 A 
ATOM     56  H   UNL A   1      42.448  30.007  28.891  1.00  0.00     0.167 HD
ATOM     57  C   UNL A   1      44.914  31.156  28.034  1.00  0.00     0.074 A 
ATOM     58  C   UNL A   1      46.208  31.332  27.402  1.00  0.00     0.031 C 
ATOM     59  C   UNL A   1      44.275  32.121  28.740  1.00  0.00     0.031 A 
BRANCH  46  60
ATOM     60  C   UNL A   1      38.794  30.415  31.048  1.00  0.00    -0.014 A 
ATOM     61  C   UNL A   1      38.736  30.201  32.434  1.00  0.00     0.009 A 
ATOM     62  C   UNL A   1      37.679  30.965  30.397  1.00  0.00     0.009 A 
ATOM     63  C   UNL A   1      37.571  30.499  33.146  1.00  0.00     0.001 A 
ATOM     64  C   UNL A   1      36.524  31.283  31.115  1.00  0.00     0.001 A 
ATOM     65  C   UNL A   1      36.469  31.042  32.487  1.00  0.00     0.000 A 
ENDBRANCH  46  60
BRANCH  47  66
ATOM     66  C   UNL A   1      46.718  27.535  25.622  1.00  0.00    -0.014 A 
ATOM     67  C   UNL A   1      47.795  26.836  26.185  1.00  0.00     0.009 A 
ATOM     68  C   UNL A   1      46.739  27.828  24.249  1.00  0.00     0.009 A 
ATOM     69  C   UNL A   1      48.877  26.451  25.391  1.00  0.00     0.001 A 
ATOM     70  C   UNL A   1      47.811  27.419  23.453  1.00  0.00     0.001 A 
ATOM     71  C   UNL A   1      48.882  26.737  24.026  1.00  0.00     0.000 A 
ENDBRANCH  47  66
BRANCH  59  72
ATOM     72  C   UNL A   1      44.985  33.434  28.885  1.00  0.00    -0.014 A 
ATOM     73  C   UNL A   1      44.773  34.475  27.970  1.00  0.00     0.009 A 
ATOM     74  C   UNL A   1      45.846  33.639  29.974  1.00  0.00     0.009 A 
ATOM     75  C   UNL A   1      45.435  35.694  28.128  1.00  0.00     0.001 A 
ATOM     76  C   UNL A   1      46.487  34.865  30.141  1.00  0.00     0.001 A 
ATOM     77  C   UNL A   1      46.288  35.888  29.216  1.00  0.00     0.000 A 
ENDBRANCH  59  72
ENDBRANCH  33  34
ENDBRANCH  26  28
ENDBRANCH  25  26
ENDBRANCH  24  25
ENDBRANCH   1  24
TORSDOF 17
ENDMDL
MODEL 3
REMARK VINA RESULT:     -10.0      3.103      7.770
REMARK SMILES CC[C@H](C)[C@@H](NC(=O)[C@@H]1CCCN1C(=O)C1CC1)C(=O)OCCOC(=O)c1ccc(-c2c3nc(c(-c4ccccc4)c4ccc([nH]4)c(-c4ccccc4)c4nc(c(-c5ccccc5)c5ccc2[nH]5)C=C4)C=C3)cc1
REMARK SMILES IDX 22 1 21 2 19 3 20 4 5 5 3 6 4 7 2 8 1 9 6 10 7 11 8 13 9 14
REMARK SMILES IDX 10 15 13 16 11 17 12 18 14 19 15 20 16 21 17 22 18 23 23 24
REMARK SMILES IDX 24 25 25 26 26 27 27 28 28 29 74 30 29 31 73 32 30 33 31 34
REMARK SMILES IDX 32 35 67 36 33 37 72 38 66 39 68 40 34 41 71 42 65 43 64 44
REMARK SMILES IDX 35 46 57 47 42 48 56 49 43 50 46 51 55 52 69 53 44 54 45 55
REMARK SMILES IDX 54 57 70 58 47 59 36 60 37 61 41 62 38 63 40 64 39 65 58 66
REMARK SMILES IDX 59 67 63 68 60 69 62 70 61 71 48 72 49 73 53 74 50 75 52 76
REMARK SMILES IDX 51 77
REMARK H PARENT 6 12 68 45 46 56
REMARK Flexibility Score: inf
ROOT
ATOM      1  C   UNL A   1      31.885  30.033  25.938  1.00  0.00     0.274 C 
ENDROOT
BRANCH   1   2
ATOM      2  O   UNL A   1      32.607  29.395  24.858  1.00  0.00    -0.461 OA
BRANCH   2   3
ATOM      3  C   UNL A   1      32.483  28.040  24.764  1.00  0.00     0.329 C 
ATOM      4  O   UNL A   1      33.405  27.278  24.491  1.00  0.00    -0.250 OA
BRANCH   3   5
ATOM      5  C   UNL A   1      31.015  27.570  24.844  1.00  0.00     0.195 C 
BRANCH   5   6
ATOM      6  C   UNL A   1      30.313  27.255  23.481  1.00  0.00     0.019 C 
ATOM      7  C   UNL A   1      28.814  26.971  23.689  1.00  0.00     0.010 C 
BRANCH   6   8
ATOM      8  C   UNL A   1      30.545  28.360  22.411  1.00  0.00     0.002 C 
ATOM      9  C   UNL A   1      29.793  29.679  22.554  1.00  0.00     0.004 C 
ENDBRANCH   6   8
ENDBRANCH   5   6
BRANCH   5  10
ATOM     10  N   UNL A   1      30.713  26.543  25.881  1.00  0.00    -0.341 N 
ATOM     11  C   UNL A   1      30.740  25.175  25.925  1.00  0.00     0.243 C 
ATOM     12  H   UNL A   1      30.427  26.942  26.735  1.00  0.00     0.164 HD
ATOM     13  O   UNL A   1      29.962  24.627  26.709  1.00  0.00    -0.273 OA
BRANCH  11  14
ATOM     14  C   UNL A   1      31.726  24.368  25.065  1.00  0.00     0.174 C 
ATOM     15  C   UNL A   1      30.875  23.769  23.930  1.00  0.00     0.037 C 
ATOM     16  N   UNL A   1      32.447  23.182  25.576  1.00  0.00    -0.330 N 
ATOM     17  C   UNL A   1      31.782  22.718  23.331  1.00  0.00     0.024 C 
ATOM     18  C   UNL A   1      32.455  22.130  24.559  1.00  0.00     0.120 C 
BRANCH  16  19
ATOM     19  C   UNL A   1      33.352  23.004  26.619  1.00  0.00     0.226 C 
ATOM     20  O   UNL A   1      32.954  22.568  27.701  1.00  0.00    -0.275 OA
BRANCH  19  21
ATOM     21  C   UNL A   1      34.809  23.312  26.574  1.00  0.00     0.079 C 
ATOM     22  C   UNL A   1      35.889  22.698  25.744  1.00  0.00     0.014 C 
ATOM     23  C   UNL A   1      35.413  24.094  25.439  1.00  0.00     0.014 C 
ENDBRANCH  19  21
ENDBRANCH  16  19
ENDBRANCH  11  14
ENDBRANCH   5  10
ENDBRANCH   3   5
ENDBRANCH   2   3
ENDBRANCH   1   2
BRANCH   1  24
ATOM     24  C   UNL A   1      32.666  30.087  27.245  1.00  0.00     0.275 C 
BRANCH  24  25
ATOM     25  O   UNL A   1      34.048  30.357  26.981  1.00  0.00    -0.458 OA
BRANCH  25  26
ATOM     26  C   UNL A   1      34.713  30.941  27.998  1.00  0.00     0.338 C 
ATOM     27  O   UNL A   1      34.350  31.865  28.703  1.00  0.00    -0.246 OA
BRANCH  26  28
ATOM     28  C   UNL A   1      35.958  30.205  28.224  1.00  0.00     0.060 A 
ATOM     29  C   UNL A   1      36.173  29.615  29.473  1.00  0.00     0.016 A 
ATOM     30  C   UNL A   1      36.946  30.196  27.241  1.00  0.00     0.016 A 
ATOM     31  C   UNL A   1      37.399  29.041  29.767  1.00  0.00     0.010 A 
ATOM     32  C   UNL A   1      38.175  29.611  27.532  1.00  0.00     0.010 A 
ATOM     33  C   UNL A   1      38.411  29.060  28.804  1.00  0.00    -0.014 A 
BRANCH  33  34
ATOM     34  C   UNL A   1      39.765  28.608  29.167  1.00  0.00     0.031 A 
ATOM     35  C   UNL A   1      40.657  29.546  29.919  1.00  0.00     0.074 A 
ATOM     36  C   UNL A   1      40.171  27.373  28.833  1.00  0.00     0.049 A 
ATOM     37  N   UNL A   1      41.929  29.433  30.193  1.00  0.00    -0.248 NA
ATOM     38  C   UNL A   1      40.033  30.780  30.427  1.00  0.00     0.031 C 
ATOM     39  C   UNL A   1      39.346  26.358  28.178  1.00  0.00     0.029 A 
ATOM     40  N   UNL A   1      41.390  26.771  28.992  1.00  0.00    -0.354 N 
ATOM     41  C   UNL A   1      42.266  30.595  30.874  1.00  0.00     0.074 A 
ATOM     42  C   UNL A   1      41.069  31.399  30.974  1.00  0.00     0.031 C 
ATOM     43  C   UNL A   1      40.091  25.258  27.975  1.00  0.00     0.029 A 
ATOM     44  C   UNL A   1      41.451  25.518  28.435  1.00  0.00     0.049 A 
ATOM     45  H   UNL A   1      42.146  27.193  29.459  1.00  0.00     0.167 HD
ATOM     46  C   UNL A   1      43.475  30.958  31.361  1.00  0.00     0.031 A 
ATOM     47  C   UNL A   1      42.505  24.698  28.276  1.00  0.00     0.031 A 
ATOM     48  C   UNL A   1      44.657  30.148  31.244  1.00  0.00     0.049 A 
ATOM     49  C   UNL A   1      43.853  25.153  28.758  1.00  0.00     0.074 A 
ATOM     50  C   UNL A   1      45.943  30.422  31.673  1.00  0.00     0.029 A 
ATOM     51  N   UNL A   1      44.687  28.894  30.650  1.00  0.00    -0.354 N 
ATOM     52  N   UNL A   1      44.179  26.274  29.357  1.00  0.00    -0.248 NA
ATOM     53  C   UNL A   1      44.977  24.236  28.534  1.00  0.00     0.031 C 
ATOM     54  C   UNL A   1      46.759  29.345  31.308  1.00  0.00     0.029 A 
ATOM     55  C   UNL A   1      45.972  28.384  30.691  1.00  0.00     0.049 A 
ATOM     56  H   UNL A   1      43.910  28.435  30.258  1.00  0.00     0.167 HD
ATOM     57  C   UNL A   1      45.544  26.193  29.593  1.00  0.00     0.074 A 
ATOM     58  C   UNL A   1      45.979  24.905  29.087  1.00  0.00     0.031 C 
ATOM     59  C   UNL A   1      46.368  27.100  30.175  1.00  0.00     0.031 A 
BRANCH  46  60
ATOM     60  C   UNL A   1      43.575  32.308  32.006  1.00  0.00    -0.014 A 
ATOM     61  C   UNL A   1      43.867  33.457  31.254  1.00  0.00     0.009 A 
ATOM     62  C   UNL A   1      43.380  32.432  33.390  1.00  0.00     0.009 A 
ATOM     63  C   UNL A   1      43.994  34.698  31.884  1.00  0.00     0.001 A 
ATOM     64  C   UNL A   1      43.486  33.677  34.013  1.00  0.00     0.001 A 
ATOM     65  C   UNL A   1      43.801  34.808  33.261  1.00  0.00     0.000 A 
ENDBRANCH  46  60
BRANCH  47  66
ATOM     66  C   UNL A   1      42.331  23.395  27.586  1.00  0.00    -0.014 A 
ATOM     67  C   UNL A   1      42.605  23.269  26.217  1.00  0.00     0.009 A 
ATOM     68  C   UNL A   1      41.902  22.266  28.302  1.00  0.00     0.009 A 
ATOM     69  C   UNL A   1      42.440  22.040  25.575  1.00  0.00     0.001 A 
ATOM     70  C   UNL A   1      41.762  21.032  27.663  1.00  0.00     0.001 A 
ATOM     71  C   UNL A   1      42.024  20.922  26.299  1.00  0.00     0.000 A 
ENDBRANCH  47  66
BRANCH  59  72
ATOM     72  C   UNL A   1      47.808  26.709  30.317  1.00  0.00    -0.014 A 
ATOM     73  C   UNL A   1      48.747  27.036  29.327  1.00  0.00     0.009 A 
ATOM     74  C   UNL A   1      48.235  26.041  31.474  1.00  0.00     0.009 A 
ATOM     75  C   UNL A   1      50.086  26.674  29.483  1.00  0.00     0.001 A 
ATOM     76  C   UNL A   1      49.576  25.701  31.637  1.00  0.00     0.001 A 
ATOM     77  C   UNL A   1      50.499  26.010  30.639  1.00  0.00     0.000 A 
ENDBRANCH  59  72
ENDBRANCH  33  34
ENDBRANCH  26  28
ENDBRANCH  25  26
ENDBRANCH  24  25
ENDBRANCH   1  24
TORSDOF 17
ENDMDL
