MODEL 1
REMARK VINA RESULT:     -10.8      0.000      0.000
REMARK SMILES CCOc1cc(OCC)cc(-c2ccc([C@@H](C)C(=O)OCCOC(=O)c3ccc(-c4c5nc(c(-c6ccccc6)c6ccc([nH]6)c(-c6ccccc6)c6nc(c(-c7ccccc7)c7ccc4[nH]7)C=C6)C=C5)cc3)cc2F)c1
REMARK SMILES IDX 21 1 20 2 18 3 19 4 16 5 17 6 15 7 12 8 13 9 75 10 14 11
REMARK SMILES IDX 74 12 76 13 11 14 4 15 5 16 77 17 6 18 10 19 3 20 2 21 1 22
REMARK SMILES IDX 7 23 8 24 9 25 22 26 23 27 24 28 25 29 26 30 27 31 73 32
REMARK SMILES IDX 28 33 72 34 29 35 30 36 31 37 66 38 32 39 71 40 65 41 67 42
REMARK SMILES IDX 33 43 70 44 64 45 63 46 34 48 56 49 41 50 55 51 42 52 45 53
REMARK SMILES IDX 54 54 68 55 43 56 44 57 53 59 69 60 46 61 35 62 36 63 40 64
REMARK SMILES IDX 37 65 39 66 38 67 57 68 58 69 62 70 59 71 61 72 60 73 47 74
REMARK SMILES IDX 48 75 52 76 49 77 51 78 50 79
REMARK H PARENT 67 47 45 58
REMARK Flexibility Score: inf
ROOT
ATOM      1  C   UNL A   1      34.636  34.262  31.543  1.00  0.00     0.274 C 
ENDROOT
BRANCH   1   2
ATOM      2  O   UNL A   1      33.658  34.066  30.503  1.00  0.00    -0.462 OA
BRANCH   2   3
ATOM      3  C   UNL A   1      34.093  34.153  29.219  1.00  0.00     0.313 C 
ATOM      4  O   UNL A   1      33.854  35.095  28.470  1.00  0.00    -0.252 OA
BRANCH   3   5
ATOM      5  C   UNL A   1      34.881  32.930  28.756  1.00  0.00     0.126 C 
ATOM      6  C   UNL A   1      36.091  33.367  27.934  1.00  0.00     0.025 C 
BRANCH   5   7
ATOM      7  C   UNL A   1      34.069  31.850  28.058  1.00  0.00    -0.031 A 
ATOM      8  C   UNL A   1      32.595  29.803  26.745  1.00  0.00     0.018 A 
ATOM      9  C   UNL A   1      32.070  31.098  26.896  1.00  0.00     0.012 A 
ATOM     10  C   UNL A   1      33.861  29.552  27.282  1.00  0.00     0.131 A 
ATOM     11  C   UNL A   1      32.795  32.106  27.537  1.00  0.00     0.005 A 
ATOM     12  C   UNL A   1      34.595  30.556  27.913  1.00  0.00     0.044 A 
ATOM     13  F   UNL A   1      34.421  28.338  27.166  1.00  0.00    -0.206 F 
BRANCH   8  14
ATOM     14  C   UNL A   1      31.851  28.789  25.988  1.00  0.00    -0.008 A 
ATOM     15  C   UNL A   1      30.834  27.957  23.953  1.00  0.00     0.123 A 
ATOM     16  C   UNL A   1      30.458  26.782  24.605  1.00  0.00     0.092 A 
ATOM     17  C   UNL A   1      31.506  28.965  24.643  1.00  0.00     0.055 A 
ATOM     18  C   UNL A   1      30.763  26.600  25.953  1.00  0.00     0.123 A 
ATOM     19  C   UNL A   1      31.461  27.601  26.629  1.00  0.00     0.055 A 
BRANCH  15  20
ATOM     20  O   UNL A   1      30.421  28.136  22.660  1.00  0.00    -0.494 OA
BRANCH  20  21
ATOM     21  C   UNL A   1      29.942  29.460  22.395  1.00  0.00     0.226 C 
ATOM     22  C   UNL A   1      28.422  29.509  22.394  1.00  0.00     0.049 C 
ENDBRANCH  20  21
ENDBRANCH  15  20
BRANCH  18  23
ATOM     23  O   UNL A   1      30.364  25.413  26.506  1.00  0.00    -0.494 OA
BRANCH  23  24
ATOM     24  C   UNL A   1      30.864  24.209  25.917  1.00  0.00     0.226 C 
ATOM     25  C   UNL A   1      32.247  23.862  26.450  1.00  0.00     0.049 C 
ENDBRANCH  23  24
ENDBRANCH  18  23
ENDBRANCH   8  14
ENDBRANCH   5   7
ENDBRANCH   3   5
ENDBRANCH   2   3
ENDBRANCH   1   2
BRANCH   1  26
ATOM     26  C   UNL A   1      34.418  33.287  32.700  1.00  0.00     0.275 C 
BRANCH  26  27
ATOM     27  O   UNL A   1      35.173  32.077  32.503  1.00  0.00    -0.458 OA
BRANCH  27  28
ATOM     28  C   UNL A   1      36.364  32.034  33.143  1.00  0.00     0.338 C 
ATOM     29  O   UNL A   1      36.595  32.317  34.305  1.00  0.00    -0.246 OA
BRANCH  28  30
ATOM     30  C   UNL A   1      37.374  31.434  32.258  1.00  0.00     0.060 A 
ATOM     31  C   UNL A   1      38.493  30.862  32.861  1.00  0.00     0.016 A 
ATOM     32  C   UNL A   1      37.280  31.512  30.869  1.00  0.00     0.016 A 
ATOM     33  C   UNL A   1      39.545  30.393  32.086  1.00  0.00     0.010 A 
ATOM     34  C   UNL A   1      38.332  31.018  30.085  1.00  0.00     0.010 A 
ATOM     35  C   UNL A   1      39.479  30.475  30.690  1.00  0.00    -0.014 A 
BRANCH  35  36
ATOM     36  C   UNL A   1      40.642  30.015  29.895  1.00  0.00     0.031 A 
ATOM     37  C   UNL A   1      40.619  28.670  29.226  1.00  0.00     0.074 A 
ATOM     38  C   UNL A   1      41.688  30.843  29.707  1.00  0.00     0.049 A 
ATOM     39  N   UNL A   1      41.521  28.117  28.454  1.00  0.00    -0.248 NA
ATOM     40  C   UNL A   1      39.426  27.840  29.450  1.00  0.00     0.031 C 
ATOM     41  C   UNL A   1      41.810  32.189  30.268  1.00  0.00     0.029 A 
ATOM     42  N   UNL A   1      42.833  30.680  28.970  1.00  0.00    -0.354 N 
ATOM     43  C   UNL A   1      41.014  26.871  28.112  1.00  0.00     0.074 A 
ATOM     44  C   UNL A   1      39.734  26.740  28.777  1.00  0.00     0.031 C 
ATOM     45  C   UNL A   1      42.954  32.741  29.831  1.00  0.00     0.029 A 
ATOM     46  C   UNL A   1      43.658  31.777  28.991  1.00  0.00     0.049 A 
ATOM     47  H   UNL A   1      43.043  29.856  28.474  1.00  0.00     0.167 HD
ATOM     48  C   UNL A   1      41.561  25.923  27.314  1.00  0.00     0.031 A 
ATOM     49  C   UNL A   1      44.851  31.982  28.402  1.00  0.00     0.031 A 
ATOM     50  C   UNL A   1      42.831  26.048  26.650  1.00  0.00     0.049 A 
ATOM     51  C   UNL A   1      45.451  30.899  27.553  1.00  0.00     0.074 A 
ATOM     52  C   UNL A   1      43.466  25.138  25.821  1.00  0.00     0.029 A 
ATOM     53  N   UNL A   1      43.659  27.156  26.734  1.00  0.00    -0.354 N 
ATOM     54  N   UNL A   1      44.959  29.725  27.244  1.00  0.00    -0.248 NA
ATOM     55  C   UNL A   1      46.771  31.177  26.968  1.00  0.00     0.031 C 
ATOM     56  C   UNL A   1      44.698  25.681  25.436  1.00  0.00     0.029 A 
ATOM     57  C   UNL A   1      44.807  26.947  25.988  1.00  0.00     0.049 A 
ATOM     58  H   UNL A   1      43.460  27.971  27.250  1.00  0.00     0.167 HD
ATOM     59  C   UNL A   1      45.902  29.126  26.418  1.00  0.00     0.074 A 
ATOM     60  C   UNL A   1      46.983  30.078  26.256  1.00  0.00     0.031 C 
ATOM     61  C   UNL A   1      45.878  27.897  25.848  1.00  0.00     0.031 A 
BRANCH  48  62
ATOM     62  C   UNL A   1      40.792  24.644  27.145  1.00  0.00    -0.014 A 
ATOM     63  C   UNL A   1      39.616  24.595  26.382  1.00  0.00     0.009 A 
ATOM     64  C   UNL A   1      41.268  23.463  27.738  1.00  0.00     0.009 A 
ATOM     65  C   UNL A   1      38.914  23.395  26.242  1.00  0.00     0.001 A 
ATOM     66  C   UNL A   1      40.577  22.262  27.578  1.00  0.00     0.001 A 
ATOM     67  C   UNL A   1      39.397  22.230  26.837  1.00  0.00     0.000 A 
ENDBRANCH  48  62
BRANCH  49  68
ATOM     68  C   UNL A   1      45.565  33.268  28.605  1.00  0.00    -0.014 A 
ATOM     69  C   UNL A   1      46.349  33.478  29.748  1.00  0.00     0.009 A 
ATOM     70  C   UNL A   1      45.457  34.296  27.654  1.00  0.00     0.009 A 
ATOM     71  C   UNL A   1      46.995  34.701  29.946  1.00  0.00     0.001 A 
ATOM     72  C   UNL A   1      46.123  35.507  27.843  1.00  0.00     0.001 A 
ATOM     73  C   UNL A   1      46.885  35.711  28.992  1.00  0.00     0.000 A 
ENDBRANCH  49  68
BRANCH  61  74
ATOM     74  C   UNL A   1      47.050  27.528  24.986  1.00  0.00    -0.014 A 
ATOM     75  C   UNL A   1      47.105  27.909  23.635  1.00  0.00     0.009 A 
ATOM     76  C   UNL A   1      48.116  26.795  25.531  1.00  0.00     0.009 A 
ATOM     77  C   UNL A   1      48.186  27.528  22.838  1.00  0.00     0.001 A 
ATOM     78  C   UNL A   1      49.207  26.438  24.738  1.00  0.00     0.001 A 
ATOM     79  C   UNL A   1      49.237  26.795  23.391  1.00  0.00     0.000 A 
ENDBRANCH  61  74
ENDBRANCH  35  36
ENDBRANCH  28  30
ENDBRANCH  27  28
ENDBRANCH  26  27
ENDBRANCH   1  26
TORSDOF 17
ENDMDL
MODEL 2
REMARK VINA RESULT:     -10.6      0.507      5.851
REMARK SMILES CCOc1cc(OCC)cc(-c2ccc([C@@H](C)C(=O)OCCOC(=O)c3ccc(-c4c5nc(c(-c6ccccc6)c6ccc([nH]6)c(-c6ccccc6)c6nc(c(-c7ccccc7)c7ccc4[nH]7)C=C6)C=C5)cc3)cc2F)c1
REMARK SMILES IDX 21 1 20 2 18 3 19 4 16 5 17 6 15 7 12 8 13 9 75 10 14 11
REMARK SMILES IDX 74 12 76 13 11 14 4 15 5 16 77 17 6 18 10 19 3 20 2 21 1 22
REMARK SMILES IDX 7 23 8 24 9 25 22 26 23 27 24 28 25 29 26 30 27 31 73 32
REMARK SMILES IDX 28 33 72 34 29 35 30 36 31 37 66 38 32 39 71 40 65 41 67 42
REMARK SMILES IDX 33 43 70 44 64 45 63 46 34 48 56 49 41 50 55 51 42 52 45 53
REMARK SMILES IDX 54 54 68 55 43 56 44 57 53 59 69 60 46 61 35 62 36 63 40 64
REMARK SMILES IDX 37 65 39 66 38 67 57 68 58 69 62 70 59 71 61 72 60 73 47 74
REMARK SMILES IDX 48 75 52 76 49 77 51 78 50 79
REMARK H PARENT 67 47 45 58
REMARK Flexibility Score: inf
ROOT
ATOM      1  C   UNL A   1      34.619  34.234  31.523  1.00  0.00     0.274 C 
ENDROOT
BRANCH   1   2
ATOM      2  O   UNL A   1      33.660  34.032  30.467  1.00  0.00    -0.462 OA
BRANCH   2   3
ATOM      3  C   UNL A   1      34.117  34.114  29.190  1.00  0.00     0.313 C 
ATOM      4  O   UNL A   1      33.916  35.067  28.444  1.00  0.00    -0.252 OA
BRANCH   3   5
ATOM      5  C   UNL A   1      34.877  32.872  28.733  1.00  0.00     0.126 C 
ATOM      6  C   UNL A   1      36.113  33.280  27.933  1.00  0.00     0.025 C 
BRANCH   5   7
ATOM      7  C   UNL A   1      34.047  31.819  28.014  1.00  0.00    -0.031 A 
ATOM      8  C   UNL A   1      32.538  29.826  26.660  1.00  0.00     0.018 A 
ATOM      9  C   UNL A   1      32.008  31.105  26.901  1.00  0.00     0.012 A 
ATOM     10  C   UNL A   1      33.828  29.563  27.129  1.00  0.00     0.131 A 
ATOM     11  C   UNL A   1      32.749  32.087  27.562  1.00  0.00     0.005 A 
ATOM     12  C   UNL A   1      34.579  30.541  27.779  1.00  0.00     0.044 A 
ATOM     13  F   UNL A   1      34.395  28.363  26.926  1.00  0.00    -0.206 F 
BRANCH   8  14
ATOM     14  C   UNL A   1      31.772  28.843  25.884  1.00  0.00    -0.008 A 
ATOM     15  C   UNL A   1      30.694  28.096  23.847  1.00  0.00     0.123 A 
ATOM     16  C   UNL A   1      30.339  26.894  24.459  1.00  0.00     0.092 A 
ATOM     17  C   UNL A   1      31.385  29.076  24.559  1.00  0.00     0.055 A 
ATOM     18  C   UNL A   1      30.685  26.656  25.789  1.00  0.00     0.123 A 
ATOM     19  C   UNL A   1      31.402  27.628  26.485  1.00  0.00     0.055 A 
BRANCH  15  20
ATOM     20  O   UNL A   1      30.242  28.329  22.576  1.00  0.00    -0.494 OA
BRANCH  20  21
ATOM     21  C   UNL A   1      29.478  29.535  22.458  1.00  0.00     0.226 C 
ATOM     22  C   UNL A   1      28.001  29.283  22.715  1.00  0.00     0.049 C 
ENDBRANCH  20  21
ENDBRANCH  15  20
BRANCH  18  23
ATOM     23  O   UNL A   1      30.304  25.445  26.302  1.00  0.00    -0.494 OA
BRANCH  23  24
ATOM     24  C   UNL A   1      30.624  24.275  25.543  1.00  0.00     0.226 C 
ATOM     25  C   UNL A   1      30.814  23.064  26.444  1.00  0.00     0.049 C 
ENDBRANCH  23  24
ENDBRANCH  18  23
ENDBRANCH   8  14
ENDBRANCH   5   7
ENDBRANCH   3   5
ENDBRANCH   2   3
ENDBRANCH   1   2
BRANCH   1  26
ATOM     26  C   UNL A   1      34.399  33.245  32.668  1.00  0.00     0.275 C 
BRANCH  26  27
ATOM     27  O   UNL A   1      35.174  32.048  32.470  1.00  0.00    -0.458 OA
BRANCH  27  28
ATOM     28  C   UNL A   1      36.380  32.038  33.083  1.00  0.00     0.338 C 
ATOM     29  O   UNL A   1      36.632  32.340  34.236  1.00  0.00    -0.246 OA
BRANCH  28  30
ATOM     30  C   UNL A   1      37.381  31.448  32.182  1.00  0.00     0.060 A 
ATOM     31  C   UNL A   1      38.493  30.844  32.769  1.00  0.00     0.016 A 
ATOM     32  C   UNL A   1      37.289  31.564  30.796  1.00  0.00     0.016 A 
ATOM     33  C   UNL A   1      39.539  30.382  31.982  1.00  0.00     0.010 A 
ATOM     34  C   UNL A   1      38.334  31.078  29.998  1.00  0.00     0.010 A 
ATOM     35  C   UNL A   1      39.474  30.503  30.588  1.00  0.00    -0.014 A 
BRANCH  35  36
ATOM     36  C   UNL A   1      40.630  30.049  29.781  1.00  0.00     0.031 A 
ATOM     37  C   UNL A   1      41.796  30.967  29.542  1.00  0.00     0.074 A 
ATOM     38  C   UNL A   1      40.670  28.780  29.330  1.00  0.00     0.049 A 
ATOM     39  N   UNL A   1      42.913  30.732  28.902  1.00  0.00    -0.248 NA
ATOM     40  C   UNL A   1      41.692  32.325  30.097  1.00  0.00     0.031 C 
ATOM     41  C   UNL A   1      39.621  27.779  29.533  1.00  0.00     0.029 A 
ATOM     42  N   UNL A   1      41.643  28.112  28.632  1.00  0.00    -0.354 N 
ATOM     43  C   UNL A   1      43.641  31.913  28.965  1.00  0.00     0.074 A 
ATOM     44  C   UNL A   1      42.829  32.870  29.687  1.00  0.00     0.031 C 
ATOM     45  C   UNL A   1      40.020  26.616  28.995  1.00  0.00     0.029 A 
ATOM     46  C   UNL A   1      41.333  26.798  28.383  1.00  0.00     0.049 A 
ATOM     47  H   UNL A   1      42.482  28.533  28.337  1.00  0.00     0.167 HD
ATOM     48  C   UNL A   1      44.874  32.176  28.470  1.00  0.00     0.031 A 
ATOM     49  C   UNL A   1      42.026  25.847  27.729  1.00  0.00     0.031 A 
ATOM     50  C   UNL A   1      45.686  31.229  27.753  1.00  0.00     0.049 A 
ATOM     51  C   UNL A   1      43.375  26.178  27.159  1.00  0.00     0.074 A 
ATOM     52  C   UNL A   1      46.949  31.407  27.213  1.00  0.00     0.029 A 
ATOM     53  N   UNL A   1      45.316  29.922  27.479  1.00  0.00    -0.354 N 
ATOM     54  N   UNL A   1      44.046  27.301  27.223  1.00  0.00    -0.248 NA
ATOM     55  C   UNL A   1      44.062  25.102  26.429  1.00  0.00     0.031 C 
ATOM     56  C   UNL A   1      47.326  30.218  26.578  1.00  0.00     0.029 A 
ATOM     57  C   UNL A   1      46.317  29.287  26.763  1.00  0.00     0.049 A 
ATOM     58  H   UNL A   1      44.466  29.507  27.753  1.00  0.00     0.167 HD
ATOM     59  C   UNL A   1      45.240  27.067  26.554  1.00  0.00     0.074 A 
ATOM     60  C   UNL A   1      45.210  25.686  26.113  1.00  0.00     0.031 C 
ATOM     61  C   UNL A   1      46.267  27.918  26.321  1.00  0.00     0.031 A 
BRANCH  48  62
ATOM     62  C   UNL A   1      45.405  33.568  28.661  1.00  0.00    -0.014 A 
ATOM     63  C   UNL A   1      45.145  34.583  27.729  1.00  0.00     0.009 A 
ATOM     64  C   UNL A   1      46.155  33.874  29.809  1.00  0.00     0.009 A 
ATOM     65  C   UNL A   1      45.652  35.870  27.925  1.00  0.00     0.001 A 
ATOM     66  C   UNL A   1      46.641  35.165  30.013  1.00  0.00     0.001 A 
ATOM     67  C   UNL A   1      46.396  36.160  29.068  1.00  0.00     0.000 A 
ENDBRANCH  48  62
BRANCH  49  68
ATOM     68  C   UNL A   1      41.450  24.487  27.571  1.00  0.00    -0.014 A 
ATOM     69  C   UNL A   1      40.461  24.238  26.609  1.00  0.00     0.009 A 
ATOM     70  C   UNL A   1      41.885  23.434  28.391  1.00  0.00     0.009 A 
ATOM     71  C   UNL A   1      39.903  22.963  26.485  1.00  0.00     0.001 A 
ATOM     72  C   UNL A   1      41.343  22.156  28.248  1.00  0.00     0.001 A 
ATOM     73  C   UNL A   1      40.347  21.924  27.301  1.00  0.00     0.000 A 
ENDBRANCH  49  68
BRANCH  61  74
ATOM     74  C   UNL A   1      47.445  27.369  25.570  1.00  0.00    -0.014 A 
ATOM     75  C   UNL A   1      48.557  26.845  26.249  1.00  0.00     0.009 A 
ATOM     76  C   UNL A   1      47.442  27.369  24.167  1.00  0.00     0.009 A 
ATOM     77  C   UNL A   1      49.659  26.369  25.536  1.00  0.00     0.001 A 
ATOM     78  C   UNL A   1      48.534  26.869  23.457  1.00  0.00     0.001 A 
ATOM     79  C   UNL A   1      49.646  26.380  24.141  1.00  0.00     0.000 A 
ENDBRANCH  61  74
ENDBRANCH  35  36
ENDBRANCH  28  30
ENDBRANCH  27  28
ENDBRANCH  26  27
ENDBRANCH   1  26
TORSDOF 17
ENDMDL
MODEL 3
REMARK VINA RESULT:     -10.5      4.538      7.131
REMARK SMILES CCOc1cc(OCC)cc(-c2ccc([C@@H](C)C(=O)OCCOC(=O)c3ccc(-c4c5nc(c(-c6ccccc6)c6ccc([nH]6)c(-c6ccccc6)c6nc(c(-c7ccccc7)c7ccc4[nH]7)C=C6)C=C5)cc3)cc2F)c1
REMARK SMILES IDX 21 1 20 2 18 3 19 4 16 5 17 6 15 7 12 8 13 9 75 10 14 11
REMARK SMILES IDX 74 12 76 13 11 14 4 15 5 16 77 17 6 18 10 19 3 20 2 21 1 22
REMARK SMILES IDX 7 23 8 24 9 25 22 26 23 27 24 28 25 29 26 30 27 31 73 32
REMARK SMILES IDX 28 33 72 34 29 35 30 36 31 37 66 38 32 39 71 40 65 41 67 42
REMARK SMILES IDX 33 43 70 44 64 45 63 46 34 48 56 49 41 50 55 51 42 52 45 53
REMARK SMILES IDX 54 54 68 55 43 56 44 57 53 59 69 60 46 61 35 62 36 63 40 64
REMARK SMILES IDX 37 65 39 66 38 67 57 68 58 69 62 70 59 71 61 72 60 73 47 74
REMARK SMILES IDX 48 75 52 76 49 77 51 78 50 79
REMARK H PARENT 67 47 45 58
REMARK Flexibility Score: inf
ROOT
ATOM      1  C   UNL A   1      33.805  35.649  29.279  1.00  0.00     0.274 C 
ENDROOT
BRANCH   1   2
ATOM      2  O   UNL A   1      33.705  34.256  28.926  1.00  0.00    -0.462 OA
BRANCH   2   3
ATOM      3  C   UNL A   1      34.634  33.767  28.063  1.00  0.00     0.313 C 
ATOM      4  O   UNL A   1      35.093  34.394  27.114  1.00  0.00    -0.252 OA
BRANCH   3   5
ATOM      5  C   UNL A   1      35.031  32.321  28.349  1.00  0.00     0.126 C 
ATOM      6  C   UNL A   1      36.501  32.103  27.997  1.00  0.00     0.025 C 
BRANCH   5   7
ATOM      7  C   UNL A   1      34.128  31.258  27.741  1.00  0.00    -0.031 A 
ATOM      8  C   UNL A   1      32.483  29.245  26.591  1.00  0.00     0.018 A 
ATOM      9  C   UNL A   1      31.985  30.532  26.852  1.00  0.00     0.012 A 
ATOM     10  C   UNL A   1      33.812  28.983  26.936  1.00  0.00     0.131 A 
ATOM     11  C   UNL A   1      32.793  31.524  27.413  1.00  0.00     0.005 A 
ATOM     12  C   UNL A   1      34.628  29.971  27.485  1.00  0.00     0.044 A 
ATOM     13  F   UNL A   1      34.350  27.775  26.707  1.00  0.00    -0.206 F 
BRANCH   8  14
ATOM     14  C   UNL A   1      31.639  28.250  25.918  1.00  0.00    -0.008 A 
ATOM     15  C   UNL A   1      30.361  27.464  24.016  1.00  0.00     0.123 A 
ATOM     16  C   UNL A   1      30.062  26.278  24.689  1.00  0.00     0.092 A 
ATOM     17  C   UNL A   1      31.124  28.454  24.633  1.00  0.00     0.055 A 
ATOM     18  C   UNL A   1      30.537  26.068  25.983  1.00  0.00     0.123 A 
ATOM     19  C   UNL A   1      31.325  27.052  26.582  1.00  0.00     0.055 A 
BRANCH  15  20
ATOM     20  O   UNL A   1      29.786  27.670  22.791  1.00  0.00    -0.494 OA
BRANCH  20  21
ATOM     21  C   UNL A   1      29.610  29.056  22.473  1.00  0.00     0.226 C 
ATOM     22  C   UNL A   1      28.137  29.423  22.392  1.00  0.00     0.049 C 
ENDBRANCH  20  21
ENDBRANCH  15  20
BRANCH  18  23
ATOM     23  O   UNL A   1      30.204  24.873  26.561  1.00  0.00    -0.494 OA
BRANCH  23  24
ATOM     24  C   UNL A   1      30.951  23.718  26.168  1.00  0.00     0.226 C 
ATOM     25  C   UNL A   1      30.156  22.439  26.392  1.00  0.00     0.049 C 
ENDBRANCH  23  24
ENDBRANCH  18  23
ENDBRANCH   8  14
ENDBRANCH   5   7
ENDBRANCH   3   5
ENDBRANCH   2   3
ENDBRANCH   1   2
BRANCH   1  26
ATOM     26  C   UNL A   1      32.560  36.120  30.034  1.00  0.00     0.275 C 
BRANCH  26  27
ATOM     27  O   UNL A   1      32.349  35.330  31.219  1.00  0.00    -0.458 OA
BRANCH  27  28
ATOM     28  C   UNL A   1      32.793  35.890  32.368  1.00  0.00     0.338 C 
ATOM     29  O   UNL A   1      32.300  36.818  32.983  1.00  0.00    -0.246 OA
BRANCH  28  30
ATOM     30  C   UNL A   1      33.924  35.107  32.887  1.00  0.00     0.060 A 
ATOM     31  C   UNL A   1      35.178  35.716  32.885  1.00  0.00     0.016 A 
ATOM     32  C   UNL A   1      33.785  33.776  33.279  1.00  0.00     0.016 A 
ATOM     33  C   UNL A   1      36.311  34.995  33.239  1.00  0.00     0.010 A 
ATOM     34  C   UNL A   1      34.925  33.052  33.658  1.00  0.00     0.010 A 
ATOM     35  C   UNL A   1      36.196  33.652  33.621  1.00  0.00    -0.014 A 
BRANCH  35  36
ATOM     36  C   UNL A   1      37.430  32.896  33.940  1.00  0.00     0.031 A 
ATOM     37  C   UNL A   1      38.010  31.935  32.941  1.00  0.00     0.074 A 
ATOM     38  C   UNL A   1      38.075  33.135  35.097  1.00  0.00     0.049 A 
ATOM     39  N   UNL A   1      39.104  31.221  33.024  1.00  0.00    -0.248 NA
ATOM     40  C   UNL A   1      37.265  31.756  31.686  1.00  0.00     0.031 C 
ATOM     41  C   UNL A   1      37.637  34.076  36.130  1.00  0.00     0.029 A 
ATOM     42  N   UNL A   1      39.251  32.624  35.585  1.00  0.00    -0.354 N 
ATOM     43  C   UNL A   1      39.174  30.497  31.841  1.00  0.00     0.074 A 
ATOM     44  C   UNL A   1      38.000  30.844  31.066  1.00  0.00     0.031 C 
ATOM     45  C   UNL A   1      38.547  34.095  37.116  1.00  0.00     0.029 A 
ATOM     46  C   UNL A   1      39.611  33.147  36.803  1.00  0.00     0.049 A 
ATOM     47  H   UNL A   1      39.784  31.949  35.109  1.00  0.00     0.167 HD
ATOM     48  C   UNL A   1      40.129  29.627  31.434  1.00  0.00     0.031 A 
ATOM     49  C   UNL A   1      40.677  32.887  37.582  1.00  0.00     0.031 A 
ATOM     50  C   UNL A   1      41.298  29.281  32.199  1.00  0.00     0.049 A 
ATOM     51  C   UNL A   1      41.702  31.890  37.122  1.00  0.00     0.074 A 
ATOM     52  C   UNL A   1      42.320  28.408  31.867  1.00  0.00     0.029 A 
ATOM     53  N   UNL A   1      41.603  29.796  33.449  1.00  0.00    -0.354 N 
ATOM     54  N   UNL A   1      41.749  31.211  36.003  1.00  0.00    -0.248 NA
ATOM     55  C   UNL A   1      42.823  31.629  38.037  1.00  0.00     0.031 C 
ATOM     56  C   UNL A   1      43.224  28.365  32.935  1.00  0.00     0.029 A 
ATOM     57  C   UNL A   1      42.787  29.246  33.910  1.00  0.00     0.049 A 
ATOM     58  H   UNL A   1      41.057  30.454  33.936  1.00  0.00     0.167 HD
ATOM     59  C   UNL A   1      42.910  30.452  36.070  1.00  0.00     0.074 A 
ATOM     60  C   UNL A   1      43.549  30.773  37.331  1.00  0.00     0.031 C 
ATOM     61  C   UNL A   1      43.402  29.565  35.172  1.00  0.00     0.031 A 
BRANCH  48  62
ATOM     62  C   UNL A   1      39.925  28.960  30.104  1.00  0.00    -0.014 A 
ATOM     63  C   UNL A   1      39.352  27.683  30.008  1.00  0.00     0.009 A 
ATOM     64  C   UNL A   1      40.288  29.633  28.926  1.00  0.00     0.009 A 
ATOM     65  C   UNL A   1      39.175  27.080  28.761  1.00  0.00     0.001 A 
ATOM     66  C   UNL A   1      40.089  29.037  27.680  1.00  0.00     0.001 A 
ATOM     67  C   UNL A   1      39.540  27.759  27.599  1.00  0.00     0.000 A 
ENDBRANCH  48  62
BRANCH  49  68
ATOM     68  C   UNL A   1      40.827  33.578  38.888  1.00  0.00    -0.014 A 
ATOM     69  C   UNL A   1      40.237  33.051  40.046  1.00  0.00     0.009 A 
ATOM     70  C   UNL A   1      41.555  34.775  38.976  1.00  0.00     0.009 A 
ATOM     71  C   UNL A   1      40.358  33.722  41.266  1.00  0.00     0.001 A 
ATOM     72  C   UNL A   1      41.694  35.429  40.201  1.00  0.00     0.001 A 
ATOM     73  C   UNL A   1      41.089  34.906  41.343  1.00  0.00     0.000 A 
ENDBRANCH  49  68
BRANCH  61  74
ATOM     74  C   UNL A   1      44.701  28.897  35.521  1.00  0.00    -0.014 A 
ATOM     75  C   UNL A   1      44.728  27.725  36.292  1.00  0.00     0.009 A 
ATOM     76  C   UNL A   1      45.911  29.444  35.068  1.00  0.00     0.009 A 
ATOM     77  C   UNL A   1      45.946  27.135  36.636  1.00  0.00     0.001 A 
ATOM     78  C   UNL A   1      47.126  28.838  35.393  1.00  0.00     0.001 A 
ATOM     79  C   UNL A   1      47.143  27.691  36.185  1.00  0.00     0.000 A 
ENDBRANCH  61  74
ENDBRANCH  35  36
ENDBRANCH  28  30
ENDBRANCH  27  28
ENDBRANCH  26  27
ENDBRANCH   1  26
TORSDOF 17
ENDMDL
