MODEL 1
REMARK VINA RESULT:     -10.9      0.000      0.000
REMARK SMILES O=C(OCCOC(=O)[C@@H]1[C@H](C(=O)NCc2ccncc2)[C@H]2C=C[C@@H]1O2)c1ccc(-c2c3nc(c(-c4ccccc4)c4ccc([nH]4)c(-c4ccccc4)c4nc(c(-c5ccccc5)c5ccc2[nH]5)C=C4)C=C3)cc1
REMARK SMILES IDX 5 1 4 2 3 3 2 4 1 5 26 6 27 7 73 8 28 9 72 10 29 11 30 12
REMARK SMILES IDX 31 13 66 14 32 15 71 16 65 17 67 18 33 19 70 20 64 21 63 22
REMARK SMILES IDX 34 24 56 25 41 26 55 27 42 28 45 29 54 30 68 31 43 32 44 33
REMARK SMILES IDX 53 35 69 36 46 37 35 38 36 39 40 40 37 41 39 42 38 43 57 44
REMARK SMILES IDX 58 45 62 46 59 47 61 48 60 49 47 50 48 51 52 52 49 53 51 54
REMARK SMILES IDX 50 55 6 56 7 57 8 58 9 59 10 60 24 61 21 62 23 63 25 64
REMARK SMILES IDX 22 65 11 66 12 67 13 68 14 70 15 71 16 72 20 73 17 74 19 75
REMARK SMILES IDX 18 76
REMARK H PARENT 67 23 45 34 13 69
REMARK Flexibility Score: inf
ROOT
ATOM      1  C   UNL A   1      37.989  21.659  25.319  1.00  0.00     0.274 C 
ENDROOT
BRANCH   1   2
ATOM      2  C   UNL A   1      38.161  20.180  24.994  1.00  0.00     0.275 C 
BRANCH   2   3
ATOM      3  O   UNL A   1      39.174  19.539  25.801  1.00  0.00    -0.458 OA
BRANCH   3   4
ATOM      4  C   UNL A   1      40.502  19.747  25.947  1.00  0.00     0.338 C 
ATOM      5  O   UNL A   1      41.256  18.819  25.647  1.00  0.00    -0.246 OA
BRANCH   4   6
ATOM      6  C   UNL A   1      41.149  20.997  26.484  1.00  0.00     0.060 A 
ATOM      7  C   UNL A   1      41.887  21.924  25.760  1.00  0.00     0.016 A 
ATOM      8  C   UNL A   1      40.941  21.288  27.850  1.00  0.00     0.016 A 
ATOM      9  C   UNL A   1      42.291  23.145  26.331  1.00  0.00     0.010 A 
ATOM     10  C   UNL A   1      41.304  22.529  28.406  1.00  0.00     0.010 A 
ATOM     11  C   UNL A   1      41.949  23.499  27.630  1.00  0.00    -0.014 A 
BRANCH  11  12
ATOM     12  C   UNL A   1      42.409  24.801  28.197  1.00  0.00     0.031 A 
ATOM     13  C   UNL A   1      41.437  25.927  28.206  1.00  0.00     0.074 A 
ATOM     14  C   UNL A   1      43.598  24.997  28.811  1.00  0.00     0.049 A 
ATOM     15  N   UNL A   1      41.607  27.144  28.642  1.00  0.00    -0.248 NA
ATOM     16  C   UNL A   1      40.076  25.617  27.743  1.00  0.00     0.031 C 
ATOM     17  C   UNL A   1      44.541  23.953  29.142  1.00  0.00     0.029 A 
ATOM     18  N   UNL A   1      44.239  26.129  29.264  1.00  0.00    -0.354 N 
ATOM     19  C   UNL A   1      40.358  27.725  28.572  1.00  0.00     0.074 A 
ATOM     20  C   UNL A   1      39.464  26.769  27.954  1.00  0.00     0.031 C 
ATOM     21  C   UNL A   1      45.693  24.469  29.594  1.00  0.00     0.029 A 
ATOM     22  C   UNL A   1      45.556  25.909  29.629  1.00  0.00     0.049 A 
ATOM     23  H   UNL A   1      43.803  27.010  29.322  1.00  0.00     0.167 HD
ATOM     24  C   UNL A   1      39.972  28.927  29.048  1.00  0.00     0.031 A 
ATOM     25  C   UNL A   1      46.547  26.760  29.953  1.00  0.00     0.031 A 
ATOM     26  C   UNL A   1      40.865  29.894  29.618  1.00  0.00     0.049 A 
ATOM     27  C   UNL A   1      46.173  28.191  30.171  1.00  0.00     0.074 A 
ATOM     28  C   UNL A   1      40.581  31.177  30.041  1.00  0.00     0.029 A 
ATOM     29  N   UNL A   1      42.222  29.689  29.829  1.00  0.00    -0.354 N 
ATOM     30  N   UNL A   1      44.986  28.739  30.083  1.00  0.00    -0.248 NA
ATOM     31  C   UNL A   1      47.234  29.103  30.615  1.00  0.00     0.031 C 
ATOM     32  C   UNL A   1      41.779  31.773  30.450  1.00  0.00     0.029 A 
ATOM     33  C   UNL A   1      42.798  30.839  30.343  1.00  0.00     0.049 A 
ATOM     34  H   UNL A   1      42.702  28.850  29.643  1.00  0.00     0.167 HD
ATOM     35  C   UNL A   1      45.138  30.035  30.538  1.00  0.00     0.074 A 
ATOM     36  C   UNL A   1      46.536  30.195  30.889  1.00  0.00     0.031 C 
ATOM     37  C   UNL A   1      44.190  30.992  30.679  1.00  0.00     0.031 A 
BRANCH  24  38
ATOM     38  C   UNL A   1      38.516  29.230  28.912  1.00  0.00    -0.014 A 
ATOM     39  C   UNL A   1      38.005  29.776  27.721  1.00  0.00     0.009 A 
ATOM     40  C   UNL A   1      37.669  29.070  30.016  1.00  0.00     0.009 A 
ATOM     41  C   UNL A   1      36.678  30.201  27.658  1.00  0.00     0.001 A 
ATOM     42  C   UNL A   1      36.337  29.472  29.939  1.00  0.00     0.001 A 
ATOM     43  C   UNL A   1      35.847  30.048  28.767  1.00  0.00     0.000 A 
ENDBRANCH  24  38
BRANCH  25  44
ATOM     44  C   UNL A   1      47.962  26.310  30.108  1.00  0.00    -0.014 A 
ATOM     45  C   UNL A   1      48.820  26.184  29.004  1.00  0.00     0.009 A 
ATOM     46  C   UNL A   1      48.432  25.902  31.369  1.00  0.00     0.009 A 
ATOM     47  C   UNL A   1      50.090  25.611  29.149  1.00  0.00     0.001 A 
ATOM     48  C   UNL A   1      49.710  25.351  31.515  1.00  0.00     0.001 A 
ATOM     49  C   UNL A   1      50.532  25.190  30.402  1.00  0.00     0.000 A 
ENDBRANCH  25  44
BRANCH  37  50
ATOM     50  C   UNL A   1      44.634  32.291  31.283  1.00  0.00    -0.014 A 
ATOM     51  C   UNL A   1      44.543  32.526  32.662  1.00  0.00     0.009 A 
ATOM     52  C   UNL A   1      45.170  33.287  30.452  1.00  0.00     0.009 A 
ATOM     53  C   UNL A   1      44.943  33.751  33.194  1.00  0.00     0.001 A 
ATOM     54  C   UNL A   1      45.608  34.495  30.991  1.00  0.00     0.001 A 
ATOM     55  C   UNL A   1      45.482  34.730  32.360  1.00  0.00     0.000 A 
ENDBRANCH  37  50
ENDBRANCH  11  12
ENDBRANCH   4   6
ENDBRANCH   3   4
ENDBRANCH   2   3
ENDBRANCH   1   2
BRANCH   1  56
ATOM     56  O   UNL A   1      36.703  21.936  25.891  1.00  0.00    -0.462 OA
BRANCH  56  57
ATOM     57  C   UNL A   1      35.812  22.484  25.022  1.00  0.00     0.312 C 
ATOM     58  O   UNL A   1      35.598  22.074  23.894  1.00  0.00    -0.252 OA
BRANCH  57  59
ATOM     59  C   UNL A   1      35.102  23.690  25.560  1.00  0.00     0.147 C 
ATOM     60  C   UNL A   1      33.976  23.408  26.571  1.00  0.00     0.128 C 
ATOM     61  C   UNL A   1      34.390  24.527  24.502  1.00  0.00     0.157 C 
ATOM     62  C   UNL A   1      32.849  24.250  25.999  1.00  0.00     0.155 C 
ATOM     63  C   UNL A   1      34.072  25.899  25.013  1.00  0.00     0.004 C 
ATOM     64  O   UNL A   1      33.060  23.967  24.596  1.00  0.00    -0.365 OA
ATOM     65  C   UNL A   1      33.137  25.727  25.957  1.00  0.00     0.004 C 
BRANCH  60  66
ATOM     66  C   UNL A   1      33.618  21.958  26.943  1.00  0.00     0.227 C 
ATOM     67  O   UNL A   1      33.903  21.605  28.101  1.00  0.00    -0.275 OA
ATOM     68  N   UNL A   1      33.051  20.964  26.219  1.00  0.00    -0.352 N 
ATOM     69  H   UNL A   1      33.097  20.106  26.700  1.00  0.00     0.163 HD
BRANCH  68  70
ATOM     70  C   UNL A   1      32.390  20.808  24.928  1.00  0.00     0.151 C 
BRANCH  70  71
ATOM     71  C   UNL A   1      32.815  19.604  24.094  1.00  0.00    -0.026 A 
ATOM     72  C   UNL A   1      32.172  19.194  22.927  1.00  0.00     0.025 A 
ATOM     73  C   UNL A   1      33.890  18.806  24.521  1.00  0.00     0.025 A 
ATOM     74  C   UNL A   1      32.518  17.972  22.356  1.00  0.00     0.111 A 
ATOM     75  C   UNL A   1      34.141  17.582  23.915  1.00  0.00     0.111 A 
ATOM     76  N   UNL A   1      33.453  17.136  22.854  1.00  0.00    -0.265 NA
ENDBRANCH  70  71
ENDBRANCH  68  70
ENDBRANCH  60  66
ENDBRANCH  57  59
ENDBRANCH  56  57
ENDBRANCH   1  56
TORSDOF 14
ENDMDL
MODEL 2
REMARK VINA RESULT:     -10.7      4.740      9.275
REMARK SMILES O=C(OCCOC(=O)[C@@H]1[C@H](C(=O)NCc2ccncc2)[C@H]2C=C[C@@H]1O2)c1ccc(-c2c3nc(c(-c4ccccc4)c4ccc([nH]4)c(-c4ccccc4)c4nc(c(-c5ccccc5)c5ccc2[nH]5)C=C4)C=C3)cc1
REMARK SMILES IDX 5 1 4 2 3 3 2 4 1 5 26 6 27 7 73 8 28 9 72 10 29 11 30 12
REMARK SMILES IDX 31 13 66 14 32 15 71 16 65 17 67 18 33 19 70 20 64 21 63 22
REMARK SMILES IDX 34 24 56 25 41 26 55 27 42 28 45 29 54 30 68 31 43 32 44 33
REMARK SMILES IDX 53 35 69 36 46 37 35 38 36 39 40 40 37 41 39 42 38 43 57 44
REMARK SMILES IDX 58 45 62 46 59 47 61 48 60 49 47 50 48 51 52 52 49 53 51 54
REMARK SMILES IDX 50 55 6 56 7 57 8 58 9 59 10 60 24 61 21 62 23 63 25 64
REMARK SMILES IDX 22 65 11 66 12 67 13 68 14 70 15 71 16 72 20 73 17 74 19 75
REMARK SMILES IDX 18 76
REMARK H PARENT 67 23 45 34 13 69
REMARK Flexibility Score: inf
ROOT
ATOM      1  C   UNL A   1      32.566  31.124  26.362  1.00  0.00     0.274 C 
ENDROOT
BRANCH   1   2
ATOM      2  C   UNL A   1      31.656  32.018  27.196  1.00  0.00     0.275 C 
BRANCH   2   3
ATOM      3  O   UNL A   1      32.118  33.385  27.265  1.00  0.00    -0.458 OA
BRANCH   3   4
ATOM      4  C   UNL A   1      32.862  34.061  28.169  1.00  0.00     0.338 C 
ATOM      5  O   UNL A   1      32.496  35.200  28.464  1.00  0.00    -0.246 OA
BRANCH   4   6
ATOM      6  C   UNL A   1      34.126  33.568  28.823  1.00  0.00     0.060 A 
ATOM      7  C   UNL A   1      34.234  32.973  30.074  1.00  0.00     0.016 A 
ATOM      8  C   UNL A   1      35.317  33.668  28.070  1.00  0.00     0.016 A 
ATOM      9  C   UNL A   1      35.440  32.389  30.505  1.00  0.00     0.010 A 
ATOM     10  C   UNL A   1      36.508  33.043  28.482  1.00  0.00     0.010 A 
ATOM     11  C   UNL A   1      36.569  32.350  29.697  1.00  0.00    -0.014 A 
BRANCH  11  12
ATOM     12  C   UNL A   1      37.829  31.729  30.201  1.00  0.00     0.031 A 
ATOM     13  C   UNL A   1      38.579  32.461  31.257  1.00  0.00     0.074 A 
ATOM     14  C   UNL A   1      38.274  30.500  29.857  1.00  0.00     0.049 A 
ATOM     15  N   UNL A   1      39.693  32.124  31.845  1.00  0.00    -0.248 NA
ATOM     16  C   UNL A   1      37.948  33.684  31.776  1.00  0.00     0.031 C 
ATOM     17  C   UNL A   1      37.533  29.542  29.069  1.00  0.00     0.029 A 
ATOM     18  N   UNL A   1      39.452  29.829  30.107  1.00  0.00    -0.354 N 
ATOM     19  C   UNL A   1      39.861  33.054  32.850  1.00  0.00     0.074 A 
ATOM     20  C   UNL A   1      38.798  34.029  32.727  1.00  0.00     0.031 C 
ATOM     21  C   UNL A   1      38.294  28.482  28.757  1.00  0.00     0.029 A 
ATOM     22  C   UNL A   1      39.591  28.665  29.372  1.00  0.00     0.049 A 
ATOM     23  H   UNL A   1      40.130  30.148  30.746  1.00  0.00     0.167 HD
ATOM     24  C   UNL A   1      40.782  33.055  33.836  1.00  0.00     0.031 A 
ATOM     25  C   UNL A   1      40.637  27.835  29.202  1.00  0.00     0.031 A 
ATOM     26  C   UNL A   1      41.863  32.118  33.933  1.00  0.00     0.049 A 
ATOM     27  C   UNL A   1      41.821  28.039  30.093  1.00  0.00     0.074 A 
ATOM     28  C   UNL A   1      42.900  32.097  34.843  1.00  0.00     0.029 A 
ATOM     29  N   UNL A   1      42.054  31.042  33.076  1.00  0.00    -0.354 N 
ATOM     30  N   UNL A   1      41.979  28.938  31.032  1.00  0.00    -0.248 NA
ATOM     31  C   UNL A   1      42.924  27.079  29.975  1.00  0.00     0.031 C 
ATOM     32  C   UNL A   1      43.756  31.046  34.500  1.00  0.00     0.029 A 
ATOM     33  C   UNL A   1      43.218  30.372  33.415  1.00  0.00     0.049 A 
ATOM     34  H   UNL A   1      41.453  30.793  32.339  1.00  0.00     0.167 HD
ATOM     35  C   UNL A   1      43.159  28.606  31.672  1.00  0.00     0.074 A 
ATOM     36  C   UNL A   1      43.680  27.428  31.004  1.00  0.00     0.031 C 
ATOM     37  C   UNL A   1      43.735  29.209  32.739  1.00  0.00     0.031 A 
BRANCH  24  38
ATOM     38  C   UNL A   1      40.637  34.149  34.843  1.00  0.00    -0.014 A 
ATOM     39  C   UNL A   1      39.828  33.975  35.980  1.00  0.00     0.009 A 
ATOM     40  C   UNL A   1      41.224  35.397  34.599  1.00  0.00     0.009 A 
ATOM     41  C   UNL A   1      39.573  35.051  36.830  1.00  0.00     0.001 A 
ATOM     42  C   UNL A   1      40.987  36.462  35.467  1.00  0.00     0.001 A 
ATOM     43  C   UNL A   1      40.153  36.292  36.572  1.00  0.00     0.000 A 
ENDBRANCH  24  38
BRANCH  25  44
ATOM     44  C   UNL A   1      40.628  26.743  28.184  1.00  0.00    -0.014 A 
ATOM     45  C   UNL A   1      41.131  26.939  26.889  1.00  0.00     0.009 A 
ATOM     46  C   UNL A   1      40.013  25.514  28.483  1.00  0.00     0.009 A 
ATOM     47  C   UNL A   1      40.969  25.956  25.904  1.00  0.00     0.001 A 
ATOM     48  C   UNL A   1      39.873  24.524  27.504  1.00  0.00     0.001 A 
ATOM     49  C   UNL A   1      40.336  24.752  26.210  1.00  0.00     0.000 A 
ENDBRANCH  25  44
BRANCH  37  50
ATOM     50  C   UNL A   1      44.981  28.572  33.277  1.00  0.00    -0.014 A 
ATOM     51  C   UNL A   1      46.252  28.957  32.828  1.00  0.00     0.009 A 
ATOM     52  C   UNL A   1      44.874  27.580  34.264  1.00  0.00     0.009 A 
ATOM     53  C   UNL A   1      47.393  28.332  33.330  1.00  0.00     0.001 A 
ATOM     54  C   UNL A   1      46.018  26.985  34.793  1.00  0.00     0.001 A 
ATOM     55  C   UNL A   1      47.275  27.354  34.316  1.00  0.00     0.000 A 
ENDBRANCH  37  50
ENDBRANCH  11  12
ENDBRANCH   4   6
ENDBRANCH   3   4
ENDBRANCH   2   3
ENDBRANCH   1   2
BRANCH   1  56
ATOM     56  O   UNL A   1      32.276  29.732  26.558  1.00  0.00    -0.462 OA
BRANCH  56  57
ATOM     57  C   UNL A   1      33.354  28.913  26.426  1.00  0.00     0.312 C 
ATOM     58  O   UNL A   1      34.504  29.231  26.676  1.00  0.00    -0.252 OA
BRANCH  57  59
ATOM     59  C   UNL A   1      33.018  27.547  25.907  1.00  0.00     0.147 C 
ATOM     60  C   UNL A   1      32.572  27.479  24.436  1.00  0.00     0.128 C 
ATOM     61  C   UNL A   1      31.862  26.865  26.632  1.00  0.00     0.157 C 
ATOM     62  C   UNL A   1      31.309  26.644  24.549  1.00  0.00     0.155 C 
ATOM     63  C   UNL A   1      31.848  25.389  26.372  1.00  0.00     0.004 C 
ATOM     64  O   UNL A   1      30.770  27.230  25.757  1.00  0.00    -0.365 OA
ATOM     65  C   UNL A   1      31.531  25.252  25.078  1.00  0.00     0.004 C 
BRANCH  60  66
ATOM     66  C   UNL A   1      32.460  28.770  23.604  1.00  0.00     0.227 C 
ATOM     67  O   UNL A   1      33.513  29.178  23.086  1.00  0.00    -0.275 OA
ATOM     68  N   UNL A   1      31.402  29.572  23.338  1.00  0.00    -0.352 N 
ATOM     69  H   UNL A   1      31.691  30.405  22.901  1.00  0.00     0.163 HD
BRANCH  68  70
ATOM     70  C   UNL A   1      29.954  29.548  23.518  1.00  0.00     0.151 C 
BRANCH  70  71
ATOM     71  C   UNL A   1      29.176  30.697  22.883  1.00  0.00    -0.026 A 
ATOM     72  C   UNL A   1      28.608  30.649  21.611  1.00  0.00     0.025 A 
ATOM     73  C   UNL A   1      29.043  31.913  23.576  1.00  0.00     0.025 A 
ATOM     74  C   UNL A   1      28.093  31.817  21.055  1.00  0.00     0.111 A 
ATOM     75  C   UNL A   1      28.552  33.039  22.929  1.00  0.00     0.111 A 
ATOM     76  N   UNL A   1      28.099  33.019  21.667  1.00  0.00    -0.265 NA
ENDBRANCH  70  71
ENDBRANCH  68  70
ENDBRANCH  60  66
ENDBRANCH  57  59
ENDBRANCH  56  57
ENDBRANCH   1  56
TORSDOF 14
ENDMDL
MODEL 3
REMARK VINA RESULT:     -10.5      0.771      6.038
REMARK SMILES O=C(OCCOC(=O)[C@@H]1[C@H](C(=O)NCc2ccncc2)[C@H]2C=C[C@@H]1O2)c1ccc(-c2c3nc(c(-c4ccccc4)c4ccc([nH]4)c(-c4ccccc4)c4nc(c(-c5ccccc5)c5ccc2[nH]5)C=C4)C=C3)cc1
REMARK SMILES IDX 5 1 4 2 3 3 2 4 1 5 26 6 27 7 73 8 28 9 72 10 29 11 30 12
REMARK SMILES IDX 31 13 66 14 32 15 71 16 65 17 67 18 33 19 70 20 64 21 63 22
REMARK SMILES IDX 34 24 56 25 41 26 55 27 42 28 45 29 54 30 68 31 43 32 44 33
REMARK SMILES IDX 53 35 69 36 46 37 35 38 36 39 40 40 37 41 39 42 38 43 57 44
REMARK SMILES IDX 58 45 62 46 59 47 61 48 60 49 47 50 48 51 52 52 49 53 51 54
REMARK SMILES IDX 50 55 6 56 7 57 8 58 9 59 10 60 24 61 21 62 23 63 25 64
REMARK SMILES IDX 22 65 11 66 12 67 13 68 14 70 15 71 16 72 20 73 17 74 19 75
REMARK SMILES IDX 18 76
REMARK H PARENT 67 23 45 34 13 69
REMARK Flexibility Score: inf
ROOT
ATOM      1  C   UNL A   1      38.061  21.468  25.383  1.00  0.00     0.274 C 
ENDROOT
BRANCH   1   2
ATOM      2  C   UNL A   1      38.260  20.007  24.995  1.00  0.00     0.275 C 
BRANCH   2   3
ATOM      3  O   UNL A   1      39.290  19.353  25.768  1.00  0.00    -0.458 OA
BRANCH   3   4
ATOM      4  C   UNL A   1      40.607  19.605  25.945  1.00  0.00     0.338 C 
ATOM      5  O   UNL A   1      41.391  18.673  25.755  1.00  0.00    -0.246 OA
BRANCH   4   6
ATOM      6  C   UNL A   1      41.207  20.911  26.395  1.00  0.00     0.060 A 
ATOM      7  C   UNL A   1      41.918  21.811  25.610  1.00  0.00     0.016 A 
ATOM      8  C   UNL A   1      40.982  21.290  27.737  1.00  0.00     0.016 A 
ATOM      9  C   UNL A   1      42.276  23.082  26.095  1.00  0.00     0.010 A 
ATOM     10  C   UNL A   1      41.299  22.579  28.206  1.00  0.00     0.010 A 
ATOM     11  C   UNL A   1      41.914  23.514  27.366  1.00  0.00    -0.014 A 
BRANCH  11  12
ATOM     12  C   UNL A   1      42.326  24.867  27.842  1.00  0.00     0.031 A 
ATOM     13  C   UNL A   1      43.774  25.095  28.092  1.00  0.00     0.074 A 
ATOM     14  C   UNL A   1      41.499  25.932  27.946  1.00  0.00     0.049 A 
ATOM     15  N   UNL A   1      44.367  26.179  28.508  1.00  0.00    -0.248 NA
ATOM     16  C   UNL A   1      44.677  23.986  27.748  1.00  0.00     0.031 C 
ATOM     17  C   UNL A   1      40.132  25.967  27.478  1.00  0.00     0.029 A 
ATOM     18  N   UNL A   1      41.661  27.192  28.480  1.00  0.00    -0.354 N 
ATOM     19  C   UNL A   1      45.716  25.908  28.409  1.00  0.00     0.074 A 
ATOM     20  C   UNL A   1      45.857  24.528  27.999  1.00  0.00     0.031 C 
ATOM     21  C   UNL A   1      39.519  27.095  27.866  1.00  0.00     0.029 A 
ATOM     22  C   UNL A   1      40.479  27.903  28.586  1.00  0.00     0.049 A 
ATOM     23  H   UNL A   1      42.534  27.551  28.761  1.00  0.00     0.167 HD
ATOM     24  C   UNL A   1      46.749  26.759  28.578  1.00  0.00     0.031 A 
ATOM     25  C   UNL A   1      40.189  29.069  29.193  1.00  0.00     0.031 A 
ATOM     26  C   UNL A   1      46.615  28.114  29.029  1.00  0.00     0.049 A 
ATOM     27  C   UNL A   1      41.341  29.887  29.684  1.00  0.00     0.074 A 
ATOM     28  C   UNL A   1      47.612  29.023  29.320  1.00  0.00     0.029 A 
ATOM     29  N   UNL A   1      45.404  28.749  29.272  1.00  0.00    -0.354 N 
ATOM     30  N   UNL A   1      42.619  29.612  29.603  1.00  0.00    -0.248 NA
ATOM     31  C   UNL A   1      41.034  31.200  30.262  1.00  0.00     0.031 C 
ATOM     32  C   UNL A   1      47.007  30.189  29.800  1.00  0.00     0.029 A 
ATOM     33  C   UNL A   1      45.631  30.030  29.748  1.00  0.00     0.049 A 
ATOM     34  H   UNL A   1      44.517  28.348  29.127  1.00  0.00     0.167 HD
ATOM     35  C   UNL A   1      43.274  30.748  30.043  1.00  0.00     0.074 A 
ATOM     36  C   UNL A   1      42.249  31.710  30.400  1.00  0.00     0.031 C 
ATOM     37  C   UNL A   1      44.607  30.976  30.110  1.00  0.00     0.031 A 
BRANCH  24  38
ATOM     38  C   UNL A   1      48.100  26.187  28.295  1.00  0.00    -0.014 A 
ATOM     39  C   UNL A   1      48.860  25.601  29.323  1.00  0.00     0.009 A 
ATOM     40  C   UNL A   1      48.660  26.331  27.020  1.00  0.00     0.009 A 
ATOM     41  C   UNL A   1      50.178  25.213  29.086  1.00  0.00     0.001 A 
ATOM     42  C   UNL A   1      49.969  25.917  26.781  1.00  0.00     0.001 A 
ATOM     43  C   UNL A   1      50.730  25.371  27.815  1.00  0.00     0.000 A 
ENDBRANCH  24  38
BRANCH  25  44
ATOM     44  C   UNL A   1      38.786  29.548  29.364  1.00  0.00    -0.014 A 
ATOM     45  C   UNL A   1      38.008  29.171  30.470  1.00  0.00     0.009 A 
ATOM     46  C   UNL A   1      38.181  30.315  28.352  1.00  0.00     0.009 A 
ATOM     47  C   UNL A   1      36.648  29.501  30.532  1.00  0.00     0.001 A 
ATOM     48  C   UNL A   1      36.827  30.662  28.427  1.00  0.00     0.001 A 
ATOM     49  C   UNL A   1      36.058  30.241  29.509  1.00  0.00     0.000 A 
ENDBRANCH  25  44
BRANCH  37  50
ATOM     50  C   UNL A   1      45.031  32.345  30.551  1.00  0.00    -0.014 A 
ATOM     51  C   UNL A   1      45.200  33.390  29.632  1.00  0.00     0.009 A 
ATOM     52  C   UNL A   1      45.245  32.591  31.916  1.00  0.00     0.009 A 
ATOM     53  C   UNL A   1      45.616  34.648  30.067  1.00  0.00     0.001 A 
ATOM     54  C   UNL A   1      45.622  33.860  32.353  1.00  0.00     0.001 A 
ATOM     55  C   UNL A   1      45.818  34.883  31.427  1.00  0.00     0.000 A 
ENDBRANCH  37  50
ENDBRANCH  11  12
ENDBRANCH   4   6
ENDBRANCH   3   4
ENDBRANCH   2   3
ENDBRANCH   1   2
BRANCH   1  56
ATOM     56  O   UNL A   1      36.695  21.753  25.716  1.00  0.00    -0.462 OA
BRANCH  56  57
ATOM     57  C   UNL A   1      36.049  22.530  24.806  1.00  0.00     0.312 C 
ATOM     58  O   UNL A   1      36.043  22.334  23.602  1.00  0.00    -0.252 OA
BRANCH  57  59
ATOM     59  C   UNL A   1      35.338  23.706  25.407  1.00  0.00     0.147 C 
ATOM     60  C   UNL A   1      34.287  23.375  26.481  1.00  0.00     0.128 C 
ATOM     61  C   UNL A   1      34.536  24.535  24.408  1.00  0.00     0.157 C 
ATOM     62  C   UNL A   1      33.102  24.189  25.994  1.00  0.00     0.155 C 
ATOM     63  C   UNL A   1      34.210  25.889  24.959  1.00  0.00     0.004 C 
ATOM     64  O   UNL A   1      33.232  23.933  24.576  1.00  0.00    -0.365 OA
ATOM     65  C   UNL A   1      33.342  25.675  25.957  1.00  0.00     0.004 C 
BRANCH  60  66
ATOM     66  C   UNL A   1      33.998  21.909  26.852  1.00  0.00     0.227 C 
ATOM     67  O   UNL A   1      34.371  21.548  27.981  1.00  0.00    -0.275 OA
ATOM     68  N   UNL A   1      33.410  20.910  26.152  1.00  0.00    -0.352 N 
ATOM     69  H   UNL A   1      33.515  20.047  26.613  1.00  0.00     0.163 HD
BRANCH  68  70
ATOM     70  C   UNL A   1      32.668  20.754  24.906  1.00  0.00     0.151 C 
BRANCH  70  71
ATOM     71  C   UNL A   1      32.801  19.406  24.205  1.00  0.00    -0.026 A 
ATOM     72  C   UNL A   1      33.508  18.321  24.722  1.00  0.00     0.025 A 
ATOM     73  C   UNL A   1      32.228  19.222  22.935  1.00  0.00     0.025 A 
ATOM     74  C   UNL A   1      33.731  17.210  23.914  1.00  0.00     0.111 A 
ATOM     75  C   UNL A   1      32.535  18.097  22.181  1.00  0.00     0.111 A 
ATOM     76  N   UNL A   1      33.302  17.097  22.639  1.00  0.00    -0.265 NA
ENDBRANCH  70  71
ENDBRANCH  68  70
ENDBRANCH  60  66
ENDBRANCH  57  59
ENDBRANCH  56  57
ENDBRANCH   1  56
TORSDOF 14
ENDMDL
