MODEL 1
REMARK VINA RESULT:      -7.0      0.000      0.000
REMARK SMILES CC/C=C/C/C=C/C/C=C/C/C=C/CC/C=C/COCC(=O)OCCOC(=O)c1ccc(-c2c3nc(c(-c4ccccc4)c4ccc([nH]4)c(-c4ccccc4)c4nc(c(-c5ccccc5)c5ccc2[nH]5)C=C4)C=C3)cc1
REMARK SMILES IDX 18 1 17 2 16 3 15 4 14 5 13 6 12 7 11 8 10 9 9 10 8 11 7 12
REMARK SMILES IDX 6 13 5 14 4 15 3 16 2 17 1 18 19 19 20 20 21 21 22 22 23 23
REMARK SMILES IDX 24 24 25 25 26 26 27 27 28 28 29 29 30 30 76 31 31 32 75 33
REMARK SMILES IDX 32 34 33 35 34 36 69 37 35 38 74 39 68 40 70 41 36 42 73 43
REMARK SMILES IDX 67 44 66 45 37 47 59 48 44 49 58 50 45 51 48 52 57 53 71 54
REMARK SMILES IDX 46 55 47 56 56 58 72 59 49 60 38 61 39 62 43 63 40 64 42 65
REMARK SMILES IDX 41 66 60 67 61 68 65 69 62 70 64 71 63 72 50 73 51 74 55 75
REMARK SMILES IDX 52 76 54 77 53 78
REMARK H PARENT 70 46 48 57
REMARK Flexibility Score: inf
ROOT
ATOM      1  C   UNL A   1      44.282  23.071  25.201  1.00  0.00     0.188 C 
ENDROOT
BRANCH   1   2
ATOM      2  C   UNL A   1      43.236  24.057  24.748  1.00  0.00    -0.003 C 
ATOM      3  C   UNL A   1      43.278  25.316  25.198  1.00  0.00    -0.029 C 
BRANCH   3   4
ATOM      4  C   UNL A   1      42.155  26.318  25.289  1.00  0.00     0.031 C 
BRANCH   4   5
ATOM      5  C   UNL A   1      42.538  27.870  25.383  1.00  0.00     0.031 C 
BRANCH   5   6
ATOM      6  C   UNL A   1      42.474  28.941  26.544  1.00  0.00    -0.031 C 
ATOM      7  C   UNL A   1      43.425  29.657  27.209  1.00  0.00    -0.027 C 
BRANCH   7   8
ATOM      8  C   UNL A   1      43.369  30.816  28.194  1.00  0.00     0.054 C 
BRANCH   8   9
ATOM      9  C   UNL A   1      44.742  31.404  28.554  1.00  0.00    -0.027 C 
ATOM     10  C   UNL A   1      45.972  30.838  28.463  1.00  0.00    -0.027 C 
BRANCH  10  11
ATOM     11  C   UNL A   1      47.278  31.576  28.756  1.00  0.00     0.054 C 
BRANCH  11  12
ATOM     12  C   UNL A   1      47.619  31.749  30.227  1.00  0.00    -0.027 C 
ATOM     13  C   UNL A   1      48.247  30.815  30.976  1.00  0.00    -0.027 C 
BRANCH  13  14
ATOM     14  C   UNL A   1      48.699  30.977  32.412  1.00  0.00     0.054 C 
BRANCH  14  15
ATOM     15  C   UNL A   1      49.122  29.665  33.019  1.00  0.00    -0.027 C 
ATOM     16  C   UNL A   1      50.342  29.107  32.916  1.00  0.00    -0.031 C 
BRANCH  16  17
ATOM     17  C   UNL A   1      50.720  27.806  33.575  1.00  0.00     0.023 C 
ATOM     18  C   UNL A   1      50.537  27.852  35.085  1.00  0.00     0.008 C 
ENDBRANCH  16  17
ENDBRANCH  14  15
ENDBRANCH  13  14
ENDBRANCH  11  12
ENDBRANCH  10  11
ENDBRANCH   8   9
ENDBRANCH   7   8
ENDBRANCH   5   6
ENDBRANCH   4   5
ENDBRANCH   3   4
ENDBRANCH   1   2
BRANCH   1  19
ATOM     19  O   UNL A   1      44.082  21.793  24.590  1.00  0.00    -0.366 OA
BRANCH  19  20
ATOM     20  C   UNL A   1      44.211  20.660  25.433  1.00  0.00     0.283 C 
BRANCH  20  21
ATOM     21  C   UNL A   1      44.029  19.223  24.936  1.00  0.00     0.332 C 
ATOM     22  O   UNL A   1      44.964  18.536  24.541  1.00  0.00    -0.250 OA
BRANCH  21  23
ATOM     23  O   UNL A   1      42.757  18.779  25.117  1.00  0.00    -0.460 OA
BRANCH  23  24
ATOM     24  C   UNL A   1      42.182  19.037  26.417  1.00  0.00     0.274 C 
BRANCH  24  25
ATOM     25  C   UNL A   1      40.754  19.577  26.281  1.00  0.00     0.275 C 
BRANCH  25  26
ATOM     26  O   UNL A   1      40.779  21.019  26.271  1.00  0.00    -0.458 OA
BRANCH  26  27
ATOM     27  C   UNL A   1      39.602  21.679  26.125  1.00  0.00     0.338 C 
ATOM     28  O   UNL A   1      38.608  21.252  25.525  1.00  0.00    -0.246 OA
BRANCH  27  29
ATOM     29  C   UNL A   1      39.674  23.013  26.793  1.00  0.00     0.060 A 
ATOM     30  C   UNL A   1      40.729  23.272  27.642  1.00  0.00     0.016 A 
ATOM     31  C   UNL A   1      38.745  24.046  26.629  1.00  0.00     0.016 A 
ATOM     32  C   UNL A   1      40.888  24.535  28.249  1.00  0.00     0.010 A 
ATOM     33  C   UNL A   1      38.965  25.342  27.219  1.00  0.00     0.010 A 
ATOM     34  C   UNL A   1      40.092  25.631  28.018  1.00  0.00    -0.014 A 
BRANCH  34  35
ATOM     35  C   UNL A   1      40.397  26.928  28.774  1.00  0.00     0.031 A 
ATOM     36  C   UNL A   1      41.777  27.056  29.336  1.00  0.00     0.074 A 
ATOM     37  C   UNL A   1      39.699  28.105  28.833  1.00  0.00     0.049 A 
ATOM     38  N   UNL A   1      42.253  27.938  30.174  1.00  0.00    -0.248 NA
ATOM     39  C   UNL A   1      42.766  26.103  28.813  1.00  0.00     0.031 C 
ATOM     40  C   UNL A   1      38.577  28.512  28.015  1.00  0.00     0.029 A 
ATOM     41  N   UNL A   1      39.845  29.233  29.636  1.00  0.00    -0.354 N 
ATOM     42  C   UNL A   1      43.587  27.616  30.318  1.00  0.00     0.074 A 
ATOM     43  C   UNL A   1      43.844  26.456  29.488  1.00  0.00     0.031 C 
ATOM     44  C   UNL A   1      38.005  29.641  28.444  1.00  0.00     0.029 A 
ATOM     45  C   UNL A   1      38.801  30.144  29.538  1.00  0.00     0.049 A 
ATOM     46  H   UNL A   1      40.622  29.373  30.224  1.00  0.00     0.167 HD
ATOM     47  C   UNL A   1      44.526  28.230  31.069  1.00  0.00     0.031 A 
ATOM     48  C   UNL A   1      38.485  31.283  30.188  1.00  0.00     0.031 A 
ATOM     49  C   UNL A   1      44.338  29.418  31.850  1.00  0.00     0.049 A 
ATOM     50  C   UNL A   1      39.449  31.834  31.182  1.00  0.00     0.074 A 
ATOM     51  C   UNL A   1      45.244  30.026  32.701  1.00  0.00     0.029 A 
ATOM     52  N   UNL A   1      43.195  30.198  31.860  1.00  0.00    -0.354 N 
ATOM     53  N   UNL A   1      40.647  31.402  31.465  1.00  0.00    -0.248 NA
ATOM     54  C   UNL A   1      39.043  33.042  31.914  1.00  0.00     0.031 C 
ATOM     55  C   UNL A   1      44.634  31.153  33.263  1.00  0.00     0.029 A 
ATOM     56  C   UNL A   1      43.364  31.269  32.726  1.00  0.00     0.049 A 
ATOM     57  H   UNL A   1      42.384  30.020  31.332  1.00  0.00     0.167 HD
ATOM     58  C   UNL A   1      41.157  32.302  32.384  1.00  0.00     0.074 A 
ATOM     59  C   UNL A   1      40.144  33.314  32.601  1.00  0.00     0.031 C 
ATOM     60  C   UNL A   1      42.371  32.278  32.978  1.00  0.00     0.031 A 
BRANCH  47  61
ATOM     61  C   UNL A   1      45.827  27.507  31.158  1.00  0.00    -0.014 A 
ATOM     62  C   UNL A   1      46.108  26.608  32.195  1.00  0.00     0.009 A 
ATOM     63  C   UNL A   1      46.815  27.808  30.208  1.00  0.00     0.009 A 
ATOM     64  C   UNL A   1      47.379  26.047  32.298  1.00  0.00     0.001 A 
ATOM     65  C   UNL A   1      48.073  27.225  30.299  1.00  0.00     0.001 A 
ATOM     66  C   UNL A   1      48.357  26.353  31.349  1.00  0.00     0.000 A 
ENDBRANCH  47  61
BRANCH  48  67
ATOM     67  C   UNL A   1      37.193  31.991  29.938  1.00  0.00    -0.014 A 
ATOM     68  C   UNL A   1      37.101  33.059  29.031  1.00  0.00     0.009 A 
ATOM     69  C   UNL A   1      36.049  31.638  30.677  1.00  0.00     0.009 A 
ATOM     70  C   UNL A   1      35.908  33.777  28.895  1.00  0.00     0.001 A 
ATOM     71  C   UNL A   1      34.853  32.344  30.522  1.00  0.00     0.001 A 
ATOM     72  C   UNL A   1      34.786  33.420  29.640  1.00  0.00     0.000 A 
ENDBRANCH  48  67
BRANCH  60  73
ATOM     73  C   UNL A   1      42.682  33.398  33.922  1.00  0.00    -0.014 A 
ATOM     74  C   UNL A   1      43.265  34.590  33.466  1.00  0.00     0.009 A 
ATOM     75  C   UNL A   1      42.401  33.253  35.289  1.00  0.00     0.009 A 
ATOM     76  C   UNL A   1      43.596  35.603  34.367  1.00  0.00     0.001 A 
ATOM     77  C   UNL A   1      42.709  34.278  36.185  1.00  0.00     0.001 A 
ATOM     78  C   UNL A   1      43.315  35.447  35.724  1.00  0.00     0.000 A 
ENDBRANCH  60  73
ENDBRANCH  34  35
ENDBRANCH  27  29
ENDBRANCH  26  27
ENDBRANCH  25  26
ENDBRANCH  24  25
ENDBRANCH  23  24
ENDBRANCH  21  23
ENDBRANCH  20  21
ENDBRANCH  19  20
ENDBRANCH   1  19
TORSDOF 24
ENDMDL
MODEL 2
REMARK VINA RESULT:      -6.8      5.246     11.315
REMARK SMILES CC/C=C/C/C=C/C/C=C/C/C=C/CC/C=C/COCC(=O)OCCOC(=O)c1ccc(-c2c3nc(c(-c4ccccc4)c4ccc([nH]4)c(-c4ccccc4)c4nc(c(-c5ccccc5)c5ccc2[nH]5)C=C4)C=C3)cc1
REMARK SMILES IDX 18 1 17 2 16 3 15 4 14 5 13 6 12 7 11 8 10 9 9 10 8 11 7 12
REMARK SMILES IDX 6 13 5 14 4 15 3 16 2 17 1 18 19 19 20 20 21 21 22 22 23 23
REMARK SMILES IDX 24 24 25 25 26 26 27 27 28 28 29 29 30 30 76 31 31 32 75 33
REMARK SMILES IDX 32 34 33 35 34 36 69 37 35 38 74 39 68 40 70 41 36 42 73 43
REMARK SMILES IDX 67 44 66 45 37 47 59 48 44 49 58 50 45 51 48 52 57 53 71 54
REMARK SMILES IDX 46 55 47 56 56 58 72 59 49 60 38 61 39 62 43 63 40 64 42 65
REMARK SMILES IDX 41 66 60 67 61 68 65 69 62 70 64 71 63 72 50 73 51 74 55 75
REMARK SMILES IDX 52 76 54 77 53 78
REMARK H PARENT 70 46 48 57
REMARK Flexibility Score: inf
ROOT
ATOM      1  C   UNL A   1      33.166  35.072  29.685  1.00  0.00     0.188 C 
ENDROOT
BRANCH   1   2
ATOM      2  C   UNL A   1      34.252  34.034  29.556  1.00  0.00    -0.003 C 
ATOM      3  C   UNL A   1      34.430  33.408  28.388  1.00  0.00    -0.029 C 
BRANCH   3   4
ATOM      4  C   UNL A   1      35.074  32.070  28.130  1.00  0.00     0.031 C 
BRANCH   4   5
ATOM      5  C   UNL A   1      36.432  31.725  28.906  1.00  0.00     0.031 C 
BRANCH   5   6
ATOM      6  C   UNL A   1      36.914  30.489  29.766  1.00  0.00    -0.031 C 
ATOM      7  C   UNL A   1      37.718  29.422  29.499  1.00  0.00    -0.027 C 
BRANCH   7   8
ATOM      8  C   UNL A   1      38.334  28.329  30.361  1.00  0.00     0.054 C 
BRANCH   8   9
ATOM      9  C   UNL A   1      39.827  28.083  30.095  1.00  0.00    -0.027 C 
ATOM     10  C   UNL A   1      40.501  28.067  28.918  1.00  0.00    -0.027 C 
BRANCH  10  11
ATOM     11  C   UNL A   1      42.017  27.914  28.800  1.00  0.00     0.054 C 
BRANCH  11  12
ATOM     12  C   UNL A   1      42.535  27.559  27.417  1.00  0.00    -0.027 C 
ATOM     13  C   UNL A   1      42.942  26.322  27.052  1.00  0.00    -0.027 C 
BRANCH  13  14
ATOM     14  C   UNL A   1      43.369  25.895  25.664  1.00  0.00     0.054 C 
BRANCH  14  15
ATOM     15  C   UNL A   1      43.655  24.417  25.594  1.00  0.00    -0.027 C 
ATOM     16  C   UNL A   1      44.362  23.797  24.632  1.00  0.00    -0.031 C 
BRANCH  16  17
ATOM     17  C   UNL A   1      44.646  22.318  24.631  1.00  0.00     0.023 C 
ATOM     18  C   UNL A   1      43.901  21.589  25.740  1.00  0.00     0.008 C 
ENDBRANCH  16  17
ENDBRANCH  14  15
ENDBRANCH  13  14
ENDBRANCH  11  12
ENDBRANCH  10  11
ENDBRANCH   8   9
ENDBRANCH   7   8
ENDBRANCH   5   6
ENDBRANCH   4   5
ENDBRANCH   3   4
ENDBRANCH   1   2
BRANCH   1  19
ATOM     19  O   UNL A   1      33.640  36.227  30.384  1.00  0.00    -0.366 OA
BRANCH  19  20
ATOM     20  C   UNL A   1      33.194  36.386  31.721  1.00  0.00     0.283 C 
BRANCH  20  21
ATOM     21  C   UNL A   1      34.071  36.975  32.830  1.00  0.00     0.332 C 
ATOM     22  O   UNL A   1      33.917  38.111  33.262  1.00  0.00    -0.250 OA
BRANCH  21  23
ATOM     23  O   UNL A   1      34.922  36.051  33.352  1.00  0.00    -0.460 OA
BRANCH  23  24
ATOM     24  C   UNL A   1      34.344  34.758  33.637  1.00  0.00     0.274 C 
BRANCH  24  25
ATOM     25  C   UNL A   1      35.348  33.639  33.340  1.00  0.00     0.275 C 
BRANCH  25  26
ATOM     26  O   UNL A   1      36.619  33.951  33.949  1.00  0.00    -0.458 OA
BRANCH  26  27
ATOM     27  C   UNL A   1      37.143  33.060  34.828  1.00  0.00     0.338 C 
ATOM     28  O   UNL A   1      36.680  32.791  35.943  1.00  0.00    -0.246 OA
BRANCH  27  29
ATOM     29  C   UNL A   1      38.380  32.445  34.260  1.00  0.00     0.060 A 
ATOM     30  C   UNL A   1      38.261  31.597  33.180  1.00  0.00     0.016 A 
ATOM     31  C   UNL A   1      39.678  32.658  34.738  1.00  0.00     0.016 A 
ATOM     32  C   UNL A   1      39.397  31.039  32.558  1.00  0.00     0.010 A 
ATOM     33  C   UNL A   1      40.821  32.118  34.048  1.00  0.00     0.010 A 
ATOM     34  C   UNL A   1      40.701  31.320  32.890  1.00  0.00    -0.014 A 
BRANCH  34  35
ATOM     35  C   UNL A   1      41.820  30.613  32.119  1.00  0.00     0.031 A 
ATOM     36  C   UNL A   1      42.433  31.380  30.992  1.00  0.00     0.074 A 
ATOM     37  C   UNL A   1      42.528  29.480  32.424  1.00  0.00     0.049 A 
ATOM     38  N   UNL A   1      43.249  30.972  30.057  1.00  0.00    -0.248 NA
ATOM     39  C   UNL A   1      42.143  32.820  30.973  1.00  0.00     0.031 C 
ATOM     40  C   UNL A   1      42.547  28.758  33.679  1.00  0.00     0.029 A 
ATOM     41  N   UNL A   1      43.419  28.713  31.680  1.00  0.00    -0.354 N 
ATOM     42  C   UNL A   1      43.531  32.095  29.307  1.00  0.00     0.074 A 
ATOM     43  C   UNL A   1      42.796  33.200  29.889  1.00  0.00     0.031 C 
ATOM     44  C   UNL A   1      43.195  27.592  33.595  1.00  0.00     0.029 A 
ATOM     45  C   UNL A   1      43.772  27.508  32.274  1.00  0.00     0.049 A 
ATOM     46  H   UNL A   1      43.770  28.999  30.806  1.00  0.00     0.167 HD
ATOM     47  C   UNL A   1      44.335  32.209  28.229  1.00  0.00     0.031 A 
ATOM     48  C   UNL A   1      44.499  26.443  31.878  1.00  0.00     0.031 A 
ATOM     49  C   UNL A   1      45.136  31.164  27.659  1.00  0.00     0.049 A 
ATOM     50  C   UNL A   1      45.211  26.506  30.570  1.00  0.00     0.074 A 
ATOM     51  C   UNL A   1      45.901  31.214  26.507  1.00  0.00     0.029 A 
ATOM     52  N   UNL A   1      45.309  29.902  28.199  1.00  0.00    -0.354 N 
ATOM     53  N   UNL A   1      45.310  27.520  29.756  1.00  0.00    -0.248 NA
ATOM     54  C   UNL A   1      45.942  25.303  30.145  1.00  0.00     0.031 C 
ATOM     55  C   UNL A   1      46.504  29.965  26.324  1.00  0.00     0.029 A 
ATOM     56  C   UNL A   1      46.149  29.154  27.386  1.00  0.00     0.049 A 
ATOM     57  H   UNL A   1      44.898  29.583  29.034  1.00  0.00     0.167 HD
ATOM     58  C   UNL A   1      46.140  27.095  28.735  1.00  0.00     0.074 A 
ATOM     59  C   UNL A   1      46.532  25.735  29.038  1.00  0.00     0.031 C 
ATOM     60  C   UNL A   1      46.540  27.795  27.649  1.00  0.00     0.031 A 
BRANCH  47  61
ATOM     61  C   UNL A   1      44.263  33.525  27.530  1.00  0.00    -0.014 A 
ATOM     62  C   UNL A   1      43.408  33.742  26.442  1.00  0.00     0.009 A 
ATOM     63  C   UNL A   1      45.141  34.538  27.942  1.00  0.00     0.009 A 
ATOM     64  C   UNL A   1      43.462  34.951  25.752  1.00  0.00     0.001 A 
ATOM     65  C   UNL A   1      45.173  35.753  27.267  1.00  0.00     0.001 A 
ATOM     66  C   UNL A   1      44.340  35.954  26.167  1.00  0.00     0.000 A 
ENDBRANCH  47  61
BRANCH  48  67
ATOM     67  C   UNL A   1      44.593  25.208  32.714  1.00  0.00    -0.014 A 
ATOM     68  C   UNL A   1      45.610  25.042  33.669  1.00  0.00     0.009 A 
ATOM     69  C   UNL A   1      43.695  24.148  32.499  1.00  0.00     0.009 A 
ATOM     70  C   UNL A   1      45.744  23.834  34.363  1.00  0.00     0.001 A 
ATOM     71  C   UNL A   1      43.819  22.951  33.210  1.00  0.00     0.001 A 
ATOM     72  C   UNL A   1      44.850  22.790  34.133  1.00  0.00     0.000 A 
ENDBRANCH  48  67
BRANCH  60  73
ATOM     73  C   UNL A   1      47.469  27.101  26.704  1.00  0.00    -0.014 A 
ATOM     74  C   UNL A   1      46.979  26.359  25.618  1.00  0.00     0.009 A 
ATOM     75  C   UNL A   1      48.855  27.177  26.909  1.00  0.00     0.009 A 
ATOM     76  C   UNL A   1      47.857  25.674  24.777  1.00  0.00     0.001 A 
ATOM     77  C   UNL A   1      49.733  26.514  26.050  1.00  0.00     0.001 A 
ATOM     78  C   UNL A   1      49.233  25.755  24.993  1.00  0.00     0.000 A 
ENDBRANCH  60  73
ENDBRANCH  34  35
ENDBRANCH  27  29
ENDBRANCH  26  27
ENDBRANCH  25  26
ENDBRANCH  24  25
ENDBRANCH  23  24
ENDBRANCH  21  23
ENDBRANCH  20  21
ENDBRANCH  19  20
ENDBRANCH   1  19
TORSDOF 24
ENDMDL
MODEL 3
REMARK VINA RESULT:      -6.5      1.845      6.229
REMARK SMILES CC/C=C/C/C=C/C/C=C/C/C=C/CC/C=C/COCC(=O)OCCOC(=O)c1ccc(-c2c3nc(c(-c4ccccc4)c4ccc([nH]4)c(-c4ccccc4)c4nc(c(-c5ccccc5)c5ccc2[nH]5)C=C4)C=C3)cc1
REMARK SMILES IDX 18 1 17 2 16 3 15 4 14 5 13 6 12 7 11 8 10 9 9 10 8 11 7 12
REMARK SMILES IDX 6 13 5 14 4 15 3 16 2 17 1 18 19 19 20 20 21 21 22 22 23 23
REMARK SMILES IDX 24 24 25 25 26 26 27 27 28 28 29 29 30 30 76 31 31 32 75 33
REMARK SMILES IDX 32 34 33 35 34 36 69 37 35 38 74 39 68 40 70 41 36 42 73 43
REMARK SMILES IDX 67 44 66 45 37 47 59 48 44 49 58 50 45 51 48 52 57 53 71 54
REMARK SMILES IDX 46 55 47 56 56 58 72 59 49 60 38 61 39 62 43 63 40 64 42 65
REMARK SMILES IDX 41 66 60 67 61 68 65 69 62 70 64 71 63 72 50 73 51 74 55 75
REMARK SMILES IDX 52 76 54 77 53 78
REMARK H PARENT 70 46 48 57
REMARK Flexibility Score: inf
ROOT
ATOM      1  C   UNL A   1      44.410  22.880  25.215  1.00  0.00     0.188 C 
ENDROOT
BRANCH   1   2
ATOM      2  C   UNL A   1      43.357  23.859  24.762  1.00  0.00    -0.003 C 
ATOM      3  C   UNL A   1      43.395  25.120  25.205  1.00  0.00    -0.029 C 
BRANCH   3   4
ATOM      4  C   UNL A   1      42.268  26.117  25.296  1.00  0.00     0.031 C 
BRANCH   4   5
ATOM      5  C   UNL A   1      42.629  27.673  25.186  1.00  0.00     0.031 C 
BRANCH   5   6
ATOM      6  C   UNL A   1      42.805  28.830  26.249  1.00  0.00    -0.031 C 
ATOM      7  C   UNL A   1      43.868  29.587  26.641  1.00  0.00    -0.027 C 
BRANCH   7   8
ATOM      8  C   UNL A   1      44.014  30.818  27.525  1.00  0.00     0.054 C 
BRANCH   8   9
ATOM      9  C   UNL A   1      45.468  31.216  27.817  1.00  0.00    -0.027 C 
ATOM     10  C   UNL A   1      46.344  31.908  27.046  1.00  0.00    -0.027 C 
BRANCH  10  11
ATOM     11  C   UNL A   1      47.739  32.332  27.503  1.00  0.00     0.054 C 
BRANCH  11  12
ATOM     12  C   UNL A   1      48.845  31.317  27.265  1.00  0.00    -0.027 C 
ATOM     13  C   UNL A   1      49.757  30.956  28.194  1.00  0.00    -0.027 C 
BRANCH  13  14
ATOM     14  C   UNL A   1      50.811  29.880  28.041  1.00  0.00     0.054 C 
BRANCH  14  15
ATOM     15  C   UNL A   1      50.473  28.915  26.935  1.00  0.00    -0.027 C 
ATOM     16  C   UNL A   1      51.321  28.478  25.986  1.00  0.00    -0.031 C 
BRANCH  16  17
ATOM     17  C   UNL A   1      50.937  27.484  24.922  1.00  0.00     0.023 C 
ATOM     18  C   UNL A   1      50.750  26.082  25.485  1.00  0.00     0.008 C 
ENDBRANCH  16  17
ENDBRANCH  14  15
ENDBRANCH  13  14
ENDBRANCH  11  12
ENDBRANCH  10  11
ENDBRANCH   8   9
ENDBRANCH   7   8
ENDBRANCH   5   6
ENDBRANCH   4   5
ENDBRANCH   3   4
ENDBRANCH   1   2
BRANCH   1  19
ATOM     19  O   UNL A   1      44.221  21.602  24.600  1.00  0.00    -0.366 OA
BRANCH  19  20
ATOM     20  C   UNL A   1      44.232  20.476  25.461  1.00  0.00     0.283 C 
BRANCH  20  21
ATOM     21  C   UNL A   1      43.799  19.077  25.014  1.00  0.00     0.332 C 
ATOM     22  O   UNL A   1      44.544  18.317  24.407  1.00  0.00    -0.250 OA
BRANCH  21  23
ATOM     23  O   UNL A   1      42.568  18.748  25.488  1.00  0.00    -0.460 OA
BRANCH  23  24
ATOM     24  C   UNL A   1      42.195  19.360  26.743  1.00  0.00     0.274 C 
BRANCH  24  25
ATOM     25  C   UNL A   1      40.781  19.944  26.663  1.00  0.00     0.275 C 
BRANCH  25  26
ATOM     26  O   UNL A   1      40.854  21.360  26.394  1.00  0.00    -0.458 OA
BRANCH  26  27
ATOM     27  C   UNL A   1      39.699  22.072  26.398  1.00  0.00     0.338 C 
ATOM     28  O   UNL A   1      38.615  21.688  25.944  1.00  0.00    -0.246 OA
BRANCH  27  29
ATOM     29  C   UNL A   1      39.921  23.408  27.030  1.00  0.00     0.060 A 
ATOM     30  C   UNL A   1      41.042  23.593  27.810  1.00  0.00     0.016 A 
ATOM     31  C   UNL A   1      39.072  24.512  26.897  1.00  0.00     0.016 A 
ATOM     32  C   UNL A   1      41.341  24.849  28.377  1.00  0.00     0.010 A 
ATOM     33  C   UNL A   1      39.433  25.795  27.443  1.00  0.00     0.010 A 
ATOM     34  C   UNL A   1      40.626  26.003  28.168  1.00  0.00    -0.014 A 
BRANCH  34  35
ATOM     35  C   UNL A   1      41.082  27.284  28.876  1.00  0.00     0.031 A 
ATOM     36  C   UNL A   1      40.047  28.350  29.042  1.00  0.00     0.074 A 
ATOM     37  C   UNL A   1      42.218  27.542  29.597  1.00  0.00     0.049 A 
ATOM     38  N   UNL A   1      40.190  29.592  29.420  1.00  0.00    -0.248 NA
ATOM     39  C   UNL A   1      38.657  27.924  28.830  1.00  0.00     0.031 C 
ATOM     40  C   UNL A   1      43.206  26.593  30.063  1.00  0.00     0.029 A 
ATOM     41  N   UNL A   1      42.749  28.725  30.101  1.00  0.00    -0.354 N 
ATOM     42  C   UNL A   1      38.912  30.113  29.442  1.00  0.00     0.074 A 
ATOM     43  C   UNL A   1      38.008  29.056  29.034  1.00  0.00     0.031 C 
ATOM     44  C   UNL A   1      44.288  27.184  30.579  1.00  0.00     0.029 A 
ATOM     45  C   UNL A   1      44.039  28.605  30.602  1.00  0.00     0.049 A 
ATOM     46  H   UNL A   1      42.253  29.575  30.103  1.00  0.00     0.167 HD
ATOM     47  C   UNL A   1      38.514  31.358  29.777  1.00  0.00     0.031 A 
ATOM     48  C   UNL A   1      44.947  29.483  31.075  1.00  0.00     0.031 A 
ATOM     49  C   UNL A   1      39.360  32.415  30.253  1.00  0.00     0.049 A 
ATOM     50  C   UNL A   1      44.552  30.911  31.235  1.00  0.00     0.074 A 
ATOM     51  C   UNL A   1      39.010  33.727  30.520  1.00  0.00     0.029 A 
ATOM     52  N   UNL A   1      40.702  32.289  30.564  1.00  0.00    -0.354 N 
ATOM     53  N   UNL A   1      43.374  31.444  31.058  1.00  0.00    -0.248 NA
ATOM     54  C   UNL A   1      45.587  31.848  31.695  1.00  0.00     0.031 C 
ATOM     55  C   UNL A   1      40.152  34.409  30.952  1.00  0.00     0.029 A 
ATOM     56  C   UNL A   1      41.202  33.509  30.995  1.00  0.00     0.049 A 
ATOM     57  H   UNL A   1      41.224  31.457  30.491  1.00  0.00     0.167 HD
ATOM     58  C   UNL A   1      43.512  32.773  31.415  1.00  0.00     0.074 A 
ATOM     59  C   UNL A   1      44.885  32.964  31.834  1.00  0.00     0.031 C 
ATOM     60  C   UNL A   1      42.563  33.736  31.399  1.00  0.00     0.031 A 
BRANCH  47  61
ATOM     61  C   UNL A   1      37.079  31.653  29.499  1.00  0.00    -0.014 A 
ATOM     62  C   UNL A   1      36.591  31.808  28.196  1.00  0.00     0.009 A 
ATOM     63  C   UNL A   1      36.225  31.854  30.594  1.00  0.00     0.009 A 
ATOM     64  C   UNL A   1      35.268  32.196  27.995  1.00  0.00     0.001 A 
ATOM     65  C   UNL A   1      34.898  32.215  30.388  1.00  0.00     0.001 A 
ATOM     66  C   UNL A   1      34.424  32.395  29.089  1.00  0.00     0.000 A 
ENDBRANCH  47  61
BRANCH  48  67
ATOM     67  C   UNL A   1      46.335  29.055  31.430  1.00  0.00    -0.014 A 
ATOM     68  C   UNL A   1      46.686  28.711  32.745  1.00  0.00     0.009 A 
ATOM     69  C   UNL A   1      47.340  29.062  30.447  1.00  0.00     0.009 A 
ATOM     70  C   UNL A   1      48.014  28.419  33.074  1.00  0.00     0.001 A 
ATOM     71  C   UNL A   1      48.663  28.749  30.775  1.00  0.00     0.001 A 
ATOM     72  C   UNL A   1      49.001  28.439  32.091  1.00  0.00     0.000 A 
ENDBRANCH  48  67
BRANCH  60  73
ATOM     73  C   UNL A   1      42.976  35.097  31.865  1.00  0.00    -0.014 A 
ATOM     74  C   UNL A   1      43.587  36.009  30.990  1.00  0.00     0.009 A 
ATOM     75  C   UNL A   1      42.765  35.469  33.201  1.00  0.00     0.009 A 
ATOM     76  C   UNL A   1      44.013  37.254  31.454  1.00  0.00     0.001 A 
ATOM     77  C   UNL A   1      43.167  36.725  33.656  1.00  0.00     0.001 A 
ATOM     78  C   UNL A   1      43.800  37.612  32.785  1.00  0.00     0.000 A 
ENDBRANCH  60  73
ENDBRANCH  34  35
ENDBRANCH  27  29
ENDBRANCH  26  27
ENDBRANCH  25  26
ENDBRANCH  24  25
ENDBRANCH  23  24
ENDBRANCH  21  23
ENDBRANCH  20  21
ENDBRANCH  19  20
ENDBRANCH   1  19
TORSDOF 24
ENDMDL
