MODEL 1
REMARK VINA RESULT:     -11.4      0.000      0.000
REMARK SMILES COc1cc2c(cc1OC)[C@@H](CC(=O)OCCOC(=O)c1ccc(-c3c4nc(c(-c5ccccc5)c5ccc([nH]5)c(-c5ccccc5)c5nc(c(-c6ccccc6)c6ccc3[nH]6)C=C5)C=C4)cc1)N(C(=O)Nc1ccc(Cl)cc1)CC2
REMARK SMILES IDX 16 1 15 2 13 3 14 4 12 5 11 6 3 7 4 8 8 9 5 10 7 11 6 12
REMARK SMILES IDX 81 13 80 14 69 15 2 16 1 17 9 18 10 19 70 20 71 21 72 22
REMARK SMILES IDX 73 24 74 25 79 26 75 27 78 28 76 29 77 30 17 31 18 32 19 33
REMARK SMILES IDX 20 34 21 35 22 36 68 37 23 38 67 39 24 40 25 41 26 42 61 43
REMARK SMILES IDX 27 44 66 45 60 46 62 47 28 48 65 49 59 50 58 51 29 53 51 54
REMARK SMILES IDX 36 55 50 56 37 57 40 58 49 59 63 60 38 61 39 62 48 64 64 65
REMARK SMILES IDX 41 66 30 67 31 68 35 69 32 70 34 71 33 72 52 73 53 74 57 75
REMARK SMILES IDX 54 76 56 77 55 78 42 79 43 80 47 81 44 82 46 83 45 84
REMARK H PARENT 72 23 62 52 40 63
REMARK Flexibility Score: inf
ROOT
ATOM      1  C   UNL A   1      36.500  20.978  24.760  1.00  0.00     0.274 C 
ENDROOT
BRANCH   1   2
ATOM      2  O   UNL A   1      36.097  21.925  25.766  1.00  0.00    -0.462 OA
BRANCH   2   3
ATOM      3  C   UNL A   1      35.892  23.200  25.362  1.00  0.00     0.308 C 
ATOM      4  O   UNL A   1      36.435  23.710  24.384  1.00  0.00    -0.252 OA
BRANCH   3   5
ATOM      5  C   UNL A   1      34.905  23.986  26.202  1.00  0.00     0.152 C 
BRANCH   5   6
ATOM      6  C   UNL A   1      33.447  24.138  25.712  1.00  0.00     0.128 C 
ATOM      7  C   UNL A   1      32.038  28.292  25.369  1.00  0.00     0.161 A 
ATOM      8  C   UNL A   1      31.186  27.211  25.162  1.00  0.00     0.054 A 
ATOM      9  C   UNL A   1      33.393  28.071  25.653  1.00  0.00     0.161 A 
ATOM     10  C   UNL A   1      31.671  25.902  25.255  1.00  0.00    -0.037 A 
ATOM     11  C   UNL A   1      33.865  26.747  25.756  1.00  0.00     0.056 A 
ATOM     12  C   UNL A   1      33.016  25.636  25.577  1.00  0.00    -0.018 A 
ATOM     13  C   UNL A   1      30.740  24.736  25.140  1.00  0.00     0.057 C 
ATOM     14  C   UNL A   1      31.009  23.864  26.357  1.00  0.00     0.127 C 
ATOM     15  N   UNL A   1      32.378  23.327  26.417  1.00  0.00    -0.317 N 
BRANCH   7  16
ATOM     16  O   UNL A   1      31.420  29.516  25.401  1.00  0.00    -0.493 OA
ATOM     17  C   UNL A   1      30.618  29.785  24.256  1.00  0.00     0.278 C 
ENDBRANCH   7  16
BRANCH   9  18
ATOM     18  O   UNL A   1      34.167  29.179  25.883  1.00  0.00    -0.493 OA
ATOM     19  C   UNL A   1      34.607  29.412  27.214  1.00  0.00     0.278 C 
ENDBRANCH   9  18
BRANCH  15  20
ATOM     20  C   UNL A   1      32.720  22.270  27.223  1.00  0.00     0.322 C 
ATOM     21  O   UNL A   1      32.616  22.312  28.454  1.00  0.00    -0.248 OA
ATOM     22  N   UNL A   1      33.254  21.109  26.757  1.00  0.00    -0.308 N 
ATOM     23  H   UNL A   1      33.916  20.692  27.355  1.00  0.00     0.171 HD
BRANCH  22  24
ATOM     24  C   UNL A   1      33.019  20.413  25.574  1.00  0.00     0.042 A 
ATOM     25  C   UNL A   1      33.094  19.021  25.642  1.00  0.00     0.028 A 
ATOM     26  C   UNL A   1      32.749  21.053  24.363  1.00  0.00     0.028 A 
ATOM     27  C   UNL A   1      32.781  18.253  24.525  1.00  0.00     0.022 A 
ATOM     28  C   UNL A   1      32.434  20.281  23.241  1.00  0.00     0.022 A 
ATOM     29  C   UNL A   1      32.432  18.886  23.333  1.00  0.00     0.041 A 
ATOM     30  Cl  UNL A   1      31.976  17.935  21.975  1.00  0.00    -0.084 Cl
ENDBRANCH  22  24
ENDBRANCH  15  20
ENDBRANCH   5   6
ENDBRANCH   3   5
ENDBRANCH   2   3
ENDBRANCH   1   2
BRANCH   1  31
ATOM     31  C   UNL A   1      37.935  20.517  25.006  1.00  0.00     0.275 C 
BRANCH  31  32
ATOM     32  O   UNL A   1      38.378  20.902  26.319  1.00  0.00    -0.458 OA
BRANCH  32  33
ATOM     33  C   UNL A   1      39.718  20.981  26.461  1.00  0.00     0.338 C 
ATOM     34  O   UNL A   1      40.557  20.147  26.138  1.00  0.00    -0.246 OA
BRANCH  33  35
ATOM     35  C   UNL A   1      40.085  22.312  26.955  1.00  0.00     0.060 A 
ATOM     36  C   UNL A   1      39.415  23.416  26.419  1.00  0.00     0.016 A 
ATOM     37  C   UNL A   1      41.132  22.480  27.863  1.00  0.00     0.016 A 
ATOM     38  C   UNL A   1      39.808  24.703  26.767  1.00  0.00     0.010 A 
ATOM     39  C   UNL A   1      41.532  23.772  28.206  1.00  0.00     0.010 A 
ATOM     40  C   UNL A   1      40.889  24.887  27.637  1.00  0.00    -0.014 A 
BRANCH  40  41
ATOM     41  C   UNL A   1      41.427  26.246  27.855  1.00  0.00     0.031 A 
ATOM     42  C   UNL A   1      42.729  26.627  27.212  1.00  0.00     0.074 A 
ATOM     43  C   UNL A   1      40.743  27.136  28.594  1.00  0.00     0.049 A 
ATOM     44  N   UNL A   1      43.410  27.739  27.318  1.00  0.00    -0.248 NA
ATOM     45  C   UNL A   1      43.347  25.620  26.333  1.00  0.00     0.031 C 
ATOM     46  C   UNL A   1      39.445  26.895  29.222  1.00  0.00     0.029 A 
ATOM     47  N   UNL A   1      41.054  28.425  28.942  1.00  0.00    -0.354 N 
ATOM     48  C   UNL A   1      44.546  27.558  26.539  1.00  0.00     0.074 A 
ATOM     49  C   UNL A   1      44.471  26.226  25.979  1.00  0.00     0.031 C 
ATOM     50  C   UNL A   1      39.069  28.005  29.882  1.00  0.00     0.029 A 
ATOM     51  C   UNL A   1      40.116  29.013  29.752  1.00  0.00     0.049 A 
ATOM     52  H   UNL A   1      41.870  28.883  28.638  1.00  0.00     0.167 HD
ATOM     53  C   UNL A   1      45.560  28.424  26.312  1.00  0.00     0.031 A 
ATOM     54  C   UNL A   1      40.117  30.224  30.339  1.00  0.00     0.031 A 
ATOM     55  C   UNL A   1      45.635  29.746  26.874  1.00  0.00     0.049 A 
ATOM     56  C   UNL A   1      41.280  31.150  30.113  1.00  0.00     0.074 A 
ATOM     57  C   UNL A   1      46.625  30.699  26.713  1.00  0.00     0.029 A 
ATOM     58  N   UNL A   1      44.675  30.300  27.708  1.00  0.00    -0.354 N 
ATOM     59  N   UNL A   1      42.354  30.965  29.382  1.00  0.00    -0.248 NA
ATOM     60  C   UNL A   1      41.226  32.454  30.787  1.00  0.00     0.031 C 
ATOM     61  C   UNL A   1      46.280  31.819  27.480  1.00  0.00     0.029 A 
ATOM     62  C   UNL A   1      45.053  31.579  28.077  1.00  0.00     0.049 A 
ATOM     63  H   UNL A   1      43.848  29.849  27.993  1.00  0.00     0.167 HD
ATOM     64  C   UNL A   1      43.089  32.139  29.485  1.00  0.00     0.074 A 
ATOM     65  C   UNL A   1      42.332  33.033  30.340  1.00  0.00     0.031 C 
ATOM     66  C   UNL A   1      44.282  32.452  28.923  1.00  0.00     0.031 A 
BRANCH  53  67
ATOM     67  C   UNL A   1      46.691  27.946  25.447  1.00  0.00    -0.014 A 
ATOM     68  C   UNL A   1      46.666  28.113  24.054  1.00  0.00     0.009 A 
ATOM     69  C   UNL A   1      47.804  27.327  26.038  1.00  0.00     0.009 A 
ATOM     70  C   UNL A   1      47.718  27.640  23.266  1.00  0.00     0.001 A 
ATOM     71  C   UNL A   1      48.866  26.878  25.251  1.00  0.00     0.001 A 
ATOM     72  C   UNL A   1      48.818  27.026  23.865  1.00  0.00     0.000 A 
ENDBRANCH  53  67
BRANCH  54  73
ATOM     73  C   UNL A   1      38.985  30.627  31.212  1.00  0.00    -0.014 A 
ATOM     74  C   UNL A   1      39.001  30.331  32.583  1.00  0.00     0.009 A 
ATOM     75  C   UNL A   1      37.879  31.304  30.675  1.00  0.00     0.009 A 
ATOM     76  C   UNL A   1      37.918  30.683  33.394  1.00  0.00     0.001 A 
ATOM     77  C   UNL A   1      36.812  31.678  31.493  1.00  0.00     0.001 A 
ATOM     78  C   UNL A   1      36.829  31.359  32.850  1.00  0.00     0.000 A 
ENDBRANCH  54  73
BRANCH  66  79
ATOM     79  C   UNL A   1      44.814  33.834  29.174  1.00  0.00    -0.014 A 
ATOM     80  C   UNL A   1      45.650  34.107  30.267  1.00  0.00     0.009 A 
ATOM     81  C   UNL A   1      44.492  34.870  28.284  1.00  0.00     0.009 A 
ATOM     82  C   UNL A   1      46.126  35.403  30.483  1.00  0.00     0.001 A 
ATOM     83  C   UNL A   1      44.989  36.158  28.488  1.00  0.00     0.001 A 
ATOM     84  C   UNL A   1      45.797  36.424  29.592  1.00  0.00     0.000 A 
ENDBRANCH  66  79
ENDBRANCH  40  41
ENDBRANCH  33  35
ENDBRANCH  32  33
ENDBRANCH  31  32
ENDBRANCH   1  31
TORSDOF 16
ENDMDL
MODEL 2
REMARK VINA RESULT:     -11.2      2.683      3.502
REMARK SMILES COc1cc2c(cc1OC)[C@@H](CC(=O)OCCOC(=O)c1ccc(-c3c4nc(c(-c5ccccc5)c5ccc([nH]5)c(-c5ccccc5)c5nc(c(-c6ccccc6)c6ccc3[nH]6)C=C5)C=C4)cc1)N(C(=O)Nc1ccc(Cl)cc1)CC2
REMARK SMILES IDX 16 1 15 2 13 3 14 4 12 5 11 6 3 7 4 8 8 9 5 10 7 11 6 12
REMARK SMILES IDX 81 13 80 14 69 15 2 16 1 17 9 18 10 19 70 20 71 21 72 22
REMARK SMILES IDX 73 24 74 25 79 26 75 27 78 28 76 29 77 30 17 31 18 32 19 33
REMARK SMILES IDX 20 34 21 35 22 36 68 37 23 38 67 39 24 40 25 41 26 42 61 43
REMARK SMILES IDX 27 44 66 45 60 46 62 47 28 48 65 49 59 50 58 51 29 53 51 54
REMARK SMILES IDX 36 55 50 56 37 57 40 58 49 59 63 60 38 61 39 62 48 64 64 65
REMARK SMILES IDX 41 66 30 67 31 68 35 69 32 70 34 71 33 72 52 73 53 74 57 75
REMARK SMILES IDX 54 76 56 77 55 78 42 79 43 80 47 81 44 82 46 83 45 84
REMARK H PARENT 72 23 62 52 40 63
REMARK Flexibility Score: inf
ROOT
ATOM      1  C   UNL A   1      36.928  21.168  24.922  1.00  0.00     0.274 C 
ENDROOT
BRANCH   1   2
ATOM      2  O   UNL A   1      36.096  22.039  25.710  1.00  0.00    -0.462 OA
BRANCH   2   3
ATOM      3  C   UNL A   1      35.827  23.261  25.197  1.00  0.00     0.308 C 
ATOM      4  O   UNL A   1      36.310  23.692  24.152  1.00  0.00    -0.252 OA
BRANCH   3   5
ATOM      5  C   UNL A   1      34.848  24.091  26.002  1.00  0.00     0.152 C 
BRANCH   5   6
ATOM      6  C   UNL A   1      33.367  24.154  25.561  1.00  0.00     0.128 C 
ATOM      7  C   UNL A   1      31.744  28.219  25.113  1.00  0.00     0.161 A 
ATOM      8  C   UNL A   1      30.940  27.091  24.979  1.00  0.00     0.054 A 
ATOM      9  C   UNL A   1      33.118  28.074  25.355  1.00  0.00     0.161 A 
ATOM     10  C   UNL A   1      31.492  25.812  25.104  1.00  0.00    -0.037 A 
ATOM     11  C   UNL A   1      33.658  26.779  25.490  1.00  0.00     0.056 A 
ATOM     12  C   UNL A   1      32.859  25.623  25.386  1.00  0.00    -0.018 A 
ATOM     13  C   UNL A   1      30.616  24.599  25.068  1.00  0.00     0.057 C 
ATOM     14  C   UNL A   1      30.971  23.789  26.306  1.00  0.00     0.127 C 
ATOM     15  N   UNL A   1      32.365  23.322  26.336  1.00  0.00    -0.317 N 
BRANCH   7  16
ATOM     16  O   UNL A   1      31.069  29.412  25.121  1.00  0.00    -0.493 OA
ATOM     17  C   UNL A   1      30.381  29.692  23.907  1.00  0.00     0.278 C 
ENDBRANCH   7  16
BRANCH   9  18
ATOM     18  O   UNL A   1      33.843  29.226  25.513  1.00  0.00    -0.493 OA
ATOM     19  C   UNL A   1      34.149  29.637  26.839  1.00  0.00     0.278 C 
ENDBRANCH   9  18
BRANCH  15  20
ATOM     20  C   UNL A   1      32.788  22.315  27.168  1.00  0.00     0.322 C 
ATOM     21  O   UNL A   1      32.798  22.431  28.398  1.00  0.00    -0.248 OA
ATOM     22  N   UNL A   1      33.284  21.129  26.724  1.00  0.00    -0.308 N 
ATOM     23  H   UNL A   1      34.001  20.749  27.282  1.00  0.00     0.171 HD
BRANCH  22  24
ATOM     24  C   UNL A   1      32.945  20.363  25.612  1.00  0.00     0.042 A 
ATOM     25  C   UNL A   1      32.750  21.053  24.413  1.00  0.00     0.028 A 
ATOM     26  C   UNL A   1      32.777  18.979  25.672  1.00  0.00     0.028 A 
ATOM     27  C   UNL A   1      32.500  20.348  23.239  1.00  0.00     0.022 A 
ATOM     28  C   UNL A   1      32.527  18.272  24.492  1.00  0.00     0.022 A 
ATOM     29  C   UNL A   1      32.410  18.958  23.279  1.00  0.00     0.041 A 
ATOM     30  Cl  UNL A   1      32.175  18.086  21.816  1.00  0.00    -0.084 Cl
ENDBRANCH  22  24
ENDBRANCH  15  20
ENDBRANCH   5   6
ENDBRANCH   3   5
ENDBRANCH   2   3
ENDBRANCH   1   2
BRANCH   1  31
ATOM     31  C   UNL A   1      38.373  21.223  25.413  1.00  0.00     0.275 C 
BRANCH  31  32
ATOM     32  O   UNL A   1      38.565  22.328  26.313  1.00  0.00    -0.458 OA
BRANCH  32  33
ATOM     33  C   UNL A   1      39.835  22.780  26.388  1.00  0.00     0.338 C 
ATOM     34  O   UNL A   1      40.848  22.248  25.948  1.00  0.00    -0.246 OA
BRANCH  33  35
ATOM     35  C   UNL A   1      39.846  24.125  26.973  1.00  0.00     0.060 A 
ATOM     36  C   UNL A   1      40.526  25.133  26.283  1.00  0.00     0.016 A 
ATOM     37  C   UNL A   1      39.277  24.371  28.224  1.00  0.00     0.016 A 
ATOM     38  C   UNL A   1      40.666  26.393  26.853  1.00  0.00     0.010 A 
ATOM     39  C   UNL A   1      39.424  25.633  28.800  1.00  0.00     0.010 A 
ATOM     40  C   UNL A   1      40.143  26.639  28.128  1.00  0.00    -0.014 A 
BRANCH  40  41
ATOM     41  C   UNL A   1      40.457  27.911  28.812  1.00  0.00     0.031 A 
ATOM     42  C   UNL A   1      41.814  28.093  29.427  1.00  0.00     0.074 A 
ATOM     43  C   UNL A   1      39.548  28.901  28.854  1.00  0.00     0.049 A 
ATOM     44  N   UNL A   1      42.279  29.099  30.123  1.00  0.00    -0.248 NA
ATOM     45  C   UNL A   1      42.775  26.995  29.234  1.00  0.00     0.031 C 
ATOM     46  C   UNL A   1      38.219  28.857  28.246  1.00  0.00     0.029 A 
ATOM     47  N   UNL A   1      39.612  30.137  29.441  1.00  0.00    -0.354 N 
ATOM     48  C   UNL A   1      43.577  28.746  30.470  1.00  0.00     0.074 A 
ATOM     49  C   UNL A   1      43.822  27.429  29.921  1.00  0.00     0.031 C 
ATOM     50  C   UNL A   1      37.590  30.019  28.493  1.00  0.00     0.029 A 
ATOM     51  C   UNL A   1      38.456  30.866  29.306  1.00  0.00     0.049 A 
ATOM     52  H   UNL A   1      40.409  30.471  29.913  1.00  0.00     0.167 HD
ATOM     53  C   UNL A   1      44.483  29.456  31.182  1.00  0.00     0.031 A 
ATOM     54  C   UNL A   1      38.132  32.073  29.803  1.00  0.00     0.031 A 
ATOM     55  C   UNL A   1      44.235  30.762  31.730  1.00  0.00     0.049 A 
ATOM     56  C   UNL A   1      39.138  32.821  30.635  1.00  0.00     0.074 A 
ATOM     57  C   UNL A   1      45.084  31.562  32.474  1.00  0.00     0.029 A 
ATOM     58  N   UNL A   1      43.045  31.459  31.590  1.00  0.00    -0.354 N 
ATOM     59  N   UNL A   1      40.359  32.474  30.964  1.00  0.00    -0.248 NA
ATOM     60  C   UNL A   1      38.721  34.130  31.156  1.00  0.00     0.031 C 
ATOM     61  C   UNL A   1      44.393  32.732  32.815  1.00  0.00     0.029 A 
ATOM     62  C   UNL A   1      43.133  32.678  32.241  1.00  0.00     0.049 A 
ATOM     63  H   UNL A   1      42.256  31.135  31.099  1.00  0.00     0.167 HD
ATOM     64  C   UNL A   1      40.867  33.533  31.706  1.00  0.00     0.074 A 
ATOM     65  C   UNL A   1      39.824  34.538  31.767  1.00  0.00     0.031 C 
ATOM     66  C   UNL A   1      42.086  33.665  32.283  1.00  0.00     0.031 A 
BRANCH  53  67
ATOM     67  C   UNL A   1      45.813  28.808  31.439  1.00  0.00    -0.014 A 
ATOM     68  C   UNL A   1      46.894  28.984  30.560  1.00  0.00     0.009 A 
ATOM     69  C   UNL A   1      45.991  28.017  32.585  1.00  0.00     0.009 A 
ATOM     70  C   UNL A   1      48.115  28.354  30.808  1.00  0.00     0.001 A 
ATOM     71  C   UNL A   1      47.220  27.409  32.843  1.00  0.00     0.001 A 
ATOM     72  C   UNL A   1      48.279  27.570  31.950  1.00  0.00     0.000 A 
ENDBRANCH  53  67
BRANCH  54  73
ATOM     73  C   UNL A   1      36.787  32.647  29.543  1.00  0.00    -0.014 A 
ATOM     74  C   UNL A   1      35.763  32.527  30.495  1.00  0.00     0.009 A 
ATOM     75  C   UNL A   1      36.519  33.310  28.335  1.00  0.00     0.009 A 
ATOM     76  C   UNL A   1      34.490  33.039  30.230  1.00  0.00     0.001 A 
ATOM     77  C   UNL A   1      35.254  33.845  28.086  1.00  0.00     0.001 A 
ATOM     78  C   UNL A   1      34.238  33.700  29.031  1.00  0.00     0.000 A 
ENDBRANCH  54  73
BRANCH  66  79
ATOM     79  C   UNL A   1      42.372  34.961  32.986  1.00  0.00    -0.014 A 
ATOM     80  C   UNL A   1      41.898  35.208  34.283  1.00  0.00     0.009 A 
ATOM     81  C   UNL A   1      43.154  35.935  32.346  1.00  0.00     0.009 A 
ATOM     82  C   UNL A   1      42.172  36.425  34.912  1.00  0.00     0.001 A 
ATOM     83  C   UNL A   1      43.448  37.139  32.987  1.00  0.00     0.001 A 
ATOM     84  C   UNL A   1      42.948  37.387  34.264  1.00  0.00     0.000 A 
ENDBRANCH  66  79
ENDBRANCH  40  41
ENDBRANCH  33  35
ENDBRANCH  32  33
ENDBRANCH  31  32
ENDBRANCH   1  31
TORSDOF 16
ENDMDL
MODEL 3
REMARK VINA RESULT:     -11.0      2.374      5.812
REMARK SMILES COc1cc2c(cc1OC)[C@@H](CC(=O)OCCOC(=O)c1ccc(-c3c4nc(c(-c5ccccc5)c5ccc([nH]5)c(-c5ccccc5)c5nc(c(-c6ccccc6)c6ccc3[nH]6)C=C5)C=C4)cc1)N(C(=O)Nc1ccc(Cl)cc1)CC2
REMARK SMILES IDX 16 1 15 2 13 3 14 4 12 5 11 6 3 7 4 8 8 9 5 10 7 11 6 12
REMARK SMILES IDX 81 13 80 14 69 15 2 16 1 17 9 18 10 19 70 20 71 21 72 22
REMARK SMILES IDX 73 24 74 25 79 26 75 27 78 28 76 29 77 30 17 31 18 32 19 33
REMARK SMILES IDX 20 34 21 35 22 36 68 37 23 38 67 39 24 40 25 41 26 42 61 43
REMARK SMILES IDX 27 44 66 45 60 46 62 47 28 48 65 49 59 50 58 51 29 53 51 54
REMARK SMILES IDX 36 55 50 56 37 57 40 58 49 59 63 60 38 61 39 62 48 64 64 65
REMARK SMILES IDX 41 66 30 67 31 68 35 69 32 70 34 71 33 72 52 73 53 74 57 75
REMARK SMILES IDX 54 76 56 77 55 78 42 79 43 80 47 81 44 82 46 83 45 84
REMARK H PARENT 72 23 62 52 40 63
REMARK Flexibility Score: inf
ROOT
ATOM      1  C   UNL A   1      38.003  21.555  24.975  1.00  0.00     0.274 C 
ENDROOT
BRANCH   1   2
ATOM      2  O   UNL A   1      37.124  22.664  25.239  1.00  0.00    -0.462 OA
BRANCH   2   3
ATOM      3  C   UNL A   1      36.439  23.169  24.188  1.00  0.00     0.308 C 
ATOM      4  O   UNL A   1      36.702  22.926  23.012  1.00  0.00    -0.252 OA
BRANCH   3   5
ATOM      5  C   UNL A   1      35.275  24.067  24.555  1.00  0.00     0.152 C 
BRANCH   5   6
ATOM      6  C   UNL A   1      33.842  23.656  24.145  1.00  0.00     0.128 C 
ATOM      7  C   UNL A   1      31.463  26.854  22.282  1.00  0.00     0.161 A 
ATOM      8  C   UNL A   1      30.913  25.611  22.579  1.00  0.00     0.054 A 
ATOM      9  C   UNL A   1      32.820  27.098  22.539  1.00  0.00     0.161 A 
ATOM     10  C   UNL A   1      31.702  24.607  23.149  1.00  0.00    -0.037 A 
ATOM     11  C   UNL A   1      33.600  26.081  23.124  1.00  0.00     0.056 A 
ATOM     12  C   UNL A   1      33.060  24.823  23.458  1.00  0.00    -0.018 A 
ATOM     13  C   UNL A   1      31.093  23.306  23.568  1.00  0.00     0.057 C 
ATOM     14  C   UNL A   1      31.527  23.085  25.009  1.00  0.00     0.127 C 
ATOM     15  N   UNL A   1      32.983  22.964  25.184  1.00  0.00    -0.317 N 
BRANCH   7  16
ATOM     16  O   UNL A   1      30.561  27.801  21.869  1.00  0.00    -0.493 OA
ATOM     17  C   UNL A   1      29.690  28.253  22.900  1.00  0.00     0.278 C 
ENDBRANCH   7  16
BRANCH   9  18
ATOM     18  O   UNL A   1      33.287  28.355  22.258  1.00  0.00    -0.493 OA
ATOM     19  C   UNL A   1      33.442  29.260  23.344  1.00  0.00     0.278 C 
ENDBRANCH   9  18
BRANCH  15  20
ATOM     20  C   UNL A   1      33.547  22.433  26.317  1.00  0.00     0.322 C 
ATOM     21  O   UNL A   1      33.523  23.016  27.407  1.00  0.00    -0.248 OA
ATOM     22  N   UNL A   1      34.229  21.257  26.339  1.00  0.00    -0.308 N 
ATOM     23  H   UNL A   1      34.990  21.234  26.964  1.00  0.00     0.171 HD
BRANCH  22  24
ATOM     24  C   UNL A   1      34.029  20.079  25.624  1.00  0.00     0.042 A 
ATOM     25  C   UNL A   1      35.142  19.548  24.969  1.00  0.00     0.028 A 
ATOM     26  C   UNL A   1      32.783  19.456  25.530  1.00  0.00     0.028 A 
ATOM     27  C   UNL A   1      35.043  18.325  24.312  1.00  0.00     0.022 A 
ATOM     28  C   UNL A   1      32.685  18.227  24.869  1.00  0.00     0.022 A 
ATOM     29  C   UNL A   1      33.819  17.659  24.281  1.00  0.00     0.041 A 
ATOM     30  Cl  UNL A   1      33.717  16.115  23.532  1.00  0.00    -0.084 Cl
ENDBRANCH  22  24
ENDBRANCH  15  20
ENDBRANCH   5   6
ENDBRANCH   3   5
ENDBRANCH   2   3
ENDBRANCH   1   2
BRANCH   1  31
ATOM     31  C   UNL A   1      39.169  21.552  25.961  1.00  0.00     0.275 C 
BRANCH  31  32
ATOM     32  O   UNL A   1      39.644  20.214  26.187  1.00  0.00    -0.458 OA
BRANCH  32  33
ATOM     33  C   UNL A   1      40.983  20.069  26.095  1.00  0.00     0.338 C 
ATOM     34  O   UNL A   1      41.604  19.149  25.574  1.00  0.00    -0.246 OA
BRANCH  33  35
ATOM     35  C   UNL A   1      41.647  21.274  26.603  1.00  0.00     0.060 A 
ATOM     36  C   UNL A   1      41.685  21.466  27.988  1.00  0.00     0.016 A 
ATOM     37  C   UNL A   1      42.145  22.243  25.730  1.00  0.00     0.016 A 
ATOM     38  C   UNL A   1      42.197  22.647  28.511  1.00  0.00     0.010 A 
ATOM     39  C   UNL A   1      42.652  23.432  26.256  1.00  0.00     0.010 A 
ATOM     40  C   UNL A   1      42.653  23.649  27.646  1.00  0.00    -0.014 A 
BRANCH  40  41
ATOM     41  C   UNL A   1      43.017  24.974  28.192  1.00  0.00     0.031 A 
ATOM     42  C   UNL A   1      41.936  25.992  28.415  1.00  0.00     0.074 A 
ATOM     43  C   UNL A   1      44.293  25.249  28.511  1.00  0.00     0.049 A 
ATOM     44  N   UNL A   1      42.038  27.230  28.825  1.00  0.00    -0.248 NA
ATOM     45  C   UNL A   1      40.557  25.558  28.137  1.00  0.00     0.031 C 
ATOM     46  C   UNL A   1      45.416  24.321  28.388  1.00  0.00     0.029 A 
ATOM     47  N   UNL A   1      44.855  26.398  29.004  1.00  0.00    -0.354 N 
ATOM     48  C   UNL A   1      40.742  27.730  28.834  1.00  0.00     0.074 A 
ATOM     49  C   UNL A   1      39.873  26.668  28.373  1.00  0.00     0.031 C 
ATOM     50  C   UNL A   1      46.537  24.940  28.795  1.00  0.00     0.029 A 
ATOM     51  C   UNL A   1      46.215  26.313  29.169  1.00  0.00     0.049 A 
ATOM     52  H   UNL A   1      44.333  27.205  29.219  1.00  0.00     0.167 HD
ATOM     53  C   UNL A   1      40.315  28.963  29.192  1.00  0.00     0.031 A 
ATOM     54  C   UNL A   1      47.099  27.250  29.558  1.00  0.00     0.031 A 
ATOM     55  C   UNL A   1      41.182  30.018  29.644  1.00  0.00     0.049 A 
ATOM     56  C   UNL A   1      46.606  28.628  29.902  1.00  0.00     0.074 A 
ATOM     57  C   UNL A   1      40.850  31.306  30.022  1.00  0.00     0.029 A 
ATOM     58  N   UNL A   1      42.557  29.901  29.778  1.00  0.00    -0.354 N 
ATOM     59  N   UNL A   1      45.380  29.093  29.898  1.00  0.00    -0.248 NA
ATOM     60  C   UNL A   1      47.621  29.608  30.313  1.00  0.00     0.031 C 
ATOM     61  C   UNL A   1      42.031  31.982  30.353  1.00  0.00     0.029 A 
ATOM     62  C   UNL A   1      43.090  31.097  30.226  1.00  0.00     0.049 A 
ATOM     63  H   UNL A   1      43.076  29.087  29.584  1.00  0.00     0.167 HD
ATOM     64  C   UNL A   1      45.472  30.409  30.331  1.00  0.00     0.074 A 
ATOM     65  C   UNL A   1      46.873  30.664  30.600  1.00  0.00     0.031 C 
ATOM     66  C   UNL A   1      44.486  31.326  30.494  1.00  0.00     0.031 A 
BRANCH  53  67
ATOM     67  C   UNL A   1      38.845  29.244  29.067  1.00  0.00    -0.014 A 
ATOM     68  C   UNL A   1      38.278  29.636  27.844  1.00  0.00     0.009 A 
ATOM     69  C   UNL A   1      38.013  29.104  30.189  1.00  0.00     0.009 A 
ATOM     70  C   UNL A   1      36.912  29.914  27.756  1.00  0.00     0.001 A 
ATOM     71  C   UNL A   1      36.644  29.358  30.092  1.00  0.00     0.001 A 
ATOM     72  C   UNL A   1      36.096  29.772  28.878  1.00  0.00     0.000 A 
ENDBRANCH  53  67
BRANCH  54  73
ATOM     73  C   UNL A   1      48.546  26.922  29.629  1.00  0.00    -0.014 A 
ATOM     74  C   UNL A   1      49.380  27.129  28.520  1.00  0.00     0.009 A 
ATOM     75  C   UNL A   1      49.097  26.390  30.805  1.00  0.00     0.009 A 
ATOM     76  C   UNL A   1      50.733  26.787  28.581  1.00  0.00     0.001 A 
ATOM     77  C   UNL A   1      50.456  26.076  30.871  1.00  0.00     0.001 A 
ATOM     78  C   UNL A   1      51.270  26.266  29.756  1.00  0.00     0.000 A 
ENDBRANCH  54  73
BRANCH  66  79
ATOM     79  C   UNL A   1      44.885  32.669  31.033  1.00  0.00    -0.014 A 
ATOM     80  C   UNL A   1      45.235  33.726  30.178  1.00  0.00     0.009 A 
ATOM     81  C   UNL A   1      44.883  32.884  32.420  1.00  0.00     0.009 A 
ATOM     82  C   UNL A   1      45.609  34.963  30.706  1.00  0.00     0.001 A 
ATOM     83  C   UNL A   1      45.233  34.129  32.943  1.00  0.00     0.001 A 
ATOM     84  C   UNL A   1      45.606  35.164  32.086  1.00  0.00     0.000 A 
ENDBRANCH  66  79
ENDBRANCH  40  41
ENDBRANCH  33  35
ENDBRANCH  32  33
ENDBRANCH  31  32
ENDBRANCH   1  31
TORSDOF 16
ENDMDL
