MODEL 1
REMARK VINA RESULT:     -11.0      0.000      0.000
REMARK SMILES O=C(OCCOC(=O)c1cc(Br)ccc1NC(=O)c1ccc(Br)s1)c1ccc(-c2c3nc(c(-c4ccccc4)c4ccc([nH]4)c(-c4ccccc4)c4nc(c(-c5ccccc5)c5ccc2[nH]5)C=C4)C=C3)cc1
REMARK SMILES IDX 4 1 3 2 2 3 1 4 25 5 26 6 72 7 27 8 71 9 28 10 29 11 30 12
REMARK SMILES IDX 65 13 31 14 70 15 64 16 66 17 32 18 69 19 63 20 62 21 33 23
REMARK SMILES IDX 55 24 40 25 54 26 41 27 44 28 53 29 67 30 42 31 43 32 52 34
REMARK SMILES IDX 68 35 45 36 34 37 35 38 39 39 36 40 38 41 37 42 56 43 57 44
REMARK SMILES IDX 61 45 58 46 60 47 59 48 46 49 47 50 51 51 48 52 50 53 49 54
REMARK SMILES IDX 5 55 6 56 7 57 8 58 9 59 10 60 15 61 11 62 14 63 12 64 13 65
REMARK SMILES IDX 16 66 17 67 18 69 19 70 20 71 24 72 21 73 22 74 23 75
REMARK H PARENT 66 22 44 33 16 68
REMARK Flexibility Score: inf
ROOT
ATOM      1  C   UNL A   1      38.518  19.668  24.902  1.00  0.00     0.275 C 
ENDROOT
BRANCH   1   2
ATOM      2  O   UNL A   1      39.519  19.216  25.826  1.00  0.00    -0.458 OA
BRANCH   2   3
ATOM      3  C   UNL A   1      40.803  19.607  25.991  1.00  0.00     0.338 C 
ATOM      4  O   UNL A   1      41.699  18.796  25.766  1.00  0.00    -0.246 OA
BRANCH   3   5
ATOM      5  C   UNL A   1      41.200  20.925  26.572  1.00  0.00     0.060 A 
ATOM      6  C   UNL A   1      41.218  21.256  27.927  1.00  0.00     0.016 A 
ATOM      7  C   UNL A   1      41.583  21.918  25.652  1.00  0.00     0.016 A 
ATOM      8  C   UNL A   1      41.689  22.496  28.362  1.00  0.00     0.010 A 
ATOM      9  C   UNL A   1      42.081  23.152  26.079  1.00  0.00     0.010 A 
ATOM     10  C   UNL A   1      42.135  23.448  27.445  1.00  0.00    -0.014 A 
BRANCH  10  11
ATOM     11  C   UNL A   1      42.476  24.807  27.914  1.00  0.00     0.031 A 
ATOM     12  C   UNL A   1      43.923  25.138  28.126  1.00  0.00     0.074 A 
ATOM     13  C   UNL A   1      41.530  25.751  28.069  1.00  0.00     0.049 A 
ATOM     14  N   UNL A   1      44.464  26.276  28.470  1.00  0.00    -0.248 NA
ATOM     15  C   UNL A   1      44.890  24.052  27.892  1.00  0.00     0.031 C 
ATOM     16  C   UNL A   1      40.106  25.575  27.789  1.00  0.00     0.029 A 
ATOM     17  N   UNL A   1      41.626  27.050  28.494  1.00  0.00    -0.354 N 
ATOM     18  C   UNL A   1      45.833  26.050  28.454  1.00  0.00     0.074 A 
ATOM     19  C   UNL A   1      46.037  24.650  28.161  1.00  0.00     0.031 C 
ATOM     20  C   UNL A   1      39.457  26.714  28.081  1.00  0.00     0.029 A 
ATOM     21  C   UNL A   1      40.412  27.688  28.589  1.00  0.00     0.049 A 
ATOM     22  H   UNL A   1      42.481  27.486  28.710  1.00  0.00     0.167 HD
ATOM     23  C   UNL A   1      46.836  26.941  28.620  1.00  0.00     0.031 A 
ATOM     24  C   UNL A   1      40.105  28.916  29.044  1.00  0.00     0.031 A 
ATOM     25  C   UNL A   1      46.628  28.323  28.943  1.00  0.00     0.049 A 
ATOM     26  C   UNL A   1      41.228  29.841  29.416  1.00  0.00     0.074 A 
ATOM     27  C   UNL A   1      47.567  29.315  29.143  1.00  0.00     0.029 A 
ATOM     28  N   UNL A   1      45.380  28.900  29.133  1.00  0.00    -0.354 N 
ATOM     29  N   UNL A   1      42.521  29.627  29.354  1.00  0.00    -0.248 NA
ATOM     30  C   UNL A   1      40.858  31.186  29.872  1.00  0.00     0.031 C 
ATOM     31  C   UNL A   1      46.888  30.482  29.515  1.00  0.00     0.029 A 
ATOM     32  C   UNL A   1      45.525  30.230  29.486  1.00  0.00     0.049 A 
ATOM     33  H   UNL A   1      44.519  28.433  29.032  1.00  0.00     0.167 HD
ATOM     34  C   UNL A   1      43.120  30.827  29.708  1.00  0.00     0.074 A 
ATOM     35  C   UNL A   1      42.047  31.760  29.993  1.00  0.00     0.031 C 
ATOM     36  C   UNL A   1      44.439  31.136  29.767  1.00  0.00     0.031 A 
BRANCH  23  37
ATOM     37  C   UNL A   1      48.231  26.406  28.475  1.00  0.00    -0.014 A 
ATOM     38  C   UNL A   1      48.882  26.406  27.228  1.00  0.00     0.009 A 
ATOM     39  C   UNL A   1      48.876  25.833  29.578  1.00  0.00     0.009 A 
ATOM     40  C   UNL A   1      50.125  25.789  27.079  1.00  0.00     0.001 A 
ATOM     41  C   UNL A   1      50.134  25.244  29.433  1.00  0.00     0.001 A 
ATOM     42  C   UNL A   1      50.749  25.209  28.182  1.00  0.00     0.000 A 
ENDBRANCH  23  37
BRANCH  24  43
ATOM     43  C   UNL A   1      38.685  29.340  29.173  1.00  0.00    -0.014 A 
ATOM     44  C   UNL A   1      37.957  29.105  30.349  1.00  0.00     0.009 A 
ATOM     45  C   UNL A   1      38.042  29.975  28.097  1.00  0.00     0.009 A 
ATOM     46  C   UNL A   1      36.609  29.470  30.434  1.00  0.00     0.001 A 
ATOM     47  C   UNL A   1      36.701  30.358  28.192  1.00  0.00     0.001 A 
ATOM     48  C   UNL A   1      35.983  30.097  29.357  1.00  0.00     0.000 A 
ENDBRANCH  24  43
BRANCH  36  49
ATOM     49  C   UNL A   1      44.792  32.555  30.104  1.00  0.00    -0.014 A 
ATOM     50  C   UNL A   1      44.889  33.541  29.111  1.00  0.00     0.009 A 
ATOM     51  C   UNL A   1      44.979  32.916  31.448  1.00  0.00     0.009 A 
ATOM     52  C   UNL A   1      45.197  34.857  29.457  1.00  0.00     0.001 A 
ATOM     53  C   UNL A   1      45.252  34.239  31.793  1.00  0.00     0.001 A 
ATOM     54  C   UNL A   1      45.370  35.206  30.797  1.00  0.00     0.000 A 
ENDBRANCH  36  49
ENDBRANCH  10  11
ENDBRANCH   3   5
ENDBRANCH   2   3
ENDBRANCH   1   2
BRANCH   1  55
ATOM     55  C   UNL A   1      37.852  20.997  25.272  1.00  0.00     0.275 C 
BRANCH  55  56
ATOM     56  O   UNL A   1      36.519  21.172  24.764  1.00  0.00    -0.458 OA
BRANCH  56  57
ATOM     57  C   UNL A   1      35.531  21.226  25.697  1.00  0.00     0.340 C 
ATOM     58  O   UNL A   1      35.487  21.943  26.681  1.00  0.00    -0.246 OA
BRANCH  57  59
ATOM     59  C   UNL A   1      34.423  20.343  25.276  1.00  0.00     0.084 A 
ATOM     60  C   UNL A   1      34.744  19.191  24.541  1.00  0.00     0.033 A 
ATOM     61  C   UNL A   1      33.084  20.648  25.597  1.00  0.00     0.056 A 
ATOM     62  C   UNL A   1      33.722  18.379  24.062  1.00  0.00     0.018 A 
ATOM     63  C   UNL A   1      32.095  19.933  24.915  1.00  0.00     0.028 A 
ATOM     64  Br  UNL A   1      34.119  16.711  23.275  1.00  0.00    -0.051 Br
ATOM     65  C   UNL A   1      32.402  18.791  24.172  1.00  0.00     0.018 A 
BRANCH  61  66
ATOM     66  N   UNL A   1      32.793  21.657  26.550  1.00  0.00    -0.320 N 
ATOM     67  C   UNL A   1      32.413  22.985  26.447  1.00  0.00     0.265 C 
ATOM     68  H   UNL A   1      32.880  21.349  27.481  1.00  0.00     0.170 HD
ATOM     69  O   UNL A   1      32.358  23.638  27.489  1.00  0.00    -0.268 OA
BRANCH  67  70
ATOM     70  C   UNL A   1      32.061  23.564  25.166  1.00  0.00     0.093 A 
ATOM     71  C   UNL A   1      30.873  23.492  24.456  1.00  0.00     0.027 A 
ATOM     72  S   UNL A   1      33.220  24.530  24.348  1.00  0.00    -0.123 S 
ATOM     73  C   UNL A   1      30.972  24.119  23.176  1.00  0.00     0.028 A 
ATOM     74  C   UNL A   1      32.197  24.713  23.011  1.00  0.00     0.071 A 
ATOM     75  Br  UNL A   1      32.698  25.633  21.458  1.00  0.00    -0.039 Br
ENDBRANCH  67  70
ENDBRANCH  61  66
ENDBRANCH  57  59
ENDBRANCH  56  57
ENDBRANCH  55  56
ENDBRANCH   1  55
TORSDOF 13
ENDMDL
MODEL 2
REMARK VINA RESULT:     -10.8      3.825      8.609
REMARK SMILES O=C(OCCOC(=O)c1cc(Br)ccc1NC(=O)c1ccc(Br)s1)c1ccc(-c2c3nc(c(-c4ccccc4)c4ccc([nH]4)c(-c4ccccc4)c4nc(c(-c5ccccc5)c5ccc2[nH]5)C=C4)C=C3)cc1
REMARK SMILES IDX 4 1 3 2 2 3 1 4 25 5 26 6 72 7 27 8 71 9 28 10 29 11 30 12
REMARK SMILES IDX 65 13 31 14 70 15 64 16 66 17 32 18 69 19 63 20 62 21 33 23
REMARK SMILES IDX 55 24 40 25 54 26 41 27 44 28 53 29 67 30 42 31 43 32 52 34
REMARK SMILES IDX 68 35 45 36 34 37 35 38 39 39 36 40 38 41 37 42 56 43 57 44
REMARK SMILES IDX 61 45 58 46 60 47 59 48 46 49 47 50 51 51 48 52 50 53 49 54
REMARK SMILES IDX 5 55 6 56 7 57 8 58 9 59 10 60 15 61 11 62 14 63 12 64 13 65
REMARK SMILES IDX 16 66 17 67 18 69 19 70 20 71 24 72 21 73 22 74 23 75
REMARK H PARENT 66 22 44 33 16 68
REMARK Flexibility Score: inf
ROOT
ATOM      1  C   UNL A   1      31.614  31.721  26.955  1.00  0.00     0.275 C 
ENDROOT
BRANCH   1   2
ATOM      2  O   UNL A   1      32.335  32.962  26.981  1.00  0.00    -0.458 OA
BRANCH   2   3
ATOM      3  C   UNL A   1      32.992  33.575  27.991  1.00  0.00     0.338 C 
ATOM      4  O   UNL A   1      32.504  34.591  28.482  1.00  0.00    -0.246 OA
BRANCH   3   5
ATOM      5  C   UNL A   1      34.356  33.176  28.456  1.00  0.00     0.060 A 
ATOM      6  C   UNL A   1      35.561  33.476  27.821  1.00  0.00     0.016 A 
ATOM      7  C   UNL A   1      34.411  32.422  29.642  1.00  0.00     0.016 A 
ATOM      8  C   UNL A   1      36.785  33.123  28.393  1.00  0.00     0.010 A 
ATOM      9  C   UNL A   1      35.631  32.087  30.235  1.00  0.00     0.010 A 
ATOM     10  C   UNL A   1      36.831  32.437  29.607  1.00  0.00    -0.014 A 
BRANCH  10  11
ATOM     11  C   UNL A   1      38.126  31.934  30.110  1.00  0.00     0.031 A 
ATOM     12  C   UNL A   1      38.582  30.580  29.657  1.00  0.00     0.074 A 
ATOM     13  C   UNL A   1      38.918  32.697  30.886  1.00  0.00     0.049 A 
ATOM     14  N   UNL A   1      39.704  29.961  29.912  1.00  0.00    -0.248 NA
ATOM     15  C   UNL A   1      37.666  29.836  28.775  1.00  0.00     0.031 C 
ATOM     16  C   UNL A   1      38.628  34.068  31.301  1.00  0.00     0.029 A 
ATOM     17  N   UNL A   1      40.134  32.428  31.458  1.00  0.00    -0.354 N 
ATOM     18  C   UNL A   1      39.642  28.778  29.192  1.00  0.00     0.074 A 
ATOM     19  C   UNL A   1      38.340  28.719  28.568  1.00  0.00     0.031 C 
ATOM     20  C   UNL A   1      39.623  34.508  32.089  1.00  0.00     0.029 A 
ATOM     21  C   UNL A   1      40.605  33.446  32.252  1.00  0.00     0.049 A 
ATOM     22  H   UNL A   1      40.624  31.586  31.315  1.00  0.00     0.167 HD
ATOM     23  C   UNL A   1      40.603  27.842  29.024  1.00  0.00     0.031 A 
ATOM     24  C   UNL A   1      41.700  33.511  33.031  1.00  0.00     0.031 A 
ATOM     25  C   UNL A   1      41.881  27.889  29.673  1.00  0.00     0.049 A 
ATOM     26  C   UNL A   1      42.675  32.370  32.987  1.00  0.00     0.074 A 
ATOM     27  C   UNL A   1      42.929  26.994  29.585  1.00  0.00     0.029 A 
ATOM     28  N   UNL A   1      42.274  28.888  30.552  1.00  0.00    -0.354 N 
ATOM     29  N   UNL A   1      42.623  31.274  32.267  1.00  0.00    -0.248 NA
ATOM     30  C   UNL A   1      43.877  32.490  33.820  1.00  0.00     0.031 C 
ATOM     31  C   UNL A   1      43.935  27.421  30.461  1.00  0.00     0.029 A 
ATOM     32  C   UNL A   1      43.537  28.614  31.045  1.00  0.00     0.049 A 
ATOM     33  H   UNL A   1      41.734  29.677  30.791  1.00  0.00     0.167 HD
ATOM     34  C   UNL A   1      43.810  30.602  32.515  1.00  0.00     0.074 A 
ATOM     35  C   UNL A   1      44.556  31.409  33.461  1.00  0.00     0.031 C 
ATOM     36  C   UNL A   1      44.255  29.434  31.989  1.00  0.00     0.031 A 
BRANCH  23  37
ATOM     37  C   UNL A   1      40.262  26.693  28.120  1.00  0.00    -0.014 A 
ATOM     38  C   UNL A   1      39.505  25.603  28.588  1.00  0.00     0.009 A 
ATOM     39  C   UNL A   1      40.758  26.664  26.811  1.00  0.00     0.009 A 
ATOM     40  C   UNL A   1      39.304  24.483  27.780  1.00  0.00     0.001 A 
ATOM     41  C   UNL A   1      40.528  25.555  25.994  1.00  0.00     0.001 A 
ATOM     42  C   UNL A   1      39.816  24.461  26.484  1.00  0.00     0.000 A 
ENDBRANCH  23  37
BRANCH  24  43
ATOM     43  C   UNL A   1      41.932  34.688  33.911  1.00  0.00    -0.014 A 
ATOM     44  C   UNL A   1      41.425  34.732  35.219  1.00  0.00     0.009 A 
ATOM     45  C   UNL A   1      42.657  35.791  33.430  1.00  0.00     0.009 A 
ATOM     46  C   UNL A   1      41.616  35.866  36.015  1.00  0.00     0.001 A 
ATOM     47  C   UNL A   1      42.863  36.914  34.236  1.00  0.00     0.001 A 
ATOM     48  C   UNL A   1      42.335  36.955  35.524  1.00  0.00     0.000 A 
ENDBRANCH  24  43
BRANCH  36  49
ATOM     49  C   UNL A   1      45.632  28.988  32.385  1.00  0.00    -0.014 A 
ATOM     50  C   UNL A   1      45.840  28.136  33.479  1.00  0.00     0.009 A 
ATOM     51  C   UNL A   1      46.733  29.391  31.612  1.00  0.00     0.009 A 
ATOM     52  C   UNL A   1      47.130  27.720  33.810  1.00  0.00     0.001 A 
ATOM     53  C   UNL A   1      48.017  28.946  31.925  1.00  0.00     0.001 A 
ATOM     54  C   UNL A   1      48.215  28.119  33.029  1.00  0.00     0.000 A 
ENDBRANCH  36  49
ENDBRANCH  10  11
ENDBRANCH   3   5
ENDBRANCH   2   3
ENDBRANCH   1   2
BRANCH   1  55
ATOM     55  C   UNL A   1      32.476  30.470  27.152  1.00  0.00     0.275 C 
BRANCH  55  56
ATOM     56  O   UNL A   1      31.742  29.246  27.319  1.00  0.00    -0.458 OA
BRANCH  56  57
ATOM     57  C   UNL A   1      32.248  28.159  26.678  1.00  0.00     0.340 C 
ATOM     58  O   UNL A   1      33.237  27.516  26.985  1.00  0.00    -0.246 OA
BRANCH  57  59
ATOM     59  C   UNL A   1      31.335  27.781  25.579  1.00  0.00     0.084 A 
ATOM     60  C   UNL A   1      31.214  28.661  24.492  1.00  0.00     0.033 A 
ATOM     61  C   UNL A   1      30.603  26.576  25.619  1.00  0.00     0.056 A 
ATOM     62  C   UNL A   1      30.306  28.376  23.479  1.00  0.00     0.018 A 
ATOM     63  C   UNL A   1      29.557  26.444  24.701  1.00  0.00     0.028 A 
ATOM     64  Br  UNL A   1      30.283  29.411  21.901  1.00  0.00    -0.051 Br
ATOM     65  C   UNL A   1      29.419  27.319  23.621  1.00  0.00     0.018 A 
BRANCH  61  66
ATOM     66  N   UNL A   1      30.922  25.582  26.577  1.00  0.00    -0.320 N 
ATOM     67  C   UNL A   1      31.711  24.443  26.544  1.00  0.00     0.265 C 
ATOM     68  H   UNL A   1      30.493  25.730  27.451  1.00  0.00     0.170 HD
ATOM     69  O   UNL A   1      31.680  23.707  27.530  1.00  0.00    -0.268 OA
BRANCH  67  70
ATOM     70  C   UNL A   1      32.563  24.158  25.407  1.00  0.00     0.093 A 
ATOM     71  C   UNL A   1      32.237  24.006  24.069  1.00  0.00     0.027 A 
ATOM     72  S   UNL A   1      34.254  24.002  25.659  1.00  0.00    -0.123 S 
ATOM     73  C   UNL A   1      33.365  23.624  23.280  1.00  0.00     0.028 A 
ATOM     74  C   UNL A   1      34.508  23.592  24.037  1.00  0.00     0.071 A 
ATOM     75  Br  UNL A   1      36.189  23.133  23.349  1.00  0.00    -0.039 Br
ENDBRANCH  67  70
ENDBRANCH  61  66
ENDBRANCH  57  59
ENDBRANCH  56  57
ENDBRANCH  55  56
ENDBRANCH   1  55
TORSDOF 13
ENDMDL
MODEL 3
REMARK VINA RESULT:     -10.8      0.445      6.068
REMARK SMILES O=C(OCCOC(=O)c1cc(Br)ccc1NC(=O)c1ccc(Br)s1)c1ccc(-c2c3nc(c(-c4ccccc4)c4ccc([nH]4)c(-c4ccccc4)c4nc(c(-c5ccccc5)c5ccc2[nH]5)C=C4)C=C3)cc1
REMARK SMILES IDX 4 1 3 2 2 3 1 4 25 5 26 6 72 7 27 8 71 9 28 10 29 11 30 12
REMARK SMILES IDX 65 13 31 14 70 15 64 16 66 17 32 18 69 19 63 20 62 21 33 23
REMARK SMILES IDX 55 24 40 25 54 26 41 27 44 28 53 29 67 30 42 31 43 32 52 34
REMARK SMILES IDX 68 35 45 36 34 37 35 38 39 39 36 40 38 41 37 42 56 43 57 44
REMARK SMILES IDX 61 45 58 46 60 47 59 48 46 49 47 50 51 51 48 52 50 53 49 54
REMARK SMILES IDX 5 55 6 56 7 57 8 58 9 59 10 60 15 61 11 62 14 63 12 64 13 65
REMARK SMILES IDX 16 66 17 67 18 69 19 70 20 71 24 72 21 73 22 74 23 75
REMARK H PARENT 66 22 44 33 16 68
REMARK Flexibility Score: inf
ROOT
ATOM      1  C   UNL A   1      38.521  19.945  24.994  1.00  0.00     0.275 C 
ENDROOT
BRANCH   1   2
ATOM      2  O   UNL A   1      39.465  19.421  25.941  1.00  0.00    -0.458 OA
BRANCH   2   3
ATOM      3  C   UNL A   1      40.774  19.705  26.125  1.00  0.00     0.338 C 
ATOM      4  O   UNL A   1      41.599  18.808  25.962  1.00  0.00    -0.246 OA
BRANCH   3   5
ATOM      5  C   UNL A   1      41.274  21.009  26.656  1.00  0.00     0.060 A 
ATOM      6  C   UNL A   1      41.264  21.411  27.992  1.00  0.00     0.016 A 
ATOM      7  C   UNL A   1      41.792  21.908  25.707  1.00  0.00     0.016 A 
ATOM      8  C   UNL A   1      41.836  22.622  28.386  1.00  0.00     0.010 A 
ATOM      9  C   UNL A   1      42.391  23.110  26.094  1.00  0.00     0.010 A 
ATOM     10  C   UNL A   1      42.413  23.474  27.444  1.00  0.00    -0.014 A 
BRANCH  10  11
ATOM     11  C   UNL A   1      42.866  24.818  27.861  1.00  0.00     0.031 A 
ATOM     12  C   UNL A   1      41.833  25.890  28.031  1.00  0.00     0.074 A 
ATOM     13  C   UNL A   1      44.156  25.058  28.161  1.00  0.00     0.049 A 
ATOM     14  N   UNL A   1      41.984  27.119  28.448  1.00  0.00    -0.248 NA
ATOM     15  C   UNL A   1      40.442  25.522  27.718  1.00  0.00     0.031 C 
ATOM     16  C   UNL A   1      45.229  24.066  28.136  1.00  0.00     0.029 A 
ATOM     17  N   UNL A   1      44.781  26.213  28.554  1.00  0.00    -0.354 N 
ATOM     18  C   UNL A   1      40.704  27.653  28.484  1.00  0.00     0.074 A 
ATOM     19  C   UNL A   1      39.803  26.654  27.959  1.00  0.00     0.031 C 
ATOM     20  C   UNL A   1      46.387  24.663  28.466  1.00  0.00     0.029 A 
ATOM     21  C   UNL A   1      46.141  26.079  28.701  1.00  0.00     0.049 A 
ATOM     22  H   UNL A   1      44.303  27.058  28.715  1.00  0.00     0.167 HD
ATOM     23  C   UNL A   1      40.305  28.855  28.959  1.00  0.00     0.031 A 
ATOM     24  C   UNL A   1      47.083  26.996  28.985  1.00  0.00     0.031 A 
ATOM     25  C   UNL A   1      41.208  29.856  29.448  1.00  0.00     0.049 A 
ATOM     26  C   UNL A   1      46.641  28.391  29.323  1.00  0.00     0.074 A 
ATOM     27  C   UNL A   1      40.919  31.113  29.943  1.00  0.00     0.029 A 
ATOM     28  N   UNL A   1      42.588  29.715  29.480  1.00  0.00    -0.354 N 
ATOM     29  N   UNL A   1      45.422  28.871  29.394  1.00  0.00    -0.248 NA
ATOM     30  C   UNL A   1      47.693  29.356  29.664  1.00  0.00     0.031 C 
ATOM     31  C   UNL A   1      42.132  31.755  30.220  1.00  0.00     0.029 A 
ATOM     32  C   UNL A   1      43.171  30.876  29.954  1.00  0.00     0.049 A 
ATOM     33  H   UNL A   1      43.081  28.907  29.206  1.00  0.00     0.167 HD
ATOM     34  C   UNL A   1      45.555  30.176  29.845  1.00  0.00     0.074 A 
ATOM     35  C   UNL A   1      46.975  30.414  30.018  1.00  0.00     0.031 C 
ATOM     36  C   UNL A   1      44.588  31.087  30.114  1.00  0.00     0.031 A 
BRANCH  23  37
ATOM     37  C   UNL A   1      38.829  29.125  28.929  1.00  0.00    -0.014 A 
ATOM     38  C   UNL A   1      38.212  29.656  27.782  1.00  0.00     0.009 A 
ATOM     39  C   UNL A   1      38.057  28.912  30.078  1.00  0.00     0.009 A 
ATOM     40  C   UNL A   1      36.866  30.024  27.808  1.00  0.00     0.001 A 
ATOM     41  C   UNL A   1      36.703  29.252  30.092  1.00  0.00     0.001 A 
ATOM     42  C   UNL A   1      36.114  29.821  28.964  1.00  0.00     0.000 A 
ENDBRANCH  23  37
BRANCH  24  43
ATOM     43  C   UNL A   1      48.525  26.629  28.963  1.00  0.00    -0.014 A 
ATOM     44  C   UNL A   1      49.274  26.689  27.778  1.00  0.00     0.009 A 
ATOM     45  C   UNL A   1      49.157  26.197  30.141  1.00  0.00     0.009 A 
ATOM     46  C   UNL A   1      50.617  26.297  27.769  1.00  0.00     0.001 A 
ATOM     47  C   UNL A   1      50.504  25.825  30.132  1.00  0.00     0.001 A 
ATOM     48  C   UNL A   1      51.231  25.868  28.945  1.00  0.00     0.000 A 
ENDBRANCH  24  43
BRANCH  36  49
ATOM     49  C   UNL A   1      45.032  32.406  30.674  1.00  0.00    -0.014 A 
ATOM     50  C   UNL A   1      45.198  32.598  32.054  1.00  0.00     0.009 A 
ATOM     51  C   UNL A   1      45.338  33.458  29.795  1.00  0.00     0.009 A 
ATOM     52  C   UNL A   1      45.634  33.829  32.543  1.00  0.00     0.001 A 
ATOM     53  C   UNL A   1      45.806  34.676  30.287  1.00  0.00     0.001 A 
ATOM     54  C   UNL A   1      45.944  34.864  31.660  1.00  0.00     0.000 A 
ENDBRANCH  36  49
ENDBRANCH  10  11
ENDBRANCH   3   5
ENDBRANCH   2   3
ENDBRANCH   1   2
BRANCH   1  55
ATOM     55  C   UNL A   1      37.822  21.237  25.428  1.00  0.00     0.275 C 
BRANCH  55  56
ATOM     56  O   UNL A   1      36.476  21.391  24.948  1.00  0.00    -0.458 OA
BRANCH  56  57
ATOM     57  C   UNL A   1      35.498  21.315  25.890  1.00  0.00     0.340 C 
ATOM     58  O   UNL A   1      35.443  21.923  26.944  1.00  0.00    -0.246 OA
BRANCH  57  59
ATOM     59  C   UNL A   1      34.414  20.445  25.388  1.00  0.00     0.084 A 
ATOM     60  C   UNL A   1      34.774  19.293  24.671  1.00  0.00     0.033 A 
ATOM     61  C   UNL A   1      33.059  20.762  25.616  1.00  0.00     0.056 A 
ATOM     62  C   UNL A   1      33.780  18.494  24.117  1.00  0.00     0.018 A 
ATOM     63  C   UNL A   1      32.113  20.060  24.863  1.00  0.00     0.028 A 
ATOM     64  Br  UNL A   1      34.216  16.826  23.351  1.00  0.00    -0.051 Br
ATOM     65  C   UNL A   1      32.459  18.918  24.137  1.00  0.00     0.018 A 
BRANCH  61  66
ATOM     66  N   UNL A   1      32.712  21.769  26.552  1.00  0.00    -0.320 N 
ATOM     67  C   UNL A   1      32.291  23.082  26.427  1.00  0.00     0.265 C 
ATOM     68  H   UNL A   1      32.786  21.472  27.488  1.00  0.00     0.170 HD
ATOM     69  O   UNL A   1      32.189  23.743  27.461  1.00  0.00    -0.268 OA
BRANCH  67  70
ATOM     70  C   UNL A   1      31.951  23.638  25.132  1.00  0.00     0.093 A 
ATOM     71  C   UNL A   1      30.738  23.654  24.464  1.00  0.00     0.027 A 
ATOM     72  S   UNL A   1      33.169  24.448  24.234  1.00  0.00    -0.123 S 
ATOM     73  C   UNL A   1      30.851  24.213  23.154  1.00  0.00     0.028 A 
ATOM     74  C   UNL A   1      32.122  24.674  22.924  1.00  0.00     0.071 A 
ATOM     75  Br  UNL A   1      32.654  25.473  21.315  1.00  0.00    -0.039 Br
ENDBRANCH  67  70
ENDBRANCH  61  66
ENDBRANCH  57  59
ENDBRANCH  56  57
ENDBRANCH  55  56
ENDBRANCH   1  55
TORSDOF 13
ENDMDL
