MODEL 1
REMARK VINA RESULT:     -10.5      0.000      0.000
REMARK SMILES O=C(OCCOC(=O)c1cccc(S(=O)(=O)NC[C@@H]2CCOC2)c1)c1ccc(-c2c3nc(c(-c4ccccc4)c4ccc([nH]4)c(-c4ccccc4)c4nc(c(-c5ccccc5)c5ccc2[nH]5)C=C4)C=C3)cc1
REMARK SMILES IDX 5 1 4 2 3 3 2 4 1 5 25 6 26 7 72 8 27 9 71 10 28 11 29 12
REMARK SMILES IDX 30 13 65 14 31 15 70 16 64 17 66 18 32 19 69 20 63 21 62 22
REMARK SMILES IDX 33 24 55 25 40 26 54 27 41 28 44 29 53 30 67 31 42 32 43 33
REMARK SMILES IDX 52 35 68 36 45 37 34 38 35 39 39 40 36 41 38 42 37 43 56 44
REMARK SMILES IDX 57 45 61 46 58 47 60 48 59 49 46 50 47 51 51 52 48 53 50 54
REMARK SMILES IDX 49 55 6 56 7 57 8 58 9 59 10 60 24 61 11 62 13 63 12 64
REMARK SMILES IDX 14 65 15 66 16 67 17 68 18 70 19 71 20 72 23 73 21 74 22 75
REMARK H PARENT 66 23 44 34 17 69
REMARK Flexibility Score: inf
ROOT
ATOM      1  C   UNL A   1      33.104  31.760  27.331  1.00  0.00     0.275 C 
ENDROOT
BRANCH   1   2
ATOM      2  C   UNL A   1      32.050  32.864  27.248  1.00  0.00     0.275 C 
BRANCH   2   3
ATOM      3  O   UNL A   1      32.501  34.184  27.612  1.00  0.00    -0.458 OA
BRANCH   3   4
ATOM      4  C   UNL A   1      33.074  34.622  28.759  1.00  0.00     0.338 C 
ATOM      5  O   UNL A   1      32.626  35.616  29.326  1.00  0.00    -0.246 OA
BRANCH   4   6
ATOM      6  C   UNL A   1      34.321  34.023  29.309  1.00  0.00     0.060 A 
ATOM      7  C   UNL A   1      35.592  34.192  28.757  1.00  0.00     0.016 A 
ATOM      8  C   UNL A   1      34.179  33.166  30.416  1.00  0.00     0.016 A 
ATOM      9  C   UNL A   1      36.709  33.600  29.354  1.00  0.00     0.010 A 
ATOM     10  C   UNL A   1      35.292  32.565  31.013  1.00  0.00     0.010 A 
ATOM     11  C   UNL A   1      36.567  32.784  30.482  1.00  0.00    -0.014 A 
BRANCH  11  12
ATOM     12  C   UNL A   1      37.749  32.086  31.033  1.00  0.00     0.031 A 
ATOM     13  C   UNL A   1      38.373  32.572  32.306  1.00  0.00     0.074 A 
ATOM     14  C   UNL A   1      38.220  30.971  30.450  1.00  0.00     0.049 A 
ATOM     15  N   UNL A   1      39.331  32.021  33.006  1.00  0.00    -0.248 NA
ATOM     16  C   UNL A   1      37.815  33.799  32.894  1.00  0.00     0.031 C 
ATOM     17  C   UNL A   1      37.656  30.328  29.266  1.00  0.00     0.029 A 
ATOM     18  N   UNL A   1      39.296  30.187  30.782  1.00  0.00    -0.354 N 
ATOM     19  C   UNL A   1      39.416  32.770  34.167  1.00  0.00     0.074 A 
ATOM     20  C   UNL A   1      38.493  33.876  34.030  1.00  0.00     0.031 C 
ATOM     21  C   UNL A   1      38.433  29.281  28.936  1.00  0.00     0.029 A 
ATOM     22  C   UNL A   1      39.566  29.220  29.849  1.00  0.00     0.049 A 
ATOM     23  H   UNL A   1      39.821  30.306  31.606  1.00  0.00     0.167 HD
ATOM     24  C   UNL A   1      40.150  32.519  35.277  1.00  0.00     0.031 A 
ATOM     25  C   UNL A   1      40.628  28.405  29.718  1.00  0.00     0.031 A 
ATOM     26  C   UNL A   1      41.122  31.467  35.391  1.00  0.00     0.049 A 
ATOM     27  C   UNL A   1      41.639  28.338  30.821  1.00  0.00     0.074 A 
ATOM     28  C   UNL A   1      41.906  31.125  36.479  1.00  0.00     0.029 A 
ATOM     29  N   UNL A   1      41.471  30.607  34.361  1.00  0.00    -0.354 N 
ATOM     30  N   UNL A   1      41.658  28.995  31.954  1.00  0.00    -0.248 NA
ATOM     31  C   UNL A   1      42.731  27.369  30.661  1.00  0.00     0.031 C 
ATOM     32  C   UNL A   1      42.763  30.085  36.092  1.00  0.00     0.029 A 
ATOM     33  C   UNL A   1      42.484  29.759  34.775  1.00  0.00     0.049 A 
ATOM     34  H   UNL A   1      41.059  30.602  33.467  1.00  0.00     0.167 HD
ATOM     35  C   UNL A   1      42.717  28.467  32.676  1.00  0.00     0.074 A 
ATOM     36  C   UNL A   1      43.339  27.462  31.837  1.00  0.00     0.031 C 
ATOM     37  C   UNL A   1      43.104  28.762  33.941  1.00  0.00     0.031 A 
BRANCH  24  38
ATOM     38  C   UNL A   1      39.877  33.391  36.464  1.00  0.00    -0.014 A 
ATOM     39  C   UNL A   1      38.868  33.035  37.377  1.00  0.00     0.009 A 
ATOM     40  C   UNL A   1      40.611  34.563  36.678  1.00  0.00     0.009 A 
ATOM     41  C   UNL A   1      38.582  33.856  38.467  1.00  0.00     0.001 A 
ATOM     42  C   UNL A   1      40.331  35.374  37.778  1.00  0.00     0.001 A 
ATOM     43  C   UNL A   1      39.313  35.025  38.667  1.00  0.00     0.000 A 
ENDBRANCH  24  38
BRANCH  25  44
ATOM     44  C   UNL A   1      40.812  27.630  28.469  1.00  0.00    -0.014 A 
ATOM     45  C   UNL A   1      41.496  28.160  27.369  1.00  0.00     0.009 A 
ATOM     46  C   UNL A   1      40.260  26.340  28.378  1.00  0.00     0.009 A 
ATOM     47  C   UNL A   1      41.607  27.419  26.189  1.00  0.00     0.001 A 
ATOM     48  C   UNL A   1      40.383  25.599  27.202  1.00  0.00     0.001 A 
ATOM     49  C   UNL A   1      41.052  26.143  26.106  1.00  0.00     0.000 A 
ENDBRANCH  25  44
BRANCH  37  50
ATOM     50  C   UNL A   1      44.203  27.924  34.522  1.00  0.00    -0.014 A 
ATOM     51  C   UNL A   1      43.936  26.717  35.182  1.00  0.00     0.009 A 
ATOM     52  C   UNL A   1      45.533  28.360  34.405  1.00  0.00     0.009 A 
ATOM     53  C   UNL A   1      44.978  25.978  35.746  1.00  0.00     0.001 A 
ATOM     54  C   UNL A   1      46.575  27.609  34.949  1.00  0.00     0.001 A 
ATOM     55  C   UNL A   1      46.295  26.423  35.626  1.00  0.00     0.000 A 
ENDBRANCH  37  50
ENDBRANCH  11  12
ENDBRANCH   4   6
ENDBRANCH   3   4
ENDBRANCH   2   3
ENDBRANCH   1   2
BRANCH   1  56
ATOM     56  O   UNL A   1      32.603  30.466  26.971  1.00  0.00    -0.458 OA
BRANCH  56  57
ATOM     57  C   UNL A   1      33.547  29.491  26.993  1.00  0.00     0.338 C 
ATOM     58  O   UNL A   1      34.587  29.501  27.629  1.00  0.00    -0.246 OA
BRANCH  57  59
ATOM     59  C   UNL A   1      33.131  28.341  26.165  1.00  0.00     0.061 A 
ATOM     60  C   UNL A   1      34.027  27.271  26.044  1.00  0.00     0.016 A 
ATOM     61  C   UNL A   1      31.927  28.343  25.453  1.00  0.00     0.037 A 
ATOM     62  C   UNL A   1      33.718  26.193  25.219  1.00  0.00     0.002 A 
ATOM     63  C   UNL A   1      31.682  27.320  24.538  1.00  0.00     0.083 A 
ATOM     64  C   UNL A   1      32.556  26.227  24.450  1.00  0.00     0.022 A 
BRANCH  63  65
ATOM     65  S   UNL A   1      30.398  27.397  23.315  1.00  0.00     0.240 S 
ATOM     66  O   UNL A   1      30.997  27.029  22.046  1.00  0.00    -0.207 OA
ATOM     67  O   UNL A   1      29.277  26.661  23.842  1.00  0.00    -0.207 OA
BRANCH  65  68
ATOM     68  N   UNL A   1      29.870  28.973  23.196  1.00  0.00    -0.211 NA
ATOM     69  H   UNL A   1      30.535  29.513  23.749  1.00  0.00     0.141 HD
BRANCH  68  70
ATOM     70  C   UNL A   1      29.676  29.757  21.978  1.00  0.00     0.105 C 
BRANCH  70  71
ATOM     71  C   UNL A   1      28.231  30.092  21.625  1.00  0.00     0.032 C 
ATOM     72  C   UNL A   1      28.036  31.599  21.591  1.00  0.00     0.036 C 
ATOM     73  C   UNL A   1      27.265  29.705  22.728  1.00  0.00     0.165 C 
ATOM     74  C   UNL A   1      27.810  31.951  23.046  1.00  0.00     0.160 C 
ATOM     75  O   UNL A   1      27.282  30.779  23.682  1.00  0.00    -0.381 OA
ENDBRANCH  70  71
ENDBRANCH  68  70
ENDBRANCH  65  68
ENDBRANCH  63  65
ENDBRANCH  57  59
ENDBRANCH  56  57
ENDBRANCH   1  56
TORSDOF 15
ENDMDL
MODEL 2
REMARK VINA RESULT:     -10.5      6.106     10.763
REMARK SMILES O=C(OCCOC(=O)c1cccc(S(=O)(=O)NC[C@@H]2CCOC2)c1)c1ccc(-c2c3nc(c(-c4ccccc4)c4ccc([nH]4)c(-c4ccccc4)c4nc(c(-c5ccccc5)c5ccc2[nH]5)C=C4)C=C3)cc1
REMARK SMILES IDX 5 1 4 2 3 3 2 4 1 5 25 6 26 7 72 8 27 9 71 10 28 11 29 12
REMARK SMILES IDX 30 13 65 14 31 15 70 16 64 17 66 18 32 19 69 20 63 21 62 22
REMARK SMILES IDX 33 24 55 25 40 26 54 27 41 28 44 29 53 30 67 31 42 32 43 33
REMARK SMILES IDX 52 35 68 36 45 37 34 38 35 39 39 40 36 41 38 42 37 43 56 44
REMARK SMILES IDX 57 45 61 46 58 47 60 48 59 49 46 50 47 51 51 52 48 53 50 54
REMARK SMILES IDX 49 55 6 56 7 57 8 58 9 59 10 60 24 61 11 62 13 63 12 64
REMARK SMILES IDX 14 65 15 66 16 67 17 68 18 70 19 71 20 72 23 73 21 74 22 75
REMARK H PARENT 66 23 44 34 17 69
REMARK Flexibility Score: inf
ROOT
ATOM      1  C   UNL A   1      38.966  20.786  25.640  1.00  0.00     0.275 C 
ENDROOT
BRANCH   1   2
ATOM      2  C   UNL A   1      39.259  19.291  25.763  1.00  0.00     0.275 C 
BRANCH   2   3
ATOM      3  O   UNL A   1      40.628  18.902  25.527  1.00  0.00    -0.458 OA
BRANCH   3   4
ATOM      4  C   UNL A   1      41.760  19.277  26.169  1.00  0.00     0.338 C 
ATOM      5  O   UNL A   1      42.534  18.422  26.594  1.00  0.00    -0.246 OA
BRANCH   4   6
ATOM      6  C   UNL A   1      42.058  20.697  26.503  1.00  0.00     0.060 A 
ATOM      7  C   UNL A   1      42.552  21.637  25.597  1.00  0.00     0.016 A 
ATOM      8  C   UNL A   1      41.898  21.080  27.847  1.00  0.00     0.016 A 
ATOM      9  C   UNL A   1      42.788  22.954  26.001  1.00  0.00     0.010 A 
ATOM     10  C   UNL A   1      42.140  22.394  28.258  1.00  0.00     0.010 A 
ATOM     11  C   UNL A   1      42.585  23.341  27.330  1.00  0.00    -0.014 A 
BRANCH  11  12
ATOM     12  C   UNL A   1      42.941  24.712  27.755  1.00  0.00     0.031 A 
ATOM     13  C   UNL A   1      44.376  25.068  27.994  1.00  0.00     0.074 A 
ATOM     14  C   UNL A   1      41.999  25.666  27.849  1.00  0.00     0.049 A 
ATOM     15  N   UNL A   1      44.894  26.243  28.248  1.00  0.00    -0.248 NA
ATOM     16  C   UNL A   1      45.359  23.980  27.880  1.00  0.00     0.031 C 
ATOM     17  C   UNL A   1      40.580  25.492  27.553  1.00  0.00     0.029 A 
ATOM     18  N   UNL A   1      42.106  26.980  28.232  1.00  0.00    -0.354 N 
ATOM     19  C   UNL A   1      46.265  26.056  28.216  1.00  0.00     0.074 A 
ATOM     20  C   UNL A   1      46.499  24.640  28.028  1.00  0.00     0.031 C 
ATOM     21  C   UNL A   1      39.940  26.642  27.828  1.00  0.00     0.029 A 
ATOM     22  C   UNL A   1      40.893  27.603  28.365  1.00  0.00     0.049 A 
ATOM     23  H   UNL A   1      42.967  27.429  28.396  1.00  0.00     0.167 HD
ATOM     24  C   UNL A   1      47.242  26.993  28.270  1.00  0.00     0.031 A 
ATOM     25  C   UNL A   1      40.578  28.796  28.899  1.00  0.00     0.031 A 
ATOM     26  C   UNL A   1      47.020  28.388  28.531  1.00  0.00     0.049 A 
ATOM     27  C   UNL A   1      41.676  29.748  29.263  1.00  0.00     0.074 A 
ATOM     28  C   UNL A   1      47.945  29.416  28.592  1.00  0.00     0.029 A 
ATOM     29  N   UNL A   1      45.783  28.945  28.813  1.00  0.00    -0.354 N 
ATOM     30  N   UNL A   1      42.971  29.586  29.146  1.00  0.00    -0.248 NA
ATOM     31  C   UNL A   1      41.271  31.068  29.762  1.00  0.00     0.031 C 
ATOM     32  C   UNL A   1      47.270  30.590  28.957  1.00  0.00     0.029 A 
ATOM     33  C   UNL A   1      45.923  30.296  29.085  1.00  0.00     0.049 A 
ATOM     34  H   UNL A   1      44.931  28.453  28.819  1.00  0.00     0.167 HD
ATOM     35  C   UNL A   1      43.533  30.807  29.484  1.00  0.00     0.074 A 
ATOM     36  C   UNL A   1      42.441  31.687  29.847  1.00  0.00     0.031 C 
ATOM     37  C   UNL A   1      44.838  31.171  29.448  1.00  0.00     0.031 A 
BRANCH  24  38
ATOM     38  C   UNL A   1      48.635  26.514  27.995  1.00  0.00    -0.014 A 
ATOM     39  C   UNL A   1      49.113  26.474  26.673  1.00  0.00     0.009 A 
ATOM     40  C   UNL A   1      49.471  26.102  29.039  1.00  0.00     0.009 A 
ATOM     41  C   UNL A   1      50.395  25.999  26.401  1.00  0.00     0.001 A 
ATOM     42  C   UNL A   1      50.759  25.641  28.763  1.00  0.00     0.001 A 
ATOM     43  C   UNL A   1      51.218  25.583  27.446  1.00  0.00     0.000 A 
ENDBRANCH  24  38
BRANCH  25  44
ATOM     44  C   UNL A   1      39.161  29.130  29.170  1.00  0.00    -0.014 A 
ATOM     45  C   UNL A   1      38.550  28.811  30.388  1.00  0.00     0.009 A 
ATOM     46  C   UNL A   1      38.403  29.760  28.166  1.00  0.00     0.009 A 
ATOM     47  C   UNL A   1      37.197  29.097  30.590  1.00  0.00     0.001 A 
ATOM     48  C   UNL A   1      37.055  30.053  28.376  1.00  0.00     0.001 A 
ATOM     49  C   UNL A   1      36.452  29.716  29.587  1.00  0.00     0.000 A 
ENDBRANCH  25  44
BRANCH  37  50
ATOM     50  C   UNL A   1      45.143  32.611  29.731  1.00  0.00    -0.014 A 
ATOM     51  C   UNL A   1      45.127  33.578  28.716  1.00  0.00     0.009 A 
ATOM     52  C   UNL A   1      45.456  33.002  31.043  1.00  0.00     0.009 A 
ATOM     53  C   UNL A   1      45.454  34.905  29.005  1.00  0.00     0.001 A 
ATOM     54  C   UNL A   1      45.758  34.332  31.333  1.00  0.00     0.001 A 
ATOM     55  C   UNL A   1      45.766  35.281  30.312  1.00  0.00     0.000 A 
ENDBRANCH  37  50
ENDBRANCH  11  12
ENDBRANCH   4   6
ENDBRANCH   3   4
ENDBRANCH   2   3
ENDBRANCH   1   2
BRANCH   1  56
ATOM     56  O   UNL A   1      37.567  21.091  25.602  1.00  0.00    -0.458 OA
BRANCH  56  57
ATOM     57  C   UNL A   1      37.295  22.417  25.711  1.00  0.00     0.338 C 
ATOM     58  O   UNL A   1      38.081  23.296  26.022  1.00  0.00    -0.246 OA
BRANCH  57  59
ATOM     59  C   UNL A   1      35.892  22.696  25.342  1.00  0.00     0.061 A 
ATOM     60  C   UNL A   1      35.470  24.031  25.363  1.00  0.00     0.016 A 
ATOM     61  C   UNL A   1      34.985  21.668  25.065  1.00  0.00     0.037 A 
ATOM     62  C   UNL A   1      34.141  24.346  25.095  1.00  0.00     0.002 A 
ATOM     63  C   UNL A   1      33.635  21.981  24.918  1.00  0.00     0.083 A 
ATOM     64  C   UNL A   1      33.219  23.320  24.893  1.00  0.00     0.022 A 
BRANCH  63  65
ATOM     65  S   UNL A   1      32.346  20.761  24.942  1.00  0.00     0.240 S 
ATOM     66  O   UNL A   1      31.179  21.385  25.533  1.00  0.00    -0.207 OA
ATOM     67  O   UNL A   1      32.287  20.193  23.618  1.00  0.00    -0.207 OA
BRANCH  65  68
ATOM     68  N   UNL A   1      32.817  19.507  25.934  1.00  0.00    -0.211 NA
ATOM     69  H   UNL A   1      32.345  19.686  26.820  1.00  0.00     0.141 HD
BRANCH  68  70
ATOM     70  C   UNL A   1      32.644  18.075  25.701  1.00  0.00     0.105 C 
BRANCH  70  71
ATOM     71  C   UNL A   1      33.928  17.264  25.569  1.00  0.00     0.032 C 
ATOM     72  C   UNL A   1      34.710  17.714  24.346  1.00  0.00     0.036 C 
ATOM     73  C   UNL A   1      33.659  15.814  25.217  1.00  0.00     0.165 C 
ATOM     74  C   UNL A   1      34.055  16.947  23.217  1.00  0.00     0.160 C 
ATOM     75  O   UNL A   1      33.482  15.765  23.792  1.00  0.00    -0.381 OA
ENDBRANCH  70  71
ENDBRANCH  68  70
ENDBRANCH  65  68
ENDBRANCH  63  65
ENDBRANCH  57  59
ENDBRANCH  56  57
ENDBRANCH   1  56
TORSDOF 15
ENDMDL
MODEL 3
REMARK VINA RESULT:     -10.5      5.025      9.688
REMARK SMILES O=C(OCCOC(=O)c1cccc(S(=O)(=O)NC[C@@H]2CCOC2)c1)c1ccc(-c2c3nc(c(-c4ccccc4)c4ccc([nH]4)c(-c4ccccc4)c4nc(c(-c5ccccc5)c5ccc2[nH]5)C=C4)C=C3)cc1
REMARK SMILES IDX 5 1 4 2 3 3 2 4 1 5 25 6 26 7 72 8 27 9 71 10 28 11 29 12
REMARK SMILES IDX 30 13 65 14 31 15 70 16 64 17 66 18 32 19 69 20 63 21 62 22
REMARK SMILES IDX 33 24 55 25 40 26 54 27 41 28 44 29 53 30 67 31 42 32 43 33
REMARK SMILES IDX 52 35 68 36 45 37 34 38 35 39 39 40 36 41 38 42 37 43 56 44
REMARK SMILES IDX 57 45 61 46 58 47 60 48 59 49 46 50 47 51 51 52 48 53 50 54
REMARK SMILES IDX 49 55 6 56 7 57 8 58 9 59 10 60 24 61 11 62 13 63 12 64
REMARK SMILES IDX 14 65 15 66 16 67 17 68 18 70 19 71 20 72 23 73 21 74 22 75
REMARK H PARENT 66 23 44 34 17 69
REMARK Flexibility Score: inf
ROOT
ATOM      1  C   UNL A   1      37.992  20.945  25.484  1.00  0.00     0.275 C 
ENDROOT
BRANCH   1   2
ATOM      2  C   UNL A   1      38.714  19.711  24.942  1.00  0.00     0.275 C 
BRANCH   2   3
ATOM      3  O   UNL A   1      39.706  19.135  25.815  1.00  0.00    -0.458 OA
BRANCH   3   4
ATOM      4  C   UNL A   1      41.003  19.478  26.004  1.00  0.00     0.338 C 
ATOM      5  O   UNL A   1      41.889  18.651  25.805  1.00  0.00    -0.246 OA
BRANCH   4   6
ATOM      6  C   UNL A   1      41.408  20.793  26.572  1.00  0.00     0.060 A 
ATOM      7  C   UNL A   1      41.185  21.188  27.892  1.00  0.00     0.016 A 
ATOM      8  C   UNL A   1      41.983  21.720  25.683  1.00  0.00     0.016 A 
ATOM      9  C   UNL A   1      41.615  22.441  28.340  1.00  0.00     0.010 A 
ATOM     10  C   UNL A   1      42.408  22.977  26.123  1.00  0.00     0.010 A 
ATOM     11  C   UNL A   1      42.226  23.342  27.461  1.00  0.00    -0.014 A 
BRANCH  11  12
ATOM     12  C   UNL A   1      42.578  24.698  27.933  1.00  0.00     0.031 A 
ATOM     13  C   UNL A   1      43.997  25.015  28.296  1.00  0.00     0.074 A 
ATOM     14  C   UNL A   1      41.655  25.675  27.961  1.00  0.00     0.049 A 
ATOM     15  N   UNL A   1      44.520  26.173  28.609  1.00  0.00    -0.248 NA
ATOM     16  C   UNL A   1      44.959  23.904  28.250  1.00  0.00     0.031 C 
ATOM     17  C   UNL A   1      40.262  25.541  27.544  1.00  0.00     0.029 A 
ATOM     18  N   UNL A   1      41.762  26.981  28.369  1.00  0.00    -0.354 N 
ATOM     19  C   UNL A   1      45.884  25.952  28.689  1.00  0.00     0.074 A 
ATOM     20  C   UNL A   1      46.098  24.532  28.502  1.00  0.00     0.031 C 
ATOM     21  C   UNL A   1      39.630  26.703  27.780  1.00  0.00     0.029 A 
ATOM     22  C   UNL A   1      40.558  27.633  28.409  1.00  0.00     0.049 A 
ATOM     23  H   UNL A   1      42.617  27.406  28.610  1.00  0.00     0.167 HD
ATOM     24  C   UNL A   1      46.875  26.862  28.838  1.00  0.00     0.031 A 
ATOM     25  C   UNL A   1      40.229  28.827  28.930  1.00  0.00     0.031 A 
ATOM     26  C   UNL A   1      46.666  28.259  29.098  1.00  0.00     0.049 A 
ATOM     27  C   UNL A   1      41.315  29.747  29.398  1.00  0.00     0.074 A 
ATOM     28  C   UNL A   1      47.608  29.263  29.251  1.00  0.00     0.029 A 
ATOM     29  N   UNL A   1      45.424  28.845  29.283  1.00  0.00    -0.354 N 
ATOM     30  N   UNL A   1      42.610  29.553  29.388  1.00  0.00    -0.248 NA
ATOM     31  C   UNL A   1      40.902  31.071  29.879  1.00  0.00     0.031 C 
ATOM     32  C   UNL A   1      46.934  30.449  29.574  1.00  0.00     0.029 A 
ATOM     33  C   UNL A   1      45.573  30.189  29.585  1.00  0.00     0.049 A 
ATOM     34  H   UNL A   1      44.563  28.375  29.211  1.00  0.00     0.167 HD
ATOM     35  C   UNL A   1      43.172  30.756  29.788  1.00  0.00     0.074 A 
ATOM     36  C   UNL A   1      42.075  31.659  30.070  1.00  0.00     0.031 C 
ATOM     37  C   UNL A   1      44.484  31.087  29.867  1.00  0.00     0.031 A 
BRANCH  24  38
ATOM     38  C   UNL A   1      48.274  26.352  28.674  1.00  0.00    -0.014 A 
ATOM     39  C   UNL A   1      48.875  26.352  27.403  1.00  0.00     0.009 A 
ATOM     40  C   UNL A   1      48.995  25.869  29.772  1.00  0.00     0.009 A 
ATOM     41  C   UNL A   1      50.164  25.848  27.232  1.00  0.00     0.001 A 
ATOM     42  C   UNL A   1      50.291  25.379  29.599  1.00  0.00     0.001 A 
ATOM     43  C   UNL A   1      50.871  25.362  28.330  1.00  0.00     0.000 A 
ENDBRANCH  24  38
BRANCH  25  44
ATOM     44  C   UNL A   1      38.802  29.195  29.086  1.00  0.00    -0.014 A 
ATOM     45  C   UNL A   1      38.101  29.866  28.076  1.00  0.00     0.009 A 
ATOM     46  C   UNL A   1      38.144  28.889  30.290  1.00  0.00     0.009 A 
ATOM     47  C   UNL A   1      36.770  30.242  28.277  1.00  0.00     0.001 A 
ATOM     48  C   UNL A   1      36.812  29.256  30.483  1.00  0.00     0.001 A 
ATOM     49  C   UNL A   1      36.128  29.938  29.477  1.00  0.00     0.000 A 
ENDBRANCH  25  44
BRANCH  37  50
ATOM     50  C   UNL A   1      44.799  32.515  30.194  1.00  0.00    -0.014 A 
ATOM     51  C   UNL A   1      44.910  33.491  29.193  1.00  0.00     0.009 A 
ATOM     52  C   UNL A   1      44.992  32.886  31.535  1.00  0.00     0.009 A 
ATOM     53  C   UNL A   1      45.243  34.805  29.527  1.00  0.00     0.001 A 
ATOM     54  C   UNL A   1      45.302  34.204  31.868  1.00  0.00     0.001 A 
ATOM     55  C   UNL A   1      45.435  35.161  30.862  1.00  0.00     0.000 A 
ENDBRANCH  37  50
ENDBRANCH  11  12
ENDBRANCH   4   6
ENDBRANCH   3   4
ENDBRANCH   2   3
ENDBRANCH   1   2
BRANCH   1  56
ATOM     56  O   UNL A   1      36.581  20.934  25.238  1.00  0.00    -0.458 OA
BRANCH  56  57
ATOM     57  C   UNL A   1      35.945  22.057  25.659  1.00  0.00     0.338 C 
ATOM     58  O   UNL A   1      36.467  23.117  25.959  1.00  0.00    -0.246 OA
BRANCH  57  59
ATOM     59  C   UNL A   1      34.481  21.860  25.661  1.00  0.00     0.061 A 
ATOM     60  C   UNL A   1      33.975  20.753  24.969  1.00  0.00     0.016 A 
ATOM     61  C   UNL A   1      33.616  22.784  26.255  1.00  0.00     0.037 A 
ATOM     62  C   UNL A   1      32.599  20.558  24.878  1.00  0.00     0.002 A 
ATOM     63  C   UNL A   1      32.242  22.647  26.056  1.00  0.00     0.083 A 
ATOM     64  C   UNL A   1      31.733  21.516  25.403  1.00  0.00     0.022 A 
BRANCH  63  65
ATOM     65  S   UNL A   1      31.074  23.932  26.422  1.00  0.00     0.240 S 
ATOM     66  O   UNL A   1      30.054  23.351  27.273  1.00  0.00    -0.207 OA
ATOM     67  O   UNL A   1      31.837  25.074  26.862  1.00  0.00    -0.207 OA
BRANCH  65  68
ATOM     68  N   UNL A   1      30.348  24.413  25.002  1.00  0.00    -0.211 NA
ATOM     69  H   UNL A   1      29.950  25.328  25.210  1.00  0.00     0.141 HD
BRANCH  68  70
ATOM     70  C   UNL A   1      30.974  24.568  23.691  1.00  0.00     0.105 C 
BRANCH  70  71
ATOM     71  C   UNL A   1      31.797  25.837  23.494  1.00  0.00     0.032 C 
ATOM     72  C   UNL A   1      31.610  26.370  22.083  1.00  0.00     0.036 C 
ATOM     73  C   UNL A   1      33.288  25.563  23.499  1.00  0.00     0.165 C 
ATOM     74  C   UNL A   1      32.593  25.552  21.272  1.00  0.00     0.160 C 
ATOM     75  O   UNL A   1      33.630  25.135  22.171  1.00  0.00    -0.381 OA
ENDBRANCH  70  71
ENDBRANCH  68  70
ENDBRANCH  65  68
ENDBRANCH  63  65
ENDBRANCH  57  59
ENDBRANCH  56  57
ENDBRANCH   1  56
TORSDOF 15
ENDMDL
