MODEL 1
REMARK VINA RESULT:     -11.3      0.000      0.000
REMARK SMILES C[C@@H]1CCC/C(=C\Nc2ccc(C(=O)OCCOC(=O)c3ccc(-c4c5nc(c(-c6ccccc6)c6ccc([nH]6)c(-c6ccccc6)c6nc(c(-c7ccccc7)c7ccc4[nH]7)C=C6)C=C5)cc3)c(O)c2)C1=O
REMARK SMILES IDX 16 1 15 2 13 3 14 4 12 5 9 6 10 7 71 8 11 9 69 10 8 11 7 13
REMARK SMILES IDX 1 14 2 15 3 16 72 17 4 18 6 19 73 20 5 21 70 22 17 24 18 25
REMARK SMILES IDX 19 26 20 27 21 28 22 29 68 30 23 31 67 32 24 33 25 34 26 35
REMARK SMILES IDX 61 36 27 37 66 38 60 39 62 40 28 41 65 42 59 43 58 44 29 46
REMARK SMILES IDX 51 47 36 48 50 49 37 50 40 51 49 52 63 53 38 54 39 55 48 57
REMARK SMILES IDX 64 58 41 59 30 60 31 61 35 62 32 63 34 64 33 65 52 66 53 67
REMARK SMILES IDX 57 68 54 69 56 70 55 71 42 72 43 73 47 74 44 75 46 76 45 77
REMARK H PARENT 8 12 70 23 62 45 40 56
REMARK Flexibility Score: inf
ROOT
ATOM      1  C   UNL A   1      42.619  20.491  26.233  1.00  0.00     0.275 C 
ENDROOT
BRANCH   1   2
ATOM      2  O   UNL A   1      41.238  20.654  25.841  1.00  0.00    -0.458 OA
BRANCH   2   3
ATOM      3  C   UNL A   1      40.400  21.121  26.804  1.00  0.00     0.342 C 
ATOM      4  O   UNL A   1      40.617  21.140  28.004  1.00  0.00    -0.246 OA
BRANCH   3   5
ATOM      5  C   UNL A   1      39.189  21.721  26.188  1.00  0.00     0.101 A 
ATOM      6  C   UNL A   1      36.953  23.031  25.062  1.00  0.00     0.042 A 
ATOM      7  C   UNL A   1      37.844  23.723  25.889  1.00  0.00     0.027 A 
ATOM      8  C   UNL A   1      37.193  21.675  24.810  1.00  0.00     0.073 A 
ATOM      9  C   UNL A   1      38.921  23.065  26.482  1.00  0.00     0.022 A 
ATOM     10  C   UNL A   1      38.313  21.031  25.348  1.00  0.00     0.132 A 
BRANCH   6  11
ATOM     11  N   UNL A   1      35.880  23.680  24.436  1.00  0.00    -0.361 N 
ATOM     12  H   UNL A   1      36.027  24.611  24.151  1.00  0.00     0.166 HD
BRANCH  11  13
ATOM     13  C   UNL A   1      34.643  23.141  24.183  1.00  0.00     0.090 C 
ATOM     14  C   UNL A   1      30.739  23.999  23.637  1.00  0.00     0.016 C 
ATOM     15  C   UNL A   1      31.031  22.990  24.745  1.00  0.00     0.058 C 
ATOM     16  C   UNL A   1      30.960  23.610  26.146  1.00  0.00     0.012 C 
ATOM     17  C   UNL A   1      32.379  22.343  24.477  1.00  0.00     0.163 C 
ATOM     18  C   UNL A   1      32.186  24.449  26.501  1.00  0.00     0.006 C 
ATOM     19  C   UNL A   1      33.590  23.042  25.007  1.00  0.00     0.011 C 
ATOM     20  O   UNL A   1      32.483  21.336  23.781  1.00  0.00    -0.294 OA
ATOM     21  C   UNL A   1      33.468  23.626  26.378  1.00  0.00     0.041 C 
ENDBRANCH  11  13
ENDBRANCH   6  11
BRANCH  10  22
ATOM     22  O   UNL A   1      38.471  19.716  25.001  1.00  0.00    -0.507 OA
ATOM     23  H   UNL A   1      39.280  19.424  24.630  1.00  0.00     0.293 HD
ENDBRANCH  10  22
ENDBRANCH   3   5
ENDBRANCH   2   3
ENDBRANCH   1   2
BRANCH   1  24
ATOM     24  C   UNL A   1      43.536  21.363  25.376  1.00  0.00     0.275 C 
BRANCH  24  25
ATOM     25  O   UNL A   1      42.844  22.562  24.982  1.00  0.00    -0.458 OA
BRANCH  25  26
ATOM     26  C   UNL A   1      43.583  23.695  24.967  1.00  0.00     0.338 C 
ATOM     27  O   UNL A   1      44.549  23.948  24.270  1.00  0.00    -0.246 OA
BRANCH  26  28
ATOM     28  C   UNL A   1      43.027  24.643  25.944  1.00  0.00     0.060 A 
ATOM     29  C   UNL A   1      43.355  25.993  25.841  1.00  0.00     0.016 A 
ATOM     30  C   UNL A   1      42.272  24.184  27.021  1.00  0.00     0.016 A 
ATOM     31  C   UNL A   1      42.992  26.884  26.848  1.00  0.00     0.010 A 
ATOM     32  C   UNL A   1      41.836  25.094  27.990  1.00  0.00     0.010 A 
ATOM     33  C   UNL A   1      42.215  26.450  27.930  1.00  0.00    -0.014 A 
BRANCH  33  34
ATOM     34  C   UNL A   1      41.825  27.391  29.015  1.00  0.00     0.031 A 
ATOM     35  C   UNL A   1      42.619  27.434  30.294  1.00  0.00     0.074 A 
ATOM     36  C   UNL A   1      40.762  28.208  28.872  1.00  0.00     0.049 A 
ATOM     37  N   UNL A   1      42.321  28.007  31.433  1.00  0.00    -0.248 NA
ATOM     38  C   UNL A   1      43.911  26.730  30.293  1.00  0.00     0.031 C 
ATOM     39  C   UNL A   1      39.936  28.330  27.670  1.00  0.00     0.029 A 
ATOM     40  N   UNL A   1      40.193  29.094  29.755  1.00  0.00    -0.354 N 
ATOM     41  C   UNL A   1      43.356  27.679  32.301  1.00  0.00     0.074 A 
ATOM     42  C   UNL A   1      44.292  26.865  31.556  1.00  0.00     0.031 C 
ATOM     43  C   UNL A   1      38.987  29.255  27.880  1.00  0.00     0.029 A 
ATOM     44  C   UNL A   1      39.080  29.727  29.258  1.00  0.00     0.049 A 
ATOM     45  H   UNL A   1      40.550  29.260  30.658  1.00  0.00     0.167 HD
ATOM     46  C   UNL A   1      43.506  28.016  33.604  1.00  0.00     0.031 A 
ATOM     47  C   UNL A   1      38.199  30.554  29.852  1.00  0.00     0.031 A 
ATOM     48  C   UNL A   1      42.600  28.863  34.334  1.00  0.00     0.049 A 
ATOM     49  C   UNL A   1      38.360  30.880  31.308  1.00  0.00     0.074 A 
ATOM     50  C   UNL A   1      42.672  29.265  35.657  1.00  0.00     0.029 A 
ATOM     51  N   UNL A   1      41.469  29.454  33.795  1.00  0.00    -0.354 N 
ATOM     52  N   UNL A   1      39.300  30.502  32.139  1.00  0.00    -0.248 NA
ATOM     53  C   UNL A   1      37.322  31.727  31.916  1.00  0.00     0.031 C 
ATOM     54  C   UNL A   1      41.564  30.075  35.928  1.00  0.00     0.029 A 
ATOM     55  C   UNL A   1      40.827  30.209  34.762  1.00  0.00     0.049 A 
ATOM     56  H   UNL A   1      41.166  29.352  32.864  1.00  0.00     0.167 HD
ATOM     57  C   UNL A   1      38.975  31.071  33.363  1.00  0.00     0.074 A 
ATOM     58  C   UNL A   1      37.759  31.834  33.163  1.00  0.00     0.031 C 
ATOM     59  C   UNL A   1      39.623  30.964  34.547  1.00  0.00     0.031 A 
BRANCH  46  60
ATOM     60  C   UNL A   1      44.672  27.425  34.343  1.00  0.00    -0.014 A 
ATOM     61  C   UNL A   1      45.894  28.105  34.455  1.00  0.00     0.009 A 
ATOM     62  C   UNL A   1      44.527  26.177  34.971  1.00  0.00     0.009 A 
ATOM     63  C   UNL A   1      46.957  27.531  35.157  1.00  0.00     0.001 A 
ATOM     64  C   UNL A   1      45.583  25.618  35.692  1.00  0.00     0.001 A 
ATOM     65  C   UNL A   1      46.799  26.291  35.777  1.00  0.00     0.000 A 
ENDBRANCH  46  60
BRANCH  47  66
ATOM     66  C   UNL A   1      37.045  31.081  29.079  1.00  0.00    -0.014 A 
ATOM     67  C   UNL A   1      35.980  30.241  28.725  1.00  0.00     0.009 A 
ATOM     68  C   UNL A   1      37.000  32.433  28.702  1.00  0.00     0.009 A 
ATOM     69  C   UNL A   1      34.896  30.743  28.000  1.00  0.00     0.001 A 
ATOM     70  C   UNL A   1      35.904  32.938  28.001  1.00  0.00     0.001 A 
ATOM     71  C   UNL A   1      34.856  32.092  27.645  1.00  0.00     0.000 A 
ENDBRANCH  47  66
BRANCH  59  72
ATOM     72  C   UNL A   1      39.049  31.716  35.711  1.00  0.00    -0.014 A 
ATOM     73  C   UNL A   1      39.356  33.069  35.920  1.00  0.00     0.009 A 
ATOM     74  C   UNL A   1      38.153  31.075  36.579  1.00  0.00     0.009 A 
ATOM     75  C   UNL A   1      38.790  33.760  36.993  1.00  0.00     0.001 A 
ATOM     76  C   UNL A   1      37.573  31.773  37.639  1.00  0.00     0.001 A 
ATOM     77  C   UNL A   1      37.896  33.113  37.848  1.00  0.00     0.000 A 
ENDBRANCH  59  72
ENDBRANCH  33  34
ENDBRANCH  26  28
ENDBRANCH  25  26
ENDBRANCH  24  25
ENDBRANCH   1  24
TORSDOF 14
ENDMDL
MODEL 2
REMARK VINA RESULT:     -11.2      4.941      9.823
REMARK SMILES C[C@@H]1CCC/C(=C\Nc2ccc(C(=O)OCCOC(=O)c3ccc(-c4c5nc(c(-c6ccccc6)c6ccc([nH]6)c(-c6ccccc6)c6nc(c(-c7ccccc7)c7ccc4[nH]7)C=C6)C=C5)cc3)c(O)c2)C1=O
REMARK SMILES IDX 16 1 15 2 13 3 14 4 12 5 9 6 10 7 71 8 11 9 69 10 8 11 7 13
REMARK SMILES IDX 1 14 2 15 3 16 72 17 4 18 6 19 73 20 5 21 70 22 17 24 18 25
REMARK SMILES IDX 19 26 20 27 21 28 22 29 68 30 23 31 67 32 24 33 25 34 26 35
REMARK SMILES IDX 61 36 27 37 66 38 60 39 62 40 28 41 65 42 59 43 58 44 29 46
REMARK SMILES IDX 51 47 36 48 50 49 37 50 40 51 49 52 63 53 38 54 39 55 48 57
REMARK SMILES IDX 64 58 41 59 30 60 31 61 35 62 32 63 34 64 33 65 52 66 53 67
REMARK SMILES IDX 57 68 54 69 56 70 55 71 42 72 43 73 47 74 44 75 46 76 45 77
REMARK H PARENT 8 12 70 23 62 45 40 56
REMARK Flexibility Score: inf
ROOT
ATOM      1  C   UNL A   1      34.044  34.334  29.679  1.00  0.00     0.275 C 
ENDROOT
BRANCH   1   2
ATOM      2  O   UNL A   1      33.675  33.064  29.098  1.00  0.00    -0.458 OA
BRANCH   2   3
ATOM      3  C   UNL A   1      34.417  32.661  28.034  1.00  0.00     0.342 C 
ATOM      4  O   UNL A   1      35.394  33.231  27.576  1.00  0.00    -0.246 OA
BRANCH   3   5
ATOM      5  C   UNL A   1      33.943  31.343  27.542  1.00  0.00     0.101 A 
ATOM      6  C   UNL A   1      33.185  28.757  26.693  1.00  0.00     0.042 A 
ATOM      7  C   UNL A   1      34.452  28.986  27.238  1.00  0.00     0.027 A 
ATOM      8  C   UNL A   1      32.304  29.838  26.574  1.00  0.00     0.073 A 
ATOM      9  C   UNL A   1      34.844  30.271  27.614  1.00  0.00     0.022 A 
ATOM     10  C   UNL A   1      32.669  31.115  27.016  1.00  0.00     0.132 A 
BRANCH   6  11
ATOM     11  N   UNL A   1      32.765  27.468  26.334  1.00  0.00    -0.361 N 
ATOM     12  H   UNL A   1      32.353  26.921  27.041  1.00  0.00     0.166 HD
BRANCH  11  13
ATOM     13  C   UNL A   1      32.871  26.899  25.089  1.00  0.00     0.090 C 
ATOM     14  C   UNL A   1      32.286  23.518  22.968  1.00  0.00     0.016 C 
ATOM     15  C   UNL A   1      33.704  24.081  22.909  1.00  0.00     0.058 C 
ATOM     16  C   UNL A   1      34.681  23.328  23.821  1.00  0.00     0.012 C 
ATOM     17  C   UNL A   1      33.657  25.565  23.232  1.00  0.00     0.163 C 
ATOM     18  C   UNL A   1      34.531  23.686  25.298  1.00  0.00     0.006 C 
ATOM     19  C   UNL A   1      33.727  25.955  24.673  1.00  0.00     0.011 C 
ATOM     20  O   UNL A   1      33.479  26.409  22.355  1.00  0.00    -0.294 OA
ATOM     21  C   UNL A   1      34.696  25.190  25.517  1.00  0.00     0.041 C 
ENDBRANCH  11  13
ENDBRANCH   6  11
BRANCH  10  22
ATOM     22  O   UNL A   1      31.715  32.087  26.891  1.00  0.00    -0.507 OA
ATOM     23  H   UNL A   1      31.964  32.990  26.877  1.00  0.00     0.293 HD
ENDBRANCH  10  22
ENDBRANCH   3   5
ENDBRANCH   2   3
ENDBRANCH   1   2
BRANCH   1  24
ATOM     24  C   UNL A   1      34.420  34.171  31.152  1.00  0.00     0.275 C 
BRANCH  24  25
ATOM     25  O   UNL A   1      34.442  32.775  31.500  1.00  0.00    -0.458 OA
BRANCH  25  26
ATOM     26  C   UNL A   1      35.348  32.412  32.437  1.00  0.00     0.338 C 
ATOM     27  O   UNL A   1      35.287  32.582  33.641  1.00  0.00    -0.246 OA
BRANCH  26  28
ATOM     28  C   UNL A   1      36.473  31.731  31.778  1.00  0.00     0.060 A 
ATOM     29  C   UNL A   1      37.359  30.984  32.549  1.00  0.00     0.016 A 
ATOM     30  C   UNL A   1      36.713  31.921  30.418  1.00  0.00     0.016 A 
ATOM     31  C   UNL A   1      38.528  30.477  31.986  1.00  0.00     0.010 A 
ATOM     32  C   UNL A   1      37.845  31.341  29.835  1.00  0.00     0.010 A 
ATOM     33  C   UNL A   1      38.780  30.636  30.617  1.00  0.00    -0.014 A 
BRANCH  33  34
ATOM     34  C   UNL A   1      40.028  30.104  30.005  1.00  0.00     0.031 A 
ATOM     35  C   UNL A   1      41.251  30.977  29.912  1.00  0.00     0.074 A 
ATOM     36  C   UNL A   1      40.079  28.846  29.524  1.00  0.00     0.049 A 
ATOM     37  N   UNL A   1      42.350  30.791  29.225  1.00  0.00    -0.248 NA
ATOM     38  C   UNL A   1      41.229  32.230  30.684  1.00  0.00     0.031 C 
ATOM     39  C   UNL A   1      39.001  27.859  29.600  1.00  0.00     0.029 A 
ATOM     40  N   UNL A   1      41.089  28.181  28.870  1.00  0.00    -0.354 N 
ATOM     41  C   UNL A   1      43.121  31.929  29.430  1.00  0.00     0.074 A 
ATOM     42  C   UNL A   1      42.369  32.796  30.312  1.00  0.00     0.031 C 
ATOM     43  C   UNL A   1      39.415  26.710  29.044  1.00  0.00     0.029 A 
ATOM     44  C   UNL A   1      40.752  26.905  28.492  1.00  0.00     0.049 A 
ATOM     45  H   UNL A   1      41.970  28.582  28.691  1.00  0.00     0.167 HD
ATOM     46  C   UNL A   1      44.340  32.229  28.921  1.00  0.00     0.031 A 
ATOM     47  C   UNL A   1      41.415  26.005  27.741  1.00  0.00     0.031 A 
ATOM     48  C   UNL A   1      45.109  31.349  28.082  1.00  0.00     0.049 A 
ATOM     49  C   UNL A   1      42.745  26.374  27.151  1.00  0.00     0.074 A 
ATOM     50  C   UNL A   1      46.357  31.563  27.523  1.00  0.00     0.029 A 
ATOM     51  N   UNL A   1      44.711  30.078  27.700  1.00  0.00    -0.354 N 
ATOM     52  N   UNL A   1      43.429  27.482  27.290  1.00  0.00    -0.248 NA
ATOM     53  C   UNL A   1      43.383  25.376  26.280  1.00  0.00     0.031 C 
ATOM     54  C   UNL A   1      46.700  30.432  26.774  1.00  0.00     0.029 A 
ATOM     55  C   UNL A   1      45.683  29.500  26.903  1.00  0.00     0.049 A 
ATOM     56  H   UNL A   1      43.862  29.650  27.957  1.00  0.00     0.167 HD
ATOM     57  C   UNL A   1      44.581  27.313  26.533  1.00  0.00     0.074 A 
ATOM     58  C   UNL A   1      44.511  25.989  25.950  1.00  0.00     0.031 C 
ATOM     59  C   UNL A   1      45.601  28.182  26.334  1.00  0.00     0.031 A 
BRANCH  46  60
ATOM     60  C   UNL A   1      44.898  33.590  29.219  1.00  0.00    -0.014 A 
ATOM     61  C   UNL A   1      44.613  34.697  28.405  1.00  0.00     0.009 A 
ATOM     62  C   UNL A   1      45.695  33.772  30.361  1.00  0.00     0.009 A 
ATOM     63  C   UNL A   1      45.142  35.952  28.714  1.00  0.00     0.001 A 
ATOM     64  C   UNL A   1      46.201  35.033  30.680  1.00  0.00     0.001 A 
ATOM     65  C   UNL A   1      45.931  36.120  29.852  1.00  0.00     0.000 A 
ENDBRANCH  46  60
BRANCH  47  66
ATOM     66  C   UNL A   1      40.797  24.685  27.452  1.00  0.00    -0.014 A 
ATOM     67  C   UNL A   1      39.675  24.590  26.616  1.00  0.00     0.009 A 
ATOM     68  C   UNL A   1      41.335  23.512  28.006  1.00  0.00     0.009 A 
ATOM     69  C   UNL A   1      39.099  23.346  26.346  1.00  0.00     0.001 A 
ATOM     70  C   UNL A   1      40.774  22.268  27.713  1.00  0.00     0.001 A 
ATOM     71  C   UNL A   1      39.653  22.186  26.889  1.00  0.00     0.000 A 
ENDBRANCH  47  66
BRANCH  59  72
ATOM     72  C   UNL A   1      46.740  27.715  25.477  1.00  0.00    -0.014 A 
ATOM     73  C   UNL A   1      47.816  27.004  26.029  1.00  0.00     0.009 A 
ATOM     74  C   UNL A   1      46.710  27.948  24.094  1.00  0.00     0.009 A 
ATOM     75  C   UNL A   1      48.853  26.553  25.211  1.00  0.00     0.001 A 
ATOM     76  C   UNL A   1      47.738  27.479  23.276  1.00  0.00     0.001 A 
ATOM     77  C   UNL A   1      48.811  26.787  23.836  1.00  0.00     0.000 A 
ENDBRANCH  59  72
ENDBRANCH  33  34
ENDBRANCH  26  28
ENDBRANCH  25  26
ENDBRANCH  24  25
ENDBRANCH   1  24
TORSDOF 14
ENDMDL
MODEL 3
REMARK VINA RESULT:     -11.1      3.775      7.911
REMARK SMILES C[C@@H]1CCC/C(=C\Nc2ccc(C(=O)OCCOC(=O)c3ccc(-c4c5nc(c(-c6ccccc6)c6ccc([nH]6)c(-c6ccccc6)c6nc(c(-c7ccccc7)c7ccc4[nH]7)C=C6)C=C5)cc3)c(O)c2)C1=O
REMARK SMILES IDX 16 1 15 2 13 3 14 4 12 5 9 6 10 7 71 8 11 9 69 10 8 11 7 13
REMARK SMILES IDX 1 14 2 15 3 16 72 17 4 18 6 19 73 20 5 21 70 22 17 24 18 25
REMARK SMILES IDX 19 26 20 27 21 28 22 29 68 30 23 31 67 32 24 33 25 34 26 35
REMARK SMILES IDX 61 36 27 37 66 38 60 39 62 40 28 41 65 42 59 43 58 44 29 46
REMARK SMILES IDX 51 47 36 48 50 49 37 50 40 51 49 52 63 53 38 54 39 55 48 57
REMARK SMILES IDX 64 58 41 59 30 60 31 61 35 62 32 63 34 64 33 65 52 66 53 67
REMARK SMILES IDX 57 68 54 69 56 70 55 71 42 72 43 73 47 74 44 75 46 76 45 77
REMARK H PARENT 8 12 70 23 62 45 40 56
REMARK Flexibility Score: inf
ROOT
ATOM      1  C   UNL A   1      34.948  20.362  25.092  1.00  0.00     0.275 C 
ENDROOT
BRANCH   1   2
ATOM      2  O   UNL A   1      33.943  21.008  24.280  1.00  0.00    -0.458 OA
BRANCH   2   3
ATOM      3  C   UNL A   1      32.652  20.771  24.634  1.00  0.00     0.342 C 
ATOM      4  O   UNL A   1      32.183  19.698  24.976  1.00  0.00    -0.246 OA
BRANCH   3   5
ATOM      5  C   UNL A   1      31.880  22.039  24.654  1.00  0.00     0.101 A 
ATOM      6  C   UNL A   1      30.427  24.452  24.878  1.00  0.00     0.042 A 
ATOM      7  C   UNL A   1      30.684  23.666  26.006  1.00  0.00     0.027 A 
ATOM      8  C   UNL A   1      30.902  24.012  23.637  1.00  0.00     0.073 A 
ATOM      9  C   UNL A   1      31.361  22.451  25.889  1.00  0.00     0.022 A 
ATOM     10  C   UNL A   1      31.642  22.830  23.528  1.00  0.00     0.132 A 
BRANCH   6  11
ATOM     11  N   UNL A   1      29.772  25.687  24.980  1.00  0.00    -0.361 N 
ATOM     12  H   UNL A   1      28.846  25.673  25.315  1.00  0.00     0.166 HD
BRANCH  11  13
ATOM     13  C   UNL A   1      30.298  26.913  24.656  1.00  0.00     0.090 C 
ATOM     14  C   UNL A   1      33.601  28.823  23.348  1.00  0.00     0.016 C 
ATOM     15  C   UNL A   1      33.041  29.334  24.672  1.00  0.00     0.058 C 
ATOM     16  C   UNL A   1      33.828  28.826  25.887  1.00  0.00     0.012 C 
ATOM     17  C   UNL A   1      31.569  28.967  24.756  1.00  0.00     0.163 C 
ATOM     18  C   UNL A   1      33.521  27.373  26.244  1.00  0.00     0.006 C 
ATOM     19  C   UNL A   1      31.229  27.621  25.310  1.00  0.00     0.011 C 
ATOM     20  O   UNL A   1      30.694  29.706  24.309  1.00  0.00    -0.294 OA
ATOM     21  C   UNL A   1      32.026  27.174  26.495  1.00  0.00     0.041 C 
ENDBRANCH  11  13
ENDBRANCH   6  11
BRANCH  10  22
ATOM     22  O   UNL A   1      32.093  22.519  22.274  1.00  0.00    -0.507 OA
ATOM     23  H   UNL A   1      31.613  22.801  21.520  1.00  0.00     0.293 HD
ENDBRANCH  10  22
ENDBRANCH   3   5
ENDBRANCH   2   3
ENDBRANCH   1   2
BRANCH   1  24
ATOM     24  C   UNL A   1      36.352  20.765  24.643  1.00  0.00     0.275 C 
BRANCH  24  25
ATOM     25  O   UNL A   1      37.058  21.383  25.734  1.00  0.00    -0.458 OA
BRANCH  25  26
ATOM     26  C   UNL A   1      38.384  21.125  25.805  1.00  0.00     0.338 C 
ATOM     27  O   UNL A   1      38.967  20.110  25.469  1.00  0.00    -0.246 OA
BRANCH  26  28
ATOM     28  C   UNL A   1      39.073  22.302  26.357  1.00  0.00     0.060 A 
ATOM     29  C   UNL A   1      38.521  23.565  26.159  1.00  0.00     0.016 A 
ATOM     30  C   UNL A   1      40.315  22.166  26.973  1.00  0.00     0.016 A 
ATOM     31  C   UNL A   1      39.235  24.708  26.511  1.00  0.00     0.010 A 
ATOM     32  C   UNL A   1      40.994  23.311  27.403  1.00  0.00     0.010 A 
ATOM     33  C   UNL A   1      40.476  24.597  27.151  1.00  0.00    -0.014 A 
BRANCH  33  34
ATOM     34  C   UNL A   1      41.251  25.810  27.528  1.00  0.00     0.031 A 
ATOM     35  C   UNL A   1      40.655  26.818  28.475  1.00  0.00     0.074 A 
ATOM     36  C   UNL A   1      42.484  26.025  27.029  1.00  0.00     0.049 A 
ATOM     37  N   UNL A   1      41.059  28.032  28.753  1.00  0.00    -0.248 NA
ATOM     38  C   UNL A   1      39.438  26.410  29.195  1.00  0.00     0.031 C 
ATOM     39  C   UNL A   1      43.222  25.112  26.155  1.00  0.00     0.029 A 
ATOM     40  N   UNL A   1      43.337  27.091  27.187  1.00  0.00    -0.354 N 
ATOM     41  C   UNL A   1      40.113  28.554  29.627  1.00  0.00     0.074 A 
ATOM     42  C   UNL A   1      39.120  27.523  29.841  1.00  0.00     0.031 C 
ATOM     43  C   UNL A   1      44.423  25.641  25.878  1.00  0.00     0.029 A 
ATOM     44  C   UNL A   1      44.507  26.968  26.479  1.00  0.00     0.049 A 
ATOM     45  H   UNL A   1      43.129  27.869  27.755  1.00  0.00     0.167 HD
ATOM     46  C   UNL A   1      40.070  29.785  30.191  1.00  0.00     0.031 A 
ATOM     47  C   UNL A   1      45.516  27.839  26.287  1.00  0.00     0.031 A 
ATOM     48  C   UNL A   1      41.080  30.795  30.016  1.00  0.00     0.049 A 
ATOM     49  C   UNL A   1      45.428  29.213  26.886  1.00  0.00     0.074 A 
ATOM     50  C   UNL A   1      41.126  32.070  30.553  1.00  0.00     0.029 A 
ATOM     51  N   UNL A   1      42.232  30.633  29.264  1.00  0.00    -0.354 N 
ATOM     52  N   UNL A   1      44.491  29.721  27.648  1.00  0.00    -0.248 NA
ATOM     53  C   UNL A   1      46.525  30.142  26.577  1.00  0.00     0.031 C 
ATOM     54  C   UNL A   1      42.293  32.694  30.097  1.00  0.00     0.029 A 
ATOM     55  C   UNL A   1      42.991  31.790  29.311  1.00  0.00     0.049 A 
ATOM     56  H   UNL A   1      42.474  29.818  28.768  1.00  0.00     0.167 HD
ATOM     57  C   UNL A   1      44.889  31.024  27.917  1.00  0.00     0.074 A 
ATOM     58  C   UNL A   1      46.160  31.223  27.251  1.00  0.00     0.031 C 
ATOM     59  C   UNL A   1      44.253  31.971  28.647  1.00  0.00     0.031 A 
BRANCH  46  60
ATOM     60  C   UNL A   1      38.862  30.127  31.014  1.00  0.00    -0.014 A 
ATOM     61  C   UNL A   1      38.824  29.895  32.397  1.00  0.00     0.009 A 
ATOM     62  C   UNL A   1      37.756  30.731  30.394  1.00  0.00     0.009 A 
ATOM     63  C   UNL A   1      37.687  30.234  33.136  1.00  0.00     0.001 A 
ATOM     64  C   UNL A   1      36.633  31.091  31.139  1.00  0.00     0.001 A 
ATOM     65  C   UNL A   1      36.596  30.834  32.508  1.00  0.00     0.000 A 
ENDBRANCH  46  60
BRANCH  47  66
ATOM     66  C   UNL A   1      46.670  27.456  25.434  1.00  0.00    -0.014 A 
ATOM     67  C   UNL A   1      46.741  27.876  24.098  1.00  0.00     0.009 A 
ATOM     68  C   UNL A   1      47.714  26.676  25.959  1.00  0.00     0.009 A 
ATOM     69  C   UNL A   1      47.830  27.514  23.301  1.00  0.00     0.001 A 
ATOM     70  C   UNL A   1      48.814  26.339  25.169  1.00  0.00     0.001 A 
ATOM     71  C   UNL A   1      48.868  26.752  23.839  1.00  0.00     0.000 A 
ENDBRANCH  47  66
BRANCH  59  72
ATOM     72  C   UNL A   1      44.937  33.299  28.790  1.00  0.00    -0.014 A 
ATOM     73  C   UNL A   1      45.871  33.524  29.812  1.00  0.00     0.009 A 
ATOM     74  C   UNL A   1      44.679  34.317  27.861  1.00  0.00     0.009 A 
ATOM     75  C   UNL A   1      46.519  34.757  29.912  1.00  0.00     0.001 A 
ATOM     76  C   UNL A   1      45.342  35.542  27.952  1.00  0.00     0.001 A 
ATOM     77  C   UNL A   1      46.257  35.762  28.980  1.00  0.00     0.000 A 
ENDBRANCH  59  72
ENDBRANCH  33  34
ENDBRANCH  26  28
ENDBRANCH  25  26
ENDBRANCH  24  25
ENDBRANCH   1  24
TORSDOF 14
ENDMDL
