MODEL 1
REMARK VINA RESULT:     -10.4      0.000      0.000
REMARK SMILES Cc1nc2nc(CNC(=O)OC(C)(C)C)nn2c(C)c1CCC(=O)OCCOC(=O)c1ccc(-c2c3nc(c(-c4ccccc4)c4ccc([nH]4)c(-c4ccccc4)c4nc(c(-c5ccccc5)c5ccc2[nH]5)C=C4)C=C3)cc1
REMARK SMILES IDX 23 1 24 2 22 3 21 4 20 5 1 6 2 7 3 8 4 9 18 10 5 11 17 12
REMARK SMILES IDX 19 13 6 14 16 15 7 16 8 17 9 18 10 20 11 21 12 22 13 23
REMARK SMILES IDX 14 24 15 25 25 26 26 27 27 28 28 29 29 30 30 31 31 32 32 33
REMARK SMILES IDX 78 34 33 35 77 36 34 37 35 38 36 39 71 40 37 41 76 42 70 43
REMARK SMILES IDX 72 44 38 45 75 46 69 47 68 48 39 50 61 51 46 52 60 53 47 54
REMARK SMILES IDX 50 55 59 56 73 57 48 58 49 59 58 61 74 62 51 63 40 64 41 65
REMARK SMILES IDX 45 66 42 67 44 68 43 69 62 70 63 71 67 72 64 73 66 74 65 75
REMARK SMILES IDX 52 76 53 77 57 78 54 79 56 80 55 81
REMARK H PARENT 8 19 72 49 50 60
REMARK Flexibility Score: inf
ROOT
ATOM      1  C   UNL A   1      41.478  20.668  27.059  1.00  0.00     0.306 C 
ATOM      2  O   UNL A   1      42.258  20.702  28.007  1.00  0.00    -0.252 OA
ENDROOT
BRANCH   1   3
ATOM      3  C   UNL A   1      40.248  21.563  26.982  1.00  0.00     0.127 C 
BRANCH   3   4
ATOM      4  C   UNL A   1      39.698  22.023  25.614  1.00  0.00     0.051 C 
BRANCH   4   5
ATOM      5  C   UNL A   1      38.201  22.162  25.548  1.00  0.00    -0.005 A 
ATOM      6  C   UNL A   1      37.897  19.628  25.102  1.00  0.00     0.067 C 
ATOM      7  C   UNL A   1      37.347  21.035  24.993  1.00  0.00     0.046 A 
ATOM      8  N   UNL A   1      36.137  21.171  24.530  1.00  0.00    -0.216 NA
ATOM      9  C   UNL A   1      35.583  22.409  24.665  1.00  0.00     0.252 A 
ATOM     10  C   UNL A   1      37.481  23.225  25.973  1.00  0.00     0.048 A 
ATOM     11  N   UNL A   1      34.488  22.925  24.140  1.00  0.00    -0.192 NA
ATOM     12  N   UNL A   1      36.179  23.366  25.488  1.00  0.00    -0.201 N 
ATOM     13  C   UNL A   1      37.991  24.381  26.776  1.00  0.00     0.067 C 
ATOM     14  C   UNL A   1      34.424  24.177  24.698  1.00  0.00     0.172 A 
ATOM     15  N   UNL A   1      35.383  24.451  25.582  1.00  0.00    -0.148 NA
BRANCH  14  16
ATOM     16  C   UNL A   1      33.370  25.189  24.416  1.00  0.00     0.199 C 
BRANCH  16  17
ATOM     17  N   UNL A   1      33.888  26.352  23.739  1.00  0.00    -0.314 N 
ATOM     18  C   UNL A   1      33.472  27.619  23.994  1.00  0.00     0.408 C 
ATOM     19  H   UNL A   1      34.583  26.221  23.054  1.00  0.00     0.167 HD
ATOM     20  O   UNL A   1      33.963  28.591  23.432  1.00  0.00    -0.225 OA
BRANCH  18  21
ATOM     21  O   UNL A   1      32.466  27.645  24.895  1.00  0.00    -0.444 OA
BRANCH  21  22
ATOM     22  C   UNL A   1      32.521  28.483  26.071  1.00  0.00     0.106 C 
ATOM     23  C   UNL A   1      32.264  29.949  25.721  1.00  0.00     0.056 C 
ATOM     24  C   UNL A   1      31.569  27.958  27.150  1.00  0.00     0.056 C 
ATOM     25  C   UNL A   1      33.965  28.338  26.579  1.00  0.00     0.056 C 
ENDBRANCH  21  22
ENDBRANCH  18  21
ENDBRANCH  16  17
ENDBRANCH  14  16
ENDBRANCH   4   5
ENDBRANCH   3   4
ENDBRANCH   1   3
BRANCH   1  26
ATOM     26  O   UNL A   1      41.593  19.813  26.010  1.00  0.00    -0.462 OA
BRANCH  26  27
ATOM     27  C   UNL A   1      42.523  18.725  26.168  1.00  0.00     0.274 C 
BRANCH  27  28
ATOM     28  C   UNL A   1      43.766  18.909  25.300  1.00  0.00     0.275 C 
BRANCH  28  29
ATOM     29  O   UNL A   1      43.730  20.076  24.465  1.00  0.00    -0.458 OA
BRANCH  29  30
ATOM     30  C   UNL A   1      44.793  20.898  24.601  1.00  0.00     0.338 C 
ATOM     31  O   UNL A   1      45.953  20.668  24.309  1.00  0.00    -0.246 OA
BRANCH  30  32
ATOM     32  C   UNL A   1      44.473  22.082  25.390  1.00  0.00     0.060 A 
ATOM     33  C   UNL A   1      43.473  22.922  24.878  1.00  0.00     0.016 A 
ATOM     34  C   UNL A   1      45.265  22.450  26.481  1.00  0.00     0.016 A 
ATOM     35  C   UNL A   1      43.317  24.175  25.423  1.00  0.00     0.010 A 
ATOM     36  C   UNL A   1      45.104  23.702  27.029  1.00  0.00     0.010 A 
ATOM     37  C   UNL A   1      44.153  24.559  26.479  1.00  0.00    -0.014 A 
BRANCH  37  38
ATOM     38  C   UNL A   1      43.798  25.766  27.194  1.00  0.00     0.031 A 
ATOM     39  C   UNL A   1      44.745  26.863  26.869  1.00  0.00     0.074 A 
ATOM     40  C   UNL A   1      42.688  25.899  27.941  1.00  0.00     0.049 A 
ATOM     41  N   UNL A   1      45.652  27.354  27.645  1.00  0.00    -0.248 NA
ATOM     42  C   UNL A   1      44.867  27.291  25.461  1.00  0.00     0.031 C 
ATOM     43  C   UNL A   1      41.583  24.949  28.087  1.00  0.00     0.029 A 
ATOM     44  N   UNL A   1      42.263  26.974  28.655  1.00  0.00    -0.354 N 
ATOM     45  C   UNL A   1      46.299  28.324  26.889  1.00  0.00     0.074 A 
ATOM     46  C   UNL A   1      45.938  28.083  25.518  1.00  0.00     0.031 C 
ATOM     47  C   UNL A   1      40.517  25.584  28.633  1.00  0.00     0.029 A 
ATOM     48  C   UNL A   1      40.919  26.928  29.013  1.00  0.00     0.049 A 
ATOM     49  H   UNL A   1      42.855  27.722  28.898  1.00  0.00     0.167 HD
ATOM     50  C   UNL A   1      46.789  29.444  27.486  1.00  0.00     0.031 A 
ATOM     51  C   UNL A   1      40.206  27.947  29.550  1.00  0.00     0.031 A 
ATOM     52  C   UNL A   1      46.845  29.278  28.916  1.00  0.00     0.049 A 
ATOM     53  C   UNL A   1      41.175  28.887  30.150  1.00  0.00     0.074 A 
ATOM     54  C   UNL A   1      47.647  28.616  29.817  1.00  0.00     0.029 A 
ATOM     55  N   UNL A   1      45.651  29.538  29.538  1.00  0.00    -0.354 N 
ATOM     56  N   UNL A   1      41.894  28.590  31.192  1.00  0.00    -0.248 NA
ATOM     57  C   UNL A   1      41.623  30.045  29.386  1.00  0.00     0.031 C 
ATOM     58  C   UNL A   1      46.817  28.321  30.940  1.00  0.00     0.029 A 
ATOM     59  C   UNL A   1      45.552  28.864  30.724  1.00  0.00     0.049 A 
ATOM     60  H   UNL A   1      44.954  30.133  29.177  1.00  0.00     0.167 HD
ATOM     61  C   UNL A   1      43.101  29.216  30.957  1.00  0.00     0.074 A 
ATOM     62  C   UNL A   1      42.819  30.235  29.952  1.00  0.00     0.031 C 
ATOM     63  C   UNL A   1      44.270  28.638  31.355  1.00  0.00     0.031 A 
BRANCH  50  64
ATOM     64  C   UNL A   1      46.670  30.820  26.871  1.00  0.00    -0.014 A 
ATOM     65  C   UNL A   1      47.790  31.668  26.904  1.00  0.00     0.009 A 
ATOM     66  C   UNL A   1      45.437  31.420  26.537  1.00  0.00     0.009 A 
ATOM     67  C   UNL A   1      47.672  33.044  26.665  1.00  0.00     0.001 A 
ATOM     68  C   UNL A   1      45.320  32.784  26.267  1.00  0.00     0.001 A 
ATOM     69  C   UNL A   1      46.436  33.602  26.352  1.00  0.00     0.000 A 
ENDBRANCH  50  64
BRANCH  51  70
ATOM     70  C   UNL A   1      38.783  28.324  29.424  1.00  0.00    -0.014 A 
ATOM     71  C   UNL A   1      38.015  28.564  30.578  1.00  0.00     0.009 A 
ATOM     72  C   UNL A   1      38.286  28.788  28.196  1.00  0.00     0.009 A 
ATOM     73  C   UNL A   1      36.832  29.311  30.516  1.00  0.00     0.001 A 
ATOM     74  C   UNL A   1      37.101  29.534  28.135  1.00  0.00     0.001 A 
ATOM     75  C   UNL A   1      36.388  29.815  29.298  1.00  0.00     0.000 A 
ENDBRANCH  51  70
BRANCH  63  76
ATOM     76  C   UNL A   1      44.192  27.578  32.415  1.00  0.00    -0.014 A 
ATOM     77  C   UNL A   1      43.905  27.835  33.766  1.00  0.00     0.009 A 
ATOM     78  C   UNL A   1      44.328  26.246  31.999  1.00  0.00     0.009 A 
ATOM     79  C   UNL A   1      43.773  26.780  34.676  1.00  0.00     0.001 A 
ATOM     80  C   UNL A   1      44.175  25.195  32.901  1.00  0.00     0.001 A 
ATOM     81  C   UNL A   1      43.901  25.462  34.240  1.00  0.00     0.000 A 
ENDBRANCH  63  76
ENDBRANCH  37  38
ENDBRANCH  30  32
ENDBRANCH  29  30
ENDBRANCH  28  29
ENDBRANCH  27  28
ENDBRANCH  26  27
ENDBRANCH   1  26
TORSDOF 17
ENDMDL
MODEL 2
REMARK VINA RESULT:     -10.0      3.886      9.474
REMARK SMILES Cc1nc2nc(CNC(=O)OC(C)(C)C)nn2c(C)c1CCC(=O)OCCOC(=O)c1ccc(-c2c3nc(c(-c4ccccc4)c4ccc([nH]4)c(-c4ccccc4)c4nc(c(-c5ccccc5)c5ccc2[nH]5)C=C4)C=C3)cc1
REMARK SMILES IDX 23 1 24 2 22 3 21 4 20 5 1 6 2 7 3 8 4 9 18 10 5 11 17 12
REMARK SMILES IDX 19 13 6 14 16 15 7 16 8 17 9 18 10 20 11 21 12 22 13 23
REMARK SMILES IDX 14 24 15 25 25 26 26 27 27 28 28 29 29 30 30 31 31 32 32 33
REMARK SMILES IDX 78 34 33 35 77 36 34 37 35 38 36 39 71 40 37 41 76 42 70 43
REMARK SMILES IDX 72 44 38 45 75 46 69 47 68 48 39 50 61 51 46 52 60 53 47 54
REMARK SMILES IDX 50 55 59 56 73 57 48 58 49 59 58 61 74 62 51 63 40 64 41 65
REMARK SMILES IDX 45 66 42 67 44 68 43 69 62 70 63 71 67 72 64 73 66 74 65 75
REMARK SMILES IDX 52 76 53 77 57 78 54 79 56 80 55 81
REMARK H PARENT 8 19 72 49 50 60
REMARK Flexibility Score: inf
ROOT
ATOM      1  C   UNL A   1      32.344  29.573  25.669  1.00  0.00     0.306 C 
ATOM      2  O   UNL A   1      32.441  28.911  26.698  1.00  0.00    -0.252 OA
ENDROOT
BRANCH   1   3
ATOM      3  C   UNL A   1      32.985  29.140  24.356  1.00  0.00     0.127 C 
BRANCH   3   4
ATOM      4  C   UNL A   1      32.107  28.741  23.150  1.00  0.00     0.051 C 
BRANCH   4   5
ATOM      5  C   UNL A   1      31.645  27.309  23.151  1.00  0.00    -0.005 A 
ATOM      6  C   UNL A   1      29.166  28.019  23.414  1.00  0.00     0.067 C 
ATOM      7  C   UNL A   1      30.233  26.957  23.588  1.00  0.00     0.046 A 
ATOM      8  N   UNL A   1      29.847  25.781  23.998  1.00  0.00    -0.216 NA
ATOM      9  C   UNL A   1      30.777  24.788  23.917  1.00  0.00     0.252 A 
ATOM     10  C   UNL A   1      32.372  26.237  22.762  1.00  0.00     0.048 A 
ATOM     11  N   UNL A   1      30.780  23.568  24.421  1.00  0.00    -0.192 NA
ATOM     12  N   UNL A   1      31.953  24.976  23.189  1.00  0.00    -0.201 N 
ATOM     13  C   UNL A   1      33.696  26.267  22.062  1.00  0.00     0.067 C 
ATOM     14  C   UNL A   1      31.947  23.027  23.943  1.00  0.00     0.172 A 
ATOM     15  N   UNL A   1      32.644  23.818  23.128  1.00  0.00    -0.148 NA
BRANCH  14  16
ATOM     16  C   UNL A   1      32.441  21.654  24.238  1.00  0.00     0.199 C 
BRANCH  16  17
ATOM     17  N   UNL A   1      32.863  21.502  25.608  1.00  0.00    -0.314 N 
ATOM     18  C   UNL A   1      34.162  21.520  26.001  1.00  0.00     0.408 C 
ATOM     19  H   UNL A   1      32.171  21.378  26.298  1.00  0.00     0.167 HD
ATOM     20  O   UNL A   1      34.487  21.432  27.180  1.00  0.00    -0.225 OA
BRANCH  18  21
ATOM     21  O   UNL A   1      35.004  21.619  24.950  1.00  0.00    -0.444 OA
BRANCH  21  22
ATOM     22  C   UNL A   1      35.880  22.756  24.782  1.00  0.00     0.106 C 
ATOM     23  C   UNL A   1      36.160  23.029  23.304  1.00  0.00     0.056 C 
ATOM     24  C   UNL A   1      35.317  23.981  25.512  1.00  0.00     0.056 C 
ATOM     25  C   UNL A   1      37.190  22.338  25.468  1.00  0.00     0.056 C 
ENDBRANCH  21  22
ENDBRANCH  18  21
ENDBRANCH  16  17
ENDBRANCH  14  16
ENDBRANCH   4   5
ENDBRANCH   3   4
ENDBRANCH   1   3
BRANCH   1  26
ATOM     26  O   UNL A   1      31.704  30.769  25.591  1.00  0.00    -0.462 OA
BRANCH  26  27
ATOM     27  C   UNL A   1      31.462  31.448  26.838  1.00  0.00     0.274 C 
BRANCH  27  28
ATOM     28  C   UNL A   1      32.646  32.320  27.251  1.00  0.00     0.275 C 
BRANCH  28  29
ATOM     29  O   UNL A   1      32.286  33.661  27.619  1.00  0.00    -0.458 OA
BRANCH  29  30
ATOM     30  C   UNL A   1      32.960  34.153  28.680  1.00  0.00     0.338 C 
ATOM     31  O   UNL A   1      32.655  35.103  29.379  1.00  0.00    -0.246 OA
BRANCH  30  32
ATOM     32  C   UNL A   1      34.291  33.570  28.803  1.00  0.00     0.060 A 
ATOM     33  C   UNL A   1      34.547  32.841  29.973  1.00  0.00     0.016 A 
ATOM     34  C   UNL A   1      35.302  33.898  27.896  1.00  0.00     0.016 A 
ATOM     35  C   UNL A   1      35.846  32.502  30.271  1.00  0.00     0.010 A 
ATOM     36  C   UNL A   1      36.601  33.553  28.192  1.00  0.00     0.010 A 
ATOM     37  C   UNL A   1      36.862  32.884  29.387  1.00  0.00    -0.014 A 
BRANCH  37  38
ATOM     38  C   UNL A   1      38.169  32.296  29.591  1.00  0.00     0.031 A 
ATOM     39  C   UNL A   1      38.151  30.852  29.243  1.00  0.00     0.074 A 
ATOM     40  C   UNL A   1      39.267  32.998  29.922  1.00  0.00     0.049 A 
ATOM     41  N   UNL A   1      38.208  29.860  30.066  1.00  0.00    -0.248 NA
ATOM     42  C   UNL A   1      37.784  30.467  27.866  1.00  0.00     0.031 C 
ATOM     43  C   UNL A   1      39.409  34.452  30.019  1.00  0.00     0.029 A 
ATOM     44  N   UNL A   1      40.531  32.552  30.144  1.00  0.00    -0.354 N 
ATOM     45  C   UNL A   1      38.124  28.719  29.276  1.00  0.00     0.074 A 
ATOM     46  C   UNL A   1      37.642  29.147  27.990  1.00  0.00     0.031 C 
ATOM     47  C   UNL A   1      40.726  34.772  30.034  1.00  0.00     0.029 A 
ATOM     48  C   UNL A   1      41.503  33.546  30.106  1.00  0.00     0.049 A 
ATOM     49  H   UNL A   1      40.741  31.606  30.317  1.00  0.00     0.167 HD
ATOM     50  C   UNL A   1      38.786  27.587  29.636  1.00  0.00     0.031 A 
ATOM     51  C   UNL A   1      42.843  33.345  30.100  1.00  0.00     0.031 A 
ATOM     52  C   UNL A   1      39.220  27.662  31.008  1.00  0.00     0.049 A 
ATOM     53  C   UNL A   1      43.082  31.995  30.650  1.00  0.00     0.074 A 
ATOM     54  C   UNL A   1      38.638  27.550  32.250  1.00  0.00     0.029 A 
ATOM     55  N   UNL A   1      40.404  28.336  31.164  1.00  0.00    -0.354 N 
ATOM     56  N   UNL A   1      42.850  31.687  31.892  1.00  0.00    -0.248 NA
ATOM     57  C   UNL A   1      43.246  30.866  29.742  1.00  0.00     0.031 C 
ATOM     58  C   UNL A   1      39.429  28.349  33.128  1.00  0.00     0.029 A 
ATOM     59  C   UNL A   1      40.505  28.877  32.416  1.00  0.00     0.049 A 
ATOM     60  H   UNL A   1      41.092  28.419  30.465  1.00  0.00     0.167 HD
ATOM     61  C   UNL A   1      42.395  30.386  31.836  1.00  0.00     0.074 A 
ATOM     62  C   UNL A   1      42.836  29.877  30.542  1.00  0.00     0.031 C 
ATOM     63  C   UNL A   1      41.431  29.952  32.697  1.00  0.00     0.031 A 
BRANCH  50  64
ATOM     64  C   UNL A   1      39.515  26.712  28.641  1.00  0.00    -0.014 A 
ATOM     65  C   UNL A   1      40.423  27.317  27.756  1.00  0.00     0.009 A 
ATOM     66  C   UNL A   1      39.130  25.389  28.340  1.00  0.00     0.009 A 
ATOM     67  C   UNL A   1      40.880  26.651  26.609  1.00  0.00     0.001 A 
ATOM     68  C   UNL A   1      39.607  24.710  27.217  1.00  0.00     0.001 A 
ATOM     69  C   UNL A   1      40.467  25.351  26.339  1.00  0.00     0.000 A 
ENDBRANCH  50  64
BRANCH  51  70
ATOM     70  C   UNL A   1      43.947  34.101  29.475  1.00  0.00    -0.014 A 
ATOM     71  C   UNL A   1      45.183  34.218  30.136  1.00  0.00     0.009 A 
ATOM     72  C   UNL A   1      43.907  34.396  28.102  1.00  0.00     0.009 A 
ATOM     73  C   UNL A   1      46.352  34.540  29.435  1.00  0.00     0.001 A 
ATOM     74  C   UNL A   1      45.077  34.720  27.401  1.00  0.00     0.001 A 
ATOM     75  C   UNL A   1      46.301  34.767  28.063  1.00  0.00     0.000 A 
ENDBRANCH  51  70
BRANCH  63  76
ATOM     76  C   UNL A   1      41.215  30.748  33.952  1.00  0.00    -0.014 A 
ATOM     77  C   UNL A   1      41.957  30.572  35.132  1.00  0.00     0.009 A 
ATOM     78  C   UNL A   1      40.274  31.785  33.898  1.00  0.00     0.009 A 
ATOM     79  C   UNL A   1      41.745  31.411  36.234  1.00  0.00     0.001 A 
ATOM     80  C   UNL A   1      40.079  32.633  34.987  1.00  0.00     0.001 A 
ATOM     81  C   UNL A   1      40.812  32.443  36.156  1.00  0.00     0.000 A 
ENDBRANCH  63  76
ENDBRANCH  37  38
ENDBRANCH  30  32
ENDBRANCH  29  30
ENDBRANCH  28  29
ENDBRANCH  27  28
ENDBRANCH  26  27
ENDBRANCH   1  26
TORSDOF 17
ENDMDL
MODEL 3
REMARK VINA RESULT:      -9.9      2.845      4.257
REMARK SMILES Cc1nc2nc(CNC(=O)OC(C)(C)C)nn2c(C)c1CCC(=O)OCCOC(=O)c1ccc(-c2c3nc(c(-c4ccccc4)c4ccc([nH]4)c(-c4ccccc4)c4nc(c(-c5ccccc5)c5ccc2[nH]5)C=C4)C=C3)cc1
REMARK SMILES IDX 23 1 24 2 22 3 21 4 20 5 1 6 2 7 3 8 4 9 18 10 5 11 17 12
REMARK SMILES IDX 19 13 6 14 16 15 7 16 8 17 9 18 10 20 11 21 12 22 13 23
REMARK SMILES IDX 14 24 15 25 25 26 26 27 27 28 28 29 29 30 30 31 31 32 32 33
REMARK SMILES IDX 78 34 33 35 77 36 34 37 35 38 36 39 71 40 37 41 76 42 70 43
REMARK SMILES IDX 72 44 38 45 75 46 69 47 68 48 39 50 61 51 46 52 60 53 47 54
REMARK SMILES IDX 50 55 59 56 73 57 48 58 49 59 58 61 74 62 51 63 40 64 41 65
REMARK SMILES IDX 45 66 42 67 44 68 43 69 62 70 63 71 67 72 64 73 66 74 65 75
REMARK SMILES IDX 52 76 53 77 57 78 54 79 56 80 55 81
REMARK H PARENT 8 19 72 49 50 60
REMARK Flexibility Score: inf
ROOT
ATOM      1  C   UNL A   1      37.869  20.853  25.070  1.00  0.00     0.306 C 
ATOM      2  O   UNL A   1      38.151  19.658  25.063  1.00  0.00    -0.252 OA
ENDROOT
BRANCH   1   3
ATOM      3  C   UNL A   1      36.447  21.358  24.857  1.00  0.00     0.127 C 
BRANCH   3   4
ATOM      4  C   UNL A   1      35.239  20.512  25.315  1.00  0.00     0.051 C 
BRANCH   4   5
ATOM      5  C   UNL A   1      33.913  21.222  25.260  1.00  0.00    -0.005 A 
ATOM      6  C   UNL A   1      32.838  19.291  23.906  1.00  0.00     0.067 C 
ATOM      7  C   UNL A   1      32.829  20.753  24.305  1.00  0.00     0.046 A 
ATOM      8  N   UNL A   1      31.832  21.481  23.888  1.00  0.00    -0.216 NA
ATOM      9  C   UNL A   1      31.721  22.718  24.452  1.00  0.00     0.252 A 
ATOM     10  C   UNL A   1      33.541  22.274  26.023  1.00  0.00     0.048 A 
ATOM     11  N   UNL A   1      30.972  23.752  24.121  1.00  0.00    -0.192 NA
ATOM     12  N   UNL A   1      32.465  23.048  25.586  1.00  0.00    -0.201 N 
ATOM     13  C   UNL A   1      34.276  22.816  27.210  1.00  0.00     0.067 C 
ATOM     14  C   UNL A   1      31.249  24.675  25.098  1.00  0.00     0.172 A 
ATOM     15  N   UNL A   1      32.084  24.258  26.048  1.00  0.00    -0.148 NA
BRANCH  14  16
ATOM     16  C   UNL A   1      30.667  26.042  25.176  1.00  0.00     0.199 C 
BRANCH  16  17
ATOM     17  N   UNL A   1      30.665  26.565  26.520  1.00  0.00    -0.314 N 
ATOM     18  C   UNL A   1      31.566  27.474  26.974  1.00  0.00     0.408 C 
ATOM     19  H   UNL A   1      29.973  26.246  27.143  1.00  0.00     0.167 HD
ATOM     20  O   UNL A   1      31.511  27.933  28.110  1.00  0.00    -0.225 OA
BRANCH  18  21
ATOM     21  O   UNL A   1      32.500  27.764  26.043  1.00  0.00    -0.444 OA
BRANCH  21  22
ATOM     22  C   UNL A   1      32.734  29.119  25.599  1.00  0.00     0.106 C 
ATOM     23  C   UNL A   1      31.419  29.865  25.371  1.00  0.00     0.056 C 
ATOM     24  C   UNL A   1      33.665  29.850  26.573  1.00  0.00     0.056 C 
ATOM     25  C   UNL A   1      33.459  28.964  24.253  1.00  0.00     0.056 C 
ENDBRANCH  21  22
ENDBRANCH  18  21
ENDBRANCH  16  17
ENDBRANCH  14  16
ENDBRANCH   4   5
ENDBRANCH   3   4
ENDBRANCH   1   3
BRANCH   1  26
ATOM     26  O   UNL A   1      38.781  21.849  25.222  1.00  0.00    -0.462 OA
BRANCH  26  27
ATOM     27  C   UNL A   1      39.059  22.263  26.574  1.00  0.00     0.274 C 
BRANCH  27  28
ATOM     28  C   UNL A   1      40.355  21.651  27.101  1.00  0.00     0.275 C 
BRANCH  28  29
ATOM     29  O   UNL A   1      41.257  22.604  27.685  1.00  0.00    -0.458 OA
BRANCH  29  30
ATOM     30  C   UNL A   1      41.860  23.424  26.798  1.00  0.00     0.338 C 
ATOM     31  O   UNL A   1      42.641  23.119  25.915  1.00  0.00    -0.246 OA
BRANCH  30  32
ATOM     32  C   UNL A   1      41.677  24.830  27.140  1.00  0.00     0.060 A 
ATOM     33  C   UNL A   1      42.320  25.278  28.303  1.00  0.00     0.016 A 
ATOM     34  C   UNL A   1      40.748  25.617  26.454  1.00  0.00     0.016 A 
ATOM     35  C   UNL A   1      41.971  26.503  28.822  1.00  0.00     0.010 A 
ATOM     36  C   UNL A   1      40.405  26.846  26.972  1.00  0.00     0.010 A 
ATOM     37  C   UNL A   1      40.998  27.263  28.162  1.00  0.00    -0.014 A 
BRANCH  37  38
ATOM     38  C   UNL A   1      40.842  28.640  28.579  1.00  0.00     0.031 A 
ATOM     39  C   UNL A   1      42.006  29.452  28.142  1.00  0.00     0.074 A 
ATOM     40  C   UNL A   1      39.734  29.128  29.164  1.00  0.00     0.049 A 
ATOM     41  N   UNL A   1      42.940  29.929  28.894  1.00  0.00    -0.248 NA
ATOM     42  C   UNL A   1      42.300  29.536  26.697  1.00  0.00     0.031 C 
ATOM     43  C   UNL A   1      38.456  28.446  29.381  1.00  0.00     0.029 A 
ATOM     44  N   UNL A   1      39.484  30.391  29.599  1.00  0.00    -0.354 N 
ATOM     45  C   UNL A   1      43.813  30.580  28.030  1.00  0.00     0.074 A 
ATOM     46  C   UNL A   1      43.501  30.116  26.706  1.00  0.00     0.031 C 
ATOM     47  C   UNL A   1      37.504  29.365  29.673  1.00  0.00     0.029 A 
ATOM     48  C   UNL A   1      38.138  30.665  29.816  1.00  0.00     0.049 A 
ATOM     49  H   UNL A   1      40.196  31.055  29.748  1.00  0.00     0.167 HD
ATOM     50  C   UNL A   1      44.474  31.696  28.439  1.00  0.00     0.031 A 
ATOM     51  C   UNL A   1      37.607  31.888  30.060  1.00  0.00     0.031 A 
ATOM     52  C   UNL A   1      44.404  31.838  29.871  1.00  0.00     0.049 A 
ATOM     53  C   UNL A   1      38.701  32.746  30.557  1.00  0.00     0.074 A 
ATOM     54  C   UNL A   1      45.000  31.254  30.965  1.00  0.00     0.029 A 
ATOM     55  N   UNL A   1      43.247  32.436  30.299  1.00  0.00    -0.354 N 
ATOM     56  N   UNL A   1      39.279  32.558  31.707  1.00  0.00    -0.248 NA
ATOM     57  C   UNL A   1      39.417  33.611  29.627  1.00  0.00     0.031 C 
ATOM     58  C   UNL A   1      44.058  31.363  32.031  1.00  0.00     0.029 A 
ATOM     59  C   UNL A   1      42.941  32.064  31.579  1.00  0.00     0.049 A 
ATOM     60  H   UNL A   1      42.707  33.054  29.755  1.00  0.00     0.167 HD
ATOM     61  C   UNL A   1      40.598  32.892  31.479  1.00  0.00     0.074 A 
ATOM     62  C   UNL A   1      40.588  33.702  30.266  1.00  0.00     0.031 C 
ATOM     63  C   UNL A   1      41.601  32.214  32.105  1.00  0.00     0.031 A 
BRANCH  50  64
ATOM     64  C   UNL A   1      44.669  32.905  27.551  1.00  0.00    -0.014 A 
ATOM     65  C   UNL A   1      45.137  34.095  28.134  1.00  0.00     0.009 A 
ATOM     66  C   UNL A   1      44.136  33.009  26.250  1.00  0.00     0.009 A 
ATOM     67  C   UNL A   1      45.031  35.325  27.469  1.00  0.00     0.001 A 
ATOM     68  C   UNL A   1      44.056  34.227  25.571  1.00  0.00     0.001 A 
ATOM     69  C   UNL A   1      44.485  35.390  26.191  1.00  0.00     0.000 A 
ENDBRANCH  50  64
BRANCH  51  70
ATOM     70  C   UNL A   1      36.297  32.477  29.713  1.00  0.00    -0.014 A 
ATOM     71  C   UNL A   1      35.552  33.160  30.691  1.00  0.00     0.009 A 
ATOM     72  C   UNL A   1      35.952  32.677  28.366  1.00  0.00     0.009 A 
ATOM     73  C   UNL A   1      34.550  34.070  30.332  1.00  0.00     0.001 A 
ATOM     74  C   UNL A   1      34.948  33.588  28.008  1.00  0.00     0.001 A 
ATOM     75  C   UNL A   1      34.266  34.301  28.990  1.00  0.00     0.000 A 
ENDBRANCH  51  70
BRANCH  63  76
ATOM     76  C   UNL A   1      41.247  31.440  33.342  1.00  0.00    -0.014 A 
ATOM     77  C   UNL A   1      40.962  32.031  34.584  1.00  0.00     0.009 A 
ATOM     78  C   UNL A   1      41.111  30.052  33.211  1.00  0.00     0.009 A 
ATOM     79  C   UNL A   1      40.563  31.241  35.670  1.00  0.00     0.001 A 
ATOM     80  C   UNL A   1      40.693  29.268  34.286  1.00  0.00     0.001 A 
ATOM     81  C   UNL A   1      40.423  29.863  35.516  1.00  0.00     0.000 A 
ENDBRANCH  63  76
ENDBRANCH  37  38
ENDBRANCH  30  32
ENDBRANCH  29  30
ENDBRANCH  28  29
ENDBRANCH  27  28
ENDBRANCH  26  27
ENDBRANCH   1  26
TORSDOF 17
ENDMDL
