MODEL 1
REMARK VINA RESULT:     -12.4      0.000      0.000
REMARK SMILES CC(C)[C@H](NC(=O)OCc1ccccc1)C(=O)NCC(=O)OCCOC(=O)c1ccc(-c2c3nc(c(-c4ccccc4)c4ccc([nH]4)c(-c4ccccc4)c4nc(c(-c5ccccc5)c5ccc2[nH]5)C=C4)C=C3)cc1
REMARK SMILES IDX 20 1 21 2 19 3 18 4 16 5 17 6 4 8 2 9 1 10 3 11 5 12 6 13
REMARK SMILES IDX 7 15 8 16 9 17 10 18 11 19 15 20 12 21 14 22 13 23 22 24
REMARK SMILES IDX 23 25 24 26 25 27 26 28 27 29 28 30 29 31 75 32 30 33 74 34
REMARK SMILES IDX 31 35 32 36 33 37 68 38 34 39 73 40 67 41 69 42 35 43 72 44
REMARK SMILES IDX 66 45 65 46 36 48 58 49 43 50 57 51 44 52 47 53 56 54 70 55
REMARK SMILES IDX 45 56 46 57 55 59 71 60 48 61 37 62 38 63 42 64 39 65 41 66
REMARK SMILES IDX 40 67 59 68 60 69 64 70 61 71 63 72 62 73 49 74 50 75 54 76
REMARK SMILES IDX 51 77 53 78 52 79
REMARK H PARENT 18 7 5 14 69 47 47 58
REMARK Flexibility Score: inf
ROOT
ATOM      1  C   UNL A   1      39.882  21.708  26.442  1.00  0.00     0.325 C 
ATOM      2  O   UNL A   1      40.139  22.695  27.126  1.00  0.00    -0.250 OA
ENDROOT
BRANCH   1   3
ATOM      3  C   UNL A   1      38.380  21.630  25.646  1.00  0.00     0.238 C 
BRANCH   3   4
ATOM      4  N   UNL A   1      37.491  20.522  25.051  1.00  0.00    -0.343 N 
ATOM      5  C   UNL A   1      36.104  20.466  24.979  1.00  0.00     0.243 C 
ATOM      6  O   UNL A   1      35.492  19.433  24.712  1.00  0.00    -0.273 OA
ATOM      7  H   UNL A   1      37.969  19.750  24.671  1.00  0.00     0.164 HD
BRANCH   5   8
ATOM      8  C   UNL A   1      35.400  21.769  25.233  1.00  0.00     0.177 C 
BRANCH   8   9
ATOM      9  C   UNL A   1      34.191  21.442  26.251  1.00  0.00     0.015 C 
ATOM     10  C   UNL A   1      34.067  22.212  27.572  1.00  0.00     0.010 C 
ATOM     11  C   UNL A   1      32.764  21.374  25.604  1.00  0.00     0.010 C 
ENDBRANCH   8   9
BRANCH   8  12
ATOM     12  N   UNL A   1      35.251  22.384  23.882  1.00  0.00    -0.309 N 
ATOM     13  C   UNL A   1      34.538  23.581  23.573  1.00  0.00     0.408 C 
ATOM     14  H   UNL A   1      35.687  21.920  23.131  1.00  0.00     0.167 HD
ATOM     15  O   UNL A   1      34.037  23.688  22.441  1.00  0.00    -0.225 OA
BRANCH  13  16
ATOM     16  O   UNL A   1      34.663  24.612  24.486  1.00  0.00    -0.445 OA
BRANCH  16  17
ATOM     17  C   UNL A   1      34.055  25.453  25.781  1.00  0.00     0.270 C 
BRANCH  17  18
ATOM     18  C   UNL A   1      33.430  27.065  26.138  1.00  0.00    -0.011 A 
ATOM     19  C   UNL A   1      34.103  28.349  26.083  1.00  0.00     0.007 A 
ATOM     20  C   UNL A   1      32.107  27.207  26.569  1.00  0.00     0.007 A 
ATOM     21  C   UNL A   1      33.687  29.528  26.719  1.00  0.00     0.000 A 
ATOM     22  C   UNL A   1      31.638  28.423  27.140  1.00  0.00     0.000 A 
ATOM     23  C   UNL A   1      32.453  29.545  27.304  1.00  0.00     0.000 A 
ENDBRANCH  17  18
ENDBRANCH  16  17
ENDBRANCH  13  16
ENDBRANCH   8  12
ENDBRANCH   5   8
ENDBRANCH   3   4
ENDBRANCH   1   3
BRANCH   1  24
ATOM     24  O   UNL A   1      40.725  20.614  26.300  1.00  0.00    -0.461 OA
BRANCH  24  25
ATOM     25  C   UNL A   1      42.161  19.988  26.645  1.00  0.00     0.274 C 
BRANCH  25  26
ATOM     26  C   UNL A   1      42.837  18.482  25.876  1.00  0.00     0.275 C 
BRANCH  26  27
ATOM     27  O   UNL A   1      44.322  18.392  25.228  1.00  0.00    -0.458 OA
BRANCH  27  28
ATOM     28  C   UNL A   1      44.907  19.172  24.220  1.00  0.00     0.338 C 
ATOM     29  O   UNL A   1      45.041  18.772  23.071  1.00  0.00    -0.246 OA
BRANCH  28  30
ATOM     30  C   UNL A   1      45.038  20.718  24.514  1.00  0.00     0.060 A 
ATOM     31  C   UNL A   1      45.386  21.178  25.808  1.00  0.00     0.016 A 
ATOM     32  C   UNL A   1      44.635  21.742  23.650  1.00  0.00     0.016 A 
ATOM     33  C   UNL A   1      45.585  22.545  26.155  1.00  0.00     0.010 A 
ATOM     34  C   UNL A   1      44.718  23.134  24.031  1.00  0.00     0.010 A 
ATOM     35  C   UNL A   1      45.245  23.563  25.270  1.00  0.00    -0.014 A 
BRANCH  35  36
ATOM     36  C   UNL A   1      45.303  25.014  25.700  1.00  0.00     0.031 A 
ATOM     37  C   UNL A   1      46.621  25.765  25.667  1.00  0.00     0.074 A 
ATOM     38  C   UNL A   1      44.208  25.722  26.066  1.00  0.00     0.049 A 
ATOM     39  N   UNL A   1      46.929  26.951  26.142  1.00  0.00    -0.248 NA
ATOM     40  C   UNL A   1      47.736  25.088  24.991  1.00  0.00     0.031 C 
ATOM     41  C   UNL A   1      42.830  25.238  26.013  1.00  0.00     0.029 A 
ATOM     42  N   UNL A   1      44.082  27.008  26.567  1.00  0.00    -0.354 N 
ATOM     43  C   UNL A   1      48.280  27.142  25.860  1.00  0.00     0.074 A 
ATOM     44  C   UNL A   1      48.724  25.957  25.155  1.00  0.00     0.031 C 
ATOM     45  C   UNL A   1      42.008  26.189  26.499  1.00  0.00     0.029 A 
ATOM     46  C   UNL A   1      42.798  27.334  26.954  1.00  0.00     0.049 A 
ATOM     47  H   UNL A   1      44.840  27.631  26.640  1.00  0.00     0.167 HD
ATOM     48  C   UNL A   1      49.087  28.188  26.176  1.00  0.00     0.031 A 
ATOM     49  C   UNL A   1      42.314  28.396  27.640  1.00  0.00     0.031 A 
ATOM     50  C   UNL A   1      48.665  29.375  26.878  1.00  0.00     0.049 A 
ATOM     51  C   UNL A   1      43.250  29.492  28.099  1.00  0.00     0.074 A 
ATOM     52  C   UNL A   1      49.425  30.471  27.257  1.00  0.00     0.029 A 
ATOM     53  N   UNL A   1      47.373  29.621  27.312  1.00  0.00    -0.354 N 
ATOM     54  N   UNL A   1      44.536  29.629  27.877  1.00  0.00    -0.248 NA
ATOM     55  C   UNL A   1      42.670  30.577  28.911  1.00  0.00     0.031 C 
ATOM     56  C   UNL A   1      48.608  31.347  27.979  1.00  0.00     0.029 A 
ATOM     57  C   UNL A   1      47.323  30.833  27.984  1.00  0.00     0.049 A 
ATOM     58  H   UNL A   1      46.604  29.024  27.164  1.00  0.00     0.167 HD
ATOM     59  C   UNL A   1      44.906  30.820  28.495  1.00  0.00     0.074 A 
ATOM     60  C   UNL A   1      43.710  31.381  29.084  1.00  0.00     0.031 C 
ATOM     61  C   UNL A   1      46.132  31.396  28.566  1.00  0.00     0.031 A 
BRANCH  48  62
ATOM     62  C   UNL A   1      50.552  28.069  25.836  1.00  0.00    -0.014 A 
ATOM     63  C   UNL A   1      51.507  27.670  26.784  1.00  0.00     0.009 A 
ATOM     64  C   UNL A   1      50.972  28.313  24.517  1.00  0.00     0.009 A 
ATOM     65  C   UNL A   1      52.853  27.553  26.425  1.00  0.00     0.001 A 
ATOM     66  C   UNL A   1      52.311  28.166  24.154  1.00  0.00     0.001 A 
ATOM     67  C   UNL A   1      53.253  27.798  25.111  1.00  0.00     0.000 A 
ENDBRANCH  48  62
BRANCH  49  68
ATOM     68  C   UNL A   1      40.872  28.457  28.033  1.00  0.00    -0.014 A 
ATOM     69  C   UNL A   1      39.926  29.138  27.248  1.00  0.00     0.009 A 
ATOM     70  C   UNL A   1      40.446  27.891  29.247  1.00  0.00     0.009 A 
ATOM     71  C   UNL A   1      38.600  29.268  27.678  1.00  0.00     0.001 A 
ATOM     72  C   UNL A   1      39.113  27.989  29.657  1.00  0.00     0.001 A 
ATOM     73  C   UNL A   1      38.194  28.687  28.879  1.00  0.00     0.000 A 
ENDBRANCH  49  68
BRANCH  61  74
ATOM     74  C   UNL A   1      46.243  32.727  29.263  1.00  0.00    -0.014 A 
ATOM     75  C   UNL A   1      46.044  33.936  28.579  1.00  0.00     0.009 A 
ATOM     76  C   UNL A   1      46.509  32.767  30.642  1.00  0.00     0.009 A 
ATOM     77  C   UNL A   1      46.143  35.156  29.253  1.00  0.00     0.001 A 
ATOM     78  C   UNL A   1      46.576  33.986  31.320  1.00  0.00     0.001 A 
ATOM     79  C   UNL A   1      46.403  35.180  30.624  1.00  0.00     0.000 A 
ENDBRANCH  61  74
ENDBRANCH  35  36
ENDBRANCH  28  30
ENDBRANCH  27  28
ENDBRANCH  26  27
ENDBRANCH  25  26
ENDBRANCH  24  25
ENDBRANCH   1  24
TORSDOF 18
ENDMDL
MODEL 2
REMARK VINA RESULT:     -12.1      2.536      4.842
REMARK SMILES CC(C)[C@H](NC(=O)OCc1ccccc1)C(=O)NCC(=O)OCCOC(=O)c1ccc(-c2c3nc(c(-c4ccccc4)c4ccc([nH]4)c(-c4ccccc4)c4nc(c(-c5ccccc5)c5ccc2[nH]5)C=C4)C=C3)cc1
REMARK SMILES IDX 20 1 21 2 19 3 18 4 16 5 17 6 4 8 2 9 1 10 3 11 5 12 6 13
REMARK SMILES IDX 7 15 8 16 9 17 10 18 11 19 15 20 12 21 14 22 13 23 22 24
REMARK SMILES IDX 23 25 24 26 25 27 26 28 27 29 28 30 29 31 75 32 30 33 74 34
REMARK SMILES IDX 31 35 32 36 33 37 68 38 34 39 73 40 67 41 69 42 35 43 72 44
REMARK SMILES IDX 66 45 65 46 36 48 58 49 43 50 57 51 44 52 47 53 56 54 70 55
REMARK SMILES IDX 45 56 46 57 55 59 71 60 48 61 37 62 38 63 42 64 39 65 41 66
REMARK SMILES IDX 40 67 59 68 60 69 64 70 61 71 63 72 62 73 49 74 50 75 54 76
REMARK SMILES IDX 51 77 53 78 52 79
REMARK H PARENT 18 7 5 14 69 47 47 58
REMARK Flexibility Score: inf
ROOT
ATOM      1  C   UNL A   1      36.486  23.107  24.432  1.00  0.00     0.325 C 
ATOM      2  O   UNL A   1      36.050  23.396  23.320  1.00  0.00    -0.250 OA
ENDROOT
BRANCH   1   3
ATOM      3  C   UNL A   1      35.646  23.647  25.808  1.00  0.00     0.238 C 
BRANCH   3   4
ATOM      4  N   UNL A   1      34.469  23.141  26.664  1.00  0.00    -0.343 N 
ATOM      5  C   UNL A   1      33.143  23.554  26.649  1.00  0.00     0.243 C 
ATOM      6  O   UNL A   1      32.344  23.264  27.539  1.00  0.00    -0.273 OA
ATOM      7  H   UNL A   1      34.687  22.430  27.310  1.00  0.00     0.164 HD
BRANCH   5   8
ATOM      8  C   UNL A   1      32.744  24.369  25.452  1.00  0.00     0.177 C 
BRANCH   8   9
ATOM      9  C   UNL A   1      32.375  25.840  26.005  1.00  0.00     0.015 C 
ATOM     10  C   UNL A   1      33.200  27.057  25.568  1.00  0.00     0.010 C 
ATOM     11  C   UNL A   1      30.860  26.235  25.915  1.00  0.00     0.010 C 
ENDBRANCH   8   9
BRANCH   8  12
ATOM     12  N   UNL A   1      31.826  23.479  24.682  1.00  0.00    -0.309 N 
ATOM     13  C   UNL A   1      32.214  22.464  23.757  1.00  0.00     0.408 C 
ATOM     14  H   UNL A   1      30.860  23.605  24.825  1.00  0.00     0.167 HD
ATOM     15  O   UNL A   1      31.438  22.193  22.825  1.00  0.00    -0.225 OA
BRANCH  13  16
ATOM     16  O   UNL A   1      33.317  21.710  24.114  1.00  0.00    -0.445 OA
BRANCH  16  17
ATOM     17  C   UNL A   1      33.948  20.287  24.690  1.00  0.00     0.270 C 
BRANCH  17  18
ATOM     18  C   UNL A   1      33.543  18.569  24.702  1.00  0.00    -0.011 A 
ATOM     19  C   UNL A   1      32.660  17.835  25.589  1.00  0.00     0.007 A 
ATOM     20  C   UNL A   1      34.141  17.717  23.767  1.00  0.00     0.007 A 
ATOM     21  C   UNL A   1      32.659  16.447  25.793  1.00  0.00     0.000 A 
ATOM     22  C   UNL A   1      34.081  16.302  23.906  1.00  0.00     0.000 A 
ATOM     23  C   UNL A   1      33.427  15.674  24.968  1.00  0.00     0.000 A 
ENDBRANCH  17  18
ENDBRANCH  16  17
ENDBRANCH  13  16
ENDBRANCH   8  12
ENDBRANCH   5   8
ENDBRANCH   3   4
ENDBRANCH   1   3
BRANCH   1  24
ATOM     24  O   UNL A   1      37.658  22.395  24.650  1.00  0.00    -0.461 OA
BRANCH  24  25
ATOM     25  C   UNL A   1      38.446  21.397  25.628  1.00  0.00     0.274 C 
BRANCH  25  26
ATOM     26  C   UNL A   1      39.092  19.768  25.131  1.00  0.00     0.275 C 
BRANCH  26  27
ATOM     27  O   UNL A   1      40.166  18.923  26.007  1.00  0.00    -0.458 OA
BRANCH  27  28
ATOM     28  C   UNL A   1      41.533  19.155  26.212  1.00  0.00     0.338 C 
ATOM     29  O   UNL A   1      42.396  18.358  25.869  1.00  0.00    -0.246 OA
BRANCH  28  30
ATOM     30  C   UNL A   1      41.951  20.639  26.552  1.00  0.00     0.060 A 
ATOM     31  C   UNL A   1      41.720  21.175  27.842  1.00  0.00     0.016 A 
ATOM     32  C   UNL A   1      42.363  21.596  25.617  1.00  0.00     0.016 A 
ATOM     33  C   UNL A   1      42.112  22.479  28.260  1.00  0.00     0.010 A 
ATOM     34  C   UNL A   1      42.652  22.959  26.004  1.00  0.00     0.010 A 
ATOM     35  C   UNL A   1      42.584  23.411  27.341  1.00  0.00    -0.014 A 
BRANCH  35  36
ATOM     36  C   UNL A   1      42.847  24.844  27.757  1.00  0.00     0.031 A 
ATOM     37  C   UNL A   1      44.263  25.307  28.038  1.00  0.00     0.074 A 
ATOM     38  C   UNL A   1      41.872  25.781  27.838  1.00  0.00     0.049 A 
ATOM     39  N   UNL A   1      44.695  26.433  28.561  1.00  0.00    -0.248 NA
ATOM     40  C   UNL A   1      45.336  24.377  27.660  1.00  0.00     0.031 C 
ATOM     41  C   UNL A   1      40.475  25.586  27.457  1.00  0.00     0.029 A 
ATOM     42  N   UNL A   1      41.907  27.094  28.280  1.00  0.00    -0.354 N 
ATOM     43  C   UNL A   1      46.084  26.327  28.615  1.00  0.00     0.074 A 
ATOM     44  C   UNL A   1      46.419  25.036  28.051  1.00  0.00     0.031 C 
ATOM     45  C   UNL A   1      39.783  26.711  27.718  1.00  0.00     0.029 A 
ATOM     46  C   UNL A   1      40.668  27.697  28.339  1.00  0.00     0.049 A 
ATOM     47  H   UNL A   1      42.741  27.553  28.529  1.00  0.00     0.167 HD
ATOM     48  C   UNL A   1      46.997  27.205  29.106  1.00  0.00     0.031 A 
ATOM     49  C   UNL A   1      40.273  28.876  28.876  1.00  0.00     0.031 A 
ATOM     50  C   UNL A   1      46.683  28.494  29.672  1.00  0.00     0.049 A 
ATOM     51  C   UNL A   1      41.285  29.785  29.538  1.00  0.00     0.074 A 
ATOM     52  C   UNL A   1      47.547  29.433  30.212  1.00  0.00     0.029 A 
ATOM     53  N   UNL A   1      45.408  29.024  29.776  1.00  0.00    -0.354 N 
ATOM     54  N   UNL A   1      42.585  29.643  29.633  1.00  0.00    -0.248 NA
ATOM     55  C   UNL A   1      40.774  31.013  30.173  1.00  0.00     0.031 C 
ATOM     56  C   UNL A   1      46.788  30.500  30.705  1.00  0.00     0.029 A 
ATOM     57  C   UNL A   1      45.459  30.259  30.403  1.00  0.00     0.049 A 
ATOM     58  H   UNL A   1      44.587  28.588  29.452  1.00  0.00     0.167 HD
ATOM     59  C   UNL A   1      43.044  30.770  30.310  1.00  0.00     0.074 A 
ATOM     60  C   UNL A   1      41.890  31.598  30.585  1.00  0.00     0.031 C 
ATOM     61  C   UNL A   1      44.312  31.087  30.672  1.00  0.00     0.031 A 
BRANCH  48  62
ATOM     62  C   UNL A   1      48.441  26.770  29.134  1.00  0.00    -0.014 A 
ATOM     63  C   UNL A   1      49.017  26.170  30.265  1.00  0.00     0.009 A 
ATOM     64  C   UNL A   1      49.224  26.918  27.977  1.00  0.00     0.009 A 
ATOM     65  C   UNL A   1      50.354  25.763  30.245  1.00  0.00     0.001 A 
ATOM     66  C   UNL A   1      50.550  26.483  27.950  1.00  0.00     0.001 A 
ATOM     67  C   UNL A   1      51.118  25.916  29.088  1.00  0.00     0.000 A 
ENDBRANCH  48  62
BRANCH  49  68
ATOM     68  C   UNL A   1      38.825  29.254  28.905  1.00  0.00    -0.014 A 
ATOM     69  C   UNL A   1      38.026  29.008  30.035  1.00  0.00     0.009 A 
ATOM     70  C   UNL A   1      38.214  29.799  27.763  1.00  0.00     0.009 A 
ATOM     71  C   UNL A   1      36.652  29.279  30.011  1.00  0.00     0.001 A 
ATOM     72  C   UNL A   1      36.850  30.103  27.754  1.00  0.00     0.001 A 
ATOM     73  C   UNL A   1      36.068  29.833  28.874  1.00  0.00     0.000 A 
ENDBRANCH  49  68
BRANCH  61  74
ATOM     74  C   UNL A   1      44.536  32.409  31.361  1.00  0.00    -0.014 A 
ATOM     75  C   UNL A   1      44.495  32.528  32.758  1.00  0.00     0.009 A 
ATOM     76  C   UNL A   1      44.840  33.547  30.595  1.00  0.00     0.009 A 
ATOM     77  C   UNL A   1      44.717  33.763  33.372  1.00  0.00     0.001 A 
ATOM     78  C   UNL A   1      45.093  34.774  31.212  1.00  0.00     0.001 A 
ATOM     79  C   UNL A   1      45.022  34.884  32.598  1.00  0.00     0.000 A 
ENDBRANCH  61  74
ENDBRANCH  35  36
ENDBRANCH  28  30
ENDBRANCH  27  28
ENDBRANCH  26  27
ENDBRANCH  25  26
ENDBRANCH  24  25
ENDBRANCH   1  24
TORSDOF 18
ENDMDL
MODEL 3
REMARK VINA RESULT:     -11.9      2.888      4.215
REMARK SMILES CC(C)[C@H](NC(=O)OCc1ccccc1)C(=O)NCC(=O)OCCOC(=O)c1ccc(-c2c3nc(c(-c4ccccc4)c4ccc([nH]4)c(-c4ccccc4)c4nc(c(-c5ccccc5)c5ccc2[nH]5)C=C4)C=C3)cc1
REMARK SMILES IDX 20 1 21 2 19 3 18 4 16 5 17 6 4 8 2 9 1 10 3 11 5 12 6 13
REMARK SMILES IDX 7 15 8 16 9 17 10 18 11 19 15 20 12 21 14 22 13 23 22 24
REMARK SMILES IDX 23 25 24 26 25 27 26 28 27 29 28 30 29 31 75 32 30 33 74 34
REMARK SMILES IDX 31 35 32 36 33 37 68 38 34 39 73 40 67 41 69 42 35 43 72 44
REMARK SMILES IDX 66 45 65 46 36 48 58 49 43 50 57 51 44 52 47 53 56 54 70 55
REMARK SMILES IDX 45 56 46 57 55 59 71 60 48 61 37 62 38 63 42 64 39 65 41 66
REMARK SMILES IDX 40 67 59 68 60 69 64 70 61 71 63 72 62 73 49 74 50 75 54 76
REMARK SMILES IDX 51 77 53 78 52 79
REMARK H PARENT 18 7 5 14 69 47 47 58
REMARK Flexibility Score: inf
ROOT
ATOM      1  C   UNL A   1      34.458  19.514  24.734  1.00  0.00     0.325 C 
ATOM      2  O   UNL A   1      34.153  18.328  24.636  1.00  0.00    -0.250 OA
ENDROOT
BRANCH   1   3
ATOM      3  C   UNL A   1      33.247  20.691  24.534  1.00  0.00     0.238 C 
BRANCH   3   4
ATOM      4  N   UNL A   1      33.058  21.963  23.685  1.00  0.00    -0.343 N 
ATOM      5  C   UNL A   1      32.628  23.221  24.089  1.00  0.00     0.243 C 
ATOM      6  O   UNL A   1      32.276  24.091  23.294  1.00  0.00    -0.273 OA
ATOM      7  H   UNL A   1      33.270  21.872  22.728  1.00  0.00     0.164 HD
BRANCH   5   8
ATOM      8  C   UNL A   1      32.639  23.451  25.573  1.00  0.00     0.177 C 
BRANCH   8   9
ATOM      9  C   UNL A   1      34.102  23.009  26.092  1.00  0.00     0.015 C 
ATOM     10  C   UNL A   1      35.326  23.879  25.783  1.00  0.00     0.010 C 
ATOM     11  C   UNL A   1      34.184  22.592  27.602  1.00  0.00     0.010 C 
ENDBRANCH   8   9
BRANCH   8  12
ATOM     12  N   UNL A   1      31.344  22.885  26.050  1.00  0.00    -0.309 N 
ATOM     13  C   UNL A   1      30.366  23.562  26.840  1.00  0.00     0.408 C 
ATOM     14  H   UNL A   1      31.144  21.955  25.796  1.00  0.00     0.167 HD
ATOM     15  O   UNL A   1      29.653  22.882  27.597  1.00  0.00    -0.225 OA
BRANCH  13  16
ATOM     16  O   UNL A   1      30.145  24.889  26.522  1.00  0.00    -0.445 OA
BRANCH  16  17
ATOM     17  C   UNL A   1      30.740  26.354  26.016  1.00  0.00     0.270 C 
BRANCH  17  18
ATOM     18  C   UNL A   1      31.920  27.557  26.543  1.00  0.00    -0.011 A 
ATOM     19  C   UNL A   1      31.707  28.825  27.215  1.00  0.00     0.007 A 
ATOM     20  C   UNL A   1      33.278  27.342  26.289  1.00  0.00     0.007 A 
ATOM     21  C   UNL A   1      32.617  29.892  27.275  1.00  0.00     0.000 A 
ATOM     22  C   UNL A   1      34.235  28.387  26.426  1.00  0.00     0.000 A 
ATOM     23  C   UNL A   1      33.888  29.681  26.822  1.00  0.00     0.000 A 
ENDBRANCH  17  18
ENDBRANCH  16  17
ENDBRANCH  13  16
ENDBRANCH   8  12
ENDBRANCH   5   8
ENDBRANCH   3   4
ENDBRANCH   1   3
BRANCH   1  24
ATOM     24  O   UNL A   1      35.749  19.973  24.961  1.00  0.00    -0.461 OA
BRANCH  24  25
ATOM     25  C   UNL A   1      37.288  19.886  24.519  1.00  0.00     0.274 C 
BRANCH  25  26
ATOM     26  C   UNL A   1      38.696  20.053  25.661  1.00  0.00     0.275 C 
BRANCH  26  27
ATOM     27  O   UNL A   1      40.054  19.172  25.549  1.00  0.00    -0.458 OA
BRANCH  27  28
ATOM     28  C   UNL A   1      41.361  19.487  25.952  1.00  0.00     0.338 C 
ATOM     29  O   UNL A   1      42.338  18.859  25.566  1.00  0.00    -0.246 OA
BRANCH  28  30
ATOM     30  C   UNL A   1      41.571  20.905  26.611  1.00  0.00     0.060 A 
ATOM     31  C   UNL A   1      42.046  21.995  25.840  1.00  0.00     0.016 A 
ATOM     32  C   UNL A   1      41.530  21.173  27.984  1.00  0.00     0.016 A 
ATOM     33  C   UNL A   1      42.213  23.322  26.329  1.00  0.00     0.010 A 
ATOM     34  C   UNL A   1      41.813  22.489  28.511  1.00  0.00     0.010 A 
ATOM     35  C   UNL A   1      42.107  23.600  27.688  1.00  0.00    -0.014 A 
BRANCH  35  36
ATOM     36  C   UNL A   1      42.444  24.976  28.225  1.00  0.00     0.031 A 
ATOM     37  C   UNL A   1      43.870  25.311  28.618  1.00  0.00     0.074 A 
ATOM     38  C   UNL A   1      41.534  25.974  28.323  1.00  0.00     0.049 A 
ATOM     39  N   UNL A   1      44.348  26.361  29.247  1.00  0.00    -0.248 NA
ATOM     40  C   UNL A   1      44.896  24.333  28.230  1.00  0.00     0.031 C 
ATOM     41  C   UNL A   1      40.152  25.912  27.852  1.00  0.00     0.029 A 
ATOM     42  N   UNL A   1      41.635  27.246  28.865  1.00  0.00    -0.354 N 
ATOM     43  C   UNL A   1      45.720  26.149  29.369  1.00  0.00     0.074 A 
ATOM     44  C   UNL A   1      45.997  24.880  28.728  1.00  0.00     0.031 C 
ATOM     45  C   UNL A   1      39.527  27.064  28.160  1.00  0.00     0.029 A 
ATOM     46  C   UNL A   1      40.440  27.935  28.901  1.00  0.00     0.049 A 
ATOM     47  H   UNL A   1      42.483  27.624  29.193  1.00  0.00     0.167 HD
ATOM     48  C   UNL A   1      46.661  26.919  29.974  1.00  0.00     0.031 A 
ATOM     49  C   UNL A   1      40.097  29.099  29.502  1.00  0.00     0.031 A 
ATOM     50  C   UNL A   1      46.405  28.184  30.618  1.00  0.00     0.049 A 
ATOM     51  C   UNL A   1      41.129  29.880  30.286  1.00  0.00     0.074 A 
ATOM     52  C   UNL A   1      47.299  29.016  31.274  1.00  0.00     0.029 A 
ATOM     53  N   UNL A   1      45.167  28.798  30.691  1.00  0.00    -0.354 N 
ATOM     54  N   UNL A   1      42.408  29.635  30.442  1.00  0.00    -0.248 NA
ATOM     55  C   UNL A   1      40.668  31.094  30.983  1.00  0.00     0.031 C 
ATOM     56  C   UNL A   1      46.589  30.097  31.803  1.00  0.00     0.029 A 
ATOM     57  C   UNL A   1      45.266  29.979  31.411  1.00  0.00     0.049 A 
ATOM     58  H   UNL A   1      44.338  28.449  30.291  1.00  0.00     0.167 HD
ATOM     59  C   UNL A   1      42.904  30.674  31.226  1.00  0.00     0.074 A 
ATOM     60  C   UNL A   1      41.796  31.563  31.499  1.00  0.00     0.031 C 
ATOM     61  C   UNL A   1      44.166  30.869  31.679  1.00  0.00     0.031 A 
BRANCH  48  62
ATOM     62  C   UNL A   1      48.067  26.376  30.048  1.00  0.00    -0.014 A 
ATOM     63  C   UNL A   1      48.998  26.575  29.017  1.00  0.00     0.009 A 
ATOM     64  C   UNL A   1      48.479  25.696  31.207  1.00  0.00     0.009 A 
ATOM     65  C   UNL A   1      50.297  26.073  29.131  1.00  0.00     0.001 A 
ATOM     66  C   UNL A   1      49.786  25.222  31.332  1.00  0.00     0.001 A 
ATOM     67  C   UNL A   1      50.691  25.401  30.289  1.00  0.00     0.000 A 
ENDBRANCH  48  62
BRANCH  49  68
ATOM     68  C   UNL A   1      38.681  29.579  29.481  1.00  0.00    -0.014 A 
ATOM     69  C   UNL A   1      38.236  30.510  28.527  1.00  0.00     0.009 A 
ATOM     70  C   UNL A   1      37.777  29.160  30.474  1.00  0.00     0.009 A 
ATOM     71  C   UNL A   1      36.934  31.022  28.580  1.00  0.00     0.001 A 
ATOM     72  C   UNL A   1      36.466  29.644  30.502  1.00  0.00     0.001 A 
ATOM     73  C   UNL A   1      36.049  30.584  29.563  1.00  0.00     0.000 A 
ENDBRANCH  49  68
BRANCH  61  74
ATOM     74  C   UNL A   1      44.441  32.117  32.477  1.00  0.00    -0.014 A 
ATOM     75  C   UNL A   1      44.802  33.324  31.858  1.00  0.00     0.009 A 
ATOM     76  C   UNL A   1      44.291  32.094  33.874  1.00  0.00     0.009 A 
ATOM     77  C   UNL A   1      45.040  34.469  32.622  1.00  0.00     0.001 A 
ATOM     78  C   UNL A   1      44.500  33.247  34.633  1.00  0.00     0.001 A 
ATOM     79  C   UNL A   1      44.883  34.432  34.008  1.00  0.00     0.000 A 
ENDBRANCH  61  74
ENDBRANCH  35  36
ENDBRANCH  28  30
ENDBRANCH  27  28
ENDBRANCH  26  27
ENDBRANCH  25  26
ENDBRANCH  24  25
ENDBRANCH   1  24
TORSDOF 18
ENDMDL
