MODEL 1
REMARK VINA RESULT:      -8.5      0.000      0.000
REMARK SMILES N#Cc1cc(-c2cncc(C(=O)OCCOC(=O)c3ccc(-c4c5nc(c(-c6ccccc6)c6ccc([nH]6)c(-c6ccccc6)c6nc(c(-c7ccccc7)c7ccc4[nH]7)C=C6)C=C5)cc3)c2)ccc1Cl
REMARK SMILES IDX 14 1 13 2 11 3 12 4 10 5 6 6 7 7 67 8 8 9 9 10 5 11 3 12
REMARK SMILES IDX 4 13 70 14 69 15 71 16 68 17 2 18 1 19 15 20 16 21 17 22
REMARK SMILES IDX 18 23 19 24 20 25 66 26 21 27 65 28 22 29 23 30 24 31 59 32
REMARK SMILES IDX 25 33 64 34 58 35 60 36 26 37 63 38 57 39 56 40 27 42 49 43
REMARK SMILES IDX 34 44 48 45 35 46 38 47 47 48 61 49 36 50 37 51 46 53 62 54
REMARK SMILES IDX 39 55 28 56 29 57 33 58 30 59 32 60 31 61 50 62 51 63 55 64
REMARK SMILES IDX 52 65 54 66 53 67 40 68 41 69 45 70 42 71 44 72 43 73
REMARK H PARENT 60 41 38 52
REMARK Flexibility Score: inf
ROOT
ATOM      1  C   UNL A   1      44.999  20.487  24.777  1.00  0.00     0.275 C 
ENDROOT
BRANCH   1   2
ATOM      2  O   UNL A   1      44.925  21.786  25.407  1.00  0.00    -0.458 OA
BRANCH   2   3
ATOM      3  C   UNL A   1      44.671  22.834  24.584  1.00  0.00     0.339 C 
ATOM      4  O   UNL A   1      43.819  22.880  23.712  1.00  0.00    -0.246 OA
BRANCH   3   5
ATOM      5  C   UNL A   1      45.529  23.988  24.914  1.00  0.00     0.079 A 
ATOM      6  C   UNL A   1      45.870  26.287  25.567  1.00  0.00     0.001 A 
ATOM      7  C   UNL A   1      47.233  25.996  25.660  1.00  0.00     0.119 A 
ATOM      8  C   UNL A   1      45.010  25.256  25.156  1.00  0.00     0.027 A 
ATOM      9  N   UNL A   1      47.768  24.783  25.428  1.00  0.00    -0.263 NA
ATOM     10  C   UNL A   1      46.895  23.807  25.093  1.00  0.00     0.126 A 
BRANCH   6  11
ATOM     11  C   UNL A   1      45.361  27.597  25.965  1.00  0.00    -0.015 A 
ATOM     12  C   UNL A   1      45.756  29.972  26.389  1.00  0.00     0.071 A 
ATOM     13  C   UNL A   1      46.232  28.695  26.058  1.00  0.00     0.029 A 
ATOM     14  C   UNL A   1      44.391  30.152  26.628  1.00  0.00     0.058 A 
ATOM     15  C   UNL A   1      43.514  29.067  26.537  1.00  0.00     0.022 A 
ATOM     16  Cl  UNL A   1      43.727  31.692  27.034  1.00  0.00    -0.083 Cl
ATOM     17  C   UNL A   1      43.996  27.800  26.209  1.00  0.00     0.010 A 
BRANCH  12  18
ATOM     18  C   UNL A   1      46.695  31.049  26.462  1.00  0.00     0.101 C 
ATOM     19  N   UNL A   1      47.486  31.895  26.556  1.00  0.00    -0.192 NA
ENDBRANCH  12  18
ENDBRANCH   6  11
ENDBRANCH   3   5
ENDBRANCH   2   3
ENDBRANCH   1   2
BRANCH   1  20
ATOM     20  C   UNL A   1      43.942  19.525  25.329  1.00  0.00     0.275 C 
BRANCH  20  21
ATOM     21  O   UNL A   1      42.618  19.892  24.900  1.00  0.00    -0.458 OA
BRANCH  21  22
ATOM     22  C   UNL A   1      41.686  19.846  25.875  1.00  0.00     0.338 C 
ATOM     23  O   UNL A   1      40.986  18.897  26.189  1.00  0.00    -0.246 OA
BRANCH  22  24
ATOM     24  C   UNL A   1      41.689  21.083  26.662  1.00  0.00     0.060 A 
ATOM     25  C   UNL A   1      41.469  22.264  25.970  1.00  0.00     0.016 A 
ATOM     26  C   UNL A   1      42.156  21.120  27.969  1.00  0.00     0.016 A 
ATOM     27  C   UNL A   1      41.899  23.474  26.489  1.00  0.00     0.010 A 
ATOM     28  C   UNL A   1      42.411  22.363  28.564  1.00  0.00     0.010 A 
ATOM     29  C   UNL A   1      42.337  23.554  27.813  1.00  0.00    -0.014 A 
BRANCH  29  30
ATOM     30  C   UNL A   1      42.701  24.877  28.394  1.00  0.00     0.031 A 
ATOM     31  C   UNL A   1      41.644  25.922  28.646  1.00  0.00     0.074 A 
ATOM     32  C   UNL A   1      43.987  25.144  28.706  1.00  0.00     0.049 A 
ATOM     33  N   UNL A   1      41.788  27.179  28.984  1.00  0.00    -0.248 NA
ATOM     34  C   UNL A   1      40.243  25.505  28.474  1.00  0.00     0.031 C 
ATOM     35  C   UNL A   1      45.110  24.208  28.581  1.00  0.00     0.029 A 
ATOM     36  N   UNL A   1      44.570  26.282  29.206  1.00  0.00    -0.354 N 
ATOM     37  C   UNL A   1      40.505  27.714  29.010  1.00  0.00     0.074 A 
ATOM     38  C   UNL A   1      39.599  26.653  28.624  1.00  0.00     0.031 C 
ATOM     39  C   UNL A   1      46.224  24.784  29.047  1.00  0.00     0.029 A 
ATOM     40  C   UNL A   1      45.927  26.167  29.386  1.00  0.00     0.049 A 
ATOM     41  H   UNL A   1      44.065  27.100  29.416  1.00  0.00     0.167 HD
ATOM     42  C   UNL A   1      40.117  28.975  29.325  1.00  0.00     0.031 A 
ATOM     43  C   UNL A   1      46.851  27.082  29.732  1.00  0.00     0.031 A 
ATOM     44  C   UNL A   1      41.026  30.023  29.715  1.00  0.00     0.049 A 
ATOM     45  C   UNL A   1      46.411  28.495  29.970  1.00  0.00     0.074 A 
ATOM     46  C   UNL A   1      40.739  31.332  30.062  1.00  0.00     0.029 A 
ATOM     47  N   UNL A   1      42.403  29.878  29.813  1.00  0.00    -0.354 N 
ATOM     48  N   UNL A   1      45.201  28.997  29.959  1.00  0.00    -0.248 NA
ATOM     49  C   UNL A   1      47.470  29.470  30.257  1.00  0.00     0.031 C 
ATOM     50  C   UNL A   1      41.947  31.998  30.292  1.00  0.00     0.029 A 
ATOM     51  C   UNL A   1      42.982  31.083  30.177  1.00  0.00     0.049 A 
ATOM     52  H   UNL A   1      42.896  29.042  29.648  1.00  0.00     0.167 HD
ATOM     53  C   UNL A   1      45.347  30.339  30.273  1.00  0.00     0.074 A 
ATOM     54  C   UNL A   1      46.763  30.568  30.485  1.00  0.00     0.031 C 
ATOM     55  C   UNL A   1      44.393  31.297  30.381  1.00  0.00     0.031 A 
BRANCH  42  56
ATOM     56  C   UNL A   1      38.650  29.301  29.195  1.00  0.00    -0.014 A 
ATOM     57  C   UNL A   1      37.776  29.250  30.293  1.00  0.00     0.009 A 
ATOM     58  C   UNL A   1      38.132  29.666  27.941  1.00  0.00     0.009 A 
ATOM     59  C   UNL A   1      36.410  29.494  30.126  1.00  0.00     0.001 A 
ATOM     60  C   UNL A   1      36.774  29.951  27.785  1.00  0.00     0.001 A 
ATOM     61  C   UNL A   1      35.911  29.847  28.873  1.00  0.00     0.000 A 
ENDBRANCH  42  56
BRANCH  43  62
ATOM     62  C   UNL A   1      48.283  26.695  29.840  1.00  0.00    -0.014 A 
ATOM     63  C   UNL A   1      49.078  26.596  28.689  1.00  0.00     0.009 A 
ATOM     64  C   UNL A   1      48.868  26.431  31.091  1.00  0.00     0.009 A 
ATOM     65  C   UNL A   1      50.419  26.217  28.785  1.00  0.00     0.001 A 
ATOM     66  C   UNL A   1      50.219  26.092  31.186  1.00  0.00     0.001 A 
ATOM     67  C   UNL A   1      50.990  25.973  30.033  1.00  0.00     0.000 A 
ENDBRANCH  43  62
BRANCH  55  68
ATOM     68  C   UNL A   1      44.847  32.668  30.799  1.00  0.00    -0.014 A 
ATOM     69  C   UNL A   1      44.941  33.034  32.152  1.00  0.00     0.009 A 
ATOM     70  C   UNL A   1      45.210  33.604  29.817  1.00  0.00     0.009 A 
ATOM     71  C   UNL A   1      45.350  34.320  32.508  1.00  0.00     0.001 A 
ATOM     72  C   UNL A   1      45.656  34.875  30.177  1.00  0.00     0.001 A 
ATOM     73  C   UNL A   1      45.713  35.236  31.521  1.00  0.00     0.000 A 
ENDBRANCH  55  68
ENDBRANCH  29  30
ENDBRANCH  22  24
ENDBRANCH  21  22
ENDBRANCH  20  21
ENDBRANCH   1  20
TORSDOF 13
ENDMDL
MODEL 2
REMARK VINA RESULT:      -8.3      4.943      9.320
REMARK SMILES N#Cc1cc(-c2cncc(C(=O)OCCOC(=O)c3ccc(-c4c5nc(c(-c6ccccc6)c6ccc([nH]6)c(-c6ccccc6)c6nc(c(-c7ccccc7)c7ccc4[nH]7)C=C6)C=C5)cc3)c2)ccc1Cl
REMARK SMILES IDX 14 1 13 2 11 3 12 4 10 5 6 6 7 7 67 8 8 9 9 10 5 11 3 12
REMARK SMILES IDX 4 13 70 14 69 15 71 16 68 17 2 18 1 19 15 20 16 21 17 22
REMARK SMILES IDX 18 23 19 24 20 25 66 26 21 27 65 28 22 29 23 30 24 31 59 32
REMARK SMILES IDX 25 33 64 34 58 35 60 36 26 37 63 38 57 39 56 40 27 42 49 43
REMARK SMILES IDX 34 44 48 45 35 46 38 47 47 48 61 49 36 50 37 51 46 53 62 54
REMARK SMILES IDX 39 55 28 56 29 57 33 58 30 59 32 60 31 61 50 62 51 63 55 64
REMARK SMILES IDX 52 65 54 66 53 67 40 68 41 69 45 70 42 71 44 72 43 73
REMARK H PARENT 60 41 38 52
REMARK Flexibility Score: inf
ROOT
ATOM      1  C   UNL A   1      42.639  20.232  26.016  1.00  0.00     0.275 C 
ENDROOT
BRANCH   1   2
ATOM      2  O   UNL A   1      41.442  20.840  26.553  1.00  0.00    -0.458 OA
BRANCH   2   3
ATOM      3  C   UNL A   1      40.266  20.372  26.067  1.00  0.00     0.339 C 
ATOM      4  O   UNL A   1      40.004  19.212  25.797  1.00  0.00    -0.246 OA
BRANCH   3   5
ATOM      5  C   UNL A   1      39.269  21.454  25.958  1.00  0.00     0.079 A 
ATOM      6  C   UNL A   1      37.138  22.341  25.250  1.00  0.00     0.001 A 
ATOM      7  C   UNL A   1      37.447  23.497  25.971  1.00  0.00     0.119 A 
ATOM      8  C   UNL A   1      38.093  21.313  25.228  1.00  0.00     0.027 A 
ATOM      9  N   UNL A   1      38.576  23.669  26.683  1.00  0.00    -0.263 NA
ATOM     10  C   UNL A   1      39.439  22.628  26.682  1.00  0.00     0.126 A 
BRANCH   6  11
ATOM     11  C   UNL A   1      35.831  22.189  24.615  1.00  0.00    -0.015 A 
ATOM     12  C   UNL A   1      33.710  20.990  24.419  1.00  0.00     0.071 A 
ATOM     13  C   UNL A   1      34.988  21.126  24.979  1.00  0.00     0.029 A 
ATOM     14  C   UNL A   1      33.270  21.931  23.485  1.00  0.00     0.058 A 
ATOM     15  C   UNL A   1      34.099  22.994  23.115  1.00  0.00     0.022 A 
ATOM     16  Cl  UNL A   1      31.709  21.837  22.755  1.00  0.00    -0.083 Cl
ATOM     17  C   UNL A   1      35.370  23.121  23.676  1.00  0.00     0.010 A 
BRANCH  12  18
ATOM     18  C   UNL A   1      32.900  19.887  24.836  1.00  0.00     0.101 C 
ATOM     19  N   UNL A   1      32.274  18.959  25.149  1.00  0.00    -0.192 NA
ENDBRANCH  12  18
ENDBRANCH   6  11
ENDBRANCH   3   5
ENDBRANCH   2   3
ENDBRANCH   1   2
BRANCH   1  20
ATOM     20  C   UNL A   1      43.568  21.269  25.378  1.00  0.00     0.275 C 
BRANCH  20  21
ATOM     21  O   UNL A   1      42.855  22.466  25.016  1.00  0.00    -0.458 OA
BRANCH  21  22
ATOM     22  C   UNL A   1      43.538  23.609  25.240  1.00  0.00     0.338 C 
ATOM     23  O   UNL A   1      44.572  23.972  24.704  1.00  0.00    -0.246 OA
BRANCH  22  24
ATOM     24  C   UNL A   1      42.800  24.491  26.149  1.00  0.00     0.060 A 
ATOM     25  C   UNL A   1      42.977  25.854  25.977  1.00  0.00     0.016 A 
ATOM     26  C   UNL A   1      42.176  24.009  27.293  1.00  0.00     0.016 A 
ATOM     27  C   UNL A   1      42.726  26.733  27.018  1.00  0.00     0.010 A 
ATOM     28  C   UNL A   1      41.746  24.921  28.267  1.00  0.00     0.010 A 
ATOM     29  C   UNL A   1      42.064  26.291  28.166  1.00  0.00    -0.014 A 
BRANCH  29  30
ATOM     30  C   UNL A   1      41.707  27.264  29.236  1.00  0.00     0.031 A 
ATOM     31  C   UNL A   1      42.527  27.354  30.498  1.00  0.00     0.074 A 
ATOM     32  C   UNL A   1      40.644  28.081  29.075  1.00  0.00     0.049 A 
ATOM     33  N   UNL A   1      42.277  28.012  31.602  1.00  0.00    -0.248 NA
ATOM     34  C   UNL A   1      43.781  26.584  30.531  1.00  0.00     0.031 C 
ATOM     35  C   UNL A   1      39.796  28.155  27.880  1.00  0.00     0.029 A 
ATOM     36  N   UNL A   1      40.098  29.017  29.917  1.00  0.00    -0.354 N 
ATOM     37  C   UNL A   1      43.309  27.693  32.477  1.00  0.00     0.074 A 
ATOM     38  C   UNL A   1      44.171  26.759  31.785  1.00  0.00     0.031 C 
ATOM     39  C   UNL A   1      38.884  29.122  28.041  1.00  0.00     0.029 A 
ATOM     40  C   UNL A   1      38.997  29.650  29.391  1.00  0.00     0.049 A 
ATOM     41  H   UNL A   1      40.460  29.217  30.811  1.00  0.00     0.167 HD
ATOM     42  C   UNL A   1      43.518  28.136  33.742  1.00  0.00     0.031 A 
ATOM     43  C   UNL A   1      38.133  30.520  29.944  1.00  0.00     0.031 A 
ATOM     44  C   UNL A   1      42.657  29.072  34.419  1.00  0.00     0.049 A 
ATOM     45  C   UNL A   1      38.324  30.911  31.379  1.00  0.00     0.074 A 
ATOM     46  C   UNL A   1      42.779  29.592  35.696  1.00  0.00     0.029 A 
ATOM     47  N   UNL A   1      41.511  29.631  33.870  1.00  0.00    -0.354 N 
ATOM     48  N   UNL A   1      39.284  30.578  32.206  1.00  0.00    -0.248 NA
ATOM     49  C   UNL A   1      37.303  31.792  31.958  1.00  0.00     0.031 C 
ATOM     50  C   UNL A   1      41.668  30.403  35.946  1.00  0.00     0.029 A 
ATOM     51  C   UNL A   1      40.898  30.459  34.795  1.00  0.00     0.049 A 
ATOM     52  H   UNL A   1      41.181  29.463  32.957  1.00  0.00     0.167 HD
ATOM     53  C   UNL A   1      39.003  31.236  33.393  1.00  0.00     0.074 A 
ATOM     54  C   UNL A   1      37.791  32.001  33.171  1.00  0.00     0.031 C 
ATOM     55  C   UNL A   1      39.689  31.212  34.562  1.00  0.00     0.031 A 
BRANCH  42  56
ATOM     56  C   UNL A   1      44.691  27.559  34.493  1.00  0.00    -0.014 A 
ATOM     57  C   UNL A   1      45.995  28.056  34.331  1.00  0.00     0.009 A 
ATOM     58  C   UNL A   1      44.486  26.490  35.381  1.00  0.00     0.009 A 
ATOM     59  C   UNL A   1      47.071  27.457  34.992  1.00  0.00     0.001 A 
ATOM     60  C   UNL A   1      45.556  25.919  36.072  1.00  0.00     0.001 A 
ATOM     61  C   UNL A   1      46.850  26.391  35.864  1.00  0.00     0.000 A 
ENDBRANCH  42  56
BRANCH  43  62
ATOM     62  C   UNL A   1      36.993  31.050  29.149  1.00  0.00    -0.014 A 
ATOM     63  C   UNL A   1      36.981  32.390  28.737  1.00  0.00     0.009 A 
ATOM     64  C   UNL A   1      35.917  30.221  28.788  1.00  0.00     0.009 A 
ATOM     65  C   UNL A   1      35.905  32.897  28.004  1.00  0.00     0.001 A 
ATOM     66  C   UNL A   1      34.862  30.720  28.022  1.00  0.00     0.001 A 
ATOM     67  C   UNL A   1      34.851  32.060  27.640  1.00  0.00     0.000 A 
ENDBRANCH  43  62
BRANCH  55  68
ATOM     68  C   UNL A   1      39.174  32.084  35.674  1.00  0.00    -0.014 A 
ATOM     69  C   UNL A   1      39.586  33.419  35.816  1.00  0.00     0.009 A 
ATOM     70  C   UNL A   1      38.240  31.563  36.583  1.00  0.00     0.009 A 
ATOM     71  C   UNL A   1      39.102  34.198  36.869  1.00  0.00     0.001 A 
ATOM     72  C   UNL A   1      37.728  32.355  37.610  1.00  0.00     0.001 A 
ATOM     73  C   UNL A   1      38.170  33.668  37.759  1.00  0.00     0.000 A 
ENDBRANCH  55  68
ENDBRANCH  29  30
ENDBRANCH  22  24
ENDBRANCH  21  22
ENDBRANCH  20  21
ENDBRANCH   1  20
TORSDOF 13
ENDMDL
MODEL 3
REMARK VINA RESULT:      -8.3      7.089     12.240
REMARK SMILES N#Cc1cc(-c2cncc(C(=O)OCCOC(=O)c3ccc(-c4c5nc(c(-c6ccccc6)c6ccc([nH]6)c(-c6ccccc6)c6nc(c(-c7ccccc7)c7ccc4[nH]7)C=C6)C=C5)cc3)c2)ccc1Cl
REMARK SMILES IDX 14 1 13 2 11 3 12 4 10 5 6 6 7 7 67 8 8 9 9 10 5 11 3 12
REMARK SMILES IDX 4 13 70 14 69 15 71 16 68 17 2 18 1 19 15 20 16 21 17 22
REMARK SMILES IDX 18 23 19 24 20 25 66 26 21 27 65 28 22 29 23 30 24 31 59 32
REMARK SMILES IDX 25 33 64 34 58 35 60 36 26 37 63 38 57 39 56 40 27 42 49 43
REMARK SMILES IDX 34 44 48 45 35 46 38 47 47 48 61 49 36 50 37 51 46 53 62 54
REMARK SMILES IDX 39 55 28 56 29 57 33 58 30 59 32 60 31 61 50 62 51 63 55 64
REMARK SMILES IDX 52 65 54 66 53 67 40 68 41 69 45 70 42 71 44 72 43 73
REMARK H PARENT 60 41 38 52
REMARK Flexibility Score: inf
ROOT
ATOM      1  C   UNL A   1      34.108  35.367  28.702  1.00  0.00     0.275 C 
ENDROOT
BRANCH   1   2
ATOM      2  O   UNL A   1      33.998  33.936  28.874  1.00  0.00    -0.458 OA
BRANCH   2   3
ATOM      3  C   UNL A   1      33.160  33.295  28.021  1.00  0.00     0.339 C 
ATOM      4  O   UNL A   1      32.189  33.776  27.461  1.00  0.00    -0.246 OA
BRANCH   3   5
ATOM      5  C   UNL A   1      33.607  31.909  27.779  1.00  0.00     0.079 A 
ATOM      6  C   UNL A   1      33.293  29.677  26.915  1.00  0.00     0.001 A 
ATOM      7  C   UNL A   1      34.624  29.423  27.256  1.00  0.00     0.119 A 
ATOM      8  C   UNL A   1      32.776  30.947  27.216  1.00  0.00     0.027 A 
ATOM      9  N   UNL A   1      35.453  30.328  27.806  1.00  0.00    -0.263 NA
ATOM     10  C   UNL A   1      34.928  31.556  28.022  1.00  0.00     0.126 A 
BRANCH   6  11
ATOM     11  C   UNL A   1      32.505  28.677  26.199  1.00  0.00    -0.015 A 
ATOM     12  C   UNL A   1      31.602  26.410  26.061  1.00  0.00     0.071 A 
ATOM     13  C   UNL A   1      32.394  27.371  26.705  1.00  0.00     0.029 A 
ATOM     14  C   UNL A   1      30.910  26.761  24.899  1.00  0.00     0.058 A 
ATOM     15  C   UNL A   1      31.011  28.058  24.388  1.00  0.00     0.022 A 
ATOM     16  Cl  UNL A   1      29.911  25.637  24.053  1.00  0.00    -0.083 Cl
ATOM     17  C   UNL A   1      31.803  29.008  25.033  1.00  0.00     0.010 A 
BRANCH  12  18
ATOM     18  C   UNL A   1      31.529  25.099  26.630  1.00  0.00     0.101 C 
ATOM     19  N   UNL A   1      31.420  24.044  27.108  1.00  0.00    -0.192 NA
ENDBRANCH  12  18
ENDBRANCH   6  11
ENDBRANCH   3   5
ENDBRANCH   2   3
ENDBRANCH   1   2
BRANCH   1  20
ATOM     20  C   UNL A   1      33.090  36.124  29.560  1.00  0.00     0.275 C 
BRANCH  20  21
ATOM     21  O   UNL A   1      32.572  35.298  30.618  1.00  0.00    -0.458 OA
BRANCH  21  22
ATOM     22  C   UNL A   1      32.755  35.803  31.857  1.00  0.00     0.338 C 
ATOM     23  O   UNL A   1      32.087  36.657  32.416  1.00  0.00    -0.246 OA
BRANCH  22  24
ATOM     24  C   UNL A   1      33.820  35.084  32.563  1.00  0.00     0.060 A 
ATOM     25  C   UNL A   1      35.084  35.650  32.529  1.00  0.00     0.016 A 
ATOM     26  C   UNL A   1      33.654  33.779  33.009  1.00  0.00     0.016 A 
ATOM     27  C   UNL A   1      36.210  34.871  32.739  1.00  0.00     0.010 A 
ATOM     28  C   UNL A   1      34.783  33.049  33.406  1.00  0.00     0.010 A 
ATOM     29  C   UNL A   1      36.081  33.568  33.225  1.00  0.00    -0.014 A 
BRANCH  29  30
ATOM     30  C   UNL A   1      37.300  32.772  33.544  1.00  0.00     0.031 A 
ATOM     31  C   UNL A   1      38.002  32.941  34.868  1.00  0.00     0.074 A 
ATOM     32  C   UNL A   1      37.779  31.886  32.646  1.00  0.00     0.049 A 
ATOM     33  N   UNL A   1      39.159  32.467  35.256  1.00  0.00    -0.248 NA
ATOM     34  C   UNL A   1      37.324  33.768  35.878  1.00  0.00     0.031 C 
ATOM     35  C   UNL A   1      37.169  31.567  31.350  1.00  0.00     0.029 A 
ATOM     36  N   UNL A   1      38.889  31.079  32.689  1.00  0.00    -0.354 N 
ATOM     37  C   UNL A   1      39.373  32.983  36.530  1.00  0.00     0.074 A 
ATOM     38  C   UNL A   1      38.239  33.830  36.835  1.00  0.00     0.031 C 
ATOM     39  C   UNL A   1      37.872  30.595  30.755  1.00  0.00     0.029 A 
ATOM     40  C   UNL A   1      39.049  30.310  31.560  1.00  0.00     0.049 A 
ATOM     41  H   UNL A   1      39.509  31.053  33.452  1.00  0.00     0.167 HD
ATOM     42  C   UNL A   1      40.418  32.772  37.367  1.00  0.00     0.031 A 
ATOM     43  C   UNL A   1      40.055  29.503  31.180  1.00  0.00     0.031 A 
ATOM     44  C   UNL A   1      41.538  31.920  37.057  1.00  0.00     0.049 A 
ATOM     45  C   UNL A   1      41.250  29.371  32.076  1.00  0.00     0.074 A 
ATOM     46  C   UNL A   1      42.646  31.631  37.835  1.00  0.00     0.029 A 
ATOM     47  N   UNL A   1      41.691  31.218  35.870  1.00  0.00    -0.354 N 
ATOM     48  N   UNL A   1      41.456  29.889  33.261  1.00  0.00    -0.248 NA
ATOM     49  C   UNL A   1      42.357  28.548  31.572  1.00  0.00     0.031 C 
ATOM     50  C   UNL A   1      43.504  30.818  37.088  1.00  0.00     0.029 A 
ATOM     51  C   UNL A   1      42.892  30.527  35.879  1.00  0.00     0.049 A 
ATOM     52  H   UNL A   1      41.043  31.212  35.129  1.00  0.00     0.167 HD
ATOM     53  C   UNL A   1      42.700  29.428  33.663  1.00  0.00     0.074 A 
ATOM     54  C   UNL A   1      43.194  28.574  32.599  1.00  0.00     0.031 C 
ATOM     55  C   UNL A   1      43.373  29.684  34.812  1.00  0.00     0.031 A 
BRANCH  42  56
ATOM     56  C   UNL A   1      40.423  33.528  38.672  1.00  0.00    -0.014 A 
ATOM     57  C   UNL A   1      39.754  33.050  39.812  1.00  0.00     0.009 A 
ATOM     58  C   UNL A   1      41.113  34.748  38.761  1.00  0.00     0.009 A 
ATOM     59  C   UNL A   1      39.724  33.807  40.987  1.00  0.00     0.001 A 
ATOM     60  C   UNL A   1      41.117  35.482  39.949  1.00  0.00     0.001 A 
ATOM     61  C   UNL A   1      40.407  35.021  41.055  1.00  0.00     0.000 A 
ENDBRANCH  42  56
BRANCH  43  62
ATOM     62  C   UNL A   1      39.989  28.787  29.878  1.00  0.00    -0.014 A 
ATOM     63  C   UNL A   1      39.468  27.487  29.811  1.00  0.00     0.009 A 
ATOM     64  C   UNL A   1      40.436  29.399  28.693  1.00  0.00     0.009 A 
ATOM     65  C   UNL A   1      39.419  26.805  28.592  1.00  0.00     0.001 A 
ATOM     66  C   UNL A   1      40.349  28.730  27.472  1.00  0.00     0.001 A 
ATOM     67  C   UNL A   1      39.852  27.430  27.424  1.00  0.00     0.000 A 
ENDBRANCH  43  62
BRANCH  55  68
ATOM     68  C   UNL A   1      44.692  28.987  35.001  1.00  0.00    -0.014 A 
ATOM     69  C   UNL A   1      44.780  27.725  35.609  1.00  0.00     0.009 A 
ATOM     70  C   UNL A   1      45.868  29.600  34.538  1.00  0.00     0.009 A 
ATOM     71  C   UNL A   1      46.021  27.111  35.786  1.00  0.00     0.001 A 
ATOM     72  C   UNL A   1      47.103  28.967  34.679  1.00  0.00     0.001 A 
ATOM     73  C   UNL A   1      47.179  27.729  35.314  1.00  0.00     0.000 A 
ENDBRANCH  55  68
ENDBRANCH  29  30
ENDBRANCH  22  24
ENDBRANCH  21  22
ENDBRANCH  20  21
ENDBRANCH   1  20
TORSDOF 13
ENDMDL
