MODEL 1
REMARK VINA RESULT:     -10.1      0.000      0.000
REMARK SMILES NC(=O)C[C@H](NC(=O)[C@@H]1CCC[NH2+]1)C(=O)OCCOC(=O)c1ccc(-c2c3nc(c(-c4ccccc4)c4ccc([nH]4)c(-c4ccccc4)c4nc(c(-c5ccccc5)c5ccc2[nH]5)C=C4)C=C3)cc1
REMARK SMILES IDX 17 1 16 2 14 3 15 4 5 5 4 6 2 7 1 8 3 11 6 12 7 13 8 15 9 16
REMARK SMILES IDX 10 17 13 18 11 19 12 20 18 23 19 24 20 25 21 26 22 27 23 28
REMARK SMILES IDX 69 29 24 30 68 31 25 32 26 33 27 34 62 35 28 36 67 37 61 38
REMARK SMILES IDX 63 39 29 40 66 41 60 42 59 43 30 45 52 46 37 47 51 48 38 49
REMARK SMILES IDX 41 50 50 51 64 52 39 53 40 54 49 56 65 57 42 58 31 59 32 60
REMARK SMILES IDX 36 61 33 62 35 63 34 64 53 65 54 66 58 67 55 68 57 69 56 70
REMARK SMILES IDX 43 71 44 72 48 73 45 74 47 75 46 76
REMARK H PARENT 1 9 1 10 6 14 13 21 13 22 63 44 41 55
REMARK Flexibility Score: inf
ROOT
ATOM      1  C   UNL A   1      36.456  33.122  33.693  1.00  0.00     0.274 C 
ENDROOT
BRANCH   1   2
ATOM      2  O   UNL A   1      35.182  33.453  34.279  1.00  0.00    -0.461 OA
BRANCH   2   3
ATOM      3  C   UNL A   1      34.169  33.652  33.394  1.00  0.00     0.329 C 
ATOM      4  O   UNL A   1      33.160  32.959  33.306  1.00  0.00    -0.250 OA
BRANCH   3   5
ATOM      5  C   UNL A   1      34.380  34.902  32.529  1.00  0.00     0.201 C 
BRANCH   5   6
ATOM      6  C   UNL A   1      34.280  36.147  33.419  1.00  0.00     0.136 C 
BRANCH   6   7
ATOM      7  C   UNL A   1      33.428  37.206  32.763  1.00  0.00     0.220 C 
ATOM      8  N   UNL A   1      34.117  38.221  32.168  1.00  0.00    -0.370 N 
ATOM      9  H   UNL A   1      33.630  38.949  31.719  1.00  0.00     0.159 HD
ATOM     10  H   UNL A   1      35.101  38.225  32.187  1.00  0.00     0.159 HD
ATOM     11  O   UNL A   1      32.207  37.137  32.695  1.00  0.00    -0.275 OA
ENDBRANCH   6   7
ENDBRANCH   5   6
BRANCH   5  12
ATOM     12  N   UNL A   1      33.496  35.013  31.365  1.00  0.00    -0.337 N 
ATOM     13  C   UNL A   1      33.626  34.636  30.067  1.00  0.00     0.278 C 
ATOM     14  H   UNL A   1      32.636  35.449  31.563  1.00  0.00     0.164 HD
ATOM     15  O   UNL A   1      32.819  35.127  29.270  1.00  0.00    -0.268 OA
BRANCH  13  16
ATOM     16  C   UNL A   1      34.655  33.611  29.591  1.00  0.00     0.272 C 
ATOM     17  C   UNL A   1      35.156  33.854  28.183  1.00  0.00     0.081 C 
ATOM     18  N   UNL A   1      34.206  32.200  29.631  1.00  0.00    -0.336 N 
ATOM     19  C   UNL A   1      35.786  32.520  27.860  1.00  0.00     0.068 C 
ATOM     20  C   UNL A   1      34.848  31.513  28.501  1.00  0.00     0.261 C 
ATOM     21  H   UNL A   1      33.191  32.151  29.541  1.00  0.00     0.346 HD
ATOM     22  H   UNL A   1      34.460  31.762  30.517  1.00  0.00     0.346 HD
ENDBRANCH  13  16
ENDBRANCH   5  12
ENDBRANCH   3   5
ENDBRANCH   2   3
ENDBRANCH   1   2
BRANCH   1  23
ATOM     23  C   UNL A   1      36.273  32.165  32.518  1.00  0.00     0.275 C 
BRANCH  23  24
ATOM     24  O   UNL A   1      36.939  30.912  32.785  1.00  0.00    -0.458 OA
BRANCH  24  25
ATOM     25  C   UNL A   1      37.018  30.064  31.738  1.00  0.00     0.338 C 
ATOM     26  O   UNL A   1      36.126  29.340  31.309  1.00  0.00    -0.246 OA
BRANCH  25  27
ATOM     27  C   UNL A   1      38.351  30.099  31.104  1.00  0.00     0.060 A 
ATOM     28  C   UNL A   1      38.504  30.354  29.741  1.00  0.00     0.016 A 
ATOM     29  C   UNL A   1      39.451  29.687  31.863  1.00  0.00     0.016 A 
ATOM     30  C   UNL A   1      39.728  30.071  29.121  1.00  0.00     0.010 A 
ATOM     31  C   UNL A   1      40.693  29.488  31.252  1.00  0.00     0.010 A 
ATOM     32  C   UNL A   1      40.834  29.608  29.861  1.00  0.00    -0.014 A 
BRANCH  32  33
ATOM     33  C   UNL A   1      42.104  29.185  29.191  1.00  0.00     0.031 A 
ATOM     34  C   UNL A   1      42.296  27.763  28.695  1.00  0.00     0.074 A 
ATOM     35  C   UNL A   1      43.103  30.069  28.995  1.00  0.00     0.049 A 
ATOM     36  N   UNL A   1      43.364  27.207  28.172  1.00  0.00    -0.248 NA
ATOM     37  C   UNL A   1      41.142  26.853  28.781  1.00  0.00     0.031 C 
ATOM     38  C   UNL A   1      43.072  31.484  29.364  1.00  0.00     0.029 A 
ATOM     39  N   UNL A   1      44.347  29.899  28.435  1.00  0.00    -0.354 N 
ATOM     40  C   UNL A   1      43.013  25.892  27.880  1.00  0.00     0.074 A 
ATOM     41  C   UNL A   1      41.636  25.726  28.288  1.00  0.00     0.031 C 
ATOM     42  C   UNL A   1      44.226  32.059  28.995  1.00  0.00     0.029 A 
ATOM     43  C   UNL A   1      45.115  31.039  28.450  1.00  0.00     0.049 A 
ATOM     44  H   UNL A   1      44.659  29.045  28.059  1.00  0.00     0.167 HD
ATOM     45  C   UNL A   1      43.759  24.903  27.330  1.00  0.00     0.031 A 
ATOM     46  C   UNL A   1      46.405  31.244  28.122  1.00  0.00     0.031 A 
ATOM     47  C   UNL A   1      45.138  25.030  26.939  1.00  0.00     0.049 A 
ATOM     48  C   UNL A   1      47.253  30.102  27.646  1.00  0.00     0.074 A 
ATOM     49  C   UNL A   1      45.967  24.068  26.383  1.00  0.00     0.029 A 
ATOM     50  N   UNL A   1      45.895  26.180  27.071  1.00  0.00    -0.354 N 
ATOM     51  N   UNL A   1      46.910  28.860  27.417  1.00  0.00    -0.248 NA
ATOM     52  C   UNL A   1      48.674  30.392  27.405  1.00  0.00     0.031 C 
ATOM     53  C   UNL A   1      47.243  24.620  26.233  1.00  0.00     0.029 A 
ATOM     54  C   UNL A   1      47.192  25.942  26.642  1.00  0.00     0.049 A 
ATOM     55  H   UNL A   1      45.564  27.039  27.419  1.00  0.00     0.167 HD
ATOM     56  C   UNL A   1      48.070  28.221  26.998  1.00  0.00     0.074 A 
ATOM     57  C   UNL A   1      49.121  29.216  26.988  1.00  0.00     0.031 C 
ATOM     58  C   UNL A   1      48.243  26.922  26.654  1.00  0.00     0.031 A 
BRANCH  45  59
ATOM     59  C   UNL A   1      43.114  23.557  27.150  1.00  0.00    -0.014 A 
ATOM     60  C   UNL A   1      42.939  22.684  28.233  1.00  0.00     0.009 A 
ATOM     61  C   UNL A   1      42.602  23.197  25.892  1.00  0.00     0.009 A 
ATOM     62  C   UNL A   1      42.271  21.469  28.057  1.00  0.00     0.001 A 
ATOM     63  C   UNL A   1      41.920  21.991  25.724  1.00  0.00     0.001 A 
ATOM     64  C   UNL A   1      41.757  21.127  26.806  1.00  0.00     0.000 A 
ENDBRANCH  45  59
BRANCH  46  65
ATOM     65  C   UNL A   1      46.996  32.593  28.313  1.00  0.00    -0.014 A 
ATOM     66  C   UNL A   1      47.638  32.932  29.511  1.00  0.00     0.009 A 
ATOM     67  C   UNL A   1      46.933  33.541  27.279  1.00  0.00     0.009 A 
ATOM     68  C   UNL A   1      48.205  34.199  29.671  1.00  0.00     0.001 A 
ATOM     69  C   UNL A   1      47.527  34.794  27.430  1.00  0.00     0.001 A 
ATOM     70  C   UNL A   1      48.157  35.124  28.627  1.00  0.00     0.000 A 
ENDBRANCH  46  65
BRANCH  58  71
ATOM     71  C   UNL A   1      49.618  26.504  26.218  1.00  0.00    -0.014 A 
ATOM     72  C   UNL A   1      50.097  26.817  24.937  1.00  0.00     0.009 A 
ATOM     73  C   UNL A   1      50.448  25.804  27.106  1.00  0.00     0.009 A 
ATOM     74  C   UNL A   1      51.372  26.404  24.542  1.00  0.00     0.001 A 
ATOM     75  C   UNL A   1      51.731  25.414  26.716  1.00  0.00     0.001 A 
ATOM     76  C   UNL A   1      52.188  25.705  25.432  1.00  0.00     0.000 A 
ENDBRANCH  58  71
ENDBRANCH  32  33
ENDBRANCH  25  27
ENDBRANCH  24  25
ENDBRANCH  23  24
ENDBRANCH   1  23
TORSDOF 15
ENDMDL
MODEL 2
REMARK VINA RESULT:     -10.1      5.873     13.278
REMARK SMILES NC(=O)C[C@H](NC(=O)[C@@H]1CCC[NH2+]1)C(=O)OCCOC(=O)c1ccc(-c2c3nc(c(-c4ccccc4)c4ccc([nH]4)c(-c4ccccc4)c4nc(c(-c5ccccc5)c5ccc2[nH]5)C=C4)C=C3)cc1
REMARK SMILES IDX 17 1 16 2 14 3 15 4 5 5 4 6 2 7 1 8 3 11 6 12 7 13 8 15 9 16
REMARK SMILES IDX 10 17 13 18 11 19 12 20 18 23 19 24 20 25 21 26 22 27 23 28
REMARK SMILES IDX 69 29 24 30 68 31 25 32 26 33 27 34 62 35 28 36 67 37 61 38
REMARK SMILES IDX 63 39 29 40 66 41 60 42 59 43 30 45 52 46 37 47 51 48 38 49
REMARK SMILES IDX 41 50 50 51 64 52 39 53 40 54 49 56 65 57 42 58 31 59 32 60
REMARK SMILES IDX 36 61 33 62 35 63 34 64 53 65 54 66 58 67 55 68 57 69 56 70
REMARK SMILES IDX 43 71 44 72 48 73 45 74 47 75 46 76
REMARK H PARENT 1 9 1 10 6 14 13 21 13 22 63 44 41 55
REMARK Flexibility Score: inf
ROOT
ATOM      1  C   UNL A   1      45.337  23.835  26.283  1.00  0.00     0.274 C 
ENDROOT
BRANCH   1   2
ATOM      2  O   UNL A   1      45.770  23.461  24.960  1.00  0.00    -0.461 OA
BRANCH   2   3
ATOM      3  C   UNL A   1      45.073  22.444  24.386  1.00  0.00     0.329 C 
ATOM      4  O   UNL A   1      44.529  22.493  23.287  1.00  0.00    -0.250 OA
BRANCH   3   5
ATOM      5  C   UNL A   1      45.083  21.168  25.237  1.00  0.00     0.201 C 
BRANCH   5   6
ATOM      6  C   UNL A   1      46.392  20.411  24.986  1.00  0.00     0.136 C 
BRANCH   6   7
ATOM      7  C   UNL A   1      46.132  18.935  24.813  1.00  0.00     0.220 C 
ATOM      8  N   UNL A   1      46.387  18.166  25.910  1.00  0.00    -0.370 N 
ATOM      9  H   UNL A   1      46.241  17.194  25.874  1.00  0.00     0.159 HD
ATOM     10  H   UNL A   1      46.716  18.584  26.738  1.00  0.00     0.159 HD
ATOM     11  O   UNL A   1      45.654  18.454  23.792  1.00  0.00    -0.275 OA
ENDBRANCH   6   7
ENDBRANCH   5   6
BRANCH   5  12
ATOM     12  N   UNL A   1      43.923  20.289  25.061  1.00  0.00    -0.337 N 
ATOM     13  C   UNL A   1      42.706  20.233  25.660  1.00  0.00     0.278 C 
ATOM     14  H   UNL A   1      44.051  19.602  24.368  1.00  0.00     0.164 HD
ATOM     15  O   UNL A   1      42.056  19.197  25.487  1.00  0.00    -0.268 OA
BRANCH  13  16
ATOM     16  C   UNL A   1      42.110  21.394  26.457  1.00  0.00     0.272 C 
ATOM     17  C   UNL A   1      41.342  20.962  27.687  1.00  0.00     0.081 C 
ATOM     18  N   UNL A   1      41.202  22.282  25.694  1.00  0.00    -0.336 N 
ATOM     19  C   UNL A   1      40.557  22.214  28.001  1.00  0.00     0.068 C 
ATOM     20  C   UNL A   1      40.170  22.748  26.633  1.00  0.00     0.261 C 
ATOM     21  H   UNL A   1      40.771  21.768  24.926  1.00  0.00     0.346 HD
ATOM     22  H   UNL A   1      41.713  23.069  25.293  1.00  0.00     0.346 HD
ENDBRANCH  13  16
ENDBRANCH   5  12
ENDBRANCH   3   5
ENDBRANCH   2   3
ENDBRANCH   1   2
BRANCH   1  23
ATOM     23  C   UNL A   1      45.261  25.354  26.412  1.00  0.00     0.275 C 
BRANCH  23  24
ATOM     24  O   UNL A   1      44.456  25.907  25.349  1.00  0.00    -0.458 OA
BRANCH  24  25
ATOM     25  C   UNL A   1      43.141  25.609  25.404  1.00  0.00     0.338 C 
ATOM     26  O   UNL A   1      42.561  24.721  24.787  1.00  0.00    -0.246 OA
BRANCH  25  27
ATOM     27  C   UNL A   1      42.419  26.489  26.343  1.00  0.00     0.060 A 
ATOM     28  C   UNL A   1      42.707  27.852  26.433  1.00  0.00     0.016 A 
ATOM     29  C   UNL A   1      41.565  25.896  27.278  1.00  0.00     0.016 A 
ATOM     30  C   UNL A   1      42.239  28.583  27.533  1.00  0.00     0.010 A 
ATOM     31  C   UNL A   1      41.032  26.652  28.326  1.00  0.00     0.010 A 
ATOM     32  C   UNL A   1      41.417  27.989  28.511  1.00  0.00    -0.014 A 
BRANCH  32  33
ATOM     33  C   UNL A   1      41.016  28.726  29.751  1.00  0.00     0.031 A 
ATOM     34  C   UNL A   1      39.845  29.692  29.748  1.00  0.00     0.074 A 
ATOM     35  C   UNL A   1      41.678  28.530  30.910  1.00  0.00     0.049 A 
ATOM     36  N   UNL A   1      39.417  30.477  30.710  1.00  0.00    -0.248 NA
ATOM     37  C   UNL A   1      39.042  29.781  28.518  1.00  0.00     0.031 C 
ATOM     38  C   UNL A   1      42.794  27.605  31.107  1.00  0.00     0.029 A 
ATOM     39  N   UNL A   1      41.503  29.107  32.146  1.00  0.00    -0.354 N 
ATOM     40  C   UNL A   1      38.312  31.150  30.198  1.00  0.00     0.074 A 
ATOM     41  C   UNL A   1      38.135  30.692  28.839  1.00  0.00     0.031 C 
ATOM     42  C   UNL A   1      43.184  27.654  32.389  1.00  0.00     0.029 A 
ATOM     43  C   UNL A   1      42.412  28.679  33.083  1.00  0.00     0.049 A 
ATOM     44  H   UNL A   1      40.796  29.763  32.340  1.00  0.00     0.167 HD
ATOM     45  C   UNL A   1      37.516  32.073  30.792  1.00  0.00     0.031 A 
ATOM     46  C   UNL A   1      42.648  29.093  34.342  1.00  0.00     0.031 A 
ATOM     47  C   UNL A   1      37.683  32.569  32.132  1.00  0.00     0.049 A 
ATOM     48  C   UNL A   1      41.844  30.213  34.933  1.00  0.00     0.074 A 
ATOM     49  C   UNL A   1      36.921  33.514  32.802  1.00  0.00     0.029 A 
ATOM     50  N   UNL A   1      38.683  32.174  33.002  1.00  0.00    -0.354 N 
ATOM     51  N   UNL A   1      40.832  30.863  34.415  1.00  0.00    -0.248 NA
ATOM     52  C   UNL A   1      42.234  30.670  36.274  1.00  0.00     0.031 C 
ATOM     53  C   UNL A   1      37.496  33.732  34.058  1.00  0.00     0.029 A 
ATOM     54  C   UNL A   1      38.581  32.881  34.190  1.00  0.00     0.049 A 
ATOM     55  H   UNL A   1      39.366  31.492  32.808  1.00  0.00     0.167 HD
ATOM     56  C   UNL A   1      40.459  31.799  35.370  1.00  0.00     0.074 A 
ATOM     57  C   UNL A   1      41.341  31.622  36.504  1.00  0.00     0.031 C 
ATOM     58  C   UNL A   1      39.471  32.724  35.308  1.00  0.00     0.031 A 
BRANCH  45  59
ATOM     59  C   UNL A   1      36.394  32.656  29.979  1.00  0.00    -0.014 A 
ATOM     60  C   UNL A   1      35.107  32.099  30.010  1.00  0.00     0.009 A 
ATOM     61  C   UNL A   1      36.613  33.828  29.237  1.00  0.00     0.009 A 
ATOM     62  C   UNL A   1      34.062  32.701  29.303  1.00  0.00     0.001 A 
ATOM     63  C   UNL A   1      35.563  34.437  28.548  1.00  0.00     0.001 A 
ATOM     64  C   UNL A   1      34.289  33.871  28.579  1.00  0.00     0.000 A 
ENDBRANCH  45  59
BRANCH  46  65
ATOM     65  C   UNL A   1      43.766  28.484  35.108  1.00  0.00    -0.014 A 
ATOM     66  C   UNL A   1      45.063  29.007  35.026  1.00  0.00     0.009 A 
ATOM     67  C   UNL A   1      43.526  27.380  35.943  1.00  0.00     0.009 A 
ATOM     68  C   UNL A   1      46.100  28.434  35.766  1.00  0.00     0.001 A 
ATOM     69  C   UNL A   1      44.557  26.830  36.704  1.00  0.00     0.001 A 
ATOM     70  C   UNL A   1      45.845  27.354  36.610  1.00  0.00     0.000 A 
ENDBRANCH  46  65
BRANCH  58  71
ATOM     71  C   UNL A   1      39.277  33.605  36.507  1.00  0.00    -0.014 A 
ATOM     72  C   UNL A   1      39.833  34.893  36.557  1.00  0.00     0.009 A 
ATOM     73  C   UNL A   1      38.517  33.148  37.594  1.00  0.00     0.009 A 
ATOM     74  C   UNL A   1      39.659  35.692  37.689  1.00  0.00     0.001 A 
ATOM     75  C   UNL A   1      38.324  33.959  38.714  1.00  0.00     0.001 A 
ATOM     76  C   UNL A   1      38.903  35.225  38.765  1.00  0.00     0.000 A 
ENDBRANCH  58  71
ENDBRANCH  32  33
ENDBRANCH  25  27
ENDBRANCH  24  25
ENDBRANCH  23  24
ENDBRANCH   1  23
TORSDOF 15
ENDMDL
MODEL 3
REMARK VINA RESULT:      -9.8      1.945      2.697
REMARK SMILES NC(=O)C[C@H](NC(=O)[C@@H]1CCC[NH2+]1)C(=O)OCCOC(=O)c1ccc(-c2c3nc(c(-c4ccccc4)c4ccc([nH]4)c(-c4ccccc4)c4nc(c(-c5ccccc5)c5ccc2[nH]5)C=C4)C=C3)cc1
REMARK SMILES IDX 17 1 16 2 14 3 15 4 5 5 4 6 2 7 1 8 3 11 6 12 7 13 8 15 9 16
REMARK SMILES IDX 10 17 13 18 11 19 12 20 18 23 19 24 20 25 21 26 22 27 23 28
REMARK SMILES IDX 69 29 24 30 68 31 25 32 26 33 27 34 62 35 28 36 67 37 61 38
REMARK SMILES IDX 63 39 29 40 66 41 60 42 59 43 30 45 52 46 37 47 51 48 38 49
REMARK SMILES IDX 41 50 50 51 64 52 39 53 40 54 49 56 65 57 42 58 31 59 32 60
REMARK SMILES IDX 36 61 33 62 35 63 34 64 53 65 54 66 58 67 55 68 57 69 56 70
REMARK SMILES IDX 43 71 44 72 48 73 45 74 47 75 46 76
REMARK H PARENT 1 9 1 10 6 14 13 21 13 22 63 44 41 55
REMARK Flexibility Score: inf
ROOT
ATOM      1  C   UNL A   1      35.197  34.263  34.624  1.00  0.00     0.274 C 
ENDROOT
BRANCH   1   2
ATOM      2  O   UNL A   1      34.959  34.837  33.324  1.00  0.00    -0.461 OA
BRANCH   2   3
ATOM      3  C   UNL A   1      34.217  34.074  32.478  1.00  0.00     0.329 C 
ATOM      4  O   UNL A   1      33.661  33.022  32.778  1.00  0.00    -0.250 OA
BRANCH   3   5
ATOM      5  C   UNL A   1      34.082  34.702  31.084  1.00  0.00     0.201 C 
BRANCH   5   6
ATOM      6  C   UNL A   1      32.772  35.495  31.020  1.00  0.00     0.136 C 
BRANCH   6   7
ATOM      7  C   UNL A   1      33.015  36.954  31.319  1.00  0.00     0.220 C 
ATOM      8  N   UNL A   1      33.363  37.718  30.244  1.00  0.00    -0.370 N 
ATOM      9  H   UNL A   1      33.538  38.680  30.361  1.00  0.00     0.159 HD
ATOM     10  H   UNL A   1      33.439  37.308  29.353  1.00  0.00     0.159 HD
ATOM     11  O   UNL A   1      32.844  37.449  32.426  1.00  0.00    -0.275 OA
ENDBRANCH   6   7
ENDBRANCH   5   6
BRANCH   5  12
ATOM     12  N   UNL A   1      34.187  33.763  29.963  1.00  0.00    -0.337 N 
ATOM     13  C   UNL A   1      35.145  33.544  29.026  1.00  0.00     0.278 C 
ATOM     14  H   UNL A   1      33.405  33.171  29.870  1.00  0.00     0.164 HD
ATOM     15  O   UNL A   1      34.809  32.875  28.044  1.00  0.00    -0.268 OA
BRANCH  13  16
ATOM     16  C   UNL A   1      36.588  34.025  29.176  1.00  0.00     0.272 C 
ATOM     17  C   UNL A   1      37.622  32.965  28.866  1.00  0.00     0.081 C 
ATOM     18  N   UNL A   1      36.938  34.566  30.509  1.00  0.00    -0.336 N 
ATOM     19  C   UNL A   1      38.861  33.570  29.484  1.00  0.00     0.068 C 
ATOM     20  C   UNL A   1      38.346  34.222  30.755  1.00  0.00     0.261 C 
ATOM     21  H   UNL A   1      36.344  34.148  31.225  1.00  0.00     0.346 HD
ATOM     22  H   UNL A   1      36.798  35.577  30.541  1.00  0.00     0.346 HD
ENDBRANCH  13  16
ENDBRANCH   5  12
ENDBRANCH   3   5
ENDBRANCH   2   3
ENDBRANCH   1   2
BRANCH   1  23
ATOM     23  C   UNL A   1      36.603  33.672  34.698  1.00  0.00     0.275 C 
BRANCH  23  24
ATOM     24  O   UNL A   1      36.592  32.297  34.259  1.00  0.00    -0.458 OA
BRANCH  24  25
ATOM     25  C   UNL A   1      37.563  31.517  34.777  1.00  0.00     0.338 C 
ATOM     26  O   UNL A   1      37.827  31.360  35.965  1.00  0.00    -0.246 OA
BRANCH  25  27
ATOM     27  C   UNL A   1      38.319  30.810  33.723  1.00  0.00     0.060 A 
ATOM     28  C   UNL A   1      39.477  30.089  34.015  1.00  0.00     0.016 A 
ATOM     29  C   UNL A   1      37.954  31.032  32.392  1.00  0.00     0.016 A 
ATOM     30  C   UNL A   1      40.330  29.704  32.972  1.00  0.00     0.010 A 
ATOM     31  C   UNL A   1      38.768  30.571  31.352  1.00  0.00     0.010 A 
ATOM     32  C   UNL A   1      40.003  29.963  31.626  1.00  0.00    -0.014 A 
BRANCH  32  33
ATOM     33  C   UNL A   1      40.963  29.668  30.516  1.00  0.00     0.031 A 
ATOM     34  C   UNL A   1      40.842  28.402  29.687  1.00  0.00     0.074 A 
ATOM     35  C   UNL A   1      41.949  30.537  30.213  1.00  0.00     0.049 A 
ATOM     36  N   UNL A   1      41.639  27.950  28.746  1.00  0.00    -0.248 NA
ATOM     37  C   UNL A   1      39.674  27.541  29.931  1.00  0.00     0.031 C 
ATOM     38  C   UNL A   1      42.183  31.822  30.872  1.00  0.00     0.029 A 
ATOM     39  N   UNL A   1      42.944  30.463  29.267  1.00  0.00    -0.354 N 
ATOM     40  C   UNL A   1      41.075  26.758  28.301  1.00  0.00     0.074 A 
ATOM     41  C   UNL A   1      39.873  26.548  29.074  1.00  0.00     0.031 C 
ATOM     42  C   UNL A   1      43.231  32.427  30.294  1.00  0.00     0.029 A 
ATOM     43  C   UNL A   1      43.801  31.536  29.289  1.00  0.00     0.049 A 
ATOM     44  H   UNL A   1      43.034  29.713  28.636  1.00  0.00     0.167 HD
ATOM     45  C   UNL A   1      41.512  25.905  27.342  1.00  0.00     0.031 A 
ATOM     46  C   UNL A   1      44.949  31.768  28.624  1.00  0.00     0.031 A 
ATOM     47  C   UNL A   1      42.718  26.073  26.574  1.00  0.00     0.049 A 
ATOM     48  C   UNL A   1      45.488  30.745  27.669  1.00  0.00     0.074 A 
ATOM     49  C   UNL A   1      43.234  25.243  25.591  1.00  0.00     0.029 A 
ATOM     50  N   UNL A   1      43.601  27.129  26.710  1.00  0.00    -0.354 N 
ATOM     51  N   UNL A   1      44.959  29.608  27.294  1.00  0.00    -0.248 NA
ATOM     52  C   UNL A   1      46.796  31.033  27.063  1.00  0.00     0.031 C 
ATOM     53  C   UNL A   1      44.459  25.769  25.171  1.00  0.00     0.029 A 
ATOM     54  C   UNL A   1      44.677  26.955  25.854  1.00  0.00     0.049 A 
ATOM     55  H   UNL A   1      43.483  27.890  27.322  1.00  0.00     0.167 HD
ATOM     56  C   UNL A   1      45.865  29.047  26.403  1.00  0.00     0.074 A 
ATOM     57  C   UNL A   1      46.968  29.977  26.280  1.00  0.00     0.031 C 
ATOM     58  C   UNL A   1      45.785  27.864  25.747  1.00  0.00     0.031 A 
BRANCH  45  59
ATOM     59  C   UNL A   1      40.700  24.667  27.085  1.00  0.00    -0.014 A 
ATOM     60  C   UNL A   1      41.095  23.420  27.591  1.00  0.00     0.009 A 
ATOM     61  C   UNL A   1      39.480  24.769  26.396  1.00  0.00     0.009 A 
ATOM     62  C   UNL A   1      40.287  22.295  27.402  1.00  0.00     0.001 A 
ATOM     63  C   UNL A   1      38.667  23.647  26.225  1.00  0.00     0.001 A 
ATOM     64  C   UNL A   1      39.072  22.411  26.726  1.00  0.00     0.000 A 
ENDBRANCH  45  59
BRANCH  46  65
ATOM     65  C   UNL A   1      45.714  33.009  28.910  1.00  0.00    -0.014 A 
ATOM     66  C   UNL A   1      46.698  33.033  29.907  1.00  0.00     0.009 A 
ATOM     67  C   UNL A   1      45.470  34.173  28.163  1.00  0.00     0.009 A 
ATOM     68  C   UNL A   1      47.422  34.202  30.152  1.00  0.00     0.001 A 
ATOM     69  C   UNL A   1      46.216  35.329  28.389  1.00  0.00     0.001 A 
ATOM     70  C   UNL A   1      47.187  35.345  29.387  1.00  0.00     0.000 A 
ENDBRANCH  46  65
BRANCH  58  71
ATOM     71  C   UNL A   1      46.914  27.515  24.822  1.00  0.00    -0.014 A 
ATOM     72  C   UNL A   1      47.949  26.660  25.232  1.00  0.00     0.009 A 
ATOM     73  C   UNL A   1      46.933  28.033  23.518  1.00  0.00     0.009 A 
ATOM     74  C   UNL A   1      49.001  26.360  24.364  1.00  0.00     0.001 A 
ATOM     75  C   UNL A   1      47.974  27.712  22.645  1.00  0.00     0.001 A 
ATOM     76  C   UNL A   1      49.011  26.885  23.071  1.00  0.00     0.000 A 
ENDBRANCH  58  71
ENDBRANCH  32  33
ENDBRANCH  25  27
ENDBRANCH  24  25
ENDBRANCH  23  24
ENDBRANCH   1  23
TORSDOF 15
ENDMDL
