MODEL 1
REMARK VINA RESULT:     -10.2      0.000      0.000
REMARK SMILES CC(C)[C@H](NS(=O)(=O)c1cccc(F)c1)C(=O)OCCOC(=O)c1ccc(-c2c3nc(c(-c4ccccc4)c4ccc([nH]4)c(-c4ccccc4)c4nc(c(-c5ccccc5)c5ccc2[nH]5)C=C4)C=C3)cc1
REMARK SMILES IDX 19 1 18 2 16 3 17 4 4 5 2 6 1 7 3 8 5 9 6 11 7 12 8 13 9 14
REMARK SMILES IDX 10 15 15 16 11 17 13 18 12 19 14 20 20 21 21 22 22 23 23 24
REMARK SMILES IDX 24 25 25 26 71 27 26 28 70 29 27 30 28 31 29 32 64 33 30 34
REMARK SMILES IDX 69 35 63 36 65 37 31 38 68 39 62 40 61 41 32 43 54 44 39 45
REMARK SMILES IDX 53 46 40 47 43 48 52 49 66 50 41 51 42 52 51 54 67 55 44 56
REMARK SMILES IDX 33 57 34 58 38 59 35 60 37 61 36 62 55 63 56 64 60 65 57 66
REMARK SMILES IDX 59 67 58 68 45 69 46 70 50 71 47 72 49 73 48 74
REMARK H PARENT 5 10 65 42 43 53
REMARK Flexibility Score: inf
ROOT
ATOM      1  C   UNL A   1      37.981  21.096  25.300  1.00  0.00     0.274 C 
ENDROOT
BRANCH   1   2
ATOM      2  O   UNL A   1      36.881  21.050  24.375  1.00  0.00    -0.461 OA
BRANCH   2   3
ATOM      3  C   UNL A   1      36.248  22.230  24.152  1.00  0.00     0.324 C 
ATOM      4  O   UNL A   1      36.691  23.117  23.427  1.00  0.00    -0.250 OA
BRANCH   3   5
ATOM      5  C   UNL A   1      34.850  22.300  24.763  1.00  0.00     0.182 C 
BRANCH   5   6
ATOM      6  C   UNL A   1      34.614  23.422  25.801  1.00  0.00     0.012 C 
ATOM      7  C   UNL A   1      33.443  24.358  25.496  1.00  0.00     0.009 C 
ATOM      8  C   UNL A   1      34.387  22.806  27.191  1.00  0.00     0.009 C 
ENDBRANCH   5   6
BRANCH   5   9
ATOM      9  N   UNL A   1      34.224  20.996  25.131  1.00  0.00    -0.197 NA
ATOM     10  H   UNL A   1      34.131  21.003  26.147  1.00  0.00     0.142 HD
BRANCH   9  11
ATOM     11  S   UNL A   1      32.733  20.505  24.530  1.00  0.00     0.241 S 
ATOM     12  O   UNL A   1      31.748  20.839  25.525  1.00  0.00    -0.207 OA
ATOM     13  O   UNL A   1      32.628  20.956  23.156  1.00  0.00    -0.207 OA
BRANCH  11  14
ATOM     14  C   UNL A   1      32.863  18.730  24.521  1.00  0.00     0.085 A 
ATOM     15  C   UNL A   1      32.492  18.000  25.656  1.00  0.00     0.022 A 
ATOM     16  C   UNL A   1      33.469  18.100  23.430  1.00  0.00     0.061 A 
ATOM     17  C   UNL A   1      32.800  16.640  25.727  1.00  0.00     0.004 A 
ATOM     18  C   UNL A   1      33.777  16.752  23.524  1.00  0.00     0.124 A 
ATOM     19  C   UNL A   1      33.463  16.020  24.665  1.00  0.00     0.039 A 
ATOM     20  F   UNL A   1      34.430  16.155  22.518  1.00  0.00    -0.207 F 
ENDBRANCH  11  14
ENDBRANCH   9  11
ENDBRANCH   5   9
ENDBRANCH   3   5
ENDBRANCH   2   3
ENDBRANCH   1   2
BRANCH   1  21
ATOM     21  C   UNL A   1      38.979  19.964  25.029  1.00  0.00     0.275 C 
BRANCH  21  22
ATOM     22  O   UNL A   1      39.740  19.592  26.198  1.00  0.00    -0.458 OA
BRANCH  22  23
ATOM     23  C   UNL A   1      41.086  19.686  26.073  1.00  0.00     0.338 C 
ATOM     24  O   UNL A   1      41.834  18.882  25.533  1.00  0.00    -0.246 OA
BRANCH  23  25
ATOM     25  C   UNL A   1      41.567  20.998  26.555  1.00  0.00     0.060 A 
ATOM     26  C   UNL A   1      41.402  21.276  27.916  1.00  0.00     0.016 A 
ATOM     27  C   UNL A   1      42.106  21.965  25.704  1.00  0.00     0.016 A 
ATOM     28  C   UNL A   1      41.781  22.507  28.437  1.00  0.00     0.010 A 
ATOM     29  C   UNL A   1      42.468  23.215  26.224  1.00  0.00     0.010 A 
ATOM     30  C   UNL A   1      42.301  23.492  27.592  1.00  0.00    -0.014 A 
BRANCH  30  31
ATOM     31  C   UNL A   1      42.583  24.831  28.155  1.00  0.00     0.031 A 
ATOM     32  C   UNL A   1      43.992  25.206  28.507  1.00  0.00     0.074 A 
ATOM     33  C   UNL A   1      41.592  25.734  28.266  1.00  0.00     0.049 A 
ATOM     34  N   UNL A   1      44.448  26.325  29.007  1.00  0.00    -0.248 NA
ATOM     35  C   UNL A   1      45.027  24.191  28.252  1.00  0.00     0.031 C 
ATOM     36  C   UNL A   1      40.199  25.512  27.880  1.00  0.00     0.029 A 
ATOM     37  N   UNL A   1      41.616  27.028  28.718  1.00  0.00    -0.354 N 
ATOM     38  C   UNL A   1      45.819  26.147  29.140  1.00  0.00     0.074 A 
ATOM     39  C   UNL A   1      46.119  24.809  28.678  1.00  0.00     0.031 C 
ATOM     40  C   UNL A   1      39.500  26.637  28.105  1.00  0.00     0.029 A 
ATOM     41  C   UNL A   1      40.388  27.642  28.684  1.00  0.00     0.049 A 
ATOM     42  H   UNL A   1      42.433  27.475  29.036  1.00  0.00     0.167 HD
ATOM     43  C   UNL A   1      46.743  27.019  29.607  1.00  0.00     0.031 A 
ATOM     44  C   UNL A   1      40.018  28.869  29.095  1.00  0.00     0.031 A 
ATOM     45  C   UNL A   1      46.444  28.346  30.072  1.00  0.00     0.049 A 
ATOM     46  C   UNL A   1      41.049  29.788  29.687  1.00  0.00     0.074 A 
ATOM     47  C   UNL A   1      47.311  29.300  30.578  1.00  0.00     0.029 A 
ATOM     48  N   UNL A   1      45.177  28.907  30.089  1.00  0.00    -0.354 N 
ATOM     49  N   UNL A   1      42.339  29.599  29.830  1.00  0.00    -0.248 NA
ATOM     50  C   UNL A   1      40.572  31.088  30.181  1.00  0.00     0.031 C 
ATOM     51  C   UNL A   1      46.559  30.425  30.939  1.00  0.00     0.029 A 
ATOM     52  C   UNL A   1      45.233  30.186  30.617  1.00  0.00     0.049 A 
ATOM     53  H   UNL A   1      44.358  28.461  29.773  1.00  0.00     0.167 HD
ATOM     54  C   UNL A   1      42.829  30.758  30.416  1.00  0.00     0.074 A 
ATOM     55  C   UNL A   1      41.701  31.652  30.586  1.00  0.00     0.031 C 
ATOM     56  C   UNL A   1      44.098  31.056  30.783  1.00  0.00     0.031 A 
BRANCH  43  57
ATOM     57  C   UNL A   1      48.163  26.538  29.679  1.00  0.00    -0.014 A 
ATOM     58  C   UNL A   1      48.643  25.845  30.800  1.00  0.00     0.009 A 
ATOM     59  C   UNL A   1      49.028  26.772  28.599  1.00  0.00     0.009 A 
ATOM     60  C   UNL A   1      49.973  25.419  30.849  1.00  0.00     0.001 A 
ATOM     61  C   UNL A   1      50.350  26.327  28.642  1.00  0.00     0.001 A 
ATOM     62  C   UNL A   1      50.824  25.658  29.770  1.00  0.00     0.000 A 
ENDBRANCH  43  57
BRANCH  44  63
ATOM     63  C   UNL A   1      38.597  29.288  28.995  1.00  0.00    -0.014 A 
ATOM     64  C   UNL A   1      37.725  29.133  30.083  1.00  0.00     0.009 A 
ATOM     65  C   UNL A   1      38.105  29.842  27.803  1.00  0.00     0.009 A 
ATOM     66  C   UNL A   1      36.384  29.509  29.970  1.00  0.00     0.001 A 
ATOM     67  C   UNL A   1      36.772  30.239  27.702  1.00  0.00     0.001 A 
ATOM     68  C   UNL A   1      35.910  30.066  28.784  1.00  0.00     0.000 A 
ENDBRANCH  44  63
BRANCH  56  69
ATOM     69  C   UNL A   1      44.336  32.411  31.382  1.00  0.00    -0.014 A 
ATOM     70  C   UNL A   1      44.292  32.605  32.771  1.00  0.00     0.009 A 
ATOM     71  C   UNL A   1      44.641  33.498  30.549  1.00  0.00     0.009 A 
ATOM     72  C   UNL A   1      44.521  33.871  33.312  1.00  0.00     0.001 A 
ATOM     73  C   UNL A   1      44.893  34.758  31.094  1.00  0.00     0.001 A 
ATOM     74  C   UNL A   1      44.826  34.945  32.474  1.00  0.00     0.000 A 
ENDBRANCH  56  69
ENDBRANCH  30  31
ENDBRANCH  23  25
ENDBRANCH  22  23
ENDBRANCH  21  22
ENDBRANCH   1  21
TORSDOF 15
ENDMDL
MODEL 2
REMARK VINA RESULT:     -10.2      0.519      6.151
REMARK SMILES CC(C)[C@H](NS(=O)(=O)c1cccc(F)c1)C(=O)OCCOC(=O)c1ccc(-c2c3nc(c(-c4ccccc4)c4ccc([nH]4)c(-c4ccccc4)c4nc(c(-c5ccccc5)c5ccc2[nH]5)C=C4)C=C3)cc1
REMARK SMILES IDX 19 1 18 2 16 3 17 4 4 5 2 6 1 7 3 8 5 9 6 11 7 12 8 13 9 14
REMARK SMILES IDX 10 15 15 16 11 17 13 18 12 19 14 20 20 21 21 22 22 23 23 24
REMARK SMILES IDX 24 25 25 26 71 27 26 28 70 29 27 30 28 31 29 32 64 33 30 34
REMARK SMILES IDX 69 35 63 36 65 37 31 38 68 39 62 40 61 41 32 43 54 44 39 45
REMARK SMILES IDX 53 46 40 47 43 48 52 49 66 50 41 51 42 52 51 54 67 55 44 56
REMARK SMILES IDX 33 57 34 58 38 59 35 60 37 61 36 62 55 63 56 64 60 65 57 66
REMARK SMILES IDX 59 67 58 68 45 69 46 70 50 71 47 72 49 73 48 74
REMARK H PARENT 5 10 65 42 43 53
REMARK Flexibility Score: inf
ROOT
ATOM      1  C   UNL A   1      38.073  21.044  25.322  1.00  0.00     0.274 C 
ENDROOT
BRANCH   1   2
ATOM      2  O   UNL A   1      36.716  20.910  24.867  1.00  0.00    -0.461 OA
BRANCH   2   3
ATOM      3  C   UNL A   1      36.244  21.931  24.107  1.00  0.00     0.324 C 
ATOM      4  O   UNL A   1      36.919  22.534  23.276  1.00  0.00    -0.250 OA
BRANCH   3   5
ATOM      5  C   UNL A   1      34.744  22.169  24.265  1.00  0.00     0.182 C 
BRANCH   5   6
ATOM      6  C   UNL A   1      34.316  23.609  24.633  1.00  0.00     0.012 C 
ATOM      7  C   UNL A   1      35.312  24.388  25.493  1.00  0.00     0.009 C 
ATOM      8  C   UNL A   1      34.054  24.418  23.350  1.00  0.00     0.009 C 
ENDBRANCH   5   6
BRANCH   5   9
ATOM      9  N   UNL A   1      33.979  21.110  24.987  1.00  0.00    -0.197 NA
ATOM     10  H   UNL A   1      33.774  21.489  25.912  1.00  0.00     0.142 HD
BRANCH   9  11
ATOM     11  S   UNL A   1      32.530  20.484  24.408  1.00  0.00     0.241 S 
ATOM     12  O   UNL A   1      31.520  20.787  25.389  1.00  0.00    -0.207 OA
ATOM     13  O   UNL A   1      32.396  20.867  23.016  1.00  0.00    -0.207 OA
BRANCH  11  14
ATOM     14  C   UNL A   1      32.791  18.726  24.475  1.00  0.00     0.085 A 
ATOM     15  C   UNL A   1      32.585  18.038  25.677  1.00  0.00     0.022 A 
ATOM     16  C   UNL A   1      33.337  18.078  23.362  1.00  0.00     0.061 A 
ATOM     17  C   UNL A   1      33.000  16.708  25.784  1.00  0.00     0.004 A 
ATOM     18  C   UNL A   1      33.752  16.762  23.493  1.00  0.00     0.124 A 
ATOM     19  C   UNL A   1      33.604  16.076  24.694  1.00  0.00     0.039 A 
ATOM     20  F   UNL A   1      34.350  16.156  22.458  1.00  0.00    -0.207 F 
ENDBRANCH  11  14
ENDBRANCH   9  11
ENDBRANCH   5   9
ENDBRANCH   3   5
ENDBRANCH   2   3
ENDBRANCH   1   2
BRANCH   1  21
ATOM     21  C   UNL A   1      38.884  19.777  25.025  1.00  0.00     0.275 C 
BRANCH  21  22
ATOM     22  O   UNL A   1      39.751  19.395  26.113  1.00  0.00    -0.458 OA
BRANCH  22  23
ATOM     23  C   UNL A   1      41.053  19.746  25.976  1.00  0.00     0.338 C 
ATOM     24  O   UNL A   1      41.913  19.149  25.342  1.00  0.00    -0.246 OA
BRANCH  23  25
ATOM     25  C   UNL A   1      41.306  21.069  26.583  1.00  0.00     0.060 A 
ATOM     26  C   UNL A   1      41.793  22.074  25.740  1.00  0.00     0.016 A 
ATOM     27  C   UNL A   1      41.139  21.321  27.946  1.00  0.00     0.016 A 
ATOM     28  C   UNL A   1      42.104  23.331  26.245  1.00  0.00     0.010 A 
ATOM     29  C   UNL A   1      41.473  22.581  28.460  1.00  0.00     0.010 A 
ATOM     30  C   UNL A   1      41.962  23.588  27.612  1.00  0.00    -0.014 A 
BRANCH  30  31
ATOM     31  C   UNL A   1      42.415  24.896  28.135  1.00  0.00     0.031 A 
ATOM     32  C   UNL A   1      41.413  25.989  28.367  1.00  0.00     0.074 A 
ATOM     33  C   UNL A   1      43.702  25.070  28.485  1.00  0.00     0.049 A 
ATOM     34  N   UNL A   1      41.603  27.200  28.822  1.00  0.00    -0.248 NA
ATOM     35  C   UNL A   1      40.010  25.672  28.057  1.00  0.00     0.031 C 
ATOM     36  C   UNL A   1      44.750  24.055  28.382  1.00  0.00     0.029 A 
ATOM     37  N   UNL A   1      44.339  26.161  29.017  1.00  0.00    -0.354 N 
ATOM     38  C   UNL A   1      40.349  27.796  28.840  1.00  0.00     0.074 A 
ATOM     39  C   UNL A   1      39.407  26.817  28.342  1.00  0.00     0.031 C 
ATOM     40  C   UNL A   1      45.901  24.570  28.845  1.00  0.00     0.029 A 
ATOM     41  C   UNL A   1      45.678  25.959  29.239  1.00  0.00     0.049 A 
ATOM     42  H   UNL A   1      43.881  27.009  29.220  1.00  0.00     0.167 HD
ATOM     43  C   UNL A   1      40.014  29.047  29.234  1.00  0.00     0.031 A 
ATOM     44  C   UNL A   1      46.623  26.806  29.689  1.00  0.00     0.031 A 
ATOM     45  C   UNL A   1      40.951  30.022  29.724  1.00  0.00     0.049 A 
ATOM     46  C   UNL A   1      46.238  28.215  30.041  1.00  0.00     0.074 A 
ATOM     47  C   UNL A   1      40.709  31.322  30.135  1.00  0.00     0.029 A 
ATOM     48  N   UNL A   1      42.311  29.803  29.867  1.00  0.00    -0.354 N 
ATOM     49  N   UNL A   1      45.053  28.774  30.031  1.00  0.00    -0.248 NA
ATOM     50  C   UNL A   1      47.326  29.112  30.462  1.00  0.00     0.031 C 
ATOM     51  C   UNL A   1      41.933  31.902  30.489  1.00  0.00     0.029 A 
ATOM     52  C   UNL A   1      42.928  30.949  30.339  1.00  0.00     0.049 A 
ATOM     53  H   UNL A   1      42.771  28.956  29.663  1.00  0.00     0.167 HD
ATOM     54  C   UNL A   1      45.248  30.082  30.456  1.00  0.00     0.074 A 
ATOM     55  C   UNL A   1      46.663  30.228  30.732  1.00  0.00     0.031 C 
ATOM     56  C   UNL A   1      44.337  31.075  30.601  1.00  0.00     0.031 A 
BRANCH  43  57
ATOM     57  C   UNL A   1      38.572  29.442  29.105  1.00  0.00    -0.014 A 
ATOM     58  C   UNL A   1      38.060  29.956  27.904  1.00  0.00     0.009 A 
ATOM     59  C   UNL A   1      37.710  29.283  30.201  1.00  0.00     0.009 A 
ATOM     60  C   UNL A   1      36.717  30.329  27.812  1.00  0.00     0.001 A 
ATOM     61  C   UNL A   1      36.363  29.636  30.100  1.00  0.00     0.001 A 
ATOM     62  C   UNL A   1      35.870  30.167  28.909  1.00  0.00     0.000 A 
ENDBRANCH  43  57
BRANCH  44  63
ATOM     63  C   UNL A   1      48.033  26.354  29.798  1.00  0.00    -0.014 A 
ATOM     64  C   UNL A   1      48.914  26.485  28.714  1.00  0.00     0.009 A 
ATOM     65  C   UNL A   1      48.503  25.782  30.990  1.00  0.00     0.009 A 
ATOM     66  C   UNL A   1      50.233  26.036  28.819  1.00  0.00     0.001 A 
ATOM     67  C   UNL A   1      49.827  25.358  31.100  1.00  0.00     0.001 A 
ATOM     68  C   UNL A   1      50.690  25.479  30.012  1.00  0.00     0.000 A 
ENDBRANCH  44  63
BRANCH  56  69
ATOM     69  C   UNL A   1      44.842  32.396  31.103  1.00  0.00    -0.014 A 
ATOM     70  C   UNL A   1      44.916  32.666  32.479  1.00  0.00     0.009 A 
ATOM     71  C   UNL A   1      45.281  33.367  30.191  1.00  0.00     0.009 A 
ATOM     72  C   UNL A   1      45.395  33.897  32.929  1.00  0.00     0.001 A 
ATOM     73  C   UNL A   1      45.781  34.589  30.645  1.00  0.00     0.001 A 
ATOM     74  C   UNL A   1      45.830  34.855  32.013  1.00  0.00     0.000 A 
ENDBRANCH  56  69
ENDBRANCH  30  31
ENDBRANCH  23  25
ENDBRANCH  22  23
ENDBRANCH  21  22
ENDBRANCH   1  21
TORSDOF 15
ENDMDL
MODEL 3
REMARK VINA RESULT:     -10.0      2.409      3.088
REMARK SMILES CC(C)[C@H](NS(=O)(=O)c1cccc(F)c1)C(=O)OCCOC(=O)c1ccc(-c2c3nc(c(-c4ccccc4)c4ccc([nH]4)c(-c4ccccc4)c4nc(c(-c5ccccc5)c5ccc2[nH]5)C=C4)C=C3)cc1
REMARK SMILES IDX 19 1 18 2 16 3 17 4 4 5 2 6 1 7 3 8 5 9 6 11 7 12 8 13 9 14
REMARK SMILES IDX 10 15 15 16 11 17 13 18 12 19 14 20 20 21 21 22 22 23 23 24
REMARK SMILES IDX 24 25 25 26 71 27 26 28 70 29 27 30 28 31 29 32 64 33 30 34
REMARK SMILES IDX 69 35 63 36 65 37 31 38 68 39 62 40 61 41 32 43 54 44 39 45
REMARK SMILES IDX 53 46 40 47 43 48 52 49 66 50 41 51 42 52 51 54 67 55 44 56
REMARK SMILES IDX 33 57 34 58 38 59 35 60 37 61 36 62 55 63 56 64 60 65 57 66
REMARK SMILES IDX 59 67 58 68 45 69 46 70 50 71 47 72 49 73 48 74
REMARK H PARENT 5 10 65 42 43 53
REMARK Flexibility Score: inf
ROOT
ATOM      1  C   UNL A   1      36.933  22.474  23.518  1.00  0.00     0.274 C 
ENDROOT
BRANCH   1   2
ATOM      2  O   UNL A   1      36.097  23.469  24.134  1.00  0.00    -0.461 OA
BRANCH   2   3
ATOM      3  C   UNL A   1      34.809  23.503  23.708  1.00  0.00     0.324 C 
ATOM      4  O   UNL A   1      34.479  23.692  22.539  1.00  0.00    -0.250 OA
BRANCH   3   5
ATOM      5  C   UNL A   1      33.796  23.129  24.789  1.00  0.00     0.182 C 
BRANCH   5   6
ATOM      6  C   UNL A   1      33.707  24.085  26.001  1.00  0.00     0.012 C 
ATOM      7  C   UNL A   1      33.694  25.575  25.659  1.00  0.00     0.009 C 
ATOM      8  C   UNL A   1      32.445  23.769  26.822  1.00  0.00     0.009 C 
ENDBRANCH   5   6
BRANCH   5   9
ATOM      9  N   UNL A   1      33.724  21.683  25.154  1.00  0.00    -0.197 NA
ATOM     10  H   UNL A   1      33.655  21.650  26.171  1.00  0.00     0.142 HD
BRANCH   9  11
ATOM     11  S   UNL A   1      32.521  20.662  24.573  1.00  0.00     0.241 S 
ATOM     12  O   UNL A   1      31.400  20.781  25.469  1.00  0.00    -0.207 OA
ATOM     13  O   UNL A   1      32.395  20.877  23.145  1.00  0.00    -0.207 OA
BRANCH  11  14
ATOM     14  C   UNL A   1      33.206  19.040  24.829  1.00  0.00     0.085 A 
ATOM     15  C   UNL A   1      34.532  18.780  24.464  1.00  0.00     0.022 A 
ATOM     16  C   UNL A   1      32.365  18.009  25.259  1.00  0.00     0.061 A 
ATOM     17  C   UNL A   1      34.995  17.462  24.460  1.00  0.00     0.004 A 
ATOM     18  C   UNL A   1      32.840  16.707  25.237  1.00  0.00     0.124 A 
ATOM     19  C   UNL A   1      34.139  16.421  24.829  1.00  0.00     0.039 A 
ATOM     20  F   UNL A   1      32.018  15.703  25.571  1.00  0.00    -0.207 F 
ENDBRANCH  11  14
ENDBRANCH   9  11
ENDBRANCH   5   9
ENDBRANCH   3   5
ENDBRANCH   2   3
ENDBRANCH   1   2
BRANCH   1  21
ATOM     21  C   UNL A   1      37.242  21.332  24.492  1.00  0.00     0.275 C 
BRANCH  21  22
ATOM     22  O   UNL A   1      37.618  21.797  25.806  1.00  0.00    -0.458 OA
BRANCH  22  23
ATOM     23  C   UNL A   1      38.902  21.557  26.167  1.00  0.00     0.338 C 
ATOM     24  O   UNL A   1      39.533  20.522  25.998  1.00  0.00    -0.246 OA
BRANCH  23  25
ATOM     25  C   UNL A   1      39.540  22.786  26.683  1.00  0.00     0.060 A 
ATOM     26  C   UNL A   1      39.073  24.005  26.181  1.00  0.00     0.016 A 
ATOM     27  C   UNL A   1      40.608  22.764  27.582  1.00  0.00     0.016 A 
ATOM     28  C   UNL A   1      39.654  25.203  26.578  1.00  0.00     0.010 A 
ATOM     29  C   UNL A   1      41.210  23.970  27.966  1.00  0.00     0.010 A 
ATOM     30  C   UNL A   1      40.739  25.193  27.460  1.00  0.00    -0.014 A 
BRANCH  30  31
ATOM     31  C   UNL A   1      41.411  26.474  27.769  1.00  0.00     0.031 A 
ATOM     32  C   UNL A   1      42.735  26.788  27.136  1.00  0.00     0.074 A 
ATOM     33  C   UNL A   1      40.794  27.387  28.540  1.00  0.00     0.049 A 
ATOM     34  N   UNL A   1      43.483  27.853  27.272  1.00  0.00    -0.248 NA
ATOM     35  C   UNL A   1      43.284  25.776  26.221  1.00  0.00     0.031 C 
ATOM     36  C   UNL A   1      39.472  27.227  29.144  1.00  0.00     0.029 A 
ATOM     37  N   UNL A   1      41.195  28.638  28.930  1.00  0.00    -0.354 N 
ATOM     38  C   UNL A   1      44.597  27.634  26.472  1.00  0.00     0.074 A 
ATOM     39  C   UNL A   1      44.432  26.332  25.862  1.00  0.00     0.031 C 
ATOM     40  C   UNL A   1      39.166  28.345  29.823  1.00  0.00     0.029 A 
ATOM     41  C   UNL A   1      40.285  29.280  29.733  1.00  0.00     0.049 A 
ATOM     42  H   UNL A   1      42.053  29.039  28.661  1.00  0.00     0.167 HD
ATOM     43  C   UNL A   1      45.662  28.445  26.267  1.00  0.00     0.031 A 
ATOM     44  C   UNL A   1      40.356  30.477  30.345  1.00  0.00     0.031 A 
ATOM     45  C   UNL A   1      45.829  29.735  26.878  1.00  0.00     0.049 A 
ATOM     46  C   UNL A   1      41.586  31.320  30.167  1.00  0.00     0.074 A 
ATOM     47  C   UNL A   1      46.881  30.626  26.743  1.00  0.00     0.029 A 
ATOM     48  N   UNL A   1      44.917  30.320  27.743  1.00  0.00    -0.354 N 
ATOM     49  N   UNL A   1      42.644  31.092  29.427  1.00  0.00    -0.248 NA
ATOM     50  C   UNL A   1      41.634  32.586  30.914  1.00  0.00     0.031 C 
ATOM     51  C   UNL A   1      46.623  31.733  27.560  1.00  0.00     0.029 A 
ATOM     52  C   UNL A   1      45.391  31.550  28.168  1.00  0.00     0.049 A 
ATOM     53  H   UNL A   1      44.059  29.919  28.014  1.00  0.00     0.167 HD
ATOM     54  C   UNL A   1      43.477  32.189  29.608  1.00  0.00     0.074 A 
ATOM     55  C   UNL A   1      42.793  33.090  30.514  1.00  0.00     0.031 C 
ATOM     56  C   UNL A   1      44.698  32.427  29.074  1.00  0.00     0.031 A 
BRANCH  43  57
ATOM     57  C   UNL A   1      46.752  27.929  25.374  1.00  0.00    -0.014 A 
ATOM     58  C   UNL A   1      46.716  28.130  23.986  1.00  0.00     0.009 A 
ATOM     59  C   UNL A   1      47.840  27.244  25.936  1.00  0.00     0.009 A 
ATOM     60  C   UNL A   1      47.737  27.629  23.175  1.00  0.00     0.001 A 
ATOM     61  C   UNL A   1      48.870  26.762  25.125  1.00  0.00     0.001 A 
ATOM     62  C   UNL A   1      48.812  26.948  23.744  1.00  0.00     0.000 A 
ENDBRANCH  43  57
BRANCH  44  63
ATOM     63  C   UNL A   1      39.242  30.933  31.214  1.00  0.00    -0.014 A 
ATOM     64  C   UNL A   1      39.209  30.594  32.575  1.00  0.00     0.009 A 
ATOM     65  C   UNL A   1      38.200  31.708  30.681  1.00  0.00     0.009 A 
ATOM     66  C   UNL A   1      38.144  31.010  33.379  1.00  0.00     0.001 A 
ATOM     67  C   UNL A   1      37.152  32.142  31.492  1.00  0.00     0.001 A 
ATOM     68  C   UNL A   1      37.121  31.787  32.839  1.00  0.00     0.000 A 
ENDBRANCH  44  63
BRANCH  56  69
ATOM     69  C   UNL A   1      45.361  33.724  29.439  1.00  0.00    -0.014 A 
ATOM     70  C   UNL A   1      46.227  33.808  30.541  1.00  0.00     0.009 A 
ATOM     71  C   UNL A   1      45.145  34.863  28.650  1.00  0.00     0.009 A 
ATOM     72  C   UNL A   1      46.840  35.020  30.862  1.00  0.00     0.001 A 
ATOM     73  C   UNL A   1      45.778  36.068  28.961  1.00  0.00     0.001 A 
ATOM     74  C   UNL A   1      46.619  36.147  30.070  1.00  0.00     0.000 A 
ENDBRANCH  56  69
ENDBRANCH  30  31
ENDBRANCH  23  25
ENDBRANCH  22  23
ENDBRANCH  21  22
ENDBRANCH   1  21
TORSDOF 15
ENDMDL
