MODEL 1
REMARK VINA RESULT:      -9.0      0.000      0.000
REMARK SMILES CCCn1c(N2CCC[C@@H](C)C2)c(/C=C2/SC(=S)N(CC(=O)OCCOC(=O)c3ccc(-c4c5nc(c(-c6ccccc6)c6ccc([nH]6)c(-c6ccccc6)c6nc(c(-c7ccccc7)c7ccc4[nH]7)C=C6)C=C5)cc3)C2=O)c(C)c(C#N)c1=O
REMARK SMILES IDX 24 1 23 2 21 3 22 4 20 5 19 6 14 7 15 8 16 9 77 10 17 11
REMARK SMILES IDX 78 12 18 13 13 14 4 15 5 16 84 17 81 18 85 19 79 20 80 21
REMARK SMILES IDX 3 22 2 23 1 24 6 25 7 26 12 27 8 28 10 29 9 30 11 31 82 32
REMARK SMILES IDX 83 33 25 34 26 35 27 36 28 37 29 38 30 39 76 40 31 41 75 42
REMARK SMILES IDX 32 43 33 44 34 45 69 46 35 47 74 48 68 49 70 50 36 51 73 52
REMARK SMILES IDX 67 53 66 54 37 56 59 57 44 58 58 59 45 60 48 61 57 62 71 63
REMARK SMILES IDX 46 64 47 65 56 67 72 68 49 69 38 70 39 71 43 72 40 73 42 74
REMARK SMILES IDX 41 75 60 76 61 77 65 78 62 79 64 80 63 81 50 82 51 83 55 84
REMARK SMILES IDX 52 85 54 86 53 87
REMARK H PARENT 70 55 48 66
REMARK Flexibility Score: inf
ROOT
ATOM      1  C   UNL A   1      41.467  34.536  29.503  1.00  0.00     0.274 C 
ENDROOT
BRANCH   1   2
ATOM      2  O   UNL A   1      40.783  34.476  30.776  1.00  0.00    -0.461 OA
BRANCH   2   3
ATOM      3  C   UNL A   1      41.579  34.225  31.850  1.00  0.00     0.326 C 
ATOM      4  O   UNL A   1      42.755  33.878  31.780  1.00  0.00    -0.250 OA
BRANCH   3   5
ATOM      5  C   UNL A   1      40.893  34.413  33.196  1.00  0.00     0.250 C 
BRANCH   5   6
ATOM      6  N   UNL A   1      39.861  33.449  33.570  1.00  0.00    -0.282 N 
ATOM      7  C   UNL A   1      36.401  32.343  33.343  1.00  0.00     0.033 C 
ATOM      8  C   UNL A   1      37.654  32.630  33.734  1.00  0.00     0.081 C 
ATOM      9  S   UNL A   1      38.548  31.610  34.802  1.00  0.00    -0.054 SA
ATOM     10  C   UNL A   1      38.542  33.724  33.245  1.00  0.00     0.266 C 
ATOM     11  C   UNL A   1      40.088  32.322  34.326  1.00  0.00     0.148 C 
ATOM     12  O   UNL A   1      38.145  34.755  32.722  1.00  0.00    -0.268 OA
ATOM     13  S   UNL A   1      41.553  31.675  34.790  1.00  0.00    -0.052 S 
BRANCH   7  14
ATOM     14  C   UNL A   1      35.711  32.904  32.170  1.00  0.00     0.021 A 
ATOM     15  N   UNL A   1      35.323  33.078  29.812  1.00  0.00    -0.293 N 
ATOM     16  C   UNL A   1      35.955  32.437  30.903  1.00  0.00     0.119 A 
ATOM     17  C   UNL A   1      34.480  34.175  29.967  1.00  0.00     0.270 A 
ATOM     18  C   UNL A   1      34.081  34.519  31.336  1.00  0.00     0.121 A 
ATOM     19  O   UNL A   1      34.100  34.893  29.043  1.00  0.00    -0.268 OA
ATOM     20  C   UNL A   1      34.780  34.030  32.373  1.00  0.00    -0.017 A 
ATOM     21  C   UNL A   1      34.660  34.618  33.769  1.00  0.00     0.047 C 
BRANCH  15  22
ATOM     22  C   UNL A   1      35.589  32.683  28.423  1.00  0.00     0.127 C 
BRANCH  22  23
ATOM     23  C   UNL A   1      34.454  31.906  27.738  1.00  0.00     0.019 C 
ATOM     24  C   UNL A   1      34.741  30.432  27.477  1.00  0.00     0.006 C 
ENDBRANCH  22  23
ENDBRANCH  15  22
BRANCH  16  25
ATOM     25  N   UNL A   1      36.854  31.378  30.672  1.00  0.00    -0.357 N 
ATOM     26  C   UNL A   1      36.373  29.992  30.540  1.00  0.00     0.118 C 
ATOM     27  C   UNL A   1      38.191  31.607  30.106  1.00  0.00     0.121 C 
ATOM     28  C   UNL A   1      37.364  29.017  31.179  1.00  0.00     0.022 C 
ATOM     29  C   UNL A   1      39.216  30.686  30.776  1.00  0.00     0.005 C 
ATOM     30  C   UNL A   1      38.782  29.219  30.653  1.00  0.00     0.007 C 
ATOM     31  C   UNL A   1      40.598  30.889  30.156  1.00  0.00     0.009 C 
ENDBRANCH  16  25
BRANCH  18  32
ATOM     32  C   UNL A   1      33.034  35.604  31.528  1.00  0.00     0.105 C 
ATOM     33  N   UNL A   1      32.165  36.503  31.688  1.00  0.00    -0.192 NA
ENDBRANCH  18  32
ENDBRANCH   7  14
ENDBRANCH   5   6
ENDBRANCH   3   5
ENDBRANCH   2   3
ENDBRANCH   1   2
BRANCH   1  34
ATOM     34  C   UNL A   1      41.192  35.846  28.766  1.00  0.00     0.275 C 
BRANCH  34  35
ATOM     35  O   UNL A   1      41.406  35.696  27.350  1.00  0.00    -0.458 OA
BRANCH  35  36
ATOM     36  C   UNL A   1      42.506  36.338  26.903  1.00  0.00     0.338 C 
ATOM     37  O   UNL A   1      42.583  37.517  26.603  1.00  0.00    -0.246 OA
BRANCH  36  38
ATOM     38  C   UNL A   1      43.665  35.453  26.810  1.00  0.00     0.060 A 
ATOM     39  C   UNL A   1      43.762  34.546  25.753  1.00  0.00     0.016 A 
ATOM     40  C   UNL A   1      44.564  35.412  27.879  1.00  0.00     0.016 A 
ATOM     41  C   UNL A   1      44.747  33.565  25.784  1.00  0.00     0.010 A 
ATOM     42  C   UNL A   1      45.584  34.461  27.879  1.00  0.00     0.010 A 
ATOM     43  C   UNL A   1      45.670  33.521  26.840  1.00  0.00    -0.014 A 
BRANCH  43  44
ATOM     44  C   UNL A   1      46.747  32.507  26.849  1.00  0.00     0.031 A 
ATOM     45  C   UNL A   1      48.151  32.878  26.474  1.00  0.00     0.074 A 
ATOM     46  C   UNL A   1      46.447  31.240  27.188  1.00  0.00     0.049 A 
ATOM     47  N   UNL A   1      49.190  32.099  26.311  1.00  0.00    -0.248 NA
ATOM     48  C   UNL A   1      48.427  34.306  26.255  1.00  0.00     0.031 C 
ATOM     49  C   UNL A   1      45.127  30.770  27.612  1.00  0.00     0.029 A 
ATOM     50  N   UNL A   1      47.234  30.118  27.231  1.00  0.00    -0.354 N 
ATOM     51  C   UNL A   1      50.235  32.936  25.948  1.00  0.00     0.074 A 
ATOM     52  C   UNL A   1      49.707  34.283  25.906  1.00  0.00     0.031 C 
ATOM     53  C   UNL A   1      45.201  29.460  27.895  1.00  0.00     0.029 A 
ATOM     54  C   UNL A   1      46.554  28.990  27.615  1.00  0.00     0.049 A 
ATOM     55  H   UNL A   1      48.193  30.122  27.008  1.00  0.00     0.167 HD
ATOM     56  C   UNL A   1      51.520  32.607  25.678  1.00  0.00     0.031 A 
ATOM     57  C   UNL A   1      46.965  27.713  27.708  1.00  0.00     0.031 A 
ATOM     58  C   UNL A   1      52.046  31.269  25.735  1.00  0.00     0.049 A 
ATOM     59  C   UNL A   1      48.374  27.364  27.338  1.00  0.00     0.074 A 
ATOM     60  C   UNL A   1      53.338  30.840  25.481  1.00  0.00     0.029 A 
ATOM     61  N   UNL A   1      51.309  30.145  26.073  1.00  0.00    -0.354 N 
ATOM     62  N   UNL A   1      49.344  28.159  26.956  1.00  0.00    -0.248 NA
ATOM     63  C   UNL A   1      48.744  25.943  27.397  1.00  0.00     0.031 C 
ATOM     64  C   UNL A   1      53.375  29.451  25.638  1.00  0.00     0.029 A 
ATOM     65  C   UNL A   1      52.115  29.022  26.024  1.00  0.00     0.049 A 
ATOM     66  H   UNL A   1      50.354  30.146  26.314  1.00  0.00     0.167 HD
ATOM     67  C   UNL A   1      50.439  27.339  26.733  1.00  0.00     0.074 A 
ATOM     68  C   UNL A   1      50.020  25.985  27.034  1.00  0.00     0.031 C 
ATOM     69  C   UNL A   1      51.680  27.681  26.316  1.00  0.00     0.031 A 
BRANCH  56  70
ATOM     70  C   UNL A   1      52.455  33.710  25.280  1.00  0.00    -0.014 A 
ATOM     71  C   UNL A   1      53.265  34.348  26.230  1.00  0.00     0.009 A 
ATOM     72  C   UNL A   1      52.585  34.058  23.926  1.00  0.00     0.009 A 
ATOM     73  C   UNL A   1      54.183  35.322  25.833  1.00  0.00     0.001 A 
ATOM     74  C   UNL A   1      53.516  35.021  23.531  1.00  0.00     0.001 A 
ATOM     75  C   UNL A   1      54.312  35.653  24.484  1.00  0.00     0.000 A 
ENDBRANCH  56  70
BRANCH  57  76
ATOM     76  C   UNL A   1      46.005  26.676  28.155  1.00  0.00    -0.014 A 
ATOM     77  C   UNL A   1      45.911  26.340  29.513  1.00  0.00     0.009 A 
ATOM     78  C   UNL A   1      45.138  26.064  27.236  1.00  0.00     0.009 A 
ATOM     79  C   UNL A   1      44.963  25.410  29.943  1.00  0.00     0.001 A 
ATOM     80  C   UNL A   1      44.180  25.148  27.672  1.00  0.00     0.001 A 
ATOM     81  C   UNL A   1      44.094  24.820  29.024  1.00  0.00     0.000 A 
ENDBRANCH  57  76
BRANCH  69  82
ATOM     82  C   UNL A   1      52.686  26.580  26.167  1.00  0.00    -0.014 A 
ATOM     83  C   UNL A   1      53.673  26.374  27.142  1.00  0.00     0.009 A 
ATOM     84  C   UNL A   1      52.595  25.692  25.084  1.00  0.00     0.009 A 
ATOM     85  C   UNL A   1      54.557  25.300  27.029  1.00  0.00     0.001 A 
ATOM     86  C   UNL A   1      53.470  24.611  24.984  1.00  0.00     0.001 A 
ATOM     87  C   UNL A   1      54.452  24.417  25.956  1.00  0.00     0.000 A 
ENDBRANCH  69  82
ENDBRANCH  43  44
ENDBRANCH  36  38
ENDBRANCH  35  36
ENDBRANCH  34  35
ENDBRANCH   1  34
TORSDOF 17
ENDMDL
MODEL 2
REMARK VINA RESULT:      -8.9      7.424     14.275
REMARK SMILES CCCn1c(N2CCC[C@@H](C)C2)c(/C=C2/SC(=S)N(CC(=O)OCCOC(=O)c3ccc(-c4c5nc(c(-c6ccccc6)c6ccc([nH]6)c(-c6ccccc6)c6nc(c(-c7ccccc7)c7ccc4[nH]7)C=C6)C=C5)cc3)C2=O)c(C)c(C#N)c1=O
REMARK SMILES IDX 24 1 23 2 21 3 22 4 20 5 19 6 14 7 15 8 16 9 77 10 17 11
REMARK SMILES IDX 78 12 18 13 13 14 4 15 5 16 84 17 81 18 85 19 79 20 80 21
REMARK SMILES IDX 3 22 2 23 1 24 6 25 7 26 12 27 8 28 10 29 9 30 11 31 82 32
REMARK SMILES IDX 83 33 25 34 26 35 27 36 28 37 29 38 30 39 76 40 31 41 75 42
REMARK SMILES IDX 32 43 33 44 34 45 69 46 35 47 74 48 68 49 70 50 36 51 73 52
REMARK SMILES IDX 67 53 66 54 37 56 59 57 44 58 58 59 45 60 48 61 57 62 71 63
REMARK SMILES IDX 46 64 47 65 56 67 72 68 49 69 38 70 39 71 43 72 40 73 42 74
REMARK SMILES IDX 41 75 60 76 61 77 65 78 62 79 64 80 63 81 50 82 51 83 55 84
REMARK SMILES IDX 52 85 54 86 53 87
REMARK H PARENT 70 55 48 66
REMARK Flexibility Score: inf
ROOT
ATOM      1  C   UNL A   1      49.847  24.405  32.957  1.00  0.00     0.274 C 
ENDROOT
BRANCH   1   2
ATOM      2  O   UNL A   1      49.881  23.119  33.618  1.00  0.00    -0.461 OA
BRANCH   2   3
ATOM      3  C   UNL A   1      51.111  22.714  34.033  1.00  0.00     0.326 C 
ATOM      4  O   UNL A   1      52.015  22.351  33.284  1.00  0.00    -0.250 OA
BRANCH   3   5
ATOM      5  C   UNL A   1      51.304  22.742  35.543  1.00  0.00     0.250 C 
BRANCH   5   6
ATOM      6  N   UNL A   1      50.402  21.930  36.356  1.00  0.00    -0.282 N 
ATOM      7  C   UNL A   1      47.201  21.578  38.051  1.00  0.00     0.033 C 
ATOM      8  C   UNL A   1      48.491  21.526  37.680  1.00  0.00     0.081 C 
ATOM      9  S   UNL A   1      49.480  20.139  37.958  1.00  0.00    -0.054 SA
ATOM     10  C   UNL A   1      49.255  22.516  36.866  1.00  0.00     0.266 C 
ATOM     11  C   UNL A   1      50.662  20.637  36.750  1.00  0.00     0.148 C 
ATOM     12  O   UNL A   1      48.954  23.695  36.752  1.00  0.00    -0.268 OA
ATOM     13  S   UNL A   1      51.894  19.637  36.240  1.00  0.00    -0.052 S 
BRANCH   7  14
ATOM     14  C   UNL A   1      46.189  22.513  37.534  1.00  0.00     0.021 A 
ATOM     15  N   UNL A   1      44.683  23.295  35.841  1.00  0.00    -0.293 N 
ATOM     16  C   UNL A   1      45.582  22.313  36.319  1.00  0.00     0.119 A 
ATOM     17  C   UNL A   1      44.402  24.465  36.542  1.00  0.00     0.270 A 
ATOM     18  C   UNL A   1      44.903  24.552  37.918  1.00  0.00     0.121 A 
ATOM     19  O   UNL A   1      43.813  25.434  36.065  1.00  0.00    -0.268 OA
ATOM     20  C   UNL A   1      45.871  23.716  38.326  1.00  0.00    -0.017 A 
ATOM     21  C   UNL A   1      46.679  23.979  39.585  1.00  0.00     0.047 C 
BRANCH  15  22
ATOM     22  C   UNL A   1      44.050  23.188  34.521  1.00  0.00     0.127 C 
BRANCH  22  23
ATOM     23  C   UNL A   1      44.936  23.610  33.338  1.00  0.00     0.019 C 
ATOM     24  C   UNL A   1      44.380  24.741  32.481  1.00  0.00     0.006 C 
ENDBRANCH  22  23
ENDBRANCH  15  22
BRANCH  16  25
ATOM     25  N   UNL A   1      45.879  21.186  35.528  1.00  0.00    -0.357 N 
ATOM     26  C   UNL A   1      44.890  20.111  35.342  1.00  0.00     0.118 C 
ATOM     27  C   UNL A   1      46.938  21.214  34.508  1.00  0.00     0.121 C 
ATOM     28  C   UNL A   1      45.583  18.747  35.299  1.00  0.00     0.022 C 
ATOM     29  C   UNL A   1      47.690  19.880  34.488  1.00  0.00     0.005 C 
ATOM     30  C   UNL A   1      46.713  18.714  34.274  1.00  0.00     0.007 C 
ATOM     31  C   UNL A   1      48.760  19.889  33.397  1.00  0.00     0.009 C 
ENDBRANCH  16  25
BRANCH  18  32
ATOM     32  C   UNL A   1      44.474  25.741  38.764  1.00  0.00     0.105 C 
ATOM     33  N   UNL A   1      44.119  26.725  39.466  1.00  0.00    -0.192 NA
ENDBRANCH  18  32
ENDBRANCH   7  14
ENDBRANCH   5   6
ENDBRANCH   3   5
ENDBRANCH   2   3
ENDBRANCH   1   2
BRANCH   1  34
ATOM     34  C   UNL A   1      48.666  25.257  33.420  1.00  0.00     0.275 C 
BRANCH  34  35
ATOM     35  O   UNL A   1      48.901  26.652  33.153  1.00  0.00    -0.458 OA
BRANCH  35  36
ATOM     36  C   UNL A   1      48.482  27.466  34.147  1.00  0.00     0.338 C 
ATOM     37  O   UNL A   1      49.065  27.685  35.195  1.00  0.00    -0.246 OA
BRANCH  36  38
ATOM     38  C   UNL A   1      47.204  28.104  33.839  1.00  0.00     0.060 A 
ATOM     39  C   UNL A   1      46.054  27.716  34.529  1.00  0.00     0.016 A 
ATOM     40  C   UNL A   1      47.130  28.961  32.739  1.00  0.00     0.016 A 
ATOM     41  C   UNL A   1      44.812  28.164  34.090  1.00  0.00     0.010 A 
ATOM     42  C   UNL A   1      45.889  29.452  32.336  1.00  0.00     0.010 A 
ATOM     43  C   UNL A   1      44.721  29.042  32.998  1.00  0.00    -0.014 A 
BRANCH  43  44
ATOM     44  C   UNL A   1      43.404  29.555  32.561  1.00  0.00     0.031 A 
ATOM     45  C   UNL A   1      42.643  28.875  31.462  1.00  0.00     0.074 A 
ATOM     46  C   UNL A   1      42.901  30.652  33.157  1.00  0.00     0.049 A 
ATOM     47  N   UNL A   1      41.538  29.254  30.872  1.00  0.00    -0.248 NA
ATOM     48  C   UNL A   1      43.191  27.605  30.961  1.00  0.00     0.031 C 
ATOM     49  C   UNL A   1      43.530  31.373  34.265  1.00  0.00     0.029 A 
ATOM     50  N   UNL A   1      41.745  31.347  32.915  1.00  0.00    -0.354 N 
ATOM     51  C   UNL A   1      41.271  28.284  29.916  1.00  0.00     0.074 A 
ATOM     52  C   UNL A   1      42.331  27.302  29.996  1.00  0.00     0.031 C 
ATOM     53  C   UNL A   1      42.739  32.397  34.622  1.00  0.00     0.029 A 
ATOM     54  C   UNL A   1      41.584  32.437  33.731  1.00  0.00     0.049 A 
ATOM     55  H   UNL A   1      41.094  31.090  32.222  1.00  0.00     0.167 HD
ATOM     56  C   UNL A   1      40.231  28.222  29.052  1.00  0.00     0.031 A 
ATOM     57  C   UNL A   1      40.627  33.382  33.748  1.00  0.00     0.031 A 
ATOM     58  C   UNL A   1      39.170  29.192  28.985  1.00  0.00     0.049 A 
ATOM     59  C   UNL A   1      39.522  33.328  32.736  1.00  0.00     0.074 A 
ATOM     60  C   UNL A   1      38.071  29.209  28.143  1.00  0.00     0.029 A 
ATOM     61  N   UNL A   1      39.074  30.314  29.793  1.00  0.00    -0.354 N 
ATOM     62  N   UNL A   1      39.301  32.428  31.809  1.00  0.00    -0.248 NA
ATOM     63  C   UNL A   1      38.543  34.423  32.763  1.00  0.00     0.031 C 
ATOM     64  C   UNL A   1      37.325  30.358  28.423  1.00  0.00     0.029 A 
ATOM     65  C   UNL A   1      37.941  31.036  29.462  1.00  0.00     0.049 A 
ATOM     66  H   UNL A   1      39.716  30.560  30.498  1.00  0.00     0.167 HD
ATOM     67  C   UNL A   1      38.158  32.845  31.144  1.00  0.00     0.074 A 
ATOM     68  C   UNL A   1      37.723  34.071  31.781  1.00  0.00     0.031 C 
ATOM     69  C   UNL A   1      37.528  32.260  30.099  1.00  0.00     0.031 A 
BRANCH  56  70
ATOM     70  C   UNL A   1      40.187  27.071  28.093  1.00  0.00    -0.014 A 
ATOM     71  C   UNL A   1      40.855  27.131  26.861  1.00  0.00     0.009 A 
ATOM     72  C   UNL A   1      39.538  25.882  28.461  1.00  0.00     0.009 A 
ATOM     73  C   UNL A   1      40.866  26.024  26.011  1.00  0.00     0.001 A 
ATOM     74  C   UNL A   1      39.566  24.771  27.615  1.00  0.00     0.001 A 
ATOM     75  C   UNL A   1      40.227  24.843  26.391  1.00  0.00     0.000 A 
ENDBRANCH  56  70
BRANCH  57  76
ATOM     76  C   UNL A   1      40.699  34.468  34.754  1.00  0.00    -0.014 A 
ATOM     77  C   UNL A   1      40.074  34.318  35.999  1.00  0.00     0.009 A 
ATOM     78  C   UNL A   1      41.445  35.629  34.496  1.00  0.00     0.009 A 
ATOM     79  C   UNL A   1      40.195  35.314  36.971  1.00  0.00     0.001 A 
ATOM     80  C   UNL A   1      41.579  36.613  35.476  1.00  0.00     0.001 A 
ATOM     81  C   UNL A   1      40.953  36.456  36.711  1.00  0.00     0.000 A 
ENDBRANCH  57  76
BRANCH  69  82
ATOM     82  C   UNL A   1      36.292  32.927  29.576  1.00  0.00    -0.014 A 
ATOM     83  C   UNL A   1      36.379  33.938  28.608  1.00  0.00     0.009 A 
ATOM     84  C   UNL A   1      35.028  32.485  29.996  1.00  0.00     0.009 A 
ATOM     85  C   UNL A   1      35.218  34.500  28.074  1.00  0.00     0.001 A 
ATOM     86  C   UNL A   1      33.871  33.038  29.448  1.00  0.00     0.001 A 
ATOM     87  C   UNL A   1      33.967  34.047  28.489  1.00  0.00     0.000 A 
ENDBRANCH  69  82
ENDBRANCH  43  44
ENDBRANCH  36  38
ENDBRANCH  35  36
ENDBRANCH  34  35
ENDBRANCH   1  34
TORSDOF 17
ENDMDL
MODEL 3
REMARK VINA RESULT:      -8.9      6.274     12.764
REMARK SMILES CCCn1c(N2CCC[C@@H](C)C2)c(/C=C2/SC(=S)N(CC(=O)OCCOC(=O)c3ccc(-c4c5nc(c(-c6ccccc6)c6ccc([nH]6)c(-c6ccccc6)c6nc(c(-c7ccccc7)c7ccc4[nH]7)C=C6)C=C5)cc3)C2=O)c(C)c(C#N)c1=O
REMARK SMILES IDX 24 1 23 2 21 3 22 4 20 5 19 6 14 7 15 8 16 9 77 10 17 11
REMARK SMILES IDX 78 12 18 13 13 14 4 15 5 16 84 17 81 18 85 19 79 20 80 21
REMARK SMILES IDX 3 22 2 23 1 24 6 25 7 26 12 27 8 28 10 29 9 30 11 31 82 32
REMARK SMILES IDX 83 33 25 34 26 35 27 36 28 37 29 38 30 39 76 40 31 41 75 42
REMARK SMILES IDX 32 43 33 44 34 45 69 46 35 47 74 48 68 49 70 50 36 51 73 52
REMARK SMILES IDX 67 53 66 54 37 56 59 57 44 58 58 59 45 60 48 61 57 62 71 63
REMARK SMILES IDX 46 64 47 65 56 67 72 68 49 69 38 70 39 71 43 72 40 73 42 74
REMARK SMILES IDX 41 75 60 76 61 77 65 78 62 79 64 80 63 81 50 82 51 83 55 84
REMARK SMILES IDX 52 85 54 86 53 87
REMARK H PARENT 70 55 48 66
REMARK Flexibility Score: inf
ROOT
ATOM      1  C   UNL A   1      47.995  35.458  25.604  1.00  0.00     0.274 C 
ENDROOT
BRANCH   1   2
ATOM      2  O   UNL A   1      48.496  35.965  26.862  1.00  0.00    -0.461 OA
BRANCH   2   3
ATOM      3  C   UNL A   1      48.009  37.179  27.232  1.00  0.00     0.326 C 
ATOM      4  O   UNL A   1      47.151  37.352  28.095  1.00  0.00    -0.250 OA
BRANCH   3   5
ATOM      5  C   UNL A   1      48.620  38.355  26.484  1.00  0.00     0.250 C 
BRANCH   5   6
ATOM      6  N   UNL A   1      48.306  39.699  26.963  1.00  0.00    -0.282 N 
ATOM      7  C   UNL A   1      46.031  42.540  27.001  1.00  0.00     0.033 C 
ATOM      8  C   UNL A   1      47.101  41.728  27.011  1.00  0.00     0.081 C 
ATOM      9  S   UNL A   1      48.517  42.072  27.936  1.00  0.00    -0.054 SA
ATOM     10  C   UNL A   1      47.234  40.373  26.400  1.00  0.00     0.266 C 
ATOM     11  C   UNL A   1      49.069  40.400  27.868  1.00  0.00     0.148 C 
ATOM     12  O   UNL A   1      46.553  39.965  25.471  1.00  0.00    -0.268 OA
ATOM     13  S   UNL A   1      50.349  39.843  28.780  1.00  0.00    -0.052 S 
BRANCH   7  14
ATOM     14  C   UNL A   1      44.669  42.171  26.585  1.00  0.00     0.021 A 
ATOM     15  N   UNL A   1      42.526  41.167  26.966  1.00  0.00    -0.293 N 
ATOM     16  C   UNL A   1      43.790  41.575  27.454  1.00  0.00     0.119 A 
ATOM     17  C   UNL A   1      42.144  41.326  25.636  1.00  0.00     0.270 A 
ATOM     18  C   UNL A   1      43.017  42.143  24.787  1.00  0.00     0.121 A 
ATOM     19  O   UNL A   1      41.163  40.786  25.129  1.00  0.00    -0.268 OA
ATOM     20  C   UNL A   1      44.274  42.403  25.183  1.00  0.00    -0.017 A 
ATOM     21  C   UNL A   1      45.328  42.917  24.217  1.00  0.00     0.047 C 
BRANCH  15  22
ATOM     22  C   UNL A   1      41.561  40.460  27.816  1.00  0.00     0.127 C 
BRANCH  22  23
ATOM     23  C   UNL A   1      41.804  38.949  27.960  1.00  0.00     0.019 C 
ATOM     24  C   UNL A   1      42.679  38.326  26.879  1.00  0.00     0.006 C 
ENDBRANCH  22  23
ENDBRANCH  15  22
BRANCH  16  25
ATOM     25  N   UNL A   1      44.142  41.320  28.794  1.00  0.00    -0.357 N 
ATOM     26  C   UNL A   1      44.956  40.146  29.152  1.00  0.00     0.118 C 
ATOM     27  C   UNL A   1      44.137  42.383  29.810  1.00  0.00     0.121 C 
ATOM     28  C   UNL A   1      44.494  39.561  30.488  1.00  0.00     0.022 C 
ATOM     29  C   UNL A   1      43.617  41.837  31.144  1.00  0.00     0.005 C 
ATOM     30  C   UNL A   1      44.442  40.620  31.586  1.00  0.00     0.007 C 
ATOM     31  C   UNL A   1      43.655  42.927  32.215  1.00  0.00     0.009 C 
ENDBRANCH  16  25
BRANCH  18  32
ATOM     32  C   UNL A   1      42.546  42.473  23.380  1.00  0.00     0.105 C 
ATOM     33  N   UNL A   1      42.154  42.746  22.213  1.00  0.00    -0.192 NA
ENDBRANCH  18  32
ENDBRANCH   7  14
ENDBRANCH   5   6
ENDBRANCH   3   5
ENDBRANCH   2   3
ENDBRANCH   1   2
BRANCH   1  34
ATOM     34  C   UNL A   1      47.003  34.312  25.802  1.00  0.00     0.275 C 
BRANCH  34  35
ATOM     35  O   UNL A   1      45.784  34.554  25.074  1.00  0.00    -0.458 OA
BRANCH  35  36
ATOM     36  C   UNL A   1      44.818  33.645  25.328  1.00  0.00     0.338 C 
ATOM     37  O   UNL A   1      44.498  32.712  24.611  1.00  0.00    -0.246 OA
BRANCH  36  38
ATOM     38  C   UNL A   1      44.159  33.880  26.611  1.00  0.00     0.060 A 
ATOM     39  C   UNL A   1      43.483  35.081  26.832  1.00  0.00     0.016 A 
ATOM     40  C   UNL A   1      44.370  32.970  27.649  1.00  0.00     0.016 A 
ATOM     41  C   UNL A   1      43.045  35.392  28.115  1.00  0.00     0.010 A 
ATOM     42  C   UNL A   1      43.880  33.260  28.922  1.00  0.00     0.010 A 
ATOM     43  C   UNL A   1      43.231  34.481  29.167  1.00  0.00    -0.014 A 
BRANCH  43  44
ATOM     44  C   UNL A   1      42.723  34.790  30.521  1.00  0.00     0.031 A 
ATOM     45  C   UNL A   1      43.603  35.462  31.533  1.00  0.00     0.074 A 
ATOM     46  C   UNL A   1      41.461  34.449  30.838  1.00  0.00     0.049 A 
ATOM     47  N   UNL A   1      43.366  35.699  32.798  1.00  0.00    -0.248 NA
ATOM     48  C   UNL A   1      44.917  35.930  31.068  1.00  0.00     0.031 C 
ATOM     49  C   UNL A   1      40.499  33.831  29.924  1.00  0.00     0.029 A 
ATOM     50  N   UNL A   1      40.772  34.578  32.016  1.00  0.00    -0.354 N 
ATOM     51  C   UNL A   1      44.506  36.321  33.285  1.00  0.00     0.074 A 
ATOM     52  C   UNL A   1      45.441  36.419  32.184  1.00  0.00     0.031 C 
ATOM     53  C   UNL A   1      39.336  33.654  30.569  1.00  0.00     0.029 A 
ATOM     54  C   UNL A   1      39.490  34.092  31.953  1.00  0.00     0.049 A 
ATOM     55  H   UNL A   1      41.158  34.980  32.827  1.00  0.00     0.167 HD
ATOM     56  C   UNL A   1      44.747  36.771  34.539  1.00  0.00     0.031 A 
ATOM     57  C   UNL A   1      38.549  33.985  32.908  1.00  0.00     0.031 A 
ATOM     58  C   UNL A   1      43.810  36.686  35.628  1.00  0.00     0.049 A 
ATOM     59  C   UNL A   1      38.865  34.428  34.304  1.00  0.00     0.074 A 
ATOM     60  C   UNL A   1      43.965  37.119  36.933  1.00  0.00     0.029 A 
ATOM     61  N   UNL A   1      42.542  36.134  35.536  1.00  0.00    -0.354 N 
ATOM     62  N   UNL A   1      39.962  34.978  34.763  1.00  0.00    -0.248 NA
ATOM     63  C   UNL A   1      37.820  34.225  35.317  1.00  0.00     0.031 C 
ATOM     64  C   UNL A   1      42.801  36.803  37.640  1.00  0.00     0.029 A 
ATOM     65  C   UNL A   1      41.908  36.205  36.764  1.00  0.00     0.049 A 
ATOM     66  H   UNL A   1      42.150  35.749  34.718  1.00  0.00     0.167 HD
ATOM     67  C   UNL A   1      39.741  35.190  36.115  1.00  0.00     0.074 A 
ATOM     68  C   UNL A   1      38.400  34.723  36.402  1.00  0.00     0.031 C 
ATOM     69  C   UNL A   1      40.578  35.726  37.035  1.00  0.00     0.031 A 
BRANCH  56  70
ATOM     70  C   UNL A   1      46.085  37.389  34.814  1.00  0.00    -0.014 A 
ATOM     71  C   UNL A   1      46.285  38.770  34.677  1.00  0.00     0.009 A 
ATOM     72  C   UNL A   1      47.135  36.591  35.295  1.00  0.00     0.009 A 
ATOM     73  C   UNL A   1      47.516  39.340  35.007  1.00  0.00     0.001 A 
ATOM     74  C   UNL A   1      48.359  37.167  35.640  1.00  0.00     0.001 A 
ATOM     75  C   UNL A   1      48.549  38.539  35.494  1.00  0.00     0.000 A 
ENDBRANCH  56  70
BRANCH  57  76
ATOM     76  C   UNL A   1      37.228  33.410  32.560  1.00  0.00    -0.014 A 
ATOM     77  C   UNL A   1      36.174  34.249  32.175  1.00  0.00     0.009 A 
ATOM     78  C   UNL A   1      37.036  32.020  32.554  1.00  0.00     0.009 A 
ATOM     79  C   UNL A   1      34.948  33.704  31.786  1.00  0.00     0.001 A 
ATOM     80  C   UNL A   1      35.816  31.478  32.147  1.00  0.00     0.001 A 
ATOM     81  C   UNL A   1      34.773  32.320  31.766  1.00  0.00     0.000 A 
ENDBRANCH  57  76
BRANCH  69  82
ATOM     82  C   UNL A   1      40.072  35.848  38.440  1.00  0.00    -0.014 A 
ATOM     83  C   UNL A   1      39.435  37.021  38.873  1.00  0.00     0.009 A 
ATOM     84  C   UNL A   1      40.161  34.753  39.313  1.00  0.00     0.009 A 
ATOM     85  C   UNL A   1      38.902  37.095  40.160  1.00  0.00     0.001 A 
ATOM     86  C   UNL A   1      39.612  34.826  40.593  1.00  0.00     0.001 A 
ATOM     87  C   UNL A   1      38.985  35.998  41.016  1.00  0.00     0.000 A 
ENDBRANCH  69  82
ENDBRANCH  43  44
ENDBRANCH  36  38
ENDBRANCH  35  36
ENDBRANCH  34  35
ENDBRANCH   1  34
TORSDOF 17
ENDMDL
