MODEL 1
REMARK VINA RESULT:     -10.3      0.000      0.000
REMARK SMILES Nc1cc([N+](=O)[O-])ccc1[C@H]([NH3+])C(=O)OCCOC(=O)c1ccc(-c2c3nc(c(-c4ccccc4)c4ccc([nH]4)c(-c4ccccc4)c4nc(c(-c5ccccc5)c5ccc2[nH]5)C=C4)C=C3)cc1
REMARK SMILES IDX 16 1 15 2 13 3 14 4 11 5 10 6 2 7 3 8 4 9 9 10 8 11 1 12
REMARK SMILES IDX 5 15 6 16 7 17 12 18 17 22 18 23 19 24 20 25 21 26 22 27
REMARK SMILES IDX 68 28 23 29 67 30 24 31 25 32 26 33 61 34 27 35 66 36 60 37
REMARK SMILES IDX 62 38 28 39 65 40 59 41 58 42 29 44 51 45 36 46 50 47 37 48
REMARK SMILES IDX 40 49 49 50 63 51 38 52 39 53 48 55 64 56 41 57 30 58 31 59
REMARK SMILES IDX 35 60 32 61 34 62 33 63 52 64 53 65 57 66 54 67 56 68 55 69
REMARK SMILES IDX 42 70 43 71 47 72 44 73 46 74 45 75
REMARK H PARENT 1 13 1 14 12 19 12 20 12 21 62 43 40 54
REMARK Flexibility Score: inf
ROOT
ATOM      1  C   UNL A   1      34.278  34.735  31.980  1.00  0.00     0.274 C 
ENDROOT
BRANCH   1   2
ATOM      2  O   UNL A   1      33.278  34.616  30.955  1.00  0.00    -0.457 OA
BRANCH   2   3
ATOM      3  C   UNL A   1      32.977  35.733  30.232  1.00  0.00     0.369 C 
ATOM      4  O   UNL A   1      32.552  36.774  30.726  1.00  0.00    -0.245 OA
BRANCH   3   5
ATOM      5  C   UNL A   1      33.258  35.558  28.714  1.00  0.00     0.325 C 
BRANCH   5   6
ATOM      6  C   UNL A   1      33.672  34.145  28.286  1.00  0.00     0.044 A 
ATOM      7  C   UNL A   1      35.026  33.727  28.347  1.00  0.00     0.048 A 
ATOM      8  C   UNL A   1      35.352  32.389  28.082  1.00  0.00     0.111 A 
ATOM      9  C   UNL A   1      34.375  31.496  27.632  1.00  0.00     0.271 A 
ATOM     10  C   UNL A   1      32.714  33.229  27.795  1.00  0.00     0.020 A 
ATOM     11  C   UNL A   1      33.060  31.920  27.456  1.00  0.00     0.086 A 
BRANCH   7  12
ATOM     12  N   UNL A   1      36.052  34.583  28.751  1.00  0.00    -0.398 N 
ATOM     13  H   UNL A   1      36.190  35.440  28.284  1.00  0.00     0.156 HD
ATOM     14  H   UNL A   1      36.638  34.331  29.500  1.00  0.00     0.156 HD
ENDBRANCH   7  12
BRANCH   9  15
ATOM     15  N   UNL A   1      34.738  30.108  27.330  1.00  0.00     0.062 N 
ATOM     16  O   UNL A   1      34.254  29.592  26.313  1.00  0.00    -0.258 OA
ATOM     17  O   UNL A   1      35.509  29.531  28.111  1.00  0.00    -0.258 OA
ENDBRANCH   9  15
ENDBRANCH   5   6
BRANCH   5  18
ATOM     18  N   UNL A   1      34.228  36.580  28.255  1.00  0.00    -0.342 N 
ATOM     19  H   UNL A   1      34.544  37.132  29.053  1.00  0.00     0.345 HD
ATOM     20  H   UNL A   1      33.779  37.193  27.574  1.00  0.00     0.345 HD
ATOM     21  H   UNL A   1      35.029  36.119  27.822  1.00  0.00     0.345 HD
ENDBRANCH   5  18
ENDBRANCH   3   5
ENDBRANCH   2   3
ENDBRANCH   1   2
BRANCH   1  22
ATOM     22  C   UNL A   1      34.194  33.574  32.977  1.00  0.00     0.275 C 
BRANCH  22  23
ATOM     23  O   UNL A   1      35.008  32.456  32.570  1.00  0.00    -0.458 OA
BRANCH  23  24
ATOM     24  C   UNL A   1      36.174  32.313  33.242  1.00  0.00     0.338 C 
ATOM     25  O   UNL A   1      36.379  32.515  34.427  1.00  0.00    -0.246 OA
BRANCH  24  26
ATOM     26  C   UNL A   1      37.181  31.697  32.362  1.00  0.00     0.060 A 
ATOM     27  C   UNL A   1      38.214  30.979  32.971  1.00  0.00     0.016 A 
ATOM     28  C   UNL A   1      37.158  31.868  30.976  1.00  0.00     0.016 A 
ATOM     29  C   UNL A   1      39.241  30.440  32.205  1.00  0.00     0.010 A 
ATOM     30  C   UNL A   1      38.192  31.327  30.205  1.00  0.00     0.010 A 
ATOM     31  C   UNL A   1      39.246  30.625  30.819  1.00  0.00    -0.014 A 
BRANCH  31  32
ATOM     32  C   UNL A   1      40.396  30.132  30.029  1.00  0.00     0.031 A 
ATOM     33  C   UNL A   1      41.580  31.026  29.808  1.00  0.00     0.074 A 
ATOM     34  C   UNL A   1      40.393  28.876  29.550  1.00  0.00     0.049 A 
ATOM     35  N   UNL A   1      42.661  30.807  29.105  1.00  0.00    -0.248 NA
ATOM     36  C   UNL A   1      41.545  32.340  30.469  1.00  0.00     0.031 C 
ATOM     37  C   UNL A   1      39.324  27.897  29.749  1.00  0.00     0.029 A 
ATOM     38  N   UNL A   1      41.325  28.211  28.796  1.00  0.00    -0.354 N 
ATOM     39  C   UNL A   1      43.424  31.960  29.219  1.00  0.00     0.074 A 
ATOM     40  C   UNL A   1      42.679  32.881  30.050  1.00  0.00     0.031 C 
ATOM     41  C   UNL A   1      39.660  26.756  29.125  1.00  0.00     0.029 A 
ATOM     42  C   UNL A   1      40.942  26.939  28.452  1.00  0.00     0.049 A 
ATOM     43  H   UNL A   1      42.186  28.608  28.527  1.00  0.00     0.167 HD
ATOM     44  C   UNL A   1      44.636  32.228  28.679  1.00  0.00     0.031 A 
ATOM     45  C   UNL A   1      41.544  26.035  27.658  1.00  0.00     0.031 A 
ATOM     46  C   UNL A   1      45.373  31.312  27.848  1.00  0.00     0.049 A 
ATOM     47  C   UNL A   1      42.858  26.378  27.017  1.00  0.00     0.074 A 
ATOM     48  C   UNL A   1      46.610  31.490  27.253  1.00  0.00     0.029 A 
ATOM     49  N   UNL A   1      44.934  30.046  27.492  1.00  0.00    -0.354 N 
ATOM     50  N   UNL A   1      43.567  27.474  27.125  1.00  0.00    -0.248 NA
ATOM     51  C   UNL A   1      43.454  25.357  26.144  1.00  0.00     0.031 C 
ATOM     52  C   UNL A   1      46.900  30.346  26.501  1.00  0.00     0.029 A 
ATOM     53  C   UNL A   1      45.866  29.439  26.667  1.00  0.00     0.049 A 
ATOM     54  H   UNL A   1      44.087  29.639  27.783  1.00  0.00     0.167 HD
ATOM     55  C   UNL A   1      44.697  27.273  26.344  1.00  0.00     0.074 A 
ATOM     56  C   UNL A   1      44.589  25.942  25.783  1.00  0.00     0.031 C 
ATOM     57  C   UNL A   1      45.733  28.117  26.110  1.00  0.00     0.031 A 
BRANCH  44  58
ATOM     58  C   UNL A   1      45.214  33.589  28.938  1.00  0.00    -0.014 A 
ATOM     59  C   UNL A   1      44.937  34.675  28.093  1.00  0.00     0.009 A 
ATOM     60  C   UNL A   1      46.045  33.788  30.052  1.00  0.00     0.009 A 
ATOM     61  C   UNL A   1      45.512  35.924  28.338  1.00  0.00     0.001 A 
ATOM     62  C   UNL A   1      46.599  35.043  30.308  1.00  0.00     0.001 A 
ATOM     63  C   UNL A   1      46.340  36.108  29.445  1.00  0.00     0.000 A 
ENDBRANCH  44  58
BRANCH  45  64
ATOM     64  C   UNL A   1      40.879  24.734  27.393  1.00  0.00    -0.014 A 
ATOM     65  C   UNL A   1      41.380  23.545  27.942  1.00  0.00     0.009 A 
ATOM     66  C   UNL A   1      39.725  24.681  26.594  1.00  0.00     0.009 A 
ATOM     67  C   UNL A   1      40.744  22.328  27.686  1.00  0.00     0.001 A 
ATOM     68  C   UNL A   1      39.079  23.467  26.360  1.00  0.00     0.001 A 
ATOM     69  C   UNL A   1      39.592  22.291  26.902  1.00  0.00     0.000 A 
ENDBRANCH  45  64
BRANCH  57  70
ATOM     70  C   UNL A   1      46.836  27.613  25.226  1.00  0.00    -0.014 A 
ATOM     71  C   UNL A   1      46.865  27.923  23.857  1.00  0.00     0.009 A 
ATOM     72  C   UNL A   1      47.877  26.850  25.776  1.00  0.00     0.009 A 
ATOM     73  C   UNL A   1      47.903  27.452  23.050  1.00  0.00     0.001 A 
ATOM     74  C   UNL A   1      48.925  26.401  24.972  1.00  0.00     0.001 A 
ATOM     75  C   UNL A   1      48.933  26.696  23.609  1.00  0.00     0.000 A 
ENDBRANCH  57  70
ENDBRANCH  31  32
ENDBRANCH  24  26
ENDBRANCH  23  24
ENDBRANCH  22  23
ENDBRANCH   1  22
TORSDOF 15
ENDMDL
MODEL 2
REMARK VINA RESULT:     -10.3      5.020     12.003
REMARK SMILES Nc1cc([N+](=O)[O-])ccc1[C@H]([NH3+])C(=O)OCCOC(=O)c1ccc(-c2c3nc(c(-c4ccccc4)c4ccc([nH]4)c(-c4ccccc4)c4nc(c(-c5ccccc5)c5ccc2[nH]5)C=C4)C=C3)cc1
REMARK SMILES IDX 16 1 15 2 13 3 14 4 11 5 10 6 2 7 3 8 4 9 9 10 8 11 1 12
REMARK SMILES IDX 5 15 6 16 7 17 12 18 17 22 18 23 19 24 20 25 21 26 22 27
REMARK SMILES IDX 68 28 23 29 67 30 24 31 25 32 26 33 61 34 27 35 66 36 60 37
REMARK SMILES IDX 62 38 28 39 65 40 59 41 58 42 29 44 51 45 36 46 50 47 37 48
REMARK SMILES IDX 40 49 49 50 63 51 38 52 39 53 48 55 64 56 41 57 30 58 31 59
REMARK SMILES IDX 35 60 32 61 34 62 33 63 52 64 53 65 57 66 54 67 56 68 55 69
REMARK SMILES IDX 42 70 43 71 47 72 44 73 46 74 45 75
REMARK H PARENT 1 13 1 14 12 19 12 20 12 21 62 43 40 54
REMARK Flexibility Score: inf
ROOT
ATOM      1  C   UNL A   1      44.611  21.182  25.301  1.00  0.00     0.274 C 
ENDROOT
BRANCH   1   2
ATOM      2  O   UNL A   1      43.458  20.380  25.001  1.00  0.00    -0.457 OA
BRANCH   2   3
ATOM      3  C   UNL A   1      43.424  19.110  25.495  1.00  0.00     0.369 C 
ATOM      4  O   UNL A   1      44.278  18.259  25.257  1.00  0.00    -0.245 OA
BRANCH   3   5
ATOM      5  C   UNL A   1      42.201  18.858  26.420  1.00  0.00     0.325 C 
BRANCH   5   6
ATOM      6  C   UNL A   1      41.190  20.009  26.491  1.00  0.00     0.044 A 
ATOM      7  C   UNL A   1      41.419  21.137  27.320  1.00  0.00     0.048 A 
ATOM      8  C   UNL A   1      40.547  22.234  27.257  1.00  0.00     0.111 A 
ATOM      9  C   UNL A   1      39.383  22.171  26.485  1.00  0.00     0.271 A 
ATOM     10  C   UNL A   1      39.988  19.962  25.749  1.00  0.00     0.020 A 
ATOM     11  C   UNL A   1      39.083  21.025  25.753  1.00  0.00     0.086 A 
BRANCH   7  12
ATOM     12  N   UNL A   1      42.542  21.241  28.142  1.00  0.00    -0.398 N 
ATOM     13  H   UNL A   1      43.199  20.508  28.171  1.00  0.00     0.156 HD
ATOM     14  H   UNL A   1      42.677  22.045  28.693  1.00  0.00     0.156 HD
ENDBRANCH   7  12
BRANCH   9  15
ATOM     15  N   UNL A   1      38.465  23.315  26.454  1.00  0.00     0.062 N 
ATOM     16  O   UNL A   1      38.871  24.393  26.910  1.00  0.00    -0.258 OA
ATOM     17  O   UNL A   1      37.336  23.135  25.974  1.00  0.00    -0.258 OA
ENDBRANCH   9  15
ENDBRANCH   5   6
BRANCH   5  18
ATOM     18  N   UNL A   1      42.658  18.442  27.767  1.00  0.00    -0.342 N 
ATOM     19  H   UNL A   1      43.605  18.068  27.704  1.00  0.00     0.345 HD
ATOM     20  H   UNL A   1      42.032  17.722  28.130  1.00  0.00     0.345 HD
ATOM     21  H   UNL A   1      42.651  19.247  28.393  1.00  0.00     0.345 HD
ENDBRANCH   5  18
ENDBRANCH   3   5
ENDBRANCH   2   3
ENDBRANCH   1   2
BRANCH   1  22
ATOM     22  C   UNL A   1      44.657  22.442  24.429  1.00  0.00     0.275 C 
BRANCH  22  23
ATOM     23  O   UNL A   1      43.805  23.483  24.944  1.00  0.00    -0.458 OA
BRANCH  23  24
ATOM     24  C   UNL A   1      44.421  24.659  25.208  1.00  0.00     0.338 C 
ATOM     25  O   UNL A   1      45.347  25.167  24.598  1.00  0.00    -0.246 OA
BRANCH  24  26
ATOM     26  C   UNL A   1      43.699  25.368  26.278  1.00  0.00     0.060 A 
ATOM     27  C   UNL A   1      43.951  26.735  26.428  1.00  0.00     0.016 A 
ATOM     28  C   UNL A   1      42.844  24.705  27.161  1.00  0.00     0.016 A 
ATOM     29  C   UNL A   1      43.366  27.447  27.467  1.00  0.00     0.010 A 
ATOM     30  C   UNL A   1      42.255  25.422  28.207  1.00  0.00     0.010 A 
ATOM     31  C   UNL A   1      42.526  26.792  28.374  1.00  0.00    -0.014 A 
BRANCH  31  32
ATOM     32  C   UNL A   1      41.991  27.540  29.532  1.00  0.00     0.031 A 
ATOM     33  C   UNL A   1      40.694  28.283  29.399  1.00  0.00     0.074 A 
ATOM     34  C   UNL A   1      42.644  27.518  30.706  1.00  0.00     0.049 A 
ATOM     35  N   UNL A   1      40.083  29.041  30.273  1.00  0.00    -0.248 NA
ATOM     36  C   UNL A   1      39.990  28.153  28.114  1.00  0.00     0.031 C 
ATOM     37  C   UNL A   1      43.882  26.785  30.971  1.00  0.00     0.029 A 
ATOM     38  N   UNL A   1      42.352  28.132  31.897  1.00  0.00    -0.354 N 
ATOM     39  C   UNL A   1      38.936  29.496  29.638  1.00  0.00     0.074 A 
ATOM     40  C   UNL A   1      38.941  28.940  28.302  1.00  0.00     0.031 C 
ATOM     41  C   UNL A   1      44.248  26.998  32.246  1.00  0.00     0.029 A 
ATOM     42  C   UNL A   1      43.295  27.912  32.870  1.00  0.00     0.049 A 
ATOM     43  H   UNL A   1      41.545  28.678  32.040  1.00  0.00     0.167 HD
ATOM     44  C   UNL A   1      37.966  30.306  30.124  1.00  0.00     0.031 A 
ATOM     45  C   UNL A   1      43.395  28.415  34.114  1.00  0.00     0.031 A 
ATOM     46  C   UNL A   1      37.966  30.864  31.451  1.00  0.00     0.049 A 
ATOM     47  C   UNL A   1      42.341  29.363  34.610  1.00  0.00     0.074 A 
ATOM     48  C   UNL A   1      37.029  31.696  32.038  1.00  0.00     0.029 A 
ATOM     49  N   UNL A   1      38.958  30.646  32.395  1.00  0.00    -0.354 N 
ATOM     50  N   UNL A   1      41.265  29.794  33.998  1.00  0.00    -0.248 NA
ATOM     51  C   UNL A   1      42.517  29.895  35.969  1.00  0.00     0.031 C 
ATOM     52  C   UNL A   1      37.477  32.016  33.325  1.00  0.00     0.029 A 
ATOM     53  C   UNL A   1      38.667  31.346  33.554  1.00  0.00     0.049 A 
ATOM     54  H   UNL A   1      39.751  30.078  32.262  1.00  0.00     0.167 HD
ATOM     55  C   UNL A   1      40.629  30.637  34.899  1.00  0.00     0.074 A 
ATOM     56  C   UNL A   1      41.430  30.644  36.106  1.00  0.00     0.031 C 
ATOM     57  C   UNL A   1      39.484  31.347  34.740  1.00  0.00     0.031 A 
BRANCH  44  58
ATOM     58  C   UNL A   1      36.850  30.672  29.190  1.00  0.00    -0.014 A 
ATOM     59  C   UNL A   1      36.702  31.979  28.701  1.00  0.00     0.009 A 
ATOM     60  C   UNL A   1      35.932  29.687  28.788  1.00  0.00     0.009 A 
ATOM     61  C   UNL A   1      35.636  32.301  27.857  1.00  0.00     0.001 A 
ATOM     62  C   UNL A   1      34.882  30.006  27.926  1.00  0.00     0.001 A 
ATOM     63  C   UNL A   1      34.730  31.315  27.470  1.00  0.00     0.000 A 
ENDBRANCH  44  58
BRANCH  45  64
ATOM     64  C   UNL A   1      44.565  28.062  34.956  1.00  0.00    -0.014 A 
ATOM     65  C   UNL A   1      44.530  26.943  35.801  1.00  0.00     0.009 A 
ATOM     66  C   UNL A   1      45.731  28.842  34.907  1.00  0.00     0.009 A 
ATOM     67  C   UNL A   1      45.639  26.620  36.588  1.00  0.00     0.001 A 
ATOM     68  C   UNL A   1      46.845  28.502  35.677  1.00  0.00     0.001 A 
ATOM     69  C   UNL A   1      46.795  27.395  36.520  1.00  0.00     0.000 A 
ENDBRANCH  45  64
BRANCH  57  70
ATOM     70  C   UNL A   1      39.024  32.170  35.909  1.00  0.00    -0.014 A 
ATOM     71  C   UNL A   1      39.443  33.501  36.066  1.00  0.00     0.009 A 
ATOM     72  C   UNL A   1      38.135  31.618  36.843  1.00  0.00     0.009 A 
ATOM     73  C   UNL A   1      39.000  34.254  37.155  1.00  0.00     0.001 A 
ATOM     74  C   UNL A   1      37.676  32.381  37.917  1.00  0.00     0.001 A 
ATOM     75  C   UNL A   1      38.114  33.695  38.077  1.00  0.00     0.000 A 
ENDBRANCH  57  70
ENDBRANCH  31  32
ENDBRANCH  24  26
ENDBRANCH  23  24
ENDBRANCH  22  23
ENDBRANCH   1  22
TORSDOF 15
ENDMDL
MODEL 3
REMARK VINA RESULT:     -10.1      5.050     10.221
REMARK SMILES Nc1cc([N+](=O)[O-])ccc1[C@H]([NH3+])C(=O)OCCOC(=O)c1ccc(-c2c3nc(c(-c4ccccc4)c4ccc([nH]4)c(-c4ccccc4)c4nc(c(-c5ccccc5)c5ccc2[nH]5)C=C4)C=C3)cc1
REMARK SMILES IDX 16 1 15 2 13 3 14 4 11 5 10 6 2 7 3 8 4 9 9 10 8 11 1 12
REMARK SMILES IDX 5 15 6 16 7 17 12 18 17 22 18 23 19 24 20 25 21 26 22 27
REMARK SMILES IDX 68 28 23 29 67 30 24 31 25 32 26 33 61 34 27 35 66 36 60 37
REMARK SMILES IDX 62 38 28 39 65 40 59 41 58 42 29 44 51 45 36 46 50 47 37 48
REMARK SMILES IDX 40 49 49 50 63 51 38 52 39 53 48 55 64 56 41 57 30 58 31 59
REMARK SMILES IDX 35 60 32 61 34 62 33 63 52 64 53 65 57 66 54 67 56 68 55 69
REMARK SMILES IDX 42 70 43 71 47 72 44 73 46 74 45 75
REMARK H PARENT 1 13 1 14 12 19 12 20 12 21 62 43 40 54
REMARK Flexibility Score: inf
ROOT
ATOM      1  C   UNL A   1      35.369  22.496  23.966  1.00  0.00     0.274 C 
ENDROOT
BRANCH   1   2
ATOM      2  O   UNL A   1      34.150  22.185  23.272  1.00  0.00    -0.457 OA
BRANCH   2   3
ATOM      3  C   UNL A   1      33.005  22.107  24.007  1.00  0.00     0.369 C 
ATOM      4  O   UNL A   1      32.713  22.894  24.905  1.00  0.00    -0.245 OA
BRANCH   3   5
ATOM      5  C   UNL A   1      32.089  20.930  23.570  1.00  0.00     0.325 C 
BRANCH   5   6
ATOM      6  C   UNL A   1      32.589  19.535  23.963  1.00  0.00     0.044 A 
ATOM      7  C   UNL A   1      32.932  19.230  25.305  1.00  0.00     0.048 A 
ATOM      8  C   UNL A   1      33.252  17.910  25.656  1.00  0.00     0.111 A 
ATOM      9  C   UNL A   1      33.366  16.922  24.674  1.00  0.00     0.271 A 
ATOM     10  C   UNL A   1      32.747  18.523  22.989  1.00  0.00     0.020 A 
ATOM     11  C   UNL A   1      33.145  17.231  23.334  1.00  0.00     0.086 A 
BRANCH   7  12
ATOM     12  N   UNL A   1      32.876  20.183  26.322  1.00  0.00    -0.398 N 
ATOM     13  H   UNL A   1      33.702  20.622  26.631  1.00  0.00     0.156 HD
ATOM     14  H   UNL A   1      32.013  20.416  26.733  1.00  0.00     0.156 HD
ENDBRANCH   7  12
BRANCH   9  15
ATOM     15  N   UNL A   1      33.732  15.554  25.054  1.00  0.00     0.062 N 
ATOM     16  O   UNL A   1      34.932  15.307  25.240  1.00  0.00    -0.258 OA
ATOM     17  O   UNL A   1      32.819  14.723  25.167  1.00  0.00    -0.258 OA
ENDBRANCH   9  15
ENDBRANCH   5   6
BRANCH   5  18
ATOM     18  N   UNL A   1      31.798  21.024  22.120  1.00  0.00    -0.342 N 
ATOM     19  H   UNL A   1      31.201  21.833  21.945  1.00  0.00     0.345 HD
ATOM     20  H   UNL A   1      31.319  20.177  21.814  1.00  0.00     0.345 HD
ATOM     21  H   UNL A   1      32.671  21.127  21.603  1.00  0.00     0.345 HD
ENDBRANCH   5  18
ENDBRANCH   3   5
ENDBRANCH   2   3
ENDBRANCH   1   2
BRANCH   1  22
ATOM     22  C   UNL A   1      35.971  21.249  24.621  1.00  0.00     0.275 C 
BRANCH  22  23
ATOM     23  O   UNL A   1      36.731  21.575  25.801  1.00  0.00    -0.458 OA
BRANCH  23  24
ATOM     24  C   UNL A   1      38.053  21.291  25.736  1.00  0.00     0.338 C 
ATOM     25  O   UNL A   1      38.581  20.323  25.215  1.00  0.00    -0.246 OA
BRANCH  24  26
ATOM     26  C   UNL A   1      38.830  22.428  26.256  1.00  0.00     0.060 A 
ATOM     27  C   UNL A   1      38.288  23.707  26.094  1.00  0.00     0.016 A 
ATOM     28  C   UNL A   1      40.092  22.262  26.832  1.00  0.00     0.016 A 
ATOM     29  C   UNL A   1      39.005  24.829  26.488  1.00  0.00     0.010 A 
ATOM     30  C   UNL A   1      40.814  23.393  27.228  1.00  0.00     0.010 A 
ATOM     31  C   UNL A   1      40.280  24.681  27.044  1.00  0.00    -0.014 A 
BRANCH  31  32
ATOM     32  C   UNL A   1      41.071  25.888  27.366  1.00  0.00     0.031 A 
ATOM     33  C   UNL A   1      40.512  26.911  28.310  1.00  0.00     0.074 A 
ATOM     34  C   UNL A   1      42.301  26.044  26.846  1.00  0.00     0.049 A 
ATOM     35  N   UNL A   1      41.019  28.058  28.680  1.00  0.00    -0.248 NA
ATOM     36  C   UNL A   1      39.211  26.599  28.922  1.00  0.00     0.031 C 
ATOM     37  C   UNL A   1      42.973  25.091  25.962  1.00  0.00     0.029 A 
ATOM     38  N   UNL A   1      43.204  27.066  26.990  1.00  0.00    -0.354 N 
ATOM     39  C   UNL A   1      40.092  28.616  29.549  1.00  0.00     0.074 A 
ATOM     40  C   UNL A   1      38.986  27.687  29.643  1.00  0.00     0.031 C 
ATOM     41  C   UNL A   1      44.181  25.578  25.637  1.00  0.00     0.029 A 
ATOM     42  C   UNL A   1      44.349  26.890  26.255  1.00  0.00     0.049 A 
ATOM     43  H   UNL A   1      43.046  27.850  27.565  1.00  0.00     0.167 HD
ATOM     44  C   UNL A   1      40.156  29.797  30.208  1.00  0.00     0.031 A 
ATOM     45  C   UNL A   1      45.401  27.710  26.075  1.00  0.00     0.031 A 
ATOM     46  C   UNL A   1      41.253  30.722  30.109  1.00  0.00     0.049 A 
ATOM     47  C   UNL A   1      45.421  29.043  26.765  1.00  0.00     0.074 A 
ATOM     48  C   UNL A   1      41.412  31.945  30.737  1.00  0.00     0.029 A 
ATOM     49  N   UNL A   1      42.379  30.525  29.324  1.00  0.00    -0.354 N 
ATOM     50  N   UNL A   1      44.535  29.564  27.578  1.00  0.00    -0.248 NA
ATOM     51  C   UNL A   1      46.587  29.901  26.512  1.00  0.00     0.031 C 
ATOM     52  C   UNL A   1      42.617  32.507  30.299  1.00  0.00     0.029 A 
ATOM     53  C   UNL A   1      43.228  31.613  29.435  1.00  0.00     0.049 A 
ATOM     54  H   UNL A   1      42.551  29.728  28.771  1.00  0.00     0.167 HD
ATOM     55  C   UNL A   1      45.039  30.805  27.943  1.00  0.00     0.074 A 
ATOM     56  C   UNL A   1      46.318  30.951  27.278  1.00  0.00     0.031 C 
ATOM     57  C   UNL A   1      44.492  31.743  28.755  1.00  0.00     0.031 A 
BRANCH  44  58
ATOM     58  C   UNL A   1      38.976  30.169  31.059  1.00  0.00    -0.014 A 
ATOM     59  C   UNL A   1      38.914  29.821  32.417  1.00  0.00     0.009 A 
ATOM     60  C   UNL A   1      37.910  30.885  30.490  1.00  0.00     0.009 A 
ATOM     61  C   UNL A   1      37.791  30.151  33.179  1.00  0.00     0.001 A 
ATOM     62  C   UNL A   1      36.800  31.234  31.260  1.00  0.00     0.001 A 
ATOM     63  C   UNL A   1      36.737  30.858  32.601  1.00  0.00     0.000 A 
ENDBRANCH  44  58
BRANCH  45  64
ATOM     64  C   UNL A   1      46.500  27.303  25.164  1.00  0.00    -0.014 A 
ATOM     65  C   UNL A   1      46.703  27.962  23.943  1.00  0.00     0.009 A 
ATOM     66  C   UNL A   1      47.363  26.254  25.522  1.00  0.00     0.009 A 
ATOM     67  C   UNL A   1      47.742  27.570  23.094  1.00  0.00     0.001 A 
ATOM     68  C   UNL A   1      48.414  25.882  24.684  1.00  0.00     0.001 A 
ATOM     69  C   UNL A   1      48.599  26.536  23.469  1.00  0.00     0.000 A 
ENDBRANCH  45  64
BRANCH  57  70
ATOM     70  C   UNL A   1      45.286  32.997  28.982  1.00  0.00    -0.014 A 
ATOM     71  C   UNL A   1      46.317  33.038  29.933  1.00  0.00     0.009 A 
ATOM     72  C   UNL A   1      45.022  34.138  28.210  1.00  0.00     0.009 A 
ATOM     73  C   UNL A   1      47.051  34.210  30.125  1.00  0.00     0.001 A 
ATOM     74  C   UNL A   1      45.771  35.300  28.388  1.00  0.00     0.001 A 
ATOM     75  C   UNL A   1      46.781  35.338  29.350  1.00  0.00     0.000 A 
ENDBRANCH  57  70
ENDBRANCH  31  32
ENDBRANCH  24  26
ENDBRANCH  23  24
ENDBRANCH  22  23
ENDBRANCH   1  22
TORSDOF 15
ENDMDL
