MODEL 1
REMARK VINA RESULT:     -10.9      0.000      0.000
REMARK SMILES CC1(C)CCC[C@@H]1NC(=O)CC1(C(=O)OCCOC(=O)c2ccc(-c3c4nc(c(-c5ccccc5)c5ccc([nH]5)c(-c5ccccc5)c5nc(c(-c6ccccc6)c6ccc3[nH]6)C=C5)C=C4)cc2)CCCCC1
REMARK SMILES IDX 16 1 15 2 13 3 14 4 12 5 69 6 73 7 70 8 72 9 71 10 11 11
REMARK SMILES IDX 9 12 8 13 10 15 7 16 1 17 2 18 3 19 4 20 5 21 6 22 17 23
REMARK SMILES IDX 18 24 19 25 20 26 21 27 22 28 68 29 23 30 67 31 24 32 25 33
REMARK SMILES IDX 26 34 61 35 27 36 66 37 60 38 62 39 28 40 65 41 59 42 58 43
REMARK SMILES IDX 29 45 51 46 36 47 50 48 37 49 40 50 49 51 63 52 38 53 39 54
REMARK SMILES IDX 48 56 64 57 41 58 30 59 31 60 35 61 32 62 34 63 33 64 52 65
REMARK SMILES IDX 53 66 57 67 54 68 56 69 55 70 42 71 43 72 47 73 44 74 46 75
REMARK SMILES IDX 45 76
REMARK H PARENT 8 14 62 44 40 55
REMARK Flexibility Score: inf
ROOT
ATOM      1  C   UNL A   1      31.993  29.043  27.191  1.00  0.00     0.274 C 
ENDROOT
BRANCH   1   2
ATOM      2  O   UNL A   1      32.652  28.077  26.346  1.00  0.00    -0.462 OA
BRANCH   2   3
ATOM      3  C   UNL A   1      31.857  27.074  25.893  1.00  0.00     0.312 C 
ATOM      4  O   UNL A   1      31.088  26.434  26.604  1.00  0.00    -0.252 OA
BRANCH   3   5
ATOM      5  C   UNL A   1      31.962  26.836  24.379  1.00  0.00     0.077 C 
ATOM      6  C   UNL A   1      31.736  28.216  23.708  1.00  0.00     0.019 C 
ATOM      7  C   UNL A   1      30.920  25.864  23.790  1.00  0.00     0.019 C 
ATOM      8  C   UNL A   1      30.294  28.711  23.900  1.00  0.00     0.001 C 
ATOM      9  C   UNL A   1      29.471  26.325  23.901  1.00  0.00     0.001 C 
ATOM     10  C   UNL A   1      29.274  27.724  23.342  1.00  0.00     0.000 C 
BRANCH   5  11
ATOM     11  C   UNL A   1      33.419  26.328  24.198  1.00  0.00     0.118 C 
BRANCH  11  12
ATOM     12  C   UNL A   1      33.736  25.531  22.953  1.00  0.00     0.221 C 
ATOM     13  N   UNL A   1      34.068  24.209  23.039  1.00  0.00    -0.353 N 
ATOM     14  H   UNL A   1      34.319  23.799  22.180  1.00  0.00     0.163 HD
ATOM     15  O   UNL A   1      33.707  26.062  21.842  1.00  0.00    -0.275 OA
BRANCH  13  16
ATOM     16  C   UNL A   1      34.118  23.292  24.180  1.00  0.00     0.087 C 
ATOM     17  C   UNL A   1      36.122  23.998  25.586  1.00  0.00     0.013 C 
ATOM     18  C   UNL A   1      35.546  22.928  24.663  1.00  0.00    -0.015 C 
ATOM     19  C   UNL A   1      36.539  22.660  23.517  1.00  0.00     0.013 C 
ATOM     20  C   UNL A   1      35.286  21.636  25.460  1.00  0.00     0.008 C 
ATOM     21  C   UNL A   1      34.262  20.872  24.639  1.00  0.00     0.003 C 
ATOM     22  C   UNL A   1      33.479  21.932  23.872  1.00  0.00     0.025 C 
ENDBRANCH  13  16
ENDBRANCH  11  12
ENDBRANCH   5  11
ENDBRANCH   3   5
ENDBRANCH   2   3
ENDBRANCH   1   2
BRANCH   1  23
ATOM     23  C   UNL A   1      32.634  30.420  27.053  1.00  0.00     0.275 C 
BRANCH  23  24
ATOM     24  O   UNL A   1      34.067  30.299  27.045  1.00  0.00    -0.458 OA
BRANCH  24  25
ATOM     25  C   UNL A   1      34.704  30.876  28.090  1.00  0.00     0.338 C 
ATOM     26  O   UNL A   1      34.297  31.807  28.764  1.00  0.00    -0.246 OA
BRANCH  25  27
ATOM     27  C   UNL A   1      35.995  30.201  28.367  1.00  0.00     0.060 A 
ATOM     28  C   UNL A   1      36.273  29.628  29.608  1.00  0.00     0.016 A 
ATOM     29  C   UNL A   1      36.996  30.251  27.394  1.00  0.00     0.016 A 
ATOM     30  C   UNL A   1      37.574  29.224  29.917  1.00  0.00     0.010 A 
ATOM     31  C   UNL A   1      38.268  29.733  27.666  1.00  0.00     0.010 A 
ATOM     32  C   UNL A   1      38.589  29.250  28.945  1.00  0.00    -0.014 A 
BRANCH  32  33
ATOM     33  C   UNL A   1      39.966  28.759  29.250  1.00  0.00     0.031 A 
ATOM     34  C   UNL A   1      40.970  29.633  29.966  1.00  0.00     0.074 A 
ATOM     35  C   UNL A   1      40.342  27.522  28.867  1.00  0.00     0.049 A 
ATOM     36  N   UNL A   1      42.245  29.428  30.193  1.00  0.00    -0.248 NA
ATOM     37  C   UNL A   1      40.477  30.913  30.490  1.00  0.00     0.031 C 
ATOM     38  C   UNL A   1      39.493  26.547  28.183  1.00  0.00     0.029 A 
ATOM     39  N   UNL A   1      41.546  26.874  29.002  1.00  0.00    -0.354 N 
ATOM     40  C   UNL A   1      42.705  30.565  30.853  1.00  0.00     0.074 A 
ATOM     41  C   UNL A   1      41.576  31.458  30.989  1.00  0.00     0.031 C 
ATOM     42  C   UNL A   1      40.185  25.415  27.994  1.00  0.00     0.029 A 
ATOM     43  C   UNL A   1      41.551  25.613  28.459  1.00  0.00     0.049 A 
ATOM     44  H   UNL A   1      42.329  27.275  29.444  1.00  0.00     0.167 HD
ATOM     45  C   UNL A   1      43.954  30.852  31.294  1.00  0.00     0.031 A 
ATOM     46  C   UNL A   1      42.549  24.724  28.305  1.00  0.00     0.031 A 
ATOM     47  C   UNL A   1      45.084  29.973  31.166  1.00  0.00     0.049 A 
ATOM     48  C   UNL A   1      43.935  25.079  28.753  1.00  0.00     0.074 A 
ATOM     49  C   UNL A   1      46.388  30.176  31.585  1.00  0.00     0.029 A 
ATOM     50  N   UNL A   1      45.045  28.722  30.573  1.00  0.00    -0.354 N 
ATOM     51  N   UNL A   1      44.356  26.171  29.340  1.00  0.00    -0.248 NA
ATOM     52  C   UNL A   1      44.984  24.083  28.498  1.00  0.00     0.031 C 
ATOM     53  C   UNL A   1      47.147  29.063  31.207  1.00  0.00     0.029 A 
ATOM     54  C   UNL A   1      46.305  28.150  30.594  1.00  0.00     0.049 A 
ATOM     55  H   UNL A   1      44.240  28.301  30.195  1.00  0.00     0.167 HD
ATOM     56  C   UNL A   1      45.721  25.997  29.522  1.00  0.00     0.074 A 
ATOM     57  C   UNL A   1      46.051  24.683  29.008  1.00  0.00     0.031 C 
ATOM     58  C   UNL A   1      46.622  26.854  30.060  1.00  0.00     0.031 A 
BRANCH  45  59
ATOM     59  C   UNL A   1      44.177  32.202  31.916  1.00  0.00    -0.014 A 
ATOM     60  C   UNL A   1      44.037  32.405  33.297  1.00  0.00     0.009 A 
ATOM     61  C   UNL A   1      44.574  33.279  31.107  1.00  0.00     0.009 A 
ATOM     62  C   UNL A   1      44.267  33.666  33.852  1.00  0.00     0.001 A 
ATOM     63  C   UNL A   1      44.823  34.533  31.667  1.00  0.00     0.001 A 
ATOM     64  C   UNL A   1      44.663  34.727  33.037  1.00  0.00     0.000 A 
ENDBRANCH  45  59
BRANCH  46  65
ATOM     65  C   UNL A   1      42.272  23.428  27.636  1.00  0.00    -0.014 A 
ATOM     66  C   UNL A   1      41.724  22.356  28.354  1.00  0.00     0.009 A 
ATOM     67  C   UNL A   1      42.522  23.273  26.262  1.00  0.00     0.009 A 
ATOM     68  C   UNL A   1      41.436  21.151  27.709  1.00  0.00     0.001 A 
ATOM     69  C   UNL A   1      42.207  22.078  25.615  1.00  0.00     0.001 A 
ATOM     70  C   UNL A   1      41.669  21.017  26.340  1.00  0.00     0.000 A 
ENDBRANCH  46  65
BRANCH  58  71
ATOM     71  C   UNL A   1      48.046  26.387  30.122  1.00  0.00    -0.014 A 
ATOM     72  C   UNL A   1      48.937  26.651  29.070  1.00  0.00     0.009 A 
ATOM     73  C   UNL A   1      48.505  25.687  31.247  1.00  0.00     0.009 A 
ATOM     74  C   UNL A   1      50.253  26.190  29.130  1.00  0.00     0.001 A 
ATOM     75  C   UNL A   1      49.827  25.247  31.314  1.00  0.00     0.001 A 
ATOM     76  C   UNL A   1      50.697  25.490  30.252  1.00  0.00     0.000 A 
ENDBRANCH  58  71
ENDBRANCH  32  33
ENDBRANCH  25  27
ENDBRANCH  24  25
ENDBRANCH  23  24
ENDBRANCH   1  23
TORSDOF 14
ENDMDL
MODEL 2
REMARK VINA RESULT:     -10.8      2.643      7.838
REMARK SMILES CC1(C)CCC[C@@H]1NC(=O)CC1(C(=O)OCCOC(=O)c2ccc(-c3c4nc(c(-c5ccccc5)c5ccc([nH]5)c(-c5ccccc5)c5nc(c(-c6ccccc6)c6ccc3[nH]6)C=C5)C=C4)cc2)CCCCC1
REMARK SMILES IDX 16 1 15 2 13 3 14 4 12 5 69 6 73 7 70 8 72 9 71 10 11 11
REMARK SMILES IDX 9 12 8 13 10 15 7 16 1 17 2 18 3 19 4 20 5 21 6 22 17 23
REMARK SMILES IDX 18 24 19 25 20 26 21 27 22 28 68 29 23 30 67 31 24 32 25 33
REMARK SMILES IDX 26 34 61 35 27 36 66 37 60 38 62 39 28 40 65 41 59 42 58 43
REMARK SMILES IDX 29 45 51 46 36 47 50 48 37 49 40 50 49 51 63 52 38 53 39 54
REMARK SMILES IDX 48 56 64 57 41 58 30 59 31 60 35 61 32 62 34 63 33 64 52 65
REMARK SMILES IDX 53 66 57 67 54 68 56 69 55 70 42 71 43 72 47 73 44 74 46 75
REMARK SMILES IDX 45 76
REMARK H PARENT 8 14 62 44 40 55
REMARK Flexibility Score: inf
ROOT
ATOM      1  C   UNL A   1      36.308  21.100  25.130  1.00  0.00     0.274 C 
ENDROOT
BRANCH   1   2
ATOM      2  O   UNL A   1      35.514  22.277  25.385  1.00  0.00    -0.462 OA
BRANCH   2   3
ATOM      3  C   UNL A   1      34.296  22.288  24.785  1.00  0.00     0.312 C 
ATOM      4  O   UNL A   1      33.801  21.318  24.218  1.00  0.00    -0.252 OA
BRANCH   3   5
ATOM      5  C   UNL A   1      33.550  23.624  24.923  1.00  0.00     0.077 C 
ATOM      6  C   UNL A   1      33.416  23.889  26.445  1.00  0.00     0.019 C 
ATOM      7  C   UNL A   1      32.128  23.650  24.326  1.00  0.00     0.019 C 
ATOM      8  C   UNL A   1      32.475  22.876  27.117  1.00  0.00     0.001 C 
ATOM      9  C   UNL A   1      31.132  22.704  24.987  1.00  0.00     0.001 C 
ATOM     10  C   UNL A   1      31.083  22.891  26.494  1.00  0.00     0.000 C 
BRANCH   5  11
ATOM     11  C   UNL A   1      34.504  24.638  24.233  1.00  0.00     0.118 C 
BRANCH  11  12
ATOM     12  C   UNL A   1      33.880  25.793  23.484  1.00  0.00     0.221 C 
ATOM     13  N   UNL A   1      33.294  26.825  24.159  1.00  0.00    -0.353 N 
ATOM     14  H   UNL A   1      32.860  27.493  23.580  1.00  0.00     0.163 HD
ATOM     15  O   UNL A   1      33.883  25.819  22.253  1.00  0.00    -0.275 OA
BRANCH  13  16
ATOM     16  C   UNL A   1      33.193  27.117  25.591  1.00  0.00     0.087 C 
ATOM     17  C   UNL A   1      30.794  26.588  26.269  1.00  0.00     0.013 C 
ATOM     18  C   UNL A   1      31.826  27.691  26.046  1.00  0.00    -0.015 C 
ATOM     19  C   UNL A   1      31.243  28.742  25.085  1.00  0.00     0.013 C 
ATOM     20  C   UNL A   1      32.193  28.341  27.393  1.00  0.00     0.008 C 
ATOM     21  C   UNL A   1      33.544  28.993  27.154  1.00  0.00     0.003 C 
ATOM     22  C   UNL A   1      34.204  28.175  26.050  1.00  0.00     0.025 C 
ENDBRANCH  13  16
ENDBRANCH  11  12
ENDBRANCH   5  11
ENDBRANCH   3   5
ENDBRANCH   2   3
ENDBRANCH   1   2
BRANCH   1  23
ATOM     23  C   UNL A   1      37.794  21.440  25.084  1.00  0.00     0.275 C 
BRANCH  23  24
ATOM     24  O   UNL A   1      38.043  22.662  25.801  1.00  0.00    -0.458 OA
BRANCH  24  25
ATOM     25  C   UNL A   1      39.314  22.830  26.236  1.00  0.00     0.338 C 
ATOM     26  O   UNL A   1      40.217  22.013  26.172  1.00  0.00    -0.246 OA
BRANCH  25  27
ATOM     27  C   UNL A   1      39.512  24.190  26.792  1.00  0.00     0.060 A 
ATOM     28  C   UNL A   1      40.183  25.184  26.081  1.00  0.00     0.016 A 
ATOM     29  C   UNL A   1      39.117  24.436  28.110  1.00  0.00     0.016 A 
ATOM     30  C   UNL A   1      40.569  26.364  26.722  1.00  0.00     0.010 A 
ATOM     31  C   UNL A   1      39.398  25.669  28.710  1.00  0.00     0.010 A 
ATOM     32  C   UNL A   1      40.165  26.637  28.040  1.00  0.00    -0.014 A 
BRANCH  32  33
ATOM     33  C   UNL A   1      40.519  27.924  28.708  1.00  0.00     0.031 A 
ATOM     34  C   UNL A   1      41.883  28.140  29.324  1.00  0.00     0.074 A 
ATOM     35  C   UNL A   1      39.608  28.915  28.790  1.00  0.00     0.049 A 
ATOM     36  N   UNL A   1      42.320  29.133  30.059  1.00  0.00    -0.248 NA
ATOM     37  C   UNL A   1      42.887  27.095  29.088  1.00  0.00     0.031 C 
ATOM     38  C   UNL A   1      38.254  28.876  28.236  1.00  0.00     0.029 A 
ATOM     39  N   UNL A   1      39.688  30.154  29.378  1.00  0.00    -0.354 N 
ATOM     40  C   UNL A   1      43.632  28.812  30.397  1.00  0.00     0.074 A 
ATOM     41  C   UNL A   1      43.922  27.533  29.789  1.00  0.00     0.031 C 
ATOM     42  C   UNL A   1      37.647  30.047  28.473  1.00  0.00     0.029 A 
ATOM     43  C   UNL A   1      38.531  30.885  29.272  1.00  0.00     0.049 A 
ATOM     44  H   UNL A   1      40.497  30.486  29.831  1.00  0.00     0.167 HD
ATOM     45  C   UNL A   1      44.515  29.507  31.154  1.00  0.00     0.031 A 
ATOM     46  C   UNL A   1      38.189  32.076  29.796  1.00  0.00     0.031 A 
ATOM     47  C   UNL A   1      44.240  30.780  31.763  1.00  0.00     0.049 A 
ATOM     48  C   UNL A   1      39.161  32.807  30.673  1.00  0.00     0.074 A 
ATOM     49  C   UNL A   1      45.074  31.561  32.546  1.00  0.00     0.029 A 
ATOM     50  N   UNL A   1      43.039  31.460  31.658  1.00  0.00    -0.354 N 
ATOM     51  N   UNL A   1      40.382  32.470  31.010  1.00  0.00    -0.248 NA
ATOM     52  C   UNL A   1      38.697  34.072  31.258  1.00  0.00     0.031 C 
ATOM     53  C   UNL A   1      44.360  32.695  32.949  1.00  0.00     0.029 A 
ATOM     54  C   UNL A   1      43.098  32.639  32.380  1.00  0.00     0.049 A 
ATOM     55  H   UNL A   1      42.258  31.150  31.145  1.00  0.00     0.167 HD
ATOM     56  C   UNL A   1      40.832  33.480  31.848  1.00  0.00     0.074 A 
ATOM     57  C   UNL A   1      39.764  34.454  31.948  1.00  0.00     0.031 C 
ATOM     58  C   UNL A   1      42.022  33.586  32.486  1.00  0.00     0.031 A 
BRANCH  45  59
ATOM     59  C   UNL A   1      45.855  28.876  31.412  1.00  0.00    -0.014 A 
ATOM     60  C   UNL A   1      46.956  29.129  30.580  1.00  0.00     0.009 A 
ATOM     61  C   UNL A   1      46.025  28.047  32.531  1.00  0.00     0.009 A 
ATOM     62  C   UNL A   1      48.195  28.544  30.851  1.00  0.00     0.001 A 
ATOM     63  C   UNL A   1      47.269  27.480  32.812  1.00  0.00     0.001 A 
ATOM     64  C   UNL A   1      48.351  27.723  31.968  1.00  0.00     0.000 A 
ENDBRANCH  45  59
BRANCH  46  65
ATOM     65  C   UNL A   1      36.831  32.619  29.545  1.00  0.00    -0.014 A 
ATOM     66  C   UNL A   1      36.553  33.335  28.372  1.00  0.00     0.009 A 
ATOM     67  C   UNL A   1      35.795  32.388  30.466  1.00  0.00     0.009 A 
ATOM     68  C   UNL A   1      35.264  33.814  28.129  1.00  0.00     0.001 A 
ATOM     69  C   UNL A   1      34.502  32.843  30.207  1.00  0.00     0.001 A 
ATOM     70  C   UNL A   1      34.239  33.560  29.041  1.00  0.00     0.000 A 
ENDBRANCH  46  65
BRANCH  58  71
ATOM     71  C   UNL A   1      42.226  34.802  33.340  1.00  0.00    -0.014 A 
ATOM     72  C   UNL A   1      41.773  34.834  34.668  1.00  0.00     0.009 A 
ATOM     73  C   UNL A   1      42.887  35.922  32.815  1.00  0.00     0.009 A 
ATOM     74  C   UNL A   1      41.948  35.982  35.444  1.00  0.00     0.001 A 
ATOM     75  C   UNL A   1      43.081  37.059  33.600  1.00  0.00     0.001 A 
ATOM     76  C   UNL A   1      42.603  37.092  34.910  1.00  0.00     0.000 A 
ENDBRANCH  58  71
ENDBRANCH  32  33
ENDBRANCH  25  27
ENDBRANCH  24  25
ENDBRANCH  23  24
ENDBRANCH   1  23
TORSDOF 14
ENDMDL
MODEL 3
REMARK VINA RESULT:     -10.7      3.140      6.990
REMARK SMILES CC1(C)CCC[C@@H]1NC(=O)CC1(C(=O)OCCOC(=O)c2ccc(-c3c4nc(c(-c5ccccc5)c5ccc([nH]5)c(-c5ccccc5)c5nc(c(-c6ccccc6)c6ccc3[nH]6)C=C5)C=C4)cc2)CCCCC1
REMARK SMILES IDX 16 1 15 2 13 3 14 4 12 5 69 6 73 7 70 8 72 9 71 10 11 11
REMARK SMILES IDX 9 12 8 13 10 15 7 16 1 17 2 18 3 19 4 20 5 21 6 22 17 23
REMARK SMILES IDX 18 24 19 25 20 26 21 27 22 28 68 29 23 30 67 31 24 32 25 33
REMARK SMILES IDX 26 34 61 35 27 36 66 37 60 38 62 39 28 40 65 41 59 42 58 43
REMARK SMILES IDX 29 45 51 46 36 47 50 48 37 49 40 50 49 51 63 52 38 53 39 54
REMARK SMILES IDX 48 56 64 57 41 58 30 59 31 60 35 61 32 62 34 63 33 64 52 65
REMARK SMILES IDX 53 66 57 67 54 68 56 69 55 70 42 71 43 72 47 73 44 74 46 75
REMARK SMILES IDX 45 76
REMARK H PARENT 8 14 62 44 40 55
REMARK Flexibility Score: inf
ROOT
ATOM      1  C   UNL A   1      35.485  19.841  24.996  1.00  0.00     0.274 C 
ENDROOT
BRANCH   1   2
ATOM      2  O   UNL A   1      34.729  20.893  25.628  1.00  0.00    -0.462 OA
BRANCH   2   3
ATOM      3  C   UNL A   1      33.530  21.164  25.052  1.00  0.00     0.312 C 
ATOM      4  O   UNL A   1      32.796  20.310  24.561  1.00  0.00    -0.252 OA
BRANCH   3   5
ATOM      5  C   UNL A   1      33.134  22.647  25.111  1.00  0.00     0.077 C 
ATOM      6  C   UNL A   1      33.436  23.231  23.706  1.00  0.00     0.019 C 
ATOM      7  C   UNL A   1      33.911  23.497  26.138  1.00  0.00     0.019 C 
ATOM      8  C   UNL A   1      34.946  23.268  23.420  1.00  0.00     0.001 C 
ATOM      9  C   UNL A   1      35.408  23.617  25.876  1.00  0.00     0.001 C 
ATOM     10  C   UNL A   1      35.703  24.085  24.461  1.00  0.00     0.000 C 
BRANCH   5  11
ATOM     11  C   UNL A   1      31.610  22.598  25.410  1.00  0.00     0.118 C 
BRANCH  11  12
ATOM     12  C   UNL A   1      31.082  23.484  26.515  1.00  0.00     0.221 C 
ATOM     13  N   UNL A   1      30.866  24.815  26.297  1.00  0.00    -0.353 N 
ATOM     14  H   UNL A   1      30.584  25.315  27.096  1.00  0.00     0.163 HD
ATOM     15  O   UNL A   1      30.844  23.023  27.631  1.00  0.00    -0.275 OA
BRANCH  13  16
ATOM     16  C   UNL A   1      30.980  25.632  25.087  1.00  0.00     0.087 C 
ATOM     17  C   UNL A   1      33.259  26.767  25.193  1.00  0.00     0.013 C 
ATOM     18  C   UNL A   1      31.747  26.967  25.269  1.00  0.00    -0.015 C 
ATOM     19  C   UNL A   1      31.400  27.709  26.573  1.00  0.00     0.013 C 
ATOM     20  C   UNL A   1      31.266  27.774  24.050  1.00  0.00     0.008 C 
ATOM     21  C   UNL A   1      29.785  27.458  23.934  1.00  0.00     0.003 C 
ATOM     22  C   UNL A   1      29.615  26.068  24.538  1.00  0.00     0.025 C 
ENDBRANCH  13  16
ENDBRANCH  11  12
ENDBRANCH   5  11
ENDBRANCH   3   5
ENDBRANCH   2   3
ENDBRANCH   1   2
BRANCH   1  23
ATOM     23  C   UNL A   1      36.910  20.294  24.694  1.00  0.00     0.275 C 
BRANCH  23  24
ATOM     24  O   UNL A   1      37.438  21.036  25.806  1.00  0.00    -0.458 OA
BRANCH  24  25
ATOM     25  C   UNL A   1      38.776  20.938  25.985  1.00  0.00     0.338 C 
ATOM     26  O   UNL A   1      39.471  19.964  25.751  1.00  0.00    -0.246 OA
BRANCH  25  27
ATOM     27  C   UNL A   1      39.342  22.215  26.485  1.00  0.00     0.060 A 
ATOM     28  C   UNL A   1      38.807  23.449  26.118  1.00  0.00     0.016 A 
ATOM     29  C   UNL A   1      40.513  22.173  27.247  1.00  0.00     0.016 A 
ATOM     30  C   UNL A   1      39.505  24.626  26.400  1.00  0.00     0.010 A 
ATOM     31  C   UNL A   1      41.143  23.361  27.633  1.00  0.00     0.010 A 
ATOM     32  C   UNL A   1      40.673  24.605  27.180  1.00  0.00    -0.014 A 
BRANCH  32  33
ATOM     33  C   UNL A   1      41.388  25.866  27.539  1.00  0.00     0.031 A 
ATOM     34  C   UNL A   1      40.758  26.894  28.451  1.00  0.00     0.074 A 
ATOM     35  C   UNL A   1      42.612  26.115  27.031  1.00  0.00     0.049 A 
ATOM     36  N   UNL A   1      41.169  28.099  28.761  1.00  0.00    -0.248 NA
ATOM     37  C   UNL A   1      39.492  26.519  29.093  1.00  0.00     0.031 C 
ATOM     38  C   UNL A   1      43.367  25.223  26.150  1.00  0.00     0.029 A 
ATOM     39  N   UNL A   1      43.438  27.203  27.185  1.00  0.00    -0.354 N 
ATOM     40  C   UNL A   1      40.196  28.631  29.603  1.00  0.00     0.074 A 
ATOM     41  C   UNL A   1      39.174  27.621  29.756  1.00  0.00     0.031 C 
ATOM     42  C   UNL A   1      44.556  25.778  25.876  1.00  0.00     0.029 A 
ATOM     43  C   UNL A   1      44.613  27.101  26.483  1.00  0.00     0.049 A 
ATOM     44  H   UNL A   1      43.208  27.980  27.744  1.00  0.00     0.167 HD
ATOM     45  C   UNL A   1      40.146  29.853  30.188  1.00  0.00     0.031 A 
ATOM     46  C   UNL A   1      45.611  27.985  26.301  1.00  0.00     0.031 A 
ATOM     47  C   UNL A   1      41.156  30.866  30.046  1.00  0.00     0.049 A 
ATOM     48  C   UNL A   1      45.514  29.349  26.914  1.00  0.00     0.074 A 
ATOM     49  C   UNL A   1      41.193  32.133  30.603  1.00  0.00     0.029 A 
ATOM     50  N   UNL A   1      42.309  30.727  29.292  1.00  0.00    -0.354 N 
ATOM     51  N   UNL A   1      44.570  29.845  27.676  1.00  0.00    -0.248 NA
ATOM     52  C   UNL A   1      46.612  30.281  26.624  1.00  0.00     0.031 C 
ATOM     53  C   UNL A   1      42.350  32.776  30.150  1.00  0.00     0.029 A 
ATOM     54  C   UNL A   1      43.054  31.892  29.349  1.00  0.00     0.049 A 
ATOM     55  H   UNL A   1      42.562  29.918  28.791  1.00  0.00     0.167 HD
ATOM     56  C   UNL A   1      44.959  31.149  27.954  1.00  0.00     0.074 A 
ATOM     57  C   UNL A   1      46.235  31.357  27.301  1.00  0.00     0.031 C 
ATOM     58  C   UNL A   1      44.310  32.091  28.679  1.00  0.00     0.031 A 
BRANCH  45  59
ATOM     59  C   UNL A   1      38.925  30.183  31.000  1.00  0.00    -0.014 A 
ATOM     60  C   UNL A   1      37.779  30.734  30.409  1.00  0.00     0.009 A 
ATOM     61  C   UNL A   1      38.911  29.898  32.375  1.00  0.00     0.009 A 
ATOM     62  C   UNL A   1      36.651  31.016  31.183  1.00  0.00     0.001 A 
ATOM     63  C   UNL A   1      37.776  30.162  33.143  1.00  0.00     0.001 A 
ATOM     64  C   UNL A   1      36.649  30.727  32.548  1.00  0.00     0.000 A 
ENDBRANCH  45  59
BRANCH  46  65
ATOM     65  C   UNL A   1      46.765  27.613  25.445  1.00  0.00    -0.014 A 
ATOM     66  C   UNL A   1      47.846  26.895  25.975  1.00  0.00     0.009 A 
ATOM     67  C   UNL A   1      46.769  27.946  24.080  1.00  0.00     0.009 A 
ATOM     68  C   UNL A   1      48.912  26.521  25.154  1.00  0.00     0.001 A 
ATOM     69  C   UNL A   1      47.822  27.547  23.257  1.00  0.00     0.001 A 
ATOM     70  C   UNL A   1      48.895  26.839  23.796  1.00  0.00     0.000 A 
ENDBRANCH  46  65
BRANCH  58  71
ATOM     71  C   UNL A   1      44.979  33.427  28.804  1.00  0.00    -0.014 A 
ATOM     72  C   UNL A   1      45.896  33.680  29.836  1.00  0.00     0.009 A 
ATOM     73  C   UNL A   1      44.700  34.440  27.875  1.00  0.00     0.009 A 
ATOM     74  C   UNL A   1      46.493  34.936  29.955  1.00  0.00     0.001 A 
ATOM     75  C   UNL A   1      45.316  35.687  27.983  1.00  0.00     0.001 A 
ATOM     76  C   UNL A   1      46.204  35.937  29.028  1.00  0.00     0.000 A 
ENDBRANCH  58  71
ENDBRANCH  32  33
ENDBRANCH  25  27
ENDBRANCH  24  25
ENDBRANCH  23  24
ENDBRANCH   1  23
TORSDOF 14
ENDMDL
