MODEL 1
REMARK VINA RESULT:     -10.9      0.000      0.000
REMARK SMILES O=C(CSc1nc(-c2cccc(F)c2)n[nH]1)OCCOC(=O)c1ccc(-c2c3nc(c(-c4ccccc4)c4ccc([nH]4)c(-c4ccccc4)c4nc(c(-c5ccccc5)c5ccc2[nH]5)C=C4)C=C3)cc1
REMARK SMILES IDX 18 1 17 2 2 3 1 4 3 5 4 6 5 7 6 8 16 9 7 10 15 11 8 13 9 14
REMARK SMILES IDX 14 15 10 16 12 17 11 18 13 19 19 20 20 21 21 22 22 23 23 24
REMARK SMILES IDX 24 25 70 26 25 27 69 28 26 29 27 30 28 31 63 32 29 33 68 34
REMARK SMILES IDX 62 35 64 36 30 37 67 38 61 39 60 40 31 42 53 43 38 44 52 45
REMARK SMILES IDX 39 46 42 47 51 48 65 49 40 50 41 51 50 53 66 54 43 55 32 56
REMARK SMILES IDX 33 57 37 58 34 59 36 60 35 61 54 62 55 63 59 64 56 65 58 66
REMARK SMILES IDX 57 67 44 68 45 69 49 70 46 71 48 72 47 73
REMARK H PARENT 16 12 64 41 42 52
REMARK Flexibility Score: inf
ROOT
ATOM      1  C   UNL A   1      34.974  35.040  32.401  1.00  0.00     0.274 C 
ENDROOT
BRANCH   1   2
ATOM      2  O   UNL A   1      34.309  36.299  32.646  1.00  0.00    -0.461 OA
BRANCH   2   3
ATOM      3  C   UNL A   1      33.322  36.827  31.880  1.00  0.00     0.316 C 
ATOM      4  O   UNL A   1      33.036  38.018  31.987  1.00  0.00    -0.251 OA
BRANCH   3   5
ATOM      5  C   UNL A   1      32.643  35.951  30.852  1.00  0.00     0.200 C 
BRANCH   5   6
ATOM      6  S   UNL A   1      33.140  36.459  29.185  1.00  0.00    -0.075 SA
BRANCH   6   7
ATOM      7  C   UNL A   1      34.044  35.073  28.729  1.00  0.00     0.184 A 
ATOM      8  N   UNL A   1      33.589  33.921  28.313  1.00  0.00    -0.201 NA
ATOM      9  N   UNL A   1      35.399  35.051  28.794  1.00  0.00    -0.254 N 
ATOM     10  C   UNL A   1      34.738  33.170  28.201  1.00  0.00     0.182 A 
ATOM     11  N   UNL A   1      35.869  33.829  28.504  1.00  0.00    -0.153 NA
ATOM     12  H   UNL A   1      35.960  35.827  29.021  1.00  0.00     0.192 HD
BRANCH  10  13
ATOM     13  C   UNL A   1      34.708  31.758  27.882  1.00  0.00     0.024 A 
ATOM     14  C   UNL A   1      33.532  31.150  27.424  1.00  0.00     0.012 A 
ATOM     15  C   UNL A   1      35.870  30.995  28.040  1.00  0.00     0.051 A 
ATOM     16  C   UNL A   1      33.523  29.787  27.113  1.00  0.00     0.004 A 
ATOM     17  C   UNL A   1      35.843  29.640  27.744  1.00  0.00     0.123 A 
ATOM     18  C   UNL A   1      34.683  29.030  27.278  1.00  0.00     0.039 A 
ATOM     19  F   UNL A   1      36.952  28.907  27.912  1.00  0.00    -0.207 F 
ENDBRANCH  10  13
ENDBRANCH   6   7
ENDBRANCH   5   6
ENDBRANCH   3   5
ENDBRANCH   2   3
ENDBRANCH   1   2
BRANCH   1  20
ATOM     20  C   UNL A   1      34.676  34.033  33.512  1.00  0.00     0.275 C 
BRANCH  20  21
ATOM     21  O   UNL A   1      35.282  32.764  33.199  1.00  0.00    -0.458 OA
BRANCH  21  22
ATOM     22  C   UNL A   1      36.454  32.506  33.834  1.00  0.00     0.338 C 
ATOM     23  O   UNL A   1      36.670  32.594  35.030  1.00  0.00    -0.246 OA
BRANCH  22  24
ATOM     24  C   UNL A   1      37.410  31.913  32.872  1.00  0.00     0.060 A 
ATOM     25  C   UNL A   1      38.447  31.122  33.381  1.00  0.00     0.016 A 
ATOM     26  C   UNL A   1      37.294  32.113  31.492  1.00  0.00     0.016 A 
ATOM     27  C   UNL A   1      39.386  30.559  32.517  1.00  0.00     0.010 A 
ATOM     28  C   UNL A   1      38.235  31.543  30.626  1.00  0.00     0.010 A 
ATOM     29  C   UNL A   1      39.301  30.784  31.136  1.00  0.00    -0.014 A 
BRANCH  29  30
ATOM     30  C   UNL A   1      40.380  30.298  30.241  1.00  0.00     0.031 A 
ATOM     31  C   UNL A   1      41.553  31.190  29.940  1.00  0.00     0.074 A 
ATOM     32  C   UNL A   1      40.332  29.059  29.717  1.00  0.00     0.049 A 
ATOM     33  N   UNL A   1      42.620  30.941  29.222  1.00  0.00    -0.248 NA
ATOM     34  C   UNL A   1      41.521  32.541  30.525  1.00  0.00     0.031 C 
ATOM     35  C   UNL A   1      39.265  28.084  29.936  1.00  0.00     0.029 A 
ATOM     36  N   UNL A   1      41.217  28.410  28.891  1.00  0.00    -0.354 N 
ATOM     37  C   UNL A   1      43.393  32.093  29.283  1.00  0.00     0.074 A 
ATOM     38  C   UNL A   1      42.654  33.058  30.069  1.00  0.00     0.031 C 
ATOM     39  C   UNL A   1      39.557  26.959  29.258  1.00  0.00     0.029 A 
ATOM     40  C   UNL A   1      40.821  27.141  28.548  1.00  0.00     0.049 A 
ATOM     41  H   UNL A   1      42.056  28.816  28.575  1.00  0.00     0.167 HD
ATOM     42  C   UNL A   1      44.616  32.325  28.751  1.00  0.00     0.031 A 
ATOM     43  C   UNL A   1      41.409  26.230  27.749  1.00  0.00     0.031 A 
ATOM     44  C   UNL A   1      45.353  31.385  27.950  1.00  0.00     0.049 A 
ATOM     45  C   UNL A   1      42.734  26.543  27.106  1.00  0.00     0.074 A 
ATOM     46  C   UNL A   1      46.607  31.532  27.382  1.00  0.00     0.029 A 
ATOM     47  N   UNL A   1      44.900  30.125  27.596  1.00  0.00    -0.354 N 
ATOM     48  N   UNL A   1      43.479  27.616  27.221  1.00  0.00    -0.248 NA
ATOM     49  C   UNL A   1      43.307  25.506  26.233  1.00  0.00     0.031 C 
ATOM     50  C   UNL A   1      46.893  30.378  26.643  1.00  0.00     0.029 A 
ATOM     51  C   UNL A   1      45.838  29.495  26.795  1.00  0.00     0.049 A 
ATOM     52  H   UNL A   1      44.039  29.735  27.873  1.00  0.00     0.167 HD
ATOM     53  C   UNL A   1      44.617  27.369  26.462  1.00  0.00     0.074 A 
ATOM     54  C   UNL A   1      44.474  26.041  25.906  1.00  0.00     0.031 C 
ATOM     55  C   UNL A   1      45.687  28.173  26.246  1.00  0.00     0.031 A 
BRANCH  42  56
ATOM     56  C   UNL A   1      45.239  33.666  29.013  1.00  0.00    -0.014 A 
ATOM     57  C   UNL A   1      45.028  34.742  28.135  1.00  0.00     0.009 A 
ATOM     58  C   UNL A   1      46.000  33.873  30.173  1.00  0.00     0.009 A 
ATOM     59  C   UNL A   1      45.587  35.992  28.404  1.00  0.00     0.001 A 
ATOM     60  C   UNL A   1      46.538  35.131  30.451  1.00  0.00     0.001 A 
ATOM     61  C   UNL A   1      46.337  36.187  29.564  1.00  0.00     0.000 A 
ENDBRANCH  42  56
BRANCH  43  62
ATOM     62  C   UNL A   1      40.751  24.922  27.492  1.00  0.00    -0.014 A 
ATOM     63  C   UNL A   1      41.265  23.741  28.048  1.00  0.00     0.009 A 
ATOM     64  C   UNL A   1      39.637  24.845  26.642  1.00  0.00     0.009 A 
ATOM     65  C   UNL A   1      40.698  22.505  27.727  1.00  0.00     0.001 A 
ATOM     66  C   UNL A   1      39.056  23.612  26.346  1.00  0.00     0.001 A 
ATOM     67  C   UNL A   1      39.594  22.441  26.878  1.00  0.00     0.000 A 
ENDBRANCH  43  62
BRANCH  55  68
ATOM     68  C   UNL A   1      46.801  27.624  25.398  1.00  0.00    -0.014 A 
ATOM     69  C   UNL A   1      46.897  27.932  24.032  1.00  0.00     0.009 A 
ATOM     70  C   UNL A   1      47.784  26.809  25.982  1.00  0.00     0.009 A 
ATOM     71  C   UNL A   1      47.934  27.402  23.261  1.00  0.00     0.001 A 
ATOM     72  C   UNL A   1      48.835  26.304  25.214  1.00  0.00     0.001 A 
ATOM     73  C   UNL A   1      48.902  26.593  23.853  1.00  0.00     0.000 A 
ENDBRANCH  55  68
ENDBRANCH  29  30
ENDBRANCH  22  24
ENDBRANCH  21  22
ENDBRANCH  20  21
ENDBRANCH   1  20
TORSDOF 14
ENDMDL
MODEL 2
REMARK VINA RESULT:     -10.6      5.999     10.969
REMARK SMILES O=C(CSc1nc(-c2cccc(F)c2)n[nH]1)OCCOC(=O)c1ccc(-c2c3nc(c(-c4ccccc4)c4ccc([nH]4)c(-c4ccccc4)c4nc(c(-c5ccccc5)c5ccc2[nH]5)C=C4)C=C3)cc1
REMARK SMILES IDX 18 1 17 2 2 3 1 4 3 5 4 6 5 7 6 8 16 9 7 10 15 11 8 13 9 14
REMARK SMILES IDX 14 15 10 16 12 17 11 18 13 19 19 20 20 21 21 22 22 23 23 24
REMARK SMILES IDX 24 25 70 26 25 27 69 28 26 29 27 30 28 31 63 32 29 33 68 34
REMARK SMILES IDX 62 35 64 36 30 37 67 38 61 39 60 40 31 42 53 43 38 44 52 45
REMARK SMILES IDX 39 46 42 47 51 48 65 49 40 50 41 51 50 53 66 54 43 55 32 56
REMARK SMILES IDX 33 57 37 58 34 59 36 60 35 61 54 62 55 63 59 64 56 65 58 66
REMARK SMILES IDX 57 67 44 68 45 69 49 70 46 71 48 72 47 73
REMARK H PARENT 16 12 64 41 42 52
REMARK Flexibility Score: inf
ROOT
ATOM      1  C   UNL A   1      43.719  19.286  25.075  1.00  0.00     0.274 C 
ENDROOT
BRANCH   1   2
ATOM      2  O   UNL A   1      45.137  19.305  25.352  1.00  0.00    -0.461 OA
BRANCH   2   3
ATOM      3  C   UNL A   1      45.981  20.322  25.049  1.00  0.00     0.316 C 
ATOM      4  O   UNL A   1      47.106  20.075  24.617  1.00  0.00    -0.251 OA
BRANCH   3   5
ATOM      5  C   UNL A   1      45.491  21.746  25.178  1.00  0.00     0.200 C 
BRANCH   5   6
ATOM      6  S   UNL A   1      46.541  22.850  24.197  1.00  0.00    -0.075 SA
BRANCH   6   7
ATOM      7  C   UNL A   1      46.128  24.348  24.926  1.00  0.00     0.184 A 
ATOM      8  N   UNL A   1      44.949  24.907  24.998  1.00  0.00    -0.201 NA
ATOM      9  N   UNL A   1      47.064  25.143  25.504  1.00  0.00    -0.254 N 
ATOM     10  C   UNL A   1      45.230  26.121  25.584  1.00  0.00     0.182 A 
ATOM     11  N   UNL A   1      46.524  26.307  25.895  1.00  0.00    -0.153 NA
ATOM     12  H   UNL A   1      48.010  24.898  25.621  1.00  0.00     0.192 HD
BRANCH  10  13
ATOM     13  C   UNL A   1      44.223  27.147  25.753  1.00  0.00     0.024 A 
ATOM     14  C   UNL A   1      42.934  26.981  25.228  1.00  0.00     0.012 A 
ATOM     15  C   UNL A   1      44.547  28.319  26.444  1.00  0.00     0.051 A 
ATOM     16  C   UNL A   1      41.971  27.980  25.406  1.00  0.00     0.004 A 
ATOM     17  C   UNL A   1      43.587  29.309  26.600  1.00  0.00     0.123 A 
ATOM     18  C   UNL A   1      42.302  29.148  26.093  1.00  0.00     0.039 A 
ATOM     19  F   UNL A   1      43.904  30.437  27.248  1.00  0.00    -0.207 F 
ENDBRANCH  10  13
ENDBRANCH   6   7
ENDBRANCH   5   6
ENDBRANCH   3   5
ENDBRANCH   2   3
ENDBRANCH   1   2
BRANCH   1  20
ATOM     20  C   UNL A   1      43.015  18.189  25.873  1.00  0.00     0.275 C 
BRANCH  20  21
ATOM     21  O   UNL A   1      42.126  18.779  26.841  1.00  0.00    -0.458 OA
BRANCH  21  22
ATOM     22  C   UNL A   1      41.255  19.697  26.349  1.00  0.00     0.338 C 
ATOM     23  O   UNL A   1      40.223  19.470  25.743  1.00  0.00    -0.246 OA
BRANCH  22  24
ATOM     24  C   UNL A   1      41.649  21.044  26.818  1.00  0.00     0.060 A 
ATOM     25  C   UNL A   1      41.805  21.239  28.196  1.00  0.00     0.016 A 
ATOM     26  C   UNL A   1      41.876  22.102  25.931  1.00  0.00     0.016 A 
ATOM     27  C   UNL A   1      42.154  22.496  28.690  1.00  0.00     0.010 A 
ATOM     28  C   UNL A   1      42.230  23.362  26.428  1.00  0.00     0.010 A 
ATOM     29  C   UNL A   1      42.347  23.572  27.812  1.00  0.00    -0.014 A 
BRANCH  29  30
ATOM     30  C   UNL A   1      42.581  24.934  28.354  1.00  0.00     0.031 A 
ATOM     31  C   UNL A   1      43.962  25.329  28.800  1.00  0.00     0.074 A 
ATOM     32  C   UNL A   1      41.575  25.826  28.425  1.00  0.00     0.049 A 
ATOM     33  N   UNL A   1      44.385  26.480  29.259  1.00  0.00    -0.248 NA
ATOM     34  C   UNL A   1      45.003  24.291  28.719  1.00  0.00     0.031 C 
ATOM     35  C   UNL A   1      40.193  25.583  28.014  1.00  0.00     0.029 A 
ATOM     36  N   UNL A   1      41.572  27.125  28.870  1.00  0.00    -0.354 N 
ATOM     37  C   UNL A   1      45.742  26.312  29.503  1.00  0.00     0.074 A 
ATOM     38  C   UNL A   1      46.063  24.936  29.187  1.00  0.00     0.031 C 
ATOM     39  C   UNL A   1      39.473  26.700  28.228  1.00  0.00     0.029 A 
ATOM     40  C   UNL A   1      40.339  27.727  28.803  1.00  0.00     0.049 A 
ATOM     41  H   UNL A   1      42.377  27.582  29.204  1.00  0.00     0.167 HD
ATOM     42  C   UNL A   1      46.648  27.222  29.935  1.00  0.00     0.031 A 
ATOM     43  C   UNL A   1      39.953  28.964  29.169  1.00  0.00     0.031 A 
ATOM     44  C   UNL A   1      46.340  28.586  30.274  1.00  0.00     0.049 A 
ATOM     45  C   UNL A   1      40.966  29.933  29.719  1.00  0.00     0.074 A 
ATOM     46  C   UNL A   1      47.200  29.582  30.705  1.00  0.00     0.029 A 
ATOM     47  N   UNL A   1      45.074  29.144  30.228  1.00  0.00    -0.354 N 
ATOM     48  N   UNL A   1      42.256  29.776  29.890  1.00  0.00    -0.248 NA
ATOM     49  C   UNL A   1      40.466  31.260  30.111  1.00  0.00     0.031 C 
ATOM     50  C   UNL A   1      46.445  30.730  30.968  1.00  0.00     0.029 A 
ATOM     51  C   UNL A   1      45.124  30.462  30.649  1.00  0.00     0.049 A 
ATOM     52  H   UNL A   1      44.258  28.673  29.938  1.00  0.00     0.167 HD
ATOM     53  C   UNL A   1      42.723  30.991  30.378  1.00  0.00     0.074 A 
ATOM     54  C   UNL A   1      41.584  31.879  30.461  1.00  0.00     0.031 C 
ATOM     55  C   UNL A   1      43.985  31.339  30.728  1.00  0.00     0.031 A 
BRANCH  42  56
ATOM     56  C   UNL A   1      48.071  26.766  30.075  1.00  0.00    -0.014 A 
ATOM     57  C   UNL A   1      48.960  26.839  28.990  1.00  0.00     0.009 A 
ATOM     58  C   UNL A   1      48.544  26.309  31.314  1.00  0.00     0.009 A 
ATOM     59  C   UNL A   1      50.290  26.440  29.140  1.00  0.00     0.001 A 
ATOM     60  C   UNL A   1      49.880  25.933  31.465  1.00  0.00     0.001 A 
ATOM     61  C   UNL A   1      50.750  25.993  30.378  1.00  0.00     0.000 A 
ENDBRANCH  42  56
BRANCH  43  62
ATOM     62  C   UNL A   1      38.529  29.373  29.040  1.00  0.00    -0.014 A 
ATOM     63  C   UNL A   1      37.658  29.290  30.137  1.00  0.00     0.009 A 
ATOM     64  C   UNL A   1      38.024  29.796  27.801  1.00  0.00     0.009 A 
ATOM     65  C   UNL A   1      36.302  29.587  29.986  1.00  0.00     0.001 A 
ATOM     66  C   UNL A   1      36.673  30.120  27.660  1.00  0.00     0.001 A 
ATOM     67  C   UNL A   1      35.811  30.003  28.749  1.00  0.00     0.000 A 
ENDBRANCH  43  62
BRANCH  55  68
ATOM     68  C   UNL A   1      44.206  32.749  31.200  1.00  0.00    -0.014 A 
ATOM     69  C   UNL A   1      44.371  33.045  32.563  1.00  0.00     0.009 A 
ATOM     70  C   UNL A   1      44.276  33.793  30.264  1.00  0.00     0.009 A 
ATOM     71  C   UNL A   1      44.563  34.364  32.980  1.00  0.00     0.001 A 
ATOM     72  C   UNL A   1      44.496  35.107  30.683  1.00  0.00     0.001 A 
ATOM     73  C   UNL A   1      44.629  35.392  32.040  1.00  0.00     0.000 A 
ENDBRANCH  55  68
ENDBRANCH  29  30
ENDBRANCH  22  24
ENDBRANCH  21  22
ENDBRANCH  20  21
ENDBRANCH   1  20
TORSDOF 14
ENDMDL
MODEL 3
REMARK VINA RESULT:     -10.3      5.411     11.331
REMARK SMILES O=C(CSc1nc(-c2cccc(F)c2)n[nH]1)OCCOC(=O)c1ccc(-c2c3nc(c(-c4ccccc4)c4ccc([nH]4)c(-c4ccccc4)c4nc(c(-c5ccccc5)c5ccc2[nH]5)C=C4)C=C3)cc1
REMARK SMILES IDX 18 1 17 2 2 3 1 4 3 5 4 6 5 7 6 8 16 9 7 10 15 11 8 13 9 14
REMARK SMILES IDX 14 15 10 16 12 17 11 18 13 19 19 20 20 21 21 22 22 23 23 24
REMARK SMILES IDX 24 25 70 26 25 27 69 28 26 29 27 30 28 31 63 32 29 33 68 34
REMARK SMILES IDX 62 35 64 36 30 37 67 38 61 39 60 40 31 42 53 43 38 44 52 45
REMARK SMILES IDX 39 46 42 47 51 48 65 49 40 50 41 51 50 53 66 54 43 55 32 56
REMARK SMILES IDX 33 57 37 58 34 59 36 60 35 61 54 62 55 63 59 64 56 65 58 66
REMARK SMILES IDX 57 67 44 68 45 69 49 70 46 71 48 72 47 73
REMARK H PARENT 16 12 64 41 42 52
REMARK Flexibility Score: inf
ROOT
ATOM      1  C   UNL A   1      41.417  19.857  26.933  1.00  0.00     0.274 C 
ENDROOT
BRANCH   1   2
ATOM      2  O   UNL A   1      42.325  19.682  25.822  1.00  0.00    -0.461 OA
BRANCH   2   3
ATOM      3  C   UNL A   1      43.291  18.733  25.742  1.00  0.00     0.316 C 
ATOM      4  O   UNL A   1      43.283  17.785  26.525  1.00  0.00    -0.251 OA
BRANCH   3   5
ATOM      5  C   UNL A   1      44.317  18.822  24.635  1.00  0.00     0.200 C 
BRANCH   5   6
ATOM      6  S   UNL A   1      45.862  19.513  25.281  1.00  0.00    -0.075 SA
BRANCH   6   7
ATOM      7  C   UNL A   1      45.642  21.155  24.832  1.00  0.00     0.184 A 
ATOM      8  N   UNL A   1      46.051  22.221  25.468  1.00  0.00    -0.201 NA
ATOM      9  N   UNL A   1      44.955  21.504  23.716  1.00  0.00    -0.254 N 
ATOM     10  C   UNL A   1      45.508  23.241  24.718  1.00  0.00     0.182 A 
ATOM     11  N   UNL A   1      44.814  22.836  23.641  1.00  0.00    -0.153 NA
ATOM     12  H   UNL A   1      44.608  20.866  23.052  1.00  0.00     0.192 HD
BRANCH  10  13
ATOM     13  C   UNL A   1      45.598  24.628  25.123  1.00  0.00     0.024 A 
ATOM     14  C   UNL A   1      46.815  25.173  25.553  1.00  0.00     0.012 A 
ATOM     15  C   UNL A   1      44.450  25.427  25.090  1.00  0.00     0.051 A 
ATOM     16  C   UNL A   1      46.885  26.517  25.935  1.00  0.00     0.004 A 
ATOM     17  C   UNL A   1      44.530  26.755  25.486  1.00  0.00     0.123 A 
ATOM     18  C   UNL A   1      45.737  27.308  25.904  1.00  0.00     0.039 A 
ATOM     19  F   UNL A   1      43.427  27.514  25.469  1.00  0.00    -0.207 F 
ENDBRANCH  10  13
ENDBRANCH   6   7
ENDBRANCH   5   6
ENDBRANCH   3   5
ENDBRANCH   2   3
ENDBRANCH   1   2
BRANCH   1  20
ATOM     20  C   UNL A   1      41.133  21.338  27.185  1.00  0.00     0.275 C 
BRANCH  20  21
ATOM     21  O   UNL A   1      40.559  21.936  26.007  1.00  0.00    -0.458 OA
BRANCH  21  22
ATOM     22  C   UNL A   1      39.366  22.557  26.192  1.00  0.00     0.338 C 
ATOM     23  O   UNL A   1      38.260  22.071  26.037  1.00  0.00    -0.246 OA
BRANCH  22  24
ATOM     24  C   UNL A   1      39.598  23.888  26.798  1.00  0.00     0.060 A 
ATOM     25  C   UNL A   1      40.295  24.839  26.043  1.00  0.00     0.016 A 
ATOM     26  C   UNL A   1      39.132  24.212  28.077  1.00  0.00     0.016 A 
ATOM     27  C   UNL A   1      40.557  26.100  26.577  1.00  0.00     0.010 A 
ATOM     28  C   UNL A   1      39.393  25.480  28.609  1.00  0.00     0.010 A 
ATOM     29  C   UNL A   1      40.128  26.422  27.873  1.00  0.00    -0.014 A 
BRANCH  29  30
ATOM     30  C   UNL A   1      40.532  27.713  28.484  1.00  0.00     0.031 A 
ATOM     31  C   UNL A   1      41.963  27.925  28.896  1.00  0.00     0.074 A 
ATOM     32  C   UNL A   1      39.636  28.704  28.650  1.00  0.00     0.049 A 
ATOM     33  N   UNL A   1      42.529  28.992  29.403  1.00  0.00    -0.248 NA
ATOM     34  C   UNL A   1      42.878  26.787  28.710  1.00  0.00     0.031 C 
ATOM     35  C   UNL A   1      38.222  28.641  28.284  1.00  0.00     0.029 A 
ATOM     36  N   UNL A   1      39.794  29.965  29.171  1.00  0.00    -0.354 N 
ATOM     37  C   UNL A   1      43.866  28.660  29.581  1.00  0.00     0.074 A 
ATOM     38  C   UNL A   1      44.019  27.280  29.171  1.00  0.00     0.031 C 
ATOM     39  C   UNL A   1      37.639  29.814  28.594  1.00  0.00     0.029 A 
ATOM     40  C   UNL A   1      38.635  30.701  29.192  1.00  0.00     0.049 A 
ATOM     41  H   UNL A   1      40.656  30.309  29.498  1.00  0.00     0.167 HD
ATOM     42  C   UNL A   1      44.882  29.436  30.028  1.00  0.00     0.031 A 
ATOM     43  C   UNL A   1      38.402  31.948  29.646  1.00  0.00     0.031 A 
ATOM     44  C   UNL A   1      44.742  30.801  30.459  1.00  0.00     0.049 A 
ATOM     45  C   UNL A   1      39.536  32.763  30.210  1.00  0.00     0.074 A 
ATOM     46  C   UNL A   1      45.722  31.667  30.913  1.00  0.00     0.029 A 
ATOM     47  N   UNL A   1      43.545  31.497  30.499  1.00  0.00    -0.354 N 
ATOM     48  N   UNL A   1      40.806  32.455  30.317  1.00  0.00    -0.248 NA
ATOM     49  C   UNL A   1      39.202  34.109  30.701  1.00  0.00     0.031 C 
ATOM     50  C   UNL A   1      45.110  32.873  31.275  1.00  0.00     0.029 A 
ATOM     51  C   UNL A   1      43.757  32.772  30.996  1.00  0.00     0.049 A 
ATOM     52  H   UNL A   1      42.672  31.138  30.217  1.00  0.00     0.167 HD
ATOM     53  C   UNL A   1      41.422  33.577  30.858  1.00  0.00     0.074 A 
ATOM     54  C   UNL A   1      40.394  34.578  31.040  1.00  0.00     0.031 C 
ATOM     55  C   UNL A   1      42.727  33.761  31.175  1.00  0.00     0.031 A 
BRANCH  42  56
ATOM     56  C   UNL A   1      46.250  28.819  30.081  1.00  0.00    -0.014 A 
ATOM     57  C   UNL A   1      47.121  28.903  28.982  1.00  0.00     0.009 A 
ATOM     58  C   UNL A   1      46.693  28.193  31.256  1.00  0.00     0.009 A 
ATOM     59  C   UNL A   1      48.401  28.352  29.053  1.00  0.00     0.001 A 
ATOM     60  C   UNL A   1      47.982  27.664  31.330  1.00  0.00     0.001 A 
ATOM     61  C   UNL A   1      48.833  27.737  30.229  1.00  0.00     0.000 A 
ENDBRANCH  42  56
BRANCH  43  62
ATOM     62  C   UNL A   1      37.030  32.518  29.601  1.00  0.00    -0.014 A 
ATOM     63  C   UNL A   1      36.606  33.280  28.502  1.00  0.00     0.009 A 
ATOM     64  C   UNL A   1      36.157  32.347  30.687  1.00  0.00     0.009 A 
ATOM     65  C   UNL A   1      35.351  33.890  28.507  1.00  0.00     0.001 A 
ATOM     66  C   UNL A   1      34.892  32.935  30.677  1.00  0.00     0.001 A 
ATOM     67  C   UNL A   1      34.493  33.717  29.593  1.00  0.00     0.000 A 
ENDBRANCH  43  62
BRANCH  55  68
ATOM     68  C   UNL A   1      43.121  35.106  31.720  1.00  0.00    -0.014 A 
ATOM     69  C   UNL A   1      43.096  35.370  33.098  1.00  0.00     0.009 A 
ATOM     70  C   UNL A   1      43.548  36.115  30.842  1.00  0.00     0.009 A 
ATOM     71  C   UNL A   1      43.455  36.630  33.582  1.00  0.00     0.001 A 
ATOM     72  C   UNL A   1      43.933  37.365  31.332  1.00  0.00     0.001 A 
ATOM     73  C   UNL A   1      43.876  37.624  32.700  1.00  0.00     0.000 A 
ENDBRANCH  55  68
ENDBRANCH  29  30
ENDBRANCH  22  24
ENDBRANCH  21  22
ENDBRANCH  20  21
ENDBRANCH   1  20
TORSDOF 14
ENDMDL
