MODEL 1
REMARK VINA RESULT:     -11.6      0.000      0.000
REMARK SMILES O=C(CCCN1C(=O)/C(=C/c2ccccc2Cl)SC1=S)Nc1cccc(C(=O)OCCOC(=O)c2ccc(-c3c4nc(c(-c5ccccc5)c5ccc([nH]5)c(-c5ccccc5)c5nc(c(-c6ccccc6)c6ccc3[nH]6)C=C5)C=C4)cc2)c1
REMARK SMILES IDX 27 1 28 2 26 3 22 4 23 5 83 6 24 7 25 8 21 9 1 10 2 11 3 13
REMARK SMILES IDX 4 14 5 15 6 16 7 17 19 18 8 19 9 20 18 21 20 22 10 23 11 24
REMARK SMILES IDX 12 25 16 26 13 27 15 28 17 29 14 30 29 31 30 32 31 33 32 34
REMARK SMILES IDX 33 35 34 36 35 37 36 38 82 39 37 40 81 41 38 42 39 43 40 44
REMARK SMILES IDX 75 45 41 46 80 47 74 48 76 49 42 50 79 51 73 52 72 53 43 55
REMARK SMILES IDX 65 56 50 57 64 58 51 59 54 60 63 61 77 62 52 63 53 64 62 66
REMARK SMILES IDX 78 67 55 68 44 69 45 70 49 71 46 72 48 73 47 74 66 75 67 76
REMARK SMILES IDX 71 77 68 78 70 79 69 80 56 81 57 82 61 83 58 84 60 85 59 86
REMARK H PARENT 21 12 76 54 54 65
REMARK Flexibility Score: inf
ROOT
ATOM      1  C   UNL A   1      35.330  33.571  28.526  1.00  0.00     0.338 C 
ATOM      2  O   UNL A   1      36.050  33.937  29.440  1.00  0.00    -0.246 OA
ENDROOT
BRANCH   1   3
ATOM      3  C   UNL A   1      35.300  32.187  28.004  1.00  0.00     0.062 A 
ATOM      4  C   UNL A   1      34.067  30.218  27.411  1.00  0.00     0.042 A 
ATOM      5  C   UNL A   1      35.251  29.470  27.408  1.00  0.00     0.026 A 
ATOM      6  C   UNL A   1      34.083  31.567  27.741  1.00  0.00     0.041 A 
ATOM      7  C   UNL A   1      36.473  30.109  27.571  1.00  0.00     0.003 A 
ATOM      8  C   UNL A   1      36.496  31.478  27.819  1.00  0.00     0.016 A 
BRANCH   4   9
ATOM      9  N   UNL A   1      32.890  29.542  27.084  1.00  0.00    -0.326 N 
ATOM     10  O   UNL A   1      33.305  29.012  24.868  1.00  0.00    -0.275 OA
ATOM     11  C   UNL A   1      32.598  28.967  25.871  1.00  0.00     0.224 C 
ATOM     12  H   UNL A   1      32.206  29.472  27.788  1.00  0.00     0.169 HD
BRANCH  11  13
ATOM     13  C   UNL A   1      31.286  28.204  25.856  1.00  0.00     0.102 C 
BRANCH  13  14
ATOM     14  C   UNL A   1      30.875  27.656  24.483  1.00  0.00     0.032 C 
BRANCH  14  15
ATOM     15  C   UNL A   1      30.751  26.127  24.342  1.00  0.00     0.128 C 
BRANCH  15  16
ATOM     16  N   UNL A   1      32.045  25.444  24.240  1.00  0.00    -0.293 N 
ATOM     17  C   UNL A   1      32.581  24.854  25.369  1.00  0.00     0.266 C 
ATOM     18  C   UNL A   1      32.799  25.342  23.090  1.00  0.00     0.148 C 
ATOM     19  O   UNL A   1      32.095  24.914  26.490  1.00  0.00    -0.268 OA
ATOM     20  C   UNL A   1      33.820  24.111  25.045  1.00  0.00     0.081 C 
ATOM     21  S   UNL A   1      34.212  24.336  23.390  1.00  0.00    -0.054 SA
ATOM     22  S   UNL A   1      32.491  26.022  21.599  1.00  0.00    -0.052 S 
ATOM     23  C   UNL A   1      34.468  23.389  25.969  1.00  0.00     0.031 C 
BRANCH  23  24
ATOM     24  C   UNL A   1      35.743  22.691  25.744  1.00  0.00    -0.006 A 
ATOM     25  C   UNL A   1      36.939  23.377  25.998  1.00  0.00     0.010 A 
ATOM     26  C   UNL A   1      35.803  21.365  25.279  1.00  0.00     0.048 A 
ATOM     27  C   UNL A   1      38.170  22.738  25.822  1.00  0.00     0.001 A 
ATOM     28  C   UNL A   1      37.035  20.729  25.116  1.00  0.00     0.021 A 
ATOM     29  Cl  UNL A   1      34.379  20.474  24.858  1.00  0.00    -0.084 Cl
ATOM     30  C   UNL A   1      38.218  21.414  25.393  1.00  0.00     0.002 A 
ENDBRANCH  23  24
ENDBRANCH  15  16
ENDBRANCH  14  15
ENDBRANCH  13  14
ENDBRANCH  11  13
ENDBRANCH   4   9
ENDBRANCH   1   3
BRANCH   1  31
ATOM     31  O   UNL A   1      34.339  34.283  27.929  1.00  0.00    -0.458 OA
BRANCH  31  32
ATOM     32  C   UNL A   1      33.107  34.444  28.659  1.00  0.00     0.275 C 
BRANCH  32  33
ATOM     33  C   UNL A   1      33.210  35.583  29.673  1.00  0.00     0.275 C 
BRANCH  33  34
ATOM     34  O   UNL A   1      32.379  35.305  30.815  1.00  0.00    -0.458 OA
BRANCH  34  35
ATOM     35  C   UNL A   1      32.759  35.893  31.972  1.00  0.00     0.338 C 
ATOM     36  O   UNL A   1      32.269  36.867  32.517  1.00  0.00    -0.246 OA
BRANCH  35  37
ATOM     37  C   UNL A   1      33.830  35.100  32.590  1.00  0.00     0.060 A 
ATOM     38  C   UNL A   1      35.101  35.656  32.607  1.00  0.00     0.016 A 
ATOM     39  C   UNL A   1      33.643  33.783  32.989  1.00  0.00     0.016 A 
ATOM     40  C   UNL A   1      36.215  34.880  32.903  1.00  0.00     0.010 A 
ATOM     41  C   UNL A   1      34.752  33.033  33.407  1.00  0.00     0.010 A 
ATOM     42  C   UNL A   1      36.058  33.557  33.329  1.00  0.00    -0.014 A 
BRANCH  42  43
ATOM     43  C   UNL A   1      37.255  32.725  33.649  1.00  0.00     0.031 A 
ATOM     44  C   UNL A   1      37.989  32.923  34.951  1.00  0.00     0.074 A 
ATOM     45  C   UNL A   1      37.680  31.772  32.794  1.00  0.00     0.049 A 
ATOM     46  N   UNL A   1      39.145  32.439  35.333  1.00  0.00    -0.248 NA
ATOM     47  C   UNL A   1      37.345  33.792  35.950  1.00  0.00     0.031 C 
ATOM     48  C   UNL A   1      37.036  31.411  31.528  1.00  0.00     0.029 A 
ATOM     49  N   UNL A   1      38.757  30.921  32.865  1.00  0.00    -0.354 N 
ATOM     50  C   UNL A   1      39.395  32.994  36.584  1.00  0.00     0.074 A 
ATOM     51  C   UNL A   1      38.274  33.856  36.894  1.00  0.00     0.031 C 
ATOM     52  C   UNL A   1      37.702  30.391  30.966  1.00  0.00     0.029 A 
ATOM     53  C   UNL A   1      38.880  30.096  31.771  1.00  0.00     0.049 A 
ATOM     54  H   UNL A   1      39.382  30.904  33.625  1.00  0.00     0.167 HD
ATOM     55  C   UNL A   1      40.462  32.807  37.397  1.00  0.00     0.031 A 
ATOM     56  C   UNL A   1      39.854  29.237  31.419  1.00  0.00     0.031 A 
ATOM     57  C   UNL A   1      41.558  31.919  37.104  1.00  0.00     0.049 A 
ATOM     58  C   UNL A   1      41.060  29.097  32.303  1.00  0.00     0.074 A 
ATOM     59  C   UNL A   1      42.680  31.653  37.868  1.00  0.00     0.029 A 
ATOM     60  N   UNL A   1      41.660  31.143  35.960  1.00  0.00    -0.354 N 
ATOM     61  N   UNL A   1      41.310  29.670  33.455  1.00  0.00    -0.248 NA
ATOM     62  C   UNL A   1      42.125  28.202  31.828  1.00  0.00     0.031 C 
ATOM     63  C   UNL A   1      43.488  30.755  37.163  1.00  0.00     0.029 A 
ATOM     64  C   UNL A   1      42.837  30.414  35.989  1.00  0.00     0.049 A 
ATOM     65  H   UNL A   1      40.995  31.113  35.235  1.00  0.00     0.167 HD
ATOM     66  C   UNL A   1      42.551  29.191  33.853  1.00  0.00     0.074 A 
ATOM     67  C   UNL A   1      42.991  28.264  32.830  1.00  0.00     0.031 C 
ATOM     68  C   UNL A   1      43.263  29.494  34.965  1.00  0.00     0.031 A 
BRANCH  55  69
ATOM     69  C   UNL A   1      40.526  33.620  38.662  1.00  0.00    -0.014 A 
ATOM     70  C   UNL A   1      41.096  34.902  38.691  1.00  0.00     0.009 A 
ATOM     71  C   UNL A   1      39.973  33.099  39.843  1.00  0.00     0.009 A 
ATOM     72  C   UNL A   1      41.144  35.628  39.885  1.00  0.00     0.001 A 
ATOM     73  C   UNL A   1      39.994  33.838  41.027  1.00  0.00     0.001 A 
ATOM     74  C   UNL A   1      40.589  35.098  41.050  1.00  0.00     0.000 A 
ENDBRANCH  55  69
BRANCH  56  75
ATOM     75  C   UNL A   1      39.762  28.490  30.134  1.00  0.00    -0.014 A 
ATOM     76  C   UNL A   1      40.153  29.088  28.927  1.00  0.00     0.009 A 
ATOM     77  C   UNL A   1      39.275  27.172  30.109  1.00  0.00     0.009 A 
ATOM     78  C   UNL A   1      40.042  28.389  27.721  1.00  0.00     0.001 A 
ATOM     79  C   UNL A   1      39.199  26.464  28.909  1.00  0.00     0.001 A 
ATOM     80  C   UNL A   1      39.573  27.076  27.715  1.00  0.00     0.000 A 
ENDBRANCH  56  75
BRANCH  68  81
ATOM     81  C   UNL A   1      44.571  28.781  35.154  1.00  0.00    -0.014 A 
ATOM     82  C   UNL A   1      44.642  27.538  35.802  1.00  0.00     0.009 A 
ATOM     83  C   UNL A   1      45.749  29.354  34.649  1.00  0.00     0.009 A 
ATOM     84  C   UNL A   1      45.872  26.900  35.970  1.00  0.00     0.001 A 
ATOM     85  C   UNL A   1      46.973  28.698  34.791  1.00  0.00     0.001 A 
ATOM     86  C   UNL A   1      47.035  27.478  35.462  1.00  0.00     0.000 A 
ENDBRANCH  68  81
ENDBRANCH  42  43
ENDBRANCH  35  37
ENDBRANCH  34  35
ENDBRANCH  33  34
ENDBRANCH  32  33
ENDBRANCH  31  32
ENDBRANCH   1  31
TORSDOF 17
ENDMDL
MODEL 2
REMARK VINA RESULT:     -11.3      3.862      9.918
REMARK SMILES O=C(CCCN1C(=O)/C(=C/c2ccccc2Cl)SC1=S)Nc1cccc(C(=O)OCCOC(=O)c2ccc(-c3c4nc(c(-c5ccccc5)c5ccc([nH]5)c(-c5ccccc5)c5nc(c(-c6ccccc6)c6ccc3[nH]6)C=C5)C=C4)cc2)c1
REMARK SMILES IDX 27 1 28 2 26 3 22 4 23 5 83 6 24 7 25 8 21 9 1 10 2 11 3 13
REMARK SMILES IDX 4 14 5 15 6 16 7 17 19 18 8 19 9 20 18 21 20 22 10 23 11 24
REMARK SMILES IDX 12 25 16 26 13 27 15 28 17 29 14 30 29 31 30 32 31 33 32 34
REMARK SMILES IDX 33 35 34 36 35 37 36 38 82 39 37 40 81 41 38 42 39 43 40 44
REMARK SMILES IDX 75 45 41 46 80 47 74 48 76 49 42 50 79 51 73 52 72 53 43 55
REMARK SMILES IDX 65 56 50 57 64 58 51 59 54 60 63 61 77 62 52 63 53 64 62 66
REMARK SMILES IDX 78 67 55 68 44 69 45 70 49 71 46 72 48 73 47 74 66 75 67 76
REMARK SMILES IDX 71 77 68 78 70 79 69 80 56 81 57 82 61 83 58 84 60 85 59 86
REMARK H PARENT 21 12 76 54 54 65
REMARK Flexibility Score: inf
ROOT
ATOM      1  C   UNL A   1      41.056  20.744  26.674  1.00  0.00     0.338 C 
ATOM      2  O   UNL A   1      41.230  20.012  27.634  1.00  0.00    -0.246 OA
ENDROOT
BRANCH   1   3
ATOM      3  C   UNL A   1      39.955  21.727  26.576  1.00  0.00     0.062 A 
ATOM      4  C   UNL A   1      37.914  22.464  25.555  1.00  0.00     0.042 A 
ATOM      5  C   UNL A   1      38.098  23.742  26.095  1.00  0.00     0.026 A 
ATOM      6  C   UNL A   1      38.855  21.464  25.765  1.00  0.00     0.041 A 
ATOM      7  C   UNL A   1      39.140  23.974  26.984  1.00  0.00     0.003 A 
ATOM      8  C   UNL A   1      40.037  22.947  27.261  1.00  0.00     0.016 A 
BRANCH   4   9
ATOM      9  N   UNL A   1      36.760  22.257  24.797  1.00  0.00    -0.326 N 
ATOM     10  O   UNL A   1      35.299  21.521  26.437  1.00  0.00    -0.275 OA
ATOM     11  C   UNL A   1      35.542  21.837  25.275  1.00  0.00     0.224 C 
ATOM     12  H   UNL A   1      36.825  22.427  23.830  1.00  0.00     0.169 HD
BRANCH  11  13
ATOM     13  C   UNL A   1      34.447  21.816  24.225  1.00  0.00     0.102 C 
BRANCH  13  14
ATOM     14  C   UNL A   1      33.788  23.175  23.954  1.00  0.00     0.032 C 
BRANCH  14  15
ATOM     15  C   UNL A   1      32.311  23.167  23.516  1.00  0.00     0.128 C 
BRANCH  15  16
ATOM     16  N   UNL A   1      31.608  24.420  23.812  1.00  0.00    -0.293 N 
ATOM     17  C   UNL A   1      31.600  25.424  22.862  1.00  0.00     0.266 C 
ATOM     18  C   UNL A   1      30.945  24.697  24.989  1.00  0.00     0.148 C 
ATOM     19  O   UNL A   1      32.202  25.388  21.798  1.00  0.00    -0.268 OA
ATOM     20  C   UNL A   1      30.741  26.553  23.287  1.00  0.00     0.081 C 
ATOM     21  S   UNL A   1      30.142  26.260  24.867  1.00  0.00    -0.054 SA
ATOM     22  S   UNL A   1      30.853  23.753  26.360  1.00  0.00    -0.052 S 
ATOM     23  C   UNL A   1      30.515  27.603  22.487  1.00  0.00     0.031 C 
BRANCH  23  24
ATOM     24  C   UNL A   1      29.742  28.795  22.866  1.00  0.00    -0.006 A 
ATOM     25  C   UNL A   1      28.460  28.966  22.323  1.00  0.00     0.010 A 
ATOM     26  C   UNL A   1      30.244  29.769  23.748  1.00  0.00     0.048 A 
ATOM     27  C   UNL A   1      27.684  30.072  22.680  1.00  0.00     0.001 A 
ATOM     28  C   UNL A   1      29.460  30.865  24.110  1.00  0.00     0.021 A 
ATOM     29  Cl  UNL A   1      31.847  29.681  24.396  1.00  0.00    -0.084 Cl
ATOM     30  C   UNL A   1      28.178  31.014  23.581  1.00  0.00     0.002 A 
ENDBRANCH  23  24
ENDBRANCH  15  16
ENDBRANCH  14  15
ENDBRANCH  13  14
ENDBRANCH  11  13
ENDBRANCH   4   9
ENDBRANCH   1   3
BRANCH   1  31
ATOM     31  O   UNL A   1      41.887  20.913  25.612  1.00  0.00    -0.458 OA
BRANCH  31  32
ATOM     32  C   UNL A   1      43.067  21.715  25.816  1.00  0.00     0.275 C 
BRANCH  32  33
ATOM     33  C   UNL A   1      43.353  22.598  24.602  1.00  0.00     0.275 C 
BRANCH  33  34
ATOM     34  O   UNL A   1      43.055  23.973  24.909  1.00  0.00    -0.458 OA
BRANCH  34  35
ATOM     35  C   UNL A   1      44.118  24.743  25.230  1.00  0.00     0.338 C 
ATOM     36  O   UNL A   1      45.143  24.915  24.592  1.00  0.00    -0.246 OA
BRANCH  35  37
ATOM     37  C   UNL A   1      43.825  25.485  26.465  1.00  0.00     0.060 A 
ATOM     38  C   UNL A   1      43.240  24.778  27.505  1.00  0.00     0.016 A 
ATOM     39  C   UNL A   1      43.956  26.865  26.550  1.00  0.00     0.016 A 
ATOM     40  C   UNL A   1      42.671  25.440  28.585  1.00  0.00     0.010 A 
ATOM     41  C   UNL A   1      43.492  27.525  27.698  1.00  0.00     0.010 A 
ATOM     42  C   UNL A   1      42.805  26.826  28.712  1.00  0.00    -0.014 A 
BRANCH  42  43
ATOM     43  C   UNL A   1      42.195  27.536  29.875  1.00  0.00     0.031 A 
ATOM     44  C   UNL A   1      40.859  28.218  29.729  1.00  0.00     0.074 A 
ATOM     45  C   UNL A   1      42.816  27.555  31.073  1.00  0.00     0.049 A 
ATOM     46  N   UNL A   1      40.252  29.037  30.553  1.00  0.00    -0.248 NA
ATOM     47  C   UNL A   1      40.113  27.958  28.487  1.00  0.00     0.031 C 
ATOM     48  C   UNL A   1      44.077  26.882  31.393  1.00  0.00     0.029 A 
ATOM     49  N   UNL A   1      42.461  28.161  32.255  1.00  0.00    -0.354 N 
ATOM     50  C   UNL A   1      39.089  29.437  29.902  1.00  0.00     0.074 A 
ATOM     51  C   UNL A   1      39.079  28.778  28.614  1.00  0.00     0.031 C 
ATOM     52  C   UNL A   1      44.368  27.075  32.688  1.00  0.00     0.029 A 
ATOM     53  C   UNL A   1      43.377  27.973  33.265  1.00  0.00     0.049 A 
ATOM     54  H   UNL A   1      41.633  28.680  32.368  1.00  0.00     0.167 HD
ATOM     55  C   UNL A   1      38.122  30.281  30.337  1.00  0.00     0.031 A 
ATOM     56  C   UNL A   1      43.448  28.504  34.500  1.00  0.00     0.031 A 
ATOM     57  C   UNL A   1      38.116  30.906  31.635  1.00  0.00     0.049 A 
ATOM     58  C   UNL A   1      42.401  29.489  34.934  1.00  0.00     0.074 A 
ATOM     59  C   UNL A   1      37.175  31.768  32.171  1.00  0.00     0.029 A 
ATOM     60  N   UNL A   1      39.089  30.723  32.603  1.00  0.00    -0.354 N 
ATOM     61  N   UNL A   1      41.338  29.903  34.289  1.00  0.00    -0.248 NA
ATOM     62  C   UNL A   1      42.575  30.092  36.263  1.00  0.00     0.031 C 
ATOM     63  C   UNL A   1      37.607  32.149  33.446  1.00  0.00     0.029 A 
ATOM     64  C   UNL A   1      38.784  31.474  33.727  1.00  0.00     0.049 A 
ATOM     65  H   UNL A   1      39.881  30.146  32.508  1.00  0.00     0.167 HD
ATOM     66  C   UNL A   1      40.705  30.798  35.139  1.00  0.00     0.074 A 
ATOM     67  C   UNL A   1      41.491  30.851  36.355  1.00  0.00     0.031 C 
ATOM     68  C   UNL A   1      39.575  31.516  34.930  1.00  0.00     0.031 A 
BRANCH  55  69
ATOM     69  C   UNL A   1      37.014  30.623  29.378  1.00  0.00    -0.014 A 
ATOM     70  C   UNL A   1      36.899  31.898  28.801  1.00  0.00     0.009 A 
ATOM     71  C   UNL A   1      36.083  29.634  29.022  1.00  0.00     0.009 A 
ATOM     72  C   UNL A   1      35.853  32.183  27.919  1.00  0.00     0.001 A 
ATOM     73  C   UNL A   1      35.057  29.912  28.116  1.00  0.00     0.001 A 
ATOM     74  C   UNL A   1      34.936  31.190  27.574  1.00  0.00     0.000 A 
ENDBRANCH  55  69
BRANCH  56  75
ATOM     75  C   UNL A   1      44.591  28.165  35.392  1.00  0.00    -0.014 A 
ATOM     76  C   UNL A   1      44.509  27.084  36.283  1.00  0.00     0.009 A 
ATOM     77  C   UNL A   1      45.770  28.928  35.361  1.00  0.00     0.009 A 
ATOM     78  C   UNL A   1      45.576  26.786  37.135  1.00  0.00     0.001 A 
ATOM     79  C   UNL A   1      46.848  28.606  36.187  1.00  0.00     0.001 A 
ATOM     80  C   UNL A   1      46.747  27.542  37.079  1.00  0.00     0.000 A 
ENDBRANCH  56  75
BRANCH  68  81
ATOM     81  C   UNL A   1      39.098  32.384  36.059  1.00  0.00    -0.014 A 
ATOM     82  C   UNL A   1      38.150  31.924  36.988  1.00  0.00     0.009 A 
ATOM     83  C   UNL A   1      39.629  33.674  36.211  1.00  0.00     0.009 A 
ATOM     84  C   UNL A   1      37.719  32.754  38.024  1.00  0.00     0.001 A 
ATOM     85  C   UNL A   1      39.219  34.490  37.266  1.00  0.00     0.001 A 
ATOM     86  C   UNL A   1      38.256  34.033  38.165  1.00  0.00     0.000 A 
ENDBRANCH  68  81
ENDBRANCH  42  43
ENDBRANCH  35  37
ENDBRANCH  34  35
ENDBRANCH  33  34
ENDBRANCH  32  33
ENDBRANCH  31  32
ENDBRANCH   1  31
TORSDOF 17
ENDMDL
MODEL 3
REMARK VINA RESULT:     -11.3      1.480      5.933
REMARK SMILES O=C(CCCN1C(=O)/C(=C/c2ccccc2Cl)SC1=S)Nc1cccc(C(=O)OCCOC(=O)c2ccc(-c3c4nc(c(-c5ccccc5)c5ccc([nH]5)c(-c5ccccc5)c5nc(c(-c6ccccc6)c6ccc3[nH]6)C=C5)C=C4)cc2)c1
REMARK SMILES IDX 27 1 28 2 26 3 22 4 23 5 83 6 24 7 25 8 21 9 1 10 2 11 3 13
REMARK SMILES IDX 4 14 5 15 6 16 7 17 19 18 8 19 9 20 18 21 20 22 10 23 11 24
REMARK SMILES IDX 12 25 16 26 13 27 15 28 17 29 14 30 29 31 30 32 31 33 32 34
REMARK SMILES IDX 33 35 34 36 35 37 36 38 82 39 37 40 81 41 38 42 39 43 40 44
REMARK SMILES IDX 75 45 41 46 80 47 74 48 76 49 42 50 79 51 73 52 72 53 43 55
REMARK SMILES IDX 65 56 50 57 64 58 51 59 54 60 63 61 77 62 52 63 53 64 62 66
REMARK SMILES IDX 78 67 55 68 44 69 45 70 49 71 46 72 48 73 47 74 66 75 67 76
REMARK SMILES IDX 71 77 68 78 70 79 69 80 56 81 57 82 61 83 58 84 60 85 59 86
REMARK H PARENT 21 12 76 54 54 65
REMARK Flexibility Score: inf
ROOT
ATOM      1  C   UNL A   1      34.568  32.605  29.479  1.00  0.00     0.338 C 
ATOM      2  O   UNL A   1      34.389  32.427  30.672  1.00  0.00    -0.246 OA
ENDROOT
BRANCH   1   3
ATOM      3  C   UNL A   1      34.762  31.510  28.502  1.00  0.00     0.062 A 
ATOM      4  C   UNL A   1      33.961  30.213  26.652  1.00  0.00     0.042 A 
ATOM      5  C   UNL A   1      34.915  29.225  26.923  1.00  0.00     0.026 A 
ATOM      6  C   UNL A   1      33.859  31.340  27.458  1.00  0.00     0.041 A 
ATOM      7  C   UNL A   1      35.878  29.443  27.900  1.00  0.00     0.003 A 
ATOM      8  C   UNL A   1      35.828  30.612  28.654  1.00  0.00     0.016 A 
BRANCH   4   9
ATOM      9  N   UNL A   1      33.124  30.001  25.555  1.00  0.00    -0.326 N 
ATOM     10  O   UNL A   1      31.643  28.456  26.439  1.00  0.00    -0.275 OA
ATOM     11  C   UNL A   1      32.024  29.178  25.522  1.00  0.00     0.224 C 
ATOM     12  H   UNL A   1      33.343  30.486  24.727  1.00  0.00     0.169 HD
BRANCH  11  13
ATOM     13  C   UNL A   1      31.248  29.246  24.220  1.00  0.00     0.102 C 
BRANCH  13  14
ATOM     14  C   UNL A   1      31.999  28.710  22.994  1.00  0.00     0.032 C 
BRANCH  14  15
ATOM     15  C   UNL A   1      31.278  27.658  22.130  1.00  0.00     0.128 C 
BRANCH  15  16
ATOM     16  N   UNL A   1      31.370  26.297  22.671  1.00  0.00    -0.293 N 
ATOM     17  C   UNL A   1      32.429  25.495  22.290  1.00  0.00     0.266 C 
ATOM     18  C   UNL A   1      30.465  25.728  23.542  1.00  0.00     0.148 C 
ATOM     19  O   UNL A   1      33.279  25.801  21.465  1.00  0.00    -0.268 OA
ATOM     20  C   UNL A   1      32.420  24.213  23.030  1.00  0.00     0.081 C 
ATOM     21  S   UNL A   1      31.027  24.132  24.028  1.00  0.00    -0.054 SA
ATOM     22  S   UNL A   1      29.040  26.381  24.110  1.00  0.00    -0.052 S 
ATOM     23  C   UNL A   1      33.400  23.312  22.885  1.00  0.00     0.031 C 
BRANCH  23  24
ATOM     24  C   UNL A   1      33.422  21.987  23.523  1.00  0.00    -0.006 A 
ATOM     25  C   UNL A   1      32.462  21.039  23.137  1.00  0.00     0.010 A 
ATOM     26  C   UNL A   1      34.363  21.641  24.509  1.00  0.00     0.048 A 
ATOM     27  C   UNL A   1      32.466  19.761  23.702  1.00  0.00     0.001 A 
ATOM     28  C   UNL A   1      34.370  20.359  25.060  1.00  0.00     0.021 A 
ATOM     29  Cl  UNL A   1      35.526  22.777  25.106  1.00  0.00    -0.084 Cl
ATOM     30  C   UNL A   1      33.425  19.417  24.653  1.00  0.00     0.002 A 
ENDBRANCH  23  24
ENDBRANCH  15  16
ENDBRANCH  14  15
ENDBRANCH  13  14
ENDBRANCH  11  13
ENDBRANCH   4   9
ENDBRANCH   1   3
BRANCH   1  31
ATOM     31  O   UNL A   1      34.476  33.780  28.803  1.00  0.00    -0.458 OA
BRANCH  31  32
ATOM     32  C   UNL A   1      33.209  34.465  28.836  1.00  0.00     0.275 C 
BRANCH  32  33
ATOM     33  C   UNL A   1      33.190  35.541  29.923  1.00  0.00     0.275 C 
BRANCH  33  34
ATOM     34  O   UNL A   1      32.576  35.025  31.118  1.00  0.00    -0.458 OA
BRANCH  34  35
ATOM     35  C   UNL A   1      32.882  35.679  32.261  1.00  0.00     0.338 C 
ATOM     36  O   UNL A   1      32.245  36.555  32.820  1.00  0.00    -0.246 OA
BRANCH  35  37
ATOM     37  C   UNL A   1      34.095  35.091  32.847  1.00  0.00     0.060 A 
ATOM     38  C   UNL A   1      35.306  35.685  32.525  1.00  0.00     0.016 A 
ATOM     39  C   UNL A   1      34.074  33.893  33.549  1.00  0.00     0.016 A 
ATOM     40  C   UNL A   1      36.509  35.042  32.790  1.00  0.00     0.010 A 
ATOM     41  C   UNL A   1      35.289  33.302  33.926  1.00  0.00     0.010 A 
ATOM     42  C   UNL A   1      36.523  33.847  33.515  1.00  0.00    -0.014 A 
BRANCH  42  43
ATOM     43  C   UNL A   1      37.816  33.158  33.800  1.00  0.00     0.031 A 
ATOM     44  C   UNL A   1      38.381  32.168  32.813  1.00  0.00     0.074 A 
ATOM     45  C   UNL A   1      38.506  33.429  34.928  1.00  0.00     0.049 A 
ATOM     46  N   UNL A   1      39.381  31.335  32.956  1.00  0.00    -0.248 NA
ATOM     47  C   UNL A   1      37.725  32.095  31.498  1.00  0.00     0.031 C 
ATOM     48  C   UNL A   1      38.128  34.412  35.946  1.00  0.00     0.029 A 
ATOM     49  N   UNL A   1      39.683  32.902  35.405  1.00  0.00    -0.354 N 
ATOM     50  C   UNL A   1      39.432  30.597  31.777  1.00  0.00     0.074 A 
ATOM     51  C   UNL A   1      38.359  31.077  30.934  1.00  0.00     0.031 C 
ATOM     52  C   UNL A   1      39.070  34.449  36.900  1.00  0.00     0.029 A 
ATOM     53  C   UNL A   1      40.063  33.419  36.622  1.00  0.00     0.049 A 
ATOM     54  H   UNL A   1      40.204  32.220  34.923  1.00  0.00     0.167 HD
ATOM     55  C   UNL A   1      40.292  29.608  31.432  1.00  0.00     0.031 A 
ATOM     56  C   UNL A   1      41.062  33.071  37.455  1.00  0.00     0.031 A 
ATOM     57  C   UNL A   1      41.384  29.159  32.258  1.00  0.00     0.049 A 
ATOM     58  C   UNL A   1      41.960  31.927  37.081  1.00  0.00     0.074 A 
ATOM     59  C   UNL A   1      42.315  28.171  31.992  1.00  0.00     0.029 A 
ATOM     60  N   UNL A   1      41.697  29.680  33.503  1.00  0.00    -0.354 N 
ATOM     61  N   UNL A   1      41.962  31.201  35.990  1.00  0.00    -0.248 NA
ATOM     62  C   UNL A   1      42.983  31.545  38.064  1.00  0.00     0.031 C 
ATOM     63  C   UNL A   1      43.161  28.058  33.099  1.00  0.00     0.029 A 
ATOM     64  C   UNL A   1      42.795  29.019  34.028  1.00  0.00     0.049 A 
ATOM     65  H   UNL A   1      41.213  30.412  33.949  1.00  0.00     0.167 HD
ATOM     66  C   UNL A   1      42.998  30.290  36.145  1.00  0.00     0.074 A 
ATOM     67  C   UNL A   1      43.615  30.569  37.426  1.00  0.00     0.031 C 
ATOM     68  C   UNL A   1      43.400  29.308  35.303  1.00  0.00     0.031 A 
BRANCH  55  69
ATOM     69  C   UNL A   1      40.054  28.904  30.124  1.00  0.00    -0.014 A 
ATOM     70  C   UNL A   1      40.565  29.396  28.913  1.00  0.00     0.009 A 
ATOM     71  C   UNL A   1      39.328  27.701  30.112  1.00  0.00     0.009 A 
ATOM     72  C   UNL A   1      40.320  28.719  27.714  1.00  0.00     0.001 A 
ATOM     73  C   UNL A   1      39.112  27.011  28.918  1.00  0.00     0.001 A 
ATOM     74  C   UNL A   1      39.598  27.525  27.719  1.00  0.00     0.000 A 
ENDBRANCH  55  69
BRANCH  56  75
ATOM     75  C   UNL A   1      41.226  33.773  38.757  1.00  0.00    -0.014 A 
ATOM     76  C   UNL A   1      40.569  33.311  39.908  1.00  0.00     0.009 A 
ATOM     77  C   UNL A   1      42.038  34.915  38.855  1.00  0.00     0.009 A 
ATOM     78  C   UNL A   1      40.708  33.988  41.123  1.00  0.00     0.001 A 
ATOM     79  C   UNL A   1      42.204  35.568  40.077  1.00  0.00     0.001 A 
ATOM     80  C   UNL A   1      41.532  35.110  41.208  1.00  0.00     0.000 A 
ENDBRANCH  56  75
BRANCH  68  81
ATOM     81  C   UNL A   1      44.590  28.493  35.721  1.00  0.00    -0.014 A 
ATOM     82  C   UNL A   1      45.899  28.892  35.405  1.00  0.00     0.009 A 
ATOM     83  C   UNL A   1      44.397  27.321  36.470  1.00  0.00     0.009 A 
ATOM     84  C   UNL A   1      46.987  28.112  35.801  1.00  0.00     0.001 A 
ATOM     85  C   UNL A   1      45.490  26.561  36.891  1.00  0.00     0.001 A 
ATOM     86  C   UNL A   1      46.783  26.952  36.546  1.00  0.00     0.000 A 
ENDBRANCH  68  81
ENDBRANCH  42  43
ENDBRANCH  35  37
ENDBRANCH  34  35
ENDBRANCH  33  34
ENDBRANCH  32  33
ENDBRANCH  31  32
ENDBRANCH   1  31
TORSDOF 17
ENDMDL
