MODEL 1
REMARK VINA RESULT:     -11.5      0.000      0.000
REMARK SMILES CSc1ccc(/C=C2\C(C)=C(CC(=O)OCCOC(=O)c3ccc(-c4c5nc(c(-c6ccccc6)c6ccc([nH]6)c(-c6ccccc6)c6nc(c(-c7ccccc7)c7ccc4[nH]7)C=C6)C=C5)cc3)c3cc(F)ccc32)cc1
REMARK SMILES IDX 16 1 15 2 13 3 14 4 12 5 11 6 7 7 8 8 9 9 75 10 10 11 69 12
REMARK SMILES IDX 74 13 70 14 73 15 71 16 72 17 6 18 3 19 4 20 77 21 5 22
REMARK SMILES IDX 76 23 2 24 1 25 17 26 18 27 19 28 20 29 21 30 22 31 68 32
REMARK SMILES IDX 23 33 67 34 24 35 25 36 26 37 61 38 27 39 66 40 60 41 62 42
REMARK SMILES IDX 28 43 65 44 59 45 58 46 29 48 51 49 36 50 50 51 37 52 40 53
REMARK SMILES IDX 49 54 63 55 38 56 39 57 48 59 64 60 41 61 30 62 31 63 35 64
REMARK SMILES IDX 32 65 34 66 33 67 52 68 53 69 57 70 54 71 56 72 55 73 42 74
REMARK SMILES IDX 43 75 47 76 44 77 46 78 45 79
REMARK H PARENT 62 47 40 58
REMARK Flexibility Score: inf
ROOT
ATOM      1  C   UNL A   1      37.728  21.442  24.594  1.00  0.00     0.274 C 
ENDROOT
BRANCH   1   2
ATOM      2  O   UNL A   1      37.211  21.961  25.839  1.00  0.00    -0.462 OA
BRANCH   2   3
ATOM      3  C   UNL A   1      37.307  23.310  25.975  1.00  0.00     0.310 C 
ATOM      4  O   UNL A   1      38.319  23.961  25.734  1.00  0.00    -0.252 OA
BRANCH   3   5
ATOM      5  C   UNL A   1      35.988  23.965  26.363  1.00  0.00     0.159 C 
BRANCH   5   6
ATOM      6  C   UNL A   1      35.069  24.529  25.260  1.00  0.00    -0.025 C 
ATOM      7  C   UNL A   1      32.913  21.835  25.439  1.00  0.00     0.017 C 
ATOM      8  C   UNL A   1      33.337  23.101  25.293  1.00  0.00    -0.014 C 
ATOM      9  C   UNL A   1      34.469  23.599  24.467  1.00  0.00    -0.039 C 
ATOM     10  C   UNL A   1      32.813  24.306  25.955  1.00  0.00    -0.010 A 
ATOM     11  C   UNL A   1      34.026  23.960  23.057  1.00  0.00     0.045 C 
ATOM     12  C   UNL A   1      33.857  25.239  25.787  1.00  0.00    -0.011 A 
ATOM     13  C   UNL A   1      31.504  24.697  26.194  1.00  0.00     0.012 A 
ATOM     14  C   UNL A   1      33.578  26.595  25.741  1.00  0.00     0.048 A 
ATOM     15  C   UNL A   1      31.236  26.071  26.205  1.00  0.00     0.040 A 
ATOM     16  C   UNL A   1      32.261  26.996  25.958  1.00  0.00     0.123 A 
ATOM     17  F   UNL A   1      31.949  28.296  25.849  1.00  0.00    -0.207 F 
BRANCH   7  18
ATOM     18  C   UNL A   1      33.254  20.687  24.567  1.00  0.00    -0.025 A 
ATOM     19  C   UNL A   1      33.502  17.987  23.928  1.00  0.00     0.007 A 
ATOM     20  C   UNL A   1      32.434  18.719  23.421  1.00  0.00     0.015 A 
ATOM     21  C   UNL A   1      34.571  18.657  24.521  1.00  0.00     0.015 A 
ATOM     22  C   UNL A   1      32.343  20.080  23.695  1.00  0.00     0.009 A 
ATOM     23  C   UNL A   1      34.447  20.011  24.841  1.00  0.00     0.009 A 
BRANCH  19  24
ATOM     24  S   UNL A   1      33.397  16.212  24.032  1.00  0.00    -0.130 SA
ATOM     25  C   UNL A   1      32.792  16.106  25.750  1.00  0.00     0.091 C 
ENDBRANCH  19  24
ENDBRANCH   7  18
ENDBRANCH   5   6
ENDBRANCH   3   5
ENDBRANCH   2   3
ENDBRANCH   1   2
BRANCH   1  26
ATOM     26  C   UNL A   1      38.260  20.022  24.860  1.00  0.00     0.275 C 
BRANCH  26  27
ATOM     27  O   UNL A   1      39.008  19.771  26.085  1.00  0.00    -0.458 OA
BRANCH  27  28
ATOM     28  C   UNL A   1      40.355  19.809  26.048  1.00  0.00     0.338 C 
ATOM     29  O   UNL A   1      41.087  18.960  25.578  1.00  0.00    -0.246 OA
BRANCH  28  30
ATOM     30  C   UNL A   1      40.981  20.984  26.675  1.00  0.00     0.060 A 
ATOM     31  C   UNL A   1      41.402  21.984  25.779  1.00  0.00     0.016 A 
ATOM     32  C   UNL A   1      41.187  21.138  28.045  1.00  0.00     0.016 A 
ATOM     33  C   UNL A   1      41.995  23.144  26.241  1.00  0.00     0.010 A 
ATOM     34  C   UNL A   1      41.752  22.328  28.516  1.00  0.00     0.010 A 
ATOM     35  C   UNL A   1      42.129  23.341  27.616  1.00  0.00    -0.014 A 
BRANCH  35  36
ATOM     36  C   UNL A   1      42.535  24.679  28.085  1.00  0.00     0.031 A 
ATOM     37  C   UNL A   1      41.522  25.742  28.353  1.00  0.00     0.074 A 
ATOM     38  C   UNL A   1      43.845  24.892  28.306  1.00  0.00     0.049 A 
ATOM     39  N   UNL A   1      41.719  26.977  28.732  1.00  0.00    -0.248 NA
ATOM     40  C   UNL A   1      40.108  25.376  28.178  1.00  0.00     0.031 C 
ATOM     41  C   UNL A   1      44.904  23.893  28.127  1.00  0.00     0.029 A 
ATOM     42  N   UNL A   1      44.508  26.008  28.738  1.00  0.00    -0.354 N 
ATOM     43  C   UNL A   1      40.459  27.547  28.822  1.00  0.00     0.074 A 
ATOM     44  C   UNL A   1      39.502  26.522  28.456  1.00  0.00     0.031 C 
ATOM     45  C   UNL A   1      46.082  24.441  28.455  1.00  0.00     0.029 A 
ATOM     46  C   UNL A   1      45.868  25.838  28.811  1.00  0.00     0.049 A 
ATOM     47  H   UNL A   1      44.056  26.851  28.973  1.00  0.00     0.167 HD
ATOM     48  C   UNL A   1      40.141  28.815  29.171  1.00  0.00     0.031 A 
ATOM     49  C   UNL A   1      46.841  26.719  29.100  1.00  0.00     0.031 A 
ATOM     50  C   UNL A   1      41.107  29.825  29.523  1.00  0.00     0.049 A 
ATOM     51  C   UNL A   1      46.461  28.132  29.422  1.00  0.00     0.074 A 
ATOM     52  C   UNL A   1      40.884  31.139  29.895  1.00  0.00     0.029 A 
ATOM     53  N   UNL A   1      42.480  29.631  29.543  1.00  0.00    -0.354 N 
ATOM     54  N   UNL A   1      45.265  28.665  29.494  1.00  0.00    -0.248 NA
ATOM     55  C   UNL A   1      47.559  29.065  29.699  1.00  0.00     0.031 C 
ATOM     56  C   UNL A   1      42.125  31.753  30.094  1.00  0.00     0.029 A 
ATOM     57  C   UNL A   1      43.119  30.808  29.895  1.00  0.00     0.049 A 
ATOM     58  H   UNL A   1      42.934  28.782  29.337  1.00  0.00     0.167 HD
ATOM     59  C   UNL A   1      45.464  29.993  29.836  1.00  0.00     0.074 A 
ATOM     60  C   UNL A   1      46.895  30.179  29.975  1.00  0.00     0.031 C 
ATOM     61  C   UNL A   1      44.544  30.972  30.015  1.00  0.00     0.031 A 
BRANCH  48  62
ATOM     62  C   UNL A   1      38.690  29.199  29.139  1.00  0.00    -0.014 A 
ATOM     63  C   UNL A   1      37.877  29.081  30.276  1.00  0.00     0.009 A 
ATOM     64  C   UNL A   1      38.141  29.728  27.960  1.00  0.00     0.009 A 
ATOM     65  C   UNL A   1      36.535  29.467  30.226  1.00  0.00     0.001 A 
ATOM     66  C   UNL A   1      36.806  30.134  27.920  1.00  0.00     0.001 A 
ATOM     67  C   UNL A   1      36.002  29.996  29.050  1.00  0.00     0.000 A 
ENDBRANCH  48  62
BRANCH  49  68
ATOM     68  C   UNL A   1      48.260  26.290  29.049  1.00  0.00    -0.014 A 
ATOM     69  C   UNL A   1      48.989  26.366  27.854  1.00  0.00     0.009 A 
ATOM     70  C   UNL A   1      48.902  25.831  30.212  1.00  0.00     0.009 A 
ATOM     71  C   UNL A   1      50.331  25.978  27.822  1.00  0.00     0.001 A 
ATOM     72  C   UNL A   1      50.249  25.471  30.183  1.00  0.00     0.001 A 
ATOM     73  C   UNL A   1      50.961  25.538  28.987  1.00  0.00     0.000 A 
ENDBRANCH  49  68
BRANCH  61  74
ATOM     74  C   UNL A   1      45.068  32.325  30.400  1.00  0.00    -0.014 A 
ATOM     75  C   UNL A   1      45.415  33.272  29.425  1.00  0.00     0.009 A 
ATOM     76  C   UNL A   1      45.194  32.661  31.756  1.00  0.00     0.009 A 
ATOM     77  C   UNL A   1      45.909  34.521  29.803  1.00  0.00     0.001 A 
ATOM     78  C   UNL A   1      45.664  33.919  32.130  1.00  0.00     0.001 A 
ATOM     79  C   UNL A   1      46.029  34.845  31.154  1.00  0.00     0.000 A 
ENDBRANCH  61  74
ENDBRANCH  35  36
ENDBRANCH  28  30
ENDBRANCH  27  28
ENDBRANCH  26  27
ENDBRANCH   1  26
TORSDOF 14
ENDMDL
MODEL 2
REMARK VINA RESULT:     -11.3      2.297      4.039
REMARK SMILES CSc1ccc(/C=C2\C(C)=C(CC(=O)OCCOC(=O)c3ccc(-c4c5nc(c(-c6ccccc6)c6ccc([nH]6)c(-c6ccccc6)c6nc(c(-c7ccccc7)c7ccc4[nH]7)C=C6)C=C5)cc3)c3cc(F)ccc32)cc1
REMARK SMILES IDX 16 1 15 2 13 3 14 4 12 5 11 6 7 7 8 8 9 9 75 10 10 11 69 12
REMARK SMILES IDX 74 13 70 14 73 15 71 16 72 17 6 18 3 19 4 20 77 21 5 22
REMARK SMILES IDX 76 23 2 24 1 25 17 26 18 27 19 28 20 29 21 30 22 31 68 32
REMARK SMILES IDX 23 33 67 34 24 35 25 36 26 37 61 38 27 39 66 40 60 41 62 42
REMARK SMILES IDX 28 43 65 44 59 45 58 46 29 48 51 49 36 50 50 51 37 52 40 53
REMARK SMILES IDX 49 54 63 55 38 56 39 57 48 59 64 60 41 61 30 62 31 63 35 64
REMARK SMILES IDX 32 65 34 66 33 67 52 68 53 69 57 70 54 71 56 72 55 73 42 74
REMARK SMILES IDX 43 75 47 76 44 77 46 78 45 79
REMARK H PARENT 62 47 40 58
REMARK Flexibility Score: inf
ROOT
ATOM      1  C   UNL A   1      38.137  21.397  25.235  1.00  0.00     0.274 C 
ENDROOT
BRANCH   1   2
ATOM      2  O   UNL A   1      37.032  21.452  24.307  1.00  0.00    -0.462 OA
BRANCH   2   3
ATOM      3  C   UNL A   1      36.683  22.704  23.913  1.00  0.00     0.310 C 
ATOM      4  O   UNL A   1      36.830  23.140  22.774  1.00  0.00    -0.252 OA
BRANCH   3   5
ATOM      5  C   UNL A   1      35.984  23.500  25.007  1.00  0.00     0.159 C 
BRANCH   5   6
ATOM      6  C   UNL A   1      34.558  23.101  25.440  1.00  0.00    -0.025 C 
ATOM      7  C   UNL A   1      33.082  25.199  23.124  1.00  0.00     0.017 C 
ATOM      8  C   UNL A   1      33.279  24.122  23.903  1.00  0.00    -0.014 C 
ATOM      9  C   UNL A   1      33.622  24.086  25.349  1.00  0.00    -0.039 C 
ATOM     10  C   UNL A   1      33.251  22.707  23.501  1.00  0.00    -0.010 A 
ATOM     11  C   UNL A   1      32.379  24.050  26.226  1.00  0.00     0.045 C 
ATOM     12  C   UNL A   1      33.926  22.064  24.559  1.00  0.00    -0.011 A 
ATOM     13  C   UNL A   1      32.373  22.031  22.667  1.00  0.00     0.012 A 
ATOM     14  C   UNL A   1      33.638  20.746  24.870  1.00  0.00     0.048 A 
ATOM     15  C   UNL A   1      32.129  20.682  22.948  1.00  0.00     0.040 A 
ATOM     16  C   UNL A   1      32.740  20.065  24.049  1.00  0.00     0.123 A 
ATOM     17  F   UNL A   1      32.388  18.810  24.368  1.00  0.00    -0.207 F 
BRANCH   7  18
ATOM     18  C   UNL A   1      32.833  26.584  23.587  1.00  0.00    -0.025 A 
ATOM     19  C   UNL A   1      32.392  28.568  25.492  1.00  0.00     0.007 A 
ATOM     20  C   UNL A   1      33.649  28.439  24.911  1.00  0.00     0.015 A 
ATOM     21  C   UNL A   1      31.307  27.895  24.934  1.00  0.00     0.015 A 
ATOM     22  C   UNL A   1      33.851  27.485  23.919  1.00  0.00     0.009 A 
ATOM     23  C   UNL A   1      31.527  26.899  23.979  1.00  0.00     0.009 A 
BRANCH  19  24
ATOM     24  S   UNL A   1      32.217  29.391  27.061  1.00  0.00    -0.130 SA
ATOM     25  C   UNL A   1      33.934  29.989  27.213  1.00  0.00     0.091 C 
ENDBRANCH  19  24
ENDBRANCH   7  18
ENDBRANCH   5   6
ENDBRANCH   3   5
ENDBRANCH   2   3
ENDBRANCH   1   2
BRANCH   1  26
ATOM     26  C   UNL A   1      38.812  20.021  25.085  1.00  0.00     0.275 C 
BRANCH  26  27
ATOM     27  O   UNL A   1      39.631  19.519  26.182  1.00  0.00    -0.458 OA
BRANCH  27  28
ATOM     28  C   UNL A   1      40.973  19.561  26.067  1.00  0.00     0.338 C 
ATOM     29  O   UNL A   1      41.685  18.688  25.610  1.00  0.00    -0.246 OA
BRANCH  28  30
ATOM     30  C   UNL A   1      41.623  20.775  26.585  1.00  0.00     0.060 A 
ATOM     31  C   UNL A   1      41.978  21.724  25.608  1.00  0.00     0.016 A 
ATOM     32  C   UNL A   1      41.911  21.011  27.929  1.00  0.00     0.016 A 
ATOM     33  C   UNL A   1      42.585  22.914  25.963  1.00  0.00     0.010 A 
ATOM     34  C   UNL A   1      42.490  22.231  28.293  1.00  0.00     0.010 A 
ATOM     35  C   UNL A   1      42.800  23.193  27.314  1.00  0.00    -0.014 A 
BRANCH  35  36
ATOM     36  C   UNL A   1      43.219  24.559  27.678  1.00  0.00     0.031 A 
ATOM     37  C   UNL A   1      42.224  25.576  28.128  1.00  0.00     0.074 A 
ATOM     38  C   UNL A   1      44.534  24.841  27.634  1.00  0.00     0.049 A 
ATOM     39  N   UNL A   1      42.426  26.827  28.447  1.00  0.00    -0.248 NA
ATOM     40  C   UNL A   1      40.825  25.136  28.240  1.00  0.00     0.031 C 
ATOM     41  C   UNL A   1      45.589  23.893  27.260  1.00  0.00     0.029 A 
ATOM     42  N   UNL A   1      45.210  25.998  27.913  1.00  0.00    -0.354 N 
ATOM     43  C   UNL A   1      41.180  27.336  28.777  1.00  0.00     0.074 A 
ATOM     44  C   UNL A   1      40.226  26.257  28.619  1.00  0.00     0.031 C 
ATOM     45  C   UNL A   1      46.778  24.505  27.343  1.00  0.00     0.029 A 
ATOM     46  C   UNL A   1      46.564  25.897  27.718  1.00  0.00     0.049 A 
ATOM     47  H   UNL A   1      44.768  26.822  28.223  1.00  0.00     0.167 HD
ATOM     48  C   UNL A   1      40.870  28.594  29.167  1.00  0.00     0.031 A 
ATOM     49  C   UNL A   1      47.527  26.832  27.799  1.00  0.00     0.031 A 
ATOM     50  C   UNL A   1      41.832  29.657  29.310  1.00  0.00     0.049 A 
ATOM     51  C   UNL A   1      47.143  28.230  28.173  1.00  0.00     0.074 A 
ATOM     52  C   UNL A   1      41.617  30.967  29.704  1.00  0.00     0.029 A 
ATOM     53  N   UNL A   1      43.191  29.533  29.060  1.00  0.00    -0.354 N 
ATOM     54  N   UNL A   1      45.959  28.704  28.474  1.00  0.00    -0.248 NA
ATOM     55  C   UNL A   1      48.224  29.222  28.217  1.00  0.00     0.031 C 
ATOM     56  C   UNL A   1      42.839  31.646  29.646  1.00  0.00     0.029 A 
ATOM     57  C   UNL A   1      43.823  30.747  29.266  1.00  0.00     0.049 A 
ATOM     58  H   UNL A   1      43.639  28.702  28.779  1.00  0.00     0.167 HD
ATOM     59  C   UNL A   1      46.151  30.048  28.754  1.00  0.00     0.074 A 
ATOM     60  C   UNL A   1      47.569  30.308  28.606  1.00  0.00     0.031 C 
ATOM     61  C   UNL A   1      45.233  30.984  29.100  1.00  0.00     0.031 A 
BRANCH  48  62
ATOM     62  C   UNL A   1      39.423  28.904  29.418  1.00  0.00    -0.014 A 
ATOM     63  C   UNL A   1      38.852  28.753  30.690  1.00  0.00     0.009 A 
ATOM     64  C   UNL A   1      38.630  29.398  28.370  1.00  0.00     0.009 A 
ATOM     65  C   UNL A   1      37.508  29.072  30.902  1.00  0.00     0.001 A 
ATOM     66  C   UNL A   1      37.295  29.736  28.589  1.00  0.00     0.001 A 
ATOM     67  C   UNL A   1      36.733  29.566  29.854  1.00  0.00     0.000 A 
ENDBRANCH  48  62
BRANCH  49  68
ATOM     68  C   UNL A   1      48.929  26.472  27.473  1.00  0.00    -0.014 A 
ATOM     69  C   UNL A   1      49.812  26.052  28.478  1.00  0.00     0.009 A 
ATOM     70  C   UNL A   1      49.379  26.515  26.143  1.00  0.00     0.009 A 
ATOM     71  C   UNL A   1      51.125  25.696  28.157  1.00  0.00     0.001 A 
ATOM     72  C   UNL A   1      50.682  26.133  25.822  1.00  0.00     0.001 A 
ATOM     73  C   UNL A   1      51.556  25.730  26.830  1.00  0.00     0.000 A 
ENDBRANCH  49  68
BRANCH  61  74
ATOM     74  C   UNL A   1      45.751  32.369  29.359  1.00  0.00    -0.014 A 
ATOM     75  C   UNL A   1      45.824  33.319  28.328  1.00  0.00     0.009 A 
ATOM     76  C   UNL A   1      46.147  32.732  30.654  1.00  0.00     0.009 A 
ATOM     77  C   UNL A   1      46.316  34.599  28.586  1.00  0.00     0.001 A 
ATOM     78  C   UNL A   1      46.615  34.020  30.914  1.00  0.00     0.001 A 
ATOM     79  C   UNL A   1      46.707  34.949  29.879  1.00  0.00     0.000 A 
ENDBRANCH  61  74
ENDBRANCH  35  36
ENDBRANCH  28  30
ENDBRANCH  27  28
ENDBRANCH  26  27
ENDBRANCH   1  26
TORSDOF 14
ENDMDL
MODEL 3
REMARK VINA RESULT:     -11.2      4.685      8.422
REMARK SMILES CSc1ccc(/C=C2\C(C)=C(CC(=O)OCCOC(=O)c3ccc(-c4c5nc(c(-c6ccccc6)c6ccc([nH]6)c(-c6ccccc6)c6nc(c(-c7ccccc7)c7ccc4[nH]7)C=C6)C=C5)cc3)c3cc(F)ccc32)cc1
REMARK SMILES IDX 16 1 15 2 13 3 14 4 12 5 11 6 7 7 8 8 9 9 75 10 10 11 69 12
REMARK SMILES IDX 74 13 70 14 73 15 71 16 72 17 6 18 3 19 4 20 77 21 5 22
REMARK SMILES IDX 76 23 2 24 1 25 17 26 18 27 19 28 20 29 21 30 22 31 68 32
REMARK SMILES IDX 23 33 67 34 24 35 25 36 26 37 61 38 27 39 66 40 60 41 62 42
REMARK SMILES IDX 28 43 65 44 59 45 58 46 29 48 51 49 36 50 50 51 37 52 40 53
REMARK SMILES IDX 49 54 63 55 38 56 39 57 48 59 64 60 41 61 30 62 31 63 35 64
REMARK SMILES IDX 32 65 34 66 33 67 52 68 53 69 57 70 54 71 56 72 55 73 42 74
REMARK SMILES IDX 43 75 47 76 44 77 46 78 45 79
REMARK H PARENT 62 47 40 58
REMARK Flexibility Score: inf
ROOT
ATOM      1  C   UNL A   1      32.707  31.003  27.133  1.00  0.00     0.274 C 
ENDROOT
BRANCH   1   2
ATOM      2  O   UNL A   1      31.683  29.987  27.065  1.00  0.00    -0.462 OA
BRANCH   2   3
ATOM      3  C   UNL A   1      32.144  28.710  27.135  1.00  0.00     0.310 C 
ATOM      4  O   UNL A   1      31.687  27.848  27.882  1.00  0.00    -0.252 OA
BRANCH   3   5
ATOM      5  C   UNL A   1      33.231  28.412  26.112  1.00  0.00     0.159 C 
BRANCH   5   6
ATOM      6  C   UNL A   1      32.840  28.176  24.639  1.00  0.00    -0.025 C 
ATOM      7  C   UNL A   1      33.322  24.763  24.876  1.00  0.00     0.017 C 
ATOM      8  C   UNL A   1      32.786  25.936  24.502  1.00  0.00    -0.014 C 
ATOM      9  C   UNL A   1      33.489  27.154  24.018  1.00  0.00    -0.039 C 
ATOM     10  C   UNL A   1      31.366  26.322  24.524  1.00  0.00    -0.010 A 
ATOM     11  C   UNL A   1      33.652  27.151  22.505  1.00  0.00     0.045 C 
ATOM     12  C   UNL A   1      31.419  27.730  24.454  1.00  0.00    -0.011 A 
ATOM     13  C   UNL A   1      30.238  25.607  24.151  1.00  0.00     0.012 A 
ATOM     14  C   UNL A   1      30.371  28.439  23.892  1.00  0.00     0.048 A 
ATOM     15  C   UNL A   1      29.158  26.332  23.637  1.00  0.00     0.040 A 
ATOM     16  C   UNL A   1      29.242  27.725  23.493  1.00  0.00     0.123 A 
ATOM     17  F   UNL A   1      28.242  28.376  22.881  1.00  0.00    -0.207 F 
BRANCH   7  18
ATOM     18  C   UNL A   1      34.696  24.292  24.585  1.00  0.00    -0.025 A 
ATOM     19  C   UNL A   1      36.832  22.508  24.704  1.00  0.00     0.007 A 
ATOM     20  C   UNL A   1      36.058  22.580  23.550  1.00  0.00     0.015 A 
ATOM     21  C   UNL A   1      36.707  23.499  25.675  1.00  0.00     0.015 A 
ATOM     22  C   UNL A   1      35.028  23.511  23.472  1.00  0.00     0.009 A 
ATOM     23  C   UNL A   1      35.636  24.394  25.616  1.00  0.00     0.009 A 
BRANCH  19  24
ATOM     24  S   UNL A   1      37.793  21.047  25.041  1.00  0.00    -0.130 SA
ATOM     25  C   UNL A   1      39.056  21.830  26.100  1.00  0.00     0.091 C 
ENDBRANCH  19  24
ENDBRANCH   7  18
ENDBRANCH   5   6
ENDBRANCH   3   5
ENDBRANCH   2   3
ENDBRANCH   1   2
BRANCH   1  26
ATOM     26  C   UNL A   1      32.008  32.370  27.248  1.00  0.00     0.275 C 
BRANCH  26  27
ATOM     27  O   UNL A   1      32.822  33.579  27.202  1.00  0.00    -0.458 OA
BRANCH  27  28
ATOM     28  C   UNL A   1      33.145  34.194  28.357  1.00  0.00     0.338 C 
ATOM     29  O   UNL A   1      32.529  35.096  28.889  1.00  0.00    -0.246 OA
BRANCH  28  30
ATOM     30  C   UNL A   1      34.388  33.738  28.999  1.00  0.00     0.060 A 
ATOM     31  C   UNL A   1      34.209  32.927  30.136  1.00  0.00     0.016 A 
ATOM     32  C   UNL A   1      35.672  34.073  28.572  1.00  0.00     0.016 A 
ATOM     33  C   UNL A   1      35.296  32.424  30.825  1.00  0.00     0.010 A 
ATOM     34  C   UNL A   1      36.773  33.532  29.246  1.00  0.00     0.010 A 
ATOM     35  C   UNL A   1      36.583  32.686  30.354  1.00  0.00    -0.014 A 
BRANCH  35  36
ATOM     36  C   UNL A   1      37.703  31.941  30.958  1.00  0.00     0.031 A 
ATOM     37  C   UNL A   1      38.161  32.230  32.349  1.00  0.00     0.074 A 
ATOM     38  C   UNL A   1      38.267  30.962  30.227  1.00  0.00     0.049 A 
ATOM     39  N   UNL A   1      39.152  31.691  33.008  1.00  0.00    -0.248 NA
ATOM     40  C   UNL A   1      37.411  33.248  33.099  1.00  0.00     0.031 C 
ATOM     41  C   UNL A   1      37.849  30.569  28.877  1.00  0.00     0.029 A 
ATOM     42  N   UNL A   1      39.302  30.114  30.515  1.00  0.00    -0.354 N 
ATOM     43  C   UNL A   1      39.165  32.316  34.244  1.00  0.00     0.074 A 
ATOM     44  C   UNL A   1      38.081  33.279  34.244  1.00  0.00     0.031 C 
ATOM     45  C   UNL A   1      38.614  29.551  28.460  1.00  0.00     0.029 A 
ATOM     46  C   UNL A   1      39.608  29.260  29.486  1.00  0.00     0.049 A 
ATOM     47  H   UNL A   1      39.779  30.116  31.376  1.00  0.00     0.167 HD
ATOM     48  C   UNL A   1      40.013  32.106  35.277  1.00  0.00     0.031 A 
ATOM     49  C   UNL A   1      40.603  28.364  29.366  1.00  0.00     0.031 A 
ATOM     50  C   UNL A   1      41.092  31.151  35.256  1.00  0.00     0.049 A 
ATOM     51  C   UNL A   1      41.564  28.198  30.502  1.00  0.00     0.074 A 
ATOM     52  C   UNL A   1      42.006  30.861  36.254  1.00  0.00     0.029 A 
ATOM     53  N   UNL A   1      41.403  30.334  34.179  1.00  0.00    -0.354 N 
ATOM     54  N   UNL A   1      41.573  28.803  31.665  1.00  0.00    -0.248 NA
ATOM     55  C   UNL A   1      42.651  27.231  30.312  1.00  0.00     0.031 C 
ATOM     56  C   UNL A   1      42.899  29.902  35.763  1.00  0.00     0.029 A 
ATOM     57  C   UNL A   1      42.510  29.558  34.478  1.00  0.00     0.049 A 
ATOM     58  H   UNL A   1      40.909  30.309  33.328  1.00  0.00     0.167 HD
ATOM     59  C   UNL A   1      42.660  28.284  32.352  1.00  0.00     0.074 A 
ATOM     60  C   UNL A   1      43.273  27.301  31.481  1.00  0.00     0.031 C 
ATOM     61  C   UNL A   1      43.110  28.596  33.591  1.00  0.00     0.031 A 
BRANCH  48  62
ATOM     62  C   UNL A   1      39.842  32.961  36.499  1.00  0.00    -0.014 A 
ATOM     63  C   UNL A   1      38.881  32.658  37.475  1.00  0.00     0.009 A 
ATOM     64  C   UNL A   1      40.690  34.063  36.695  1.00  0.00     0.009 A 
ATOM     65  C   UNL A   1      38.759  33.457  38.615  1.00  0.00     0.001 A 
ATOM     66  C   UNL A   1      40.580  34.846  37.845  1.00  0.00     0.001 A 
ATOM     67  C   UNL A   1      39.610  34.546  38.801  1.00  0.00     0.000 A 
ENDBRANCH  48  62
BRANCH  49  68
ATOM     68  C   UNL A   1      40.754  27.599  28.103  1.00  0.00    -0.014 A 
ATOM     69  C   UNL A   1      41.530  28.101  27.050  1.00  0.00     0.009 A 
ATOM     70  C   UNL A   1      40.144  26.341  27.963  1.00  0.00     0.009 A 
ATOM     71  C   UNL A   1      41.681  27.362  25.873  1.00  0.00     0.001 A 
ATOM     72  C   UNL A   1      40.320  25.594  26.799  1.00  0.00     0.001 A 
ATOM     73  C   UNL A   1      41.082  26.108  25.751  1.00  0.00     0.000 A 
ENDBRANCH  49  68
BRANCH  61  74
ATOM     74  C   UNL A   1      44.316  27.845  34.077  1.00  0.00    -0.014 A 
ATOM     75  C   UNL A   1      44.184  26.615  34.740  1.00  0.00     0.009 A 
ATOM     76  C   UNL A   1      45.598  28.365  33.846  1.00  0.00     0.009 A 
ATOM     77  C   UNL A   1      45.316  25.936  35.192  1.00  0.00     0.001 A 
ATOM     78  C   UNL A   1      46.728  27.671  34.278  1.00  0.00     0.001 A 
ATOM     79  C   UNL A   1      46.586  26.462  34.957  1.00  0.00     0.000 A 
ENDBRANCH  61  74
ENDBRANCH  35  36
ENDBRANCH  28  30
ENDBRANCH  27  28
ENDBRANCH  26  27
ENDBRANCH   1  26
TORSDOF 14
ENDMDL
