MODEL 1
REMARK VINA RESULT:     -11.5      0.000      0.000
REMARK SMILES Cc1cc(OC(F)(F)F)cc2c1O[C@H](C(F)(F)F)C(C(=O)OCCOC(=O)c1ccc(-c3c4nc(c(-c5ccccc5)c5ccc([nH]5)c(-c5ccccc5)c5nc(c(-c6ccccc6)c6ccc3[nH]6)C=C5)C=C4)cc1)=C2
REMARK SMILES IDX 23 1 22 2 20 3 21 4 19 5 1 6 2 7 3 8 12 9 4 10 11 11 13 12
REMARK SMILES IDX 10 13 76 14 14 15 5 16 6 17 7 18 8 19 9 20 15 21 16 22 17 23
REMARK SMILES IDX 18 24 24 25 25 26 26 27 27 28 28 29 29 30 75 31 30 32 74 33
REMARK SMILES IDX 31 34 32 35 33 36 68 37 34 38 73 39 67 40 69 41 35 42 72 43
REMARK SMILES IDX 66 44 65 45 36 47 58 48 43 49 57 50 44 51 47 52 56 53 70 54
REMARK SMILES IDX 45 55 46 56 55 58 71 59 48 60 37 61 38 62 42 63 39 64 41 65
REMARK SMILES IDX 40 66 59 67 60 68 64 69 61 70 63 71 62 72 49 73 50 74 54 75
REMARK SMILES IDX 51 76 53 77 52 78
REMARK H PARENT 69 46 47 57
REMARK Flexibility Score: inf
ROOT
ATOM      1  C   UNL A   1      31.372  29.500  24.869  1.00  0.00     0.275 C 
ENDROOT
BRANCH   1   2
ATOM      2  O   UNL A   1      32.132  28.390  25.395  1.00  0.00    -0.459 OA
BRANCH   2   3
ATOM      3  C   UNL A   1      33.183  27.989  24.639  1.00  0.00     0.338 C 
ATOM      4  O   UNL A   1      34.066  28.691  24.186  1.00  0.00    -0.246 OA
BRANCH   3   5
ATOM      5  C   UNL A   1      33.143  26.523  24.459  1.00  0.00     0.087 C 
ATOM      6  C   UNL A   1      32.198  21.745  22.827  1.00  0.00     0.048 C 
ATOM      7  C   UNL A   1      33.208  22.404  23.725  1.00  0.00    -0.005 A 
ATOM      8  C   UNL A   1      34.273  21.637  24.241  1.00  0.00     0.054 A 
ATOM      9  C   UNL A   1      33.155  23.781  23.992  1.00  0.00     0.131 A 
ATOM     10  C   UNL A   1      35.256  22.224  25.038  1.00  0.00     0.130 A 
ATOM     11  C   UNL A   1      34.150  24.372  24.770  1.00  0.00     0.021 A 
ATOM     12  O   UNL A   1      32.101  24.481  23.474  1.00  0.00    -0.475 OA
ATOM     13  C   UNL A   1      35.184  23.593  25.302  1.00  0.00     0.058 A 
ATOM     14  C   UNL A   1      34.131  25.804  25.002  1.00  0.00     0.027 C 
ATOM     15  C   UNL A   1      32.067  25.928  23.598  1.00  0.00     0.316 C 
BRANCH  10  16
ATOM     16  O   UNL A   1      36.326  21.598  25.608  1.00  0.00    -0.406 OA
BRANCH  16  17
ATOM     17  C   UNL A   1      37.467  21.365  24.802  1.00  0.00     0.573 C 
ATOM     18  F   UNL A   1      37.703  20.043  24.664  1.00  0.00    -0.132 F 
ATOM     19  F   UNL A   1      37.325  21.926  23.582  1.00  0.00    -0.132 F 
ATOM     20  F   UNL A   1      38.544  21.923  25.399  1.00  0.00    -0.132 F 
ENDBRANCH  16  17
ENDBRANCH  10  16
BRANCH  15  21
ATOM     21  C   UNL A   1      32.083  26.535  22.186  1.00  0.00     0.430 C 
ATOM     22  F   UNL A   1      31.536  25.691  21.279  1.00  0.00    -0.167 F 
ATOM     23  F   UNL A   1      31.365  27.684  22.125  1.00  0.00    -0.167 F 
ATOM     24  F   UNL A   1      33.338  26.822  21.770  1.00  0.00    -0.167 F 
ENDBRANCH  15  21
ENDBRANCH   3   5
ENDBRANCH   2   3
ENDBRANCH   1   2
BRANCH   1  25
ATOM     25  C   UNL A   1      31.463  30.713  25.794  1.00  0.00     0.275 C 
BRANCH  25  26
ATOM     26  O   UNL A   1      32.435  30.477  26.828  1.00  0.00    -0.458 OA
BRANCH  26  27
ATOM     27  C   UNL A   1      33.101  31.573  27.252  1.00  0.00     0.338 C 
ATOM     28  O   UNL A   1      32.670  32.709  27.366  1.00  0.00    -0.246 OA
BRANCH  27  29
ATOM     29  C   UNL A   1      34.475  31.216  27.635  1.00  0.00     0.060 A 
ATOM     30  C   UNL A   1      34.800  29.880  27.852  1.00  0.00     0.016 A 
ATOM     31  C   UNL A   1      35.380  32.222  27.969  1.00  0.00     0.016 A 
ATOM     32  C   UNL A   1      35.960  29.552  28.547  1.00  0.00     0.010 A 
ATOM     33  C   UNL A   1      36.603  31.880  28.553  1.00  0.00     0.010 A 
ATOM     34  C   UNL A   1      36.879  30.546  28.905  1.00  0.00    -0.014 A 
BRANCH  34  35
ATOM     35  C   UNL A   1      38.099  30.213  29.690  1.00  0.00     0.031 A 
ATOM     36  C   UNL A   1      39.189  29.375  29.068  1.00  0.00     0.074 A 
ATOM     37  C   UNL A   1      38.249  30.663  30.952  1.00  0.00     0.049 A 
ATOM     38  N   UNL A   1      40.223  28.812  29.640  1.00  0.00    -0.248 NA
ATOM     39  C   UNL A   1      39.103  29.133  27.618  1.00  0.00     0.031 C 
ATOM     40  C   UNL A   1      37.317  31.544  31.658  1.00  0.00     0.029 A 
ATOM     41  N   UNL A   1      39.251  30.443  31.864  1.00  0.00    -0.354 N 
ATOM     42  C   UNL A   1      40.876  28.109  28.635  1.00  0.00     0.074 A 
ATOM     43  C   UNL A   1      40.124  28.311  27.416  1.00  0.00     0.031 C 
ATOM     44  C   UNL A   1      37.808  31.820  32.875  1.00  0.00     0.029 A 
ATOM     45  C   UNL A   1      39.038  31.063  33.072  1.00  0.00     0.049 A 
ATOM     46  H   UNL A   1      40.046  29.895  31.672  1.00  0.00     0.167 HD
ATOM     47  C   UNL A   1      42.002  27.362  28.721  1.00  0.00     0.031 A 
ATOM     48  C   UNL A   1      39.723  30.995  34.230  1.00  0.00     0.031 A 
ATOM     49  C   UNL A   1      42.777  27.203  29.921  1.00  0.00     0.049 A 
ATOM     50  C   UNL A   1      40.925  30.104  34.324  1.00  0.00     0.074 A 
ATOM     51  C   UNL A   1      43.937  26.470  30.102  1.00  0.00     0.029 A 
ATOM     52  N   UNL A   1      42.483  27.800  31.136  1.00  0.00    -0.354 N 
ATOM     53  N   UNL A   1      41.486  29.381  33.386  1.00  0.00    -0.248 NA
ATOM     54  C   UNL A   1      41.574  29.998  35.638  1.00  0.00     0.031 C 
ATOM     55  C   UNL A   1      44.324  26.591  31.438  1.00  0.00     0.029 A 
ATOM     56  C   UNL A   1      43.431  27.437  32.077  1.00  0.00     0.049 A 
ATOM     57  H   UNL A   1      41.716  28.393  31.305  1.00  0.00     0.167 HD
ATOM     58  C   UNL A   1      42.557  28.740  33.993  1.00  0.00     0.074 A 
ATOM     59  C   UNL A   1      42.577  29.169  35.375  1.00  0.00     0.031 C 
ATOM     60  C   UNL A   1      43.438  27.869  33.448  1.00  0.00     0.031 A 
BRANCH  47  61
ATOM     61  C   UNL A   1      42.468  26.636  27.494  1.00  0.00    -0.014 A 
ATOM     62  C   UNL A   1      41.997  25.353  27.183  1.00  0.00     0.009 A 
ATOM     63  C   UNL A   1      43.311  27.292  26.581  1.00  0.00     0.009 A 
ATOM     64  C   UNL A   1      42.366  24.738  25.984  1.00  0.00     0.001 A 
ATOM     65  C   UNL A   1      43.661  26.684  25.375  1.00  0.00     0.001 A 
ATOM     66  C   UNL A   1      43.189  25.407  25.078  1.00  0.00     0.000 A 
ENDBRANCH  47  61
BRANCH  48  67
ATOM     67  C   UNL A   1      39.243  31.768  35.404  1.00  0.00    -0.014 A 
ATOM     68  C   UNL A   1      39.682  33.083  35.614  1.00  0.00     0.009 A 
ATOM     69  C   UNL A   1      38.298  31.217  36.285  1.00  0.00     0.009 A 
ATOM     70  C   UNL A   1      39.181  33.832  36.681  1.00  0.00     0.001 A 
ATOM     71  C   UNL A   1      37.781  31.976  37.335  1.00  0.00     0.001 A 
ATOM     72  C   UNL A   1      38.224  33.282  37.533  1.00  0.00     0.000 A 
ENDBRANCH  48  67
BRANCH  60  73
ATOM     73  C   UNL A   1      44.517  27.320  34.333  1.00  0.00    -0.014 A 
ATOM     74  C   UNL A   1      45.715  28.024  34.523  1.00  0.00     0.009 A 
ATOM     75  C   UNL A   1      44.282  26.151  35.073  1.00  0.00     0.009 A 
ATOM     76  C   UNL A   1      46.662  27.562  35.438  1.00  0.00     0.001 A 
ATOM     77  C   UNL A   1      45.223  25.704  36.002  1.00  0.00     0.001 A 
ATOM     78  C   UNL A   1      46.412  26.410  36.183  1.00  0.00     0.000 A 
ENDBRANCH  60  73
ENDBRANCH  34  35
ENDBRANCH  27  29
ENDBRANCH  26  27
ENDBRANCH  25  26
ENDBRANCH   1  25
TORSDOF 14
ENDMDL
MODEL 2
REMARK VINA RESULT:     -11.5      3.756      8.886
REMARK SMILES Cc1cc(OC(F)(F)F)cc2c1O[C@H](C(F)(F)F)C(C(=O)OCCOC(=O)c1ccc(-c3c4nc(c(-c5ccccc5)c5ccc([nH]5)c(-c5ccccc5)c5nc(c(-c6ccccc6)c6ccc3[nH]6)C=C5)C=C4)cc1)=C2
REMARK SMILES IDX 23 1 22 2 20 3 21 4 19 5 1 6 2 7 3 8 12 9 4 10 11 11 13 12
REMARK SMILES IDX 10 13 76 14 14 15 5 16 6 17 7 18 8 19 9 20 15 21 16 22 17 23
REMARK SMILES IDX 18 24 24 25 25 26 26 27 27 28 28 29 29 30 75 31 30 32 74 33
REMARK SMILES IDX 31 34 32 35 33 36 68 37 34 38 73 39 67 40 69 41 35 42 72 43
REMARK SMILES IDX 66 44 65 45 36 47 58 48 43 49 57 50 44 51 47 52 56 53 70 54
REMARK SMILES IDX 45 55 46 56 55 58 71 59 48 60 37 61 38 62 42 63 39 64 41 65
REMARK SMILES IDX 40 66 59 67 60 68 64 69 61 70 63 71 62 72 49 73 50 74 54 75
REMARK SMILES IDX 51 76 53 77 52 78
REMARK H PARENT 69 46 47 57
REMARK Flexibility Score: inf
ROOT
ATOM      1  C   UNL A   1      35.205  20.864  25.172  1.00  0.00     0.275 C 
ENDROOT
BRANCH   1   2
ATOM      2  O   UNL A   1      35.073  22.278  24.913  1.00  0.00    -0.459 OA
BRANCH   2   3
ATOM      3  C   UNL A   1      34.659  23.030  25.962  1.00  0.00     0.338 C 
ATOM      4  O   UNL A   1      35.025  22.936  27.117  1.00  0.00    -0.246 OA
BRANCH   3   5
ATOM      5  C   UNL A   1      33.694  24.049  25.501  1.00  0.00     0.087 C 
ATOM      6  C   UNL A   1      29.505  26.563  23.913  1.00  0.00     0.048 C 
ATOM      7  C   UNL A   1      30.853  26.941  24.461  1.00  0.00    -0.005 A 
ATOM      8  C   UNL A   1      31.126  28.295  24.741  1.00  0.00     0.054 A 
ATOM      9  C   UNL A   1      31.811  25.964  24.773  1.00  0.00     0.131 A 
ATOM     10  C   UNL A   1      32.347  28.679  25.295  1.00  0.00     0.130 A 
ATOM     11  C   UNL A   1      33.023  26.344  25.348  1.00  0.00     0.021 A 
ATOM     12  O   UNL A   1      31.502  24.665  24.479  1.00  0.00    -0.475 OA
ATOM     13  C   UNL A   1      33.293  27.696  25.591  1.00  0.00     0.058 A 
ATOM     14  C   UNL A   1      33.994  25.333  25.724  1.00  0.00     0.027 C 
ATOM     15  C   UNL A   1      32.392  23.598  24.906  1.00  0.00     0.316 C 
BRANCH  10  16
ATOM     16  O   UNL A   1      32.743  29.948  25.601  1.00  0.00    -0.406 OA
BRANCH  16  17
ATOM     17  C   UNL A   1      32.538  30.408  26.925  1.00  0.00     0.573 C 
ATOM     18  F   UNL A   1      31.584  29.685  27.549  1.00  0.00    -0.132 F 
ATOM     19  F   UNL A   1      33.682  30.357  27.640  1.00  0.00    -0.132 F 
ATOM     20  F   UNL A   1      32.127  31.695  26.880  1.00  0.00    -0.132 F 
ENDBRANCH  16  17
ENDBRANCH  10  16
BRANCH  15  21
ATOM     21  C   UNL A   1      31.624  22.684  25.874  1.00  0.00     0.430 C 
ATOM     22  F   UNL A   1      31.859  23.022  27.164  1.00  0.00    -0.167 F 
ATOM     23  F   UNL A   1      30.284  22.773  25.691  1.00  0.00    -0.167 F 
ATOM     24  F   UNL A   1      31.966  21.384  25.725  1.00  0.00    -0.167 F 
ENDBRANCH  15  21
ENDBRANCH   3   5
ENDBRANCH   2   3
ENDBRANCH   1   2
BRANCH   1  25
ATOM     25  C   UNL A   1      36.641  20.396  24.940  1.00  0.00     0.275 C 
BRANCH  25  26
ATOM     26  O   UNL A   1      37.553  21.496  25.099  1.00  0.00    -0.458 OA
BRANCH  26  27
ATOM     27  C   UNL A   1      38.691  21.208  25.767  1.00  0.00     0.338 C 
ATOM     28  O   UNL A   1      39.284  20.142  25.803  1.00  0.00    -0.246 OA
BRANCH  27  29
ATOM     29  C   UNL A   1      39.199  22.409  26.448  1.00  0.00     0.060 A 
ATOM     30  C   UNL A   1      38.657  23.653  26.136  1.00  0.00     0.016 A 
ATOM     31  C   UNL A   1      40.340  22.319  27.243  1.00  0.00     0.016 A 
ATOM     32  C   UNL A   1      39.340  24.814  26.484  1.00  0.00     0.010 A 
ATOM     33  C   UNL A   1      40.954  23.489  27.697  1.00  0.00     0.010 A 
ATOM     34  C   UNL A   1      40.497  24.749  27.271  1.00  0.00    -0.014 A 
BRANCH  34  35
ATOM     35  C   UNL A   1      41.262  25.981  27.608  1.00  0.00     0.031 A 
ATOM     36  C   UNL A   1      40.661  27.012  28.530  1.00  0.00     0.074 A 
ATOM     37  C   UNL A   1      42.497  26.181  27.106  1.00  0.00     0.049 A 
ATOM     38  N   UNL A   1      41.071  28.229  28.786  1.00  0.00    -0.248 NA
ATOM     39  C   UNL A   1      39.436  26.630  29.255  1.00  0.00     0.031 C 
ATOM     40  C   UNL A   1      43.238  25.239  26.264  1.00  0.00     0.029 A 
ATOM     41  N   UNL A   1      43.352  27.247  27.240  1.00  0.00    -0.354 N 
ATOM     42  C   UNL A   1      40.132  28.771  29.653  1.00  0.00     0.074 A 
ATOM     43  C   UNL A   1      39.127  27.758  29.882  1.00  0.00     0.031 C 
ATOM     44  C   UNL A   1      44.447  25.751  25.990  1.00  0.00     0.029 A 
ATOM     45  C   UNL A   1      44.533  27.092  26.554  1.00  0.00     0.049 A 
ATOM     46  H   UNL A   1      43.141  28.045  27.777  1.00  0.00     0.167 HD
ATOM     47  C   UNL A   1      40.110  30.006  30.208  1.00  0.00     0.031 A 
ATOM     48  C   UNL A   1      45.554  27.948  26.352  1.00  0.00     0.031 A 
ATOM     49  C   UNL A   1      41.135  30.995  30.021  1.00  0.00     0.049 A 
ATOM     50  C   UNL A   1      45.475  29.335  26.917  1.00  0.00     0.074 A 
ATOM     51  C   UNL A   1      41.202  32.273  30.551  1.00  0.00     0.029 A 
ATOM     52  N   UNL A   1      42.280  30.813  29.263  1.00  0.00    -0.354 N 
ATOM     53  N   UNL A   1      44.541  29.862  27.669  1.00  0.00    -0.248 NA
ATOM     54  C   UNL A   1      46.574  30.252  26.584  1.00  0.00     0.031 C 
ATOM     55  C   UNL A   1      42.368  32.879  30.080  1.00  0.00     0.029 A 
ATOM     56  C   UNL A   1      43.051  31.962  29.297  1.00  0.00     0.049 A 
ATOM     57  H   UNL A   1      42.511  29.990  28.775  1.00  0.00     0.167 HD
ATOM     58  C   UNL A   1      44.941  31.170  27.907  1.00  0.00     0.074 A 
ATOM     59  C   UNL A   1      46.209  31.352  27.231  1.00  0.00     0.031 C 
ATOM     60  C   UNL A   1      44.307  32.131  28.619  1.00  0.00     0.031 A 
BRANCH  47  61
ATOM     61  C   UNL A   1      38.934  30.380  31.063  1.00  0.00    -0.014 A 
ATOM     62  C   UNL A   1      37.770  30.925  30.502  1.00  0.00     0.009 A 
ATOM     63  C   UNL A   1      38.954  30.081  32.435  1.00  0.00     0.009 A 
ATOM     64  C   UNL A   1      36.651  31.170  31.301  1.00  0.00     0.001 A 
ATOM     65  C   UNL A   1      37.828  30.308  33.227  1.00  0.00     0.001 A 
ATOM     66  C   UNL A   1      36.678  30.853  32.660  1.00  0.00     0.000 A 
ENDBRANCH  47  61
BRANCH  48  67
ATOM     67  C   UNL A   1      46.714  27.513  25.535  1.00  0.00    -0.014 A 
ATOM     68  C   UNL A   1      46.770  27.812  24.167  1.00  0.00     0.009 A 
ATOM     69  C   UNL A   1      47.800  26.851  26.132  1.00  0.00     0.009 A 
ATOM     70  C   UNL A   1      47.892  27.460  23.413  1.00  0.00     0.001 A 
ATOM     71  C   UNL A   1      48.930  26.523  25.381  1.00  0.00     0.001 A 
ATOM     72  C   UNL A   1      48.974  26.827  24.022  1.00  0.00     0.000 A 
ENDBRANCH  48  67
BRANCH  60  73
ATOM     73  C   UNL A   1      44.968  33.473  28.725  1.00  0.00    -0.014 A 
ATOM     74  C   UNL A   1      44.617  34.515  27.855  1.00  0.00     0.009 A 
ATOM     75  C   UNL A   1      45.859  33.729  29.779  1.00  0.00     0.009 A 
ATOM     76  C   UNL A   1      45.153  35.790  28.037  1.00  0.00     0.001 A 
ATOM     77  C   UNL A   1      46.376  35.010  29.969  1.00  0.00     0.001 A 
ATOM     78  C   UNL A   1      46.023  36.040  29.098  1.00  0.00     0.000 A 
ENDBRANCH  60  73
ENDBRANCH  34  35
ENDBRANCH  27  29
ENDBRANCH  26  27
ENDBRANCH  25  26
ENDBRANCH   1  25
TORSDOF 14
ENDMDL
MODEL 3
REMARK VINA RESULT:     -11.4      3.555      6.622
REMARK SMILES Cc1cc(OC(F)(F)F)cc2c1O[C@H](C(F)(F)F)C(C(=O)OCCOC(=O)c1ccc(-c3c4nc(c(-c5ccccc5)c5ccc([nH]5)c(-c5ccccc5)c5nc(c(-c6ccccc6)c6ccc3[nH]6)C=C5)C=C4)cc1)=C2
REMARK SMILES IDX 23 1 22 2 20 3 21 4 19 5 1 6 2 7 3 8 12 9 4 10 11 11 13 12
REMARK SMILES IDX 10 13 76 14 14 15 5 16 6 17 7 18 8 19 9 20 15 21 16 22 17 23
REMARK SMILES IDX 18 24 24 25 25 26 26 27 27 28 28 29 29 30 75 31 30 32 74 33
REMARK SMILES IDX 31 34 32 35 33 36 68 37 34 38 73 39 67 40 69 41 35 42 72 43
REMARK SMILES IDX 66 44 65 45 36 47 58 48 43 49 57 50 44 51 47 52 56 53 70 54
REMARK SMILES IDX 45 55 46 56 55 58 71 59 48 60 37 61 38 62 42 63 39 64 41 65
REMARK SMILES IDX 40 66 59 67 60 68 64 69 61 70 63 71 62 72 49 73 50 74 54 75
REMARK SMILES IDX 51 76 53 77 52 78
REMARK H PARENT 69 46 47 57
REMARK Flexibility Score: inf
ROOT
ATOM      1  C   UNL A   1      32.337  29.710  26.684  1.00  0.00     0.275 C 
ENDROOT
BRANCH   1   2
ATOM      2  O   UNL A   1      32.163  28.493  25.927  1.00  0.00    -0.459 OA
BRANCH   2   3
ATOM      3  C   UNL A   1      31.698  27.429  26.627  1.00  0.00     0.338 C 
ATOM      4  O   UNL A   1      30.983  27.459  27.609  1.00  0.00    -0.246 OA
BRANCH   3   5
ATOM      5  C   UNL A   1      32.154  26.173  25.997  1.00  0.00     0.087 C 
ATOM      6  C   UNL A   1      32.559  21.880  23.206  1.00  0.00     0.048 C 
ATOM      7  C   UNL A   1      33.499  22.765  23.975  1.00  0.00    -0.005 A 
ATOM      8  C   UNL A   1      34.884  22.509  23.920  1.00  0.00     0.054 A 
ATOM      9  C   UNL A   1      33.031  23.885  24.679  1.00  0.00     0.131 A 
ATOM     10  C   UNL A   1      35.792  23.337  24.580  1.00  0.00     0.130 A 
ATOM     11  C   UNL A   1      33.939  24.727  25.321  1.00  0.00     0.021 A 
ATOM     12  O   UNL A   1      31.680  24.090  24.708  1.00  0.00    -0.475 OA
ATOM     13  C   UNL A   1      35.309  24.442  25.284  1.00  0.00     0.058 A 
ATOM     14  C   UNL A   1      33.466  25.917  26.002  1.00  0.00     0.027 C 
ATOM     15  C   UNL A   1      31.147  25.305  25.300  1.00  0.00     0.316 C 
BRANCH  10  16
ATOM     16  O   UNL A   1      37.148  23.196  24.619  1.00  0.00    -0.406 OA
BRANCH  16  17
ATOM     17  C   UNL A   1      37.689  22.187  25.453  1.00  0.00     0.573 C 
ATOM     18  F   UNL A   1      38.171  21.159  24.723  1.00  0.00    -0.132 F 
ATOM     19  F   UNL A   1      38.671  22.681  26.238  1.00  0.00    -0.132 F 
ATOM     20  F   UNL A   1      36.709  21.712  26.253  1.00  0.00    -0.132 F 
ENDBRANCH  16  17
ENDBRANCH  10  16
BRANCH  15  21
ATOM     21  C   UNL A   1      30.398  26.087  24.208  1.00  0.00     0.430 C 
ATOM     22  F   UNL A   1      29.486  26.933  24.744  1.00  0.00    -0.167 F 
ATOM     23  F   UNL A   1      31.241  26.848  23.468  1.00  0.00    -0.167 F 
ATOM     24  F   UNL A   1      29.742  25.267  23.356  1.00  0.00    -0.167 F 
ENDBRANCH  15  21
ENDBRANCH   3   5
ENDBRANCH   2   3
ENDBRANCH   1   2
BRANCH   1  25
ATOM     25  C   UNL A   1      33.650  29.685  27.466  1.00  0.00     0.275 C 
BRANCH  25  26
ATOM     26  O   UNL A   1      34.148  31.023  27.640  1.00  0.00    -0.458 OA
BRANCH  26  27
ATOM     27  C   UNL A   1      34.909  31.215  28.739  1.00  0.00     0.338 C 
ATOM     28  O   UNL A   1      34.678  31.949  29.686  1.00  0.00    -0.246 OA
BRANCH  27  29
ATOM     29  C   UNL A   1      36.097  30.349  28.693  1.00  0.00     0.060 A 
ATOM     30  C   UNL A   1      36.524  29.712  29.856  1.00  0.00     0.016 A 
ATOM     31  C   UNL A   1      36.893  30.331  27.550  1.00  0.00     0.016 A 
ATOM     32  C   UNL A   1      37.812  29.192  29.928  1.00  0.00     0.010 A 
ATOM     33  C   UNL A   1      38.137  29.697  27.589  1.00  0.00     0.010 A 
ATOM     34  C   UNL A   1      38.637  29.174  28.796  1.00  0.00    -0.014 A 
BRANCH  34  35
ATOM     35  C   UNL A   1      40.033  28.665  28.874  1.00  0.00     0.031 A 
ATOM     36  C   UNL A   1      41.145  29.580  29.323  1.00  0.00     0.074 A 
ATOM     37  C   UNL A   1      40.316  27.385  28.559  1.00  0.00     0.049 A 
ATOM     38  N   UNL A   1      42.439  29.394  29.268  1.00  0.00    -0.248 NA
ATOM     39  C   UNL A   1      40.752  30.876  29.904  1.00  0.00     0.031 C 
ATOM     40  C   UNL A   1      39.336  26.364  28.183  1.00  0.00     0.029 A 
ATOM     41  N   UNL A   1      41.518  26.722  28.514  1.00  0.00    -0.354 N 
ATOM     42  C   UNL A   1      43.011  30.562  29.754  1.00  0.00     0.074 A 
ATOM     43  C   UNL A   1      41.929  31.456  30.098  1.00  0.00     0.031 C 
ATOM     44  C   UNL A   1      39.970  25.198  27.983  1.00  0.00     0.029 A 
ATOM     45  C   UNL A   1      41.406  25.410  28.123  1.00  0.00     0.049 A 
ATOM     46  H   UNL A   1      42.377  27.146  28.740  1.00  0.00     0.167 HD
ATOM     47  C   UNL A   1      44.324  30.862  29.899  1.00  0.00     0.031 A 
ATOM     48  C   UNL A   1      42.349  24.486  27.855  1.00  0.00     0.031 A 
ATOM     49  C   UNL A   1      45.398  29.955  29.605  1.00  0.00     0.049 A 
ATOM     50  C   UNL A   1      43.797  24.863  27.952  1.00  0.00     0.074 A 
ATOM     51  C   UNL A   1      46.761  30.169  29.729  1.00  0.00     0.029 A 
ATOM     52  N   UNL A   1      45.234  28.657  29.149  1.00  0.00    -0.354 N 
ATOM     53  N   UNL A   1      44.325  25.998  28.336  1.00  0.00    -0.248 NA
ATOM     54  C   UNL A   1      44.778  23.842  27.557  1.00  0.00     0.031 C 
ATOM     55  C   UNL A   1      47.423  29.014  29.309  1.00  0.00     0.029 A 
ATOM     56  C   UNL A   1      46.472  28.065  28.969  1.00  0.00     0.049 A 
ATOM     57  H   UNL A   1      44.368  28.222  28.980  1.00  0.00     0.167 HD
ATOM     58  C   UNL A   1      45.699  25.829  28.236  1.00  0.00     0.074 A 
ATOM     59  C   UNL A   1      45.924  24.478  27.768  1.00  0.00     0.031 C 
ATOM     60  C   UNL A   1      46.682  26.721  28.503  1.00  0.00     0.031 A 
BRANCH  47  61
ATOM     61  C   UNL A   1      44.689  32.236  30.382  1.00  0.00    -0.014 A 
ATOM     62  C   UNL A   1      44.827  33.309  29.491  1.00  0.00     0.009 A 
ATOM     63  C   UNL A   1      44.791  32.478  31.762  1.00  0.00     0.009 A 
ATOM     64  C   UNL A   1      45.067  34.598  29.972  1.00  0.00     0.001 A 
ATOM     65  C   UNL A   1      45.009  33.771  32.241  1.00  0.00     0.001 A 
ATOM     66  C   UNL A   1      45.149  34.829  31.345  1.00  0.00     0.000 A 
ENDBRANCH  47  61
BRANCH  48  67
ATOM     67  C   UNL A   1      41.933  23.128  27.422  1.00  0.00    -0.014 A 
ATOM     68  C   UNL A   1      42.056  22.742  26.080  1.00  0.00     0.009 A 
ATOM     69  C   UNL A   1      41.469  22.190  28.360  1.00  0.00     0.009 A 
ATOM     70  C   UNL A   1      41.727  21.444  25.686  1.00  0.00     0.001 A 
ATOM     71  C   UNL A   1      41.164  20.887  27.967  1.00  0.00     0.001 A 
ATOM     72  C   UNL A   1      41.292  20.515  26.631  1.00  0.00     0.000 A 
ENDBRANCH  48  67
BRANCH  60  73
ATOM     73  C   UNL A   1      48.101  26.275  28.314  1.00  0.00    -0.014 A 
ATOM     74  C   UNL A   1      48.802  25.653  29.358  1.00  0.00     0.009 A 
ATOM     75  C   UNL A   1      48.698  26.372  27.047  1.00  0.00     0.009 A 
ATOM     76  C   UNL A   1      50.080  25.140  29.135  1.00  0.00     0.001 A 
ATOM     77  C   UNL A   1      49.967  25.838  26.824  1.00  0.00     0.001 A 
ATOM     78  C   UNL A   1      50.657  25.223  27.868  1.00  0.00     0.000 A 
ENDBRANCH  60  73
ENDBRANCH  34  35
ENDBRANCH  27  29
ENDBRANCH  26  27
ENDBRANCH  25  26
ENDBRANCH   1  25
TORSDOF 14
ENDMDL
