MODEL 1
REMARK VINA RESULT:     -10.5      0.000      0.000
REMARK SMILES COc1ccc2cc([C@@H](C)C(=O)OCCOC(=O)c3ccc(-c4c5nc(c(-c6ccccc6)c6ccc([nH]6)c(-c6ccccc6)c6nc(c(-c7ccccc7)c7ccc4[nH]7)C=C6)C=C5)cc3)ccc2c1
REMARK SMILES IDX 14 1 13 2 11 3 12 4 9 5 10 6 8 7 3 8 4 9 70 10 5 11 69 12
REMARK SMILES IDX 6 13 68 14 7 15 67 16 2 17 1 18 15 19 16 20 17 21 18 22
REMARK SMILES IDX 19 23 20 24 66 25 21 26 65 27 22 28 23 29 24 30 59 31 25 32
REMARK SMILES IDX 64 33 58 34 60 35 26 36 63 37 57 38 56 39 27 41 49 42 34 43
REMARK SMILES IDX 48 44 35 45 38 46 47 47 61 48 36 49 37 50 46 52 62 53 39 54
REMARK SMILES IDX 28 55 29 56 33 57 30 58 32 59 31 60 50 61 51 62 55 63 52 64
REMARK SMILES IDX 54 65 53 66 40 67 41 68 45 69 42 70 44 71 43 72
REMARK H PARENT 60 40 38 51
REMARK Flexibility Score: inf
ROOT
ATOM      1  C   UNL A   1      44.562  21.105  24.998  1.00  0.00     0.274 C 
ENDROOT
BRANCH   1   2
ATOM      2  O   UNL A   1      43.543  20.156  24.629  1.00  0.00    -0.462 OA
BRANCH   2   3
ATOM      3  C   UNL A   1      43.223  19.209  25.547  1.00  0.00     0.313 C 
ATOM      4  O   UNL A   1      43.472  18.013  25.422  1.00  0.00    -0.252 OA
BRANCH   3   5
ATOM      5  C   UNL A   1      42.467  19.751  26.755  1.00  0.00     0.126 C 
ATOM      6  C   UNL A   1      42.350  18.666  27.824  1.00  0.00     0.025 C 
BRANCH   5   7
ATOM      7  C   UNL A   1      41.135  20.424  26.460  1.00  0.00    -0.033 A 
ATOM      8  C   UNL A   1      37.247  23.637  25.834  1.00  0.00     0.119 A 
ATOM      9  C   UNL A   1      38.219  24.342  26.538  1.00  0.00     0.047 A 
ATOM     10  C   UNL A   1      37.453  22.294  25.515  1.00  0.00     0.055 A 
ATOM     11  C   UNL A   1      39.423  23.719  26.875  1.00  0.00     0.012 A 
ATOM     12  C   UNL A   1      38.663  21.659  25.838  1.00  0.00    -0.015 A 
ATOM     13  C   UNL A   1      39.666  22.384  26.516  1.00  0.00    -0.018 A 
ATOM     14  C   UNL A   1      38.902  20.322  25.494  1.00  0.00     0.009 A 
ATOM     15  C   UNL A   1      40.887  21.759  26.817  1.00  0.00     0.013 A 
ATOM     16  C   UNL A   1      40.123  19.715  25.798  1.00  0.00     0.005 A 
BRANCH   8  17
ATOM     17  O   UNL A   1      36.045  24.170  25.453  1.00  0.00    -0.497 OA
ATOM     18  C   UNL A   1      35.002  23.204  25.347  1.00  0.00     0.278 C 
ENDBRANCH   8  17
ENDBRANCH   5   7
ENDBRANCH   3   5
ENDBRANCH   2   3
ENDBRANCH   1   2
BRANCH   1  19
ATOM     19  C   UNL A   1      44.592  22.295  24.036  1.00  0.00     0.275 C 
BRANCH  19  20
ATOM     20  O   UNL A   1      43.854  23.411  24.566  1.00  0.00    -0.458 OA
BRANCH  20  21
ATOM     21  C   UNL A   1      44.612  24.448  24.990  1.00  0.00     0.338 C 
ATOM     22  O   UNL A   1      45.694  24.806  24.562  1.00  0.00    -0.246 OA
BRANCH  21  23
ATOM     23  C   UNL A   1      43.876  25.203  26.013  1.00  0.00     0.060 A 
ATOM     24  C   UNL A   1      44.067  26.585  26.072  1.00  0.00     0.016 A 
ATOM     25  C   UNL A   1      43.082  24.553  26.958  1.00  0.00     0.016 A 
ATOM     26  C   UNL A   1      43.475  27.329  27.087  1.00  0.00     0.010 A 
ATOM     27  C   UNL A   1      42.481  25.302  27.974  1.00  0.00     0.010 A 
ATOM     28  C   UNL A   1      42.686  26.691  28.052  1.00  0.00    -0.014 A 
BRANCH  28  29
ATOM     29  C   UNL A   1      42.120  27.482  29.169  1.00  0.00     0.031 A 
ATOM     30  C   UNL A   1      42.847  27.555  30.480  1.00  0.00     0.074 A 
ATOM     31  C   UNL A   1      40.972  28.161  28.992  1.00  0.00     0.049 A 
ATOM     32  N   UNL A   1      42.493  28.156  31.587  1.00  0.00    -0.248 NA
ATOM     33  C   UNL A   1      44.144  26.865  30.554  1.00  0.00     0.031 C 
ATOM     34  C   UNL A   1      40.199  28.209  27.750  1.00  0.00     0.029 A 
ATOM     35  N   UNL A   1      40.258  28.945  29.862  1.00  0.00    -0.354 N 
ATOM     36  C   UNL A   1      43.511  27.902  32.496  1.00  0.00     0.074 A 
ATOM     37  C   UNL A   1      44.491  27.082  31.816  1.00  0.00     0.031 C 
ATOM     38  C   UNL A   1      39.123  28.990  27.936  1.00  0.00     0.029 A 
ATOM     39  C   UNL A   1      39.107  29.459  29.319  1.00  0.00     0.049 A 
ATOM     40  H   UNL A   1      40.544  29.121  30.788  1.00  0.00     0.167 HD
ATOM     41  C   UNL A   1      43.620  28.314  33.781  1.00  0.00     0.031 A 
ATOM     42  C   UNL A   1      38.139  30.207  29.879  1.00  0.00     0.031 A 
ATOM     43  C   UNL A   1      42.646  29.128  34.459  1.00  0.00     0.049 A 
ATOM     44  C   UNL A   1      38.253  30.597  31.326  1.00  0.00     0.074 A 
ATOM     45  C   UNL A   1      42.670  29.598  35.761  1.00  0.00     0.029 A 
ATOM     46  N   UNL A   1      41.473  29.592  33.887  1.00  0.00    -0.354 N 
ATOM     47  N   UNL A   1      39.218  30.343  32.175  1.00  0.00    -0.248 NA
ATOM     48  C   UNL A   1      37.141  31.376  31.889  1.00  0.00     0.031 C 
ATOM     49  C   UNL A   1      41.490  30.314  35.988  1.00  0.00     0.029 A 
ATOM     50  C   UNL A   1      40.754  30.327  34.814  1.00  0.00     0.049 A 
ATOM     51  H   UNL A   1      41.192  29.425  32.959  1.00  0.00     0.167 HD
ATOM     52  C   UNL A   1      38.838  30.942  33.368  1.00  0.00     0.074 A 
ATOM     53  C   UNL A   1      37.564  31.588  33.128  1.00  0.00     0.031 C 
ATOM     54  C   UNL A   1      39.486  30.957  34.559  1.00  0.00     0.031 A 
BRANCH  41  55
ATOM     55  C   UNL A   1      44.826  27.856  34.550  1.00  0.00    -0.014 A 
ATOM     56  C   UNL A   1      44.777  26.722  35.375  1.00  0.00     0.009 A 
ATOM     57  C   UNL A   1      46.036  28.556  34.423  1.00  0.00     0.009 A 
ATOM     58  C   UNL A   1      45.912  26.314  36.079  1.00  0.00     0.001 A 
ATOM     59  C   UNL A   1      47.173  28.132  35.111  1.00  0.00     0.001 A 
ATOM     60  C   UNL A   1      47.108  27.018  35.945  1.00  0.00     0.000 A 
ENDBRANCH  41  55
BRANCH  42  61
ATOM     61  C   UNL A   1      36.958  30.612  29.076  1.00  0.00    -0.014 A 
ATOM     62  C   UNL A   1      35.961  29.680  28.751  1.00  0.00     0.009 A 
ATOM     63  C   UNL A   1      36.827  31.935  28.625  1.00  0.00     0.009 A 
ATOM     64  C   UNL A   1      34.865  30.062  27.973  1.00  0.00     0.001 A 
ATOM     65  C   UNL A   1      35.718  32.318  27.868  1.00  0.00     0.001 A 
ATOM     66  C   UNL A   1      34.743  31.380  27.537  1.00  0.00     0.000 A 
ENDBRANCH  42  61
BRANCH  54  67
ATOM     67  C   UNL A   1      38.836  31.713  35.680  1.00  0.00    -0.014 A 
ATOM     68  C   UNL A   1      38.100  31.047  36.671  1.00  0.00     0.009 A 
ATOM     69  C   UNL A   1      38.985  33.106  35.760  1.00  0.00     0.009 A 
ATOM     70  C   UNL A   1      37.501  31.767  37.707  1.00  0.00     0.001 A 
ATOM     71  C   UNL A   1      38.405  33.820  36.807  1.00  0.00     0.001 A 
ATOM     72  C   UNL A   1      37.657  33.151  37.776  1.00  0.00     0.000 A 
ENDBRANCH  54  67
ENDBRANCH  28  29
ENDBRANCH  21  23
ENDBRANCH  20  21
ENDBRANCH  19  20
ENDBRANCH   1  19
TORSDOF 13
ENDMDL
MODEL 2
REMARK VINA RESULT:     -10.3      4.278     11.259
REMARK SMILES COc1ccc2cc([C@@H](C)C(=O)OCCOC(=O)c3ccc(-c4c5nc(c(-c6ccccc6)c6ccc([nH]6)c(-c6ccccc6)c6nc(c(-c7ccccc7)c7ccc4[nH]7)C=C6)C=C5)cc3)ccc2c1
REMARK SMILES IDX 14 1 13 2 11 3 12 4 9 5 10 6 8 7 3 8 4 9 70 10 5 11 69 12
REMARK SMILES IDX 6 13 68 14 7 15 67 16 2 17 1 18 15 19 16 20 17 21 18 22
REMARK SMILES IDX 19 23 20 24 66 25 21 26 65 27 22 28 23 29 24 30 59 31 25 32
REMARK SMILES IDX 64 33 58 34 60 35 26 36 63 37 57 38 56 39 27 41 49 42 34 43
REMARK SMILES IDX 48 44 35 45 38 46 47 47 61 48 36 49 37 50 46 52 62 53 39 54
REMARK SMILES IDX 28 55 29 56 33 57 30 58 32 59 31 60 50 61 51 62 55 63 52 64
REMARK SMILES IDX 54 65 53 66 40 67 41 68 45 69 42 70 44 71 43 72
REMARK H PARENT 60 40 38 51
REMARK Flexibility Score: inf
ROOT
ATOM      1  C   UNL A   1      33.211  36.098  31.155  1.00  0.00     0.274 C 
ENDROOT
BRANCH   1   2
ATOM      2  O   UNL A   1      33.556  34.879  31.842  1.00  0.00    -0.462 OA
BRANCH   2   3
ATOM      3  C   UNL A   1      34.821  34.782  32.324  1.00  0.00     0.313 C 
ATOM      4  O   UNL A   1      35.826  35.117  31.701  1.00  0.00    -0.252 OA
BRANCH   3   5
ATOM      5  C   UNL A   1      34.906  34.161  33.713  1.00  0.00     0.126 C 
ATOM      6  C   UNL A   1      34.635  35.224  34.775  1.00  0.00     0.025 C 
BRANCH   5   7
ATOM      7  C   UNL A   1      36.161  33.353  34.007  1.00  0.00    -0.033 A 
ATOM      8  C   UNL A   1      39.954  29.972  34.126  1.00  0.00     0.119 A 
ATOM      9  C   UNL A   1      38.974  29.422  33.304  1.00  0.00     0.047 A 
ATOM     10  C   UNL A   1      39.725  31.192  34.764  1.00  0.00     0.055 A 
ATOM     11  C   UNL A   1      37.787  30.121  33.074  1.00  0.00     0.012 A 
ATOM     12  C   UNL A   1      38.540  31.909  34.534  1.00  0.00    -0.015 A 
ATOM     13  C   UNL A   1      37.564  31.373  33.668  1.00  0.00    -0.018 A 
ATOM     14  C   UNL A   1      38.309  33.152  35.137  1.00  0.00     0.009 A 
ATOM     15  C   UNL A   1      36.389  32.100  33.415  1.00  0.00     0.013 A 
ATOM     16  C   UNL A   1      37.138  33.865  34.874  1.00  0.00     0.005 A 
BRANCH   8  17
ATOM     17  O   UNL A   1      41.150  29.364  34.397  1.00  0.00    -0.497 OA
ATOM     18  C   UNL A   1      41.881  29.989  35.448  1.00  0.00     0.278 C 
ENDBRANCH   8  17
ENDBRANCH   5   7
ENDBRANCH   3   5
ENDBRANCH   2   3
ENDBRANCH   1   2
BRANCH   1  19
ATOM     19  C   UNL A   1      33.041  35.863  29.653  1.00  0.00     0.275 C 
BRANCH  19  20
ATOM     20  O   UNL A   1      32.606  34.519  29.382  1.00  0.00    -0.458 OA
BRANCH  20  21
ATOM     21  C   UNL A   1      33.292  33.881  28.406  1.00  0.00     0.338 C 
ATOM     22  O   UNL A   1      32.982  33.758  27.234  1.00  0.00    -0.246 OA
BRANCH  21  23
ATOM     23  C   UNL A   1      34.586  33.429  28.934  1.00  0.00     0.060 A 
ATOM     24  C   UNL A   1      35.745  34.003  28.410  1.00  0.00     0.016 A 
ATOM     25  C   UNL A   1      34.662  32.390  29.862  1.00  0.00     0.016 A 
ATOM     26  C   UNL A   1      36.994  33.535  28.802  1.00  0.00     0.010 A 
ATOM     27  C   UNL A   1      35.918  31.924  30.261  1.00  0.00     0.010 A 
ATOM     28  C   UNL A   1      37.090  32.484  29.723  1.00  0.00    -0.014 A 
BRANCH  28  29
ATOM     29  C   UNL A   1      38.423  31.946  30.077  1.00  0.00     0.031 A 
ATOM     30  C   UNL A   1      38.869  30.623  29.526  1.00  0.00     0.074 A 
ATOM     31  C   UNL A   1      39.245  32.662  30.867  1.00  0.00     0.049 A 
ATOM     32  N   UNL A   1      39.977  29.965  29.754  1.00  0.00    -0.248 NA
ATOM     33  C   UNL A   1      37.949  29.955  28.591  1.00  0.00     0.031 C 
ATOM     34  C   UNL A   1      38.945  33.982  31.424  1.00  0.00     0.029 A 
ATOM     35  N   UNL A   1      40.503  32.378  31.333  1.00  0.00    -0.354 N 
ATOM     36  C   UNL A   1      39.882  28.798  29.009  1.00  0.00     0.074 A 
ATOM     37  C   UNL A   1      38.603  28.830  28.331  1.00  0.00     0.031 C 
ATOM     38  C   UNL A   1      39.997  34.397  32.150  1.00  0.00     0.029 A 
ATOM     39  C   UNL A   1      41.021  33.356  32.144  1.00  0.00     0.049 A 
ATOM     40  H   UNL A   1      40.988  31.551  31.107  1.00  0.00     0.167 HD
ATOM     41  C   UNL A   1      40.778  27.789  28.899  1.00  0.00     0.031 A 
ATOM     42  C   UNL A   1      42.181  33.399  32.825  1.00  0.00     0.031 A 
ATOM     43  C   UNL A   1      42.049  27.754  29.573  1.00  0.00     0.049 A 
ATOM     44  C   UNL A   1      43.130  32.238  32.736  1.00  0.00     0.074 A 
ATOM     45  C   UNL A   1      43.026  26.775  29.522  1.00  0.00     0.029 A 
ATOM     46  N   UNL A   1      42.518  28.744  30.420  1.00  0.00    -0.354 N 
ATOM     47  N   UNL A   1      43.024  31.136  32.034  1.00  0.00    -0.248 NA
ATOM     48  C   UNL A   1      44.359  32.327  33.538  1.00  0.00     0.031 C 
ATOM     49  C   UNL A   1      44.071  27.155  30.372  1.00  0.00     0.029 A 
ATOM     50  C   UNL A   1      43.762  28.392  30.916  1.00  0.00     0.049 A 
ATOM     51  H   UNL A   1      42.038  29.576  30.639  1.00  0.00     0.167 HD
ATOM     52  C   UNL A   1      44.176  30.408  32.297  1.00  0.00     0.074 A 
ATOM     53  C   UNL A   1      44.976  31.201  33.208  1.00  0.00     0.031 C 
ATOM     54  C   UNL A   1      44.540  29.191  31.826  1.00  0.00     0.031 A 
BRANCH  41  55
ATOM     55  C   UNL A   1      40.395  26.618  28.041  1.00  0.00    -0.014 A 
ATOM     56  C   UNL A   1      39.550  25.607  28.523  1.00  0.00     0.009 A 
ATOM     57  C   UNL A   1      40.865  26.543  26.721  1.00  0.00     0.009 A 
ATOM     58  C   UNL A   1      39.205  24.528  27.706  1.00  0.00     0.001 A 
ATOM     59  C   UNL A   1      40.500  25.475  25.900  1.00  0.00     0.001 A 
ATOM     60  C   UNL A   1      39.678  24.464  26.396  1.00  0.00     0.000 A 
ENDBRANCH  41  55
BRANCH  42  61
ATOM     61  C   UNL A   1      42.498  34.573  33.676  1.00  0.00    -0.014 A 
ATOM     62  C   UNL A   1      43.055  35.733  33.116  1.00  0.00     0.009 A 
ATOM     63  C   UNL A   1      42.250  34.535  35.057  1.00  0.00     0.009 A 
ATOM     64  C   UNL A   1      43.375  36.824  33.927  1.00  0.00     0.001 A 
ATOM     65  C   UNL A   1      42.548  35.637  35.861  1.00  0.00     0.001 A 
ATOM     66  C   UNL A   1      43.117  36.777  35.297  1.00  0.00     0.000 A 
ENDBRANCH  42  61
BRANCH  54  67
ATOM     67  C   UNL A   1      45.870  28.657  32.272  1.00  0.00    -0.014 A 
ATOM     68  C   UNL A   1      45.980  27.852  33.416  1.00  0.00     0.009 A 
ATOM     69  C   UNL A   1      47.021  28.940  31.521  1.00  0.00     0.009 A 
ATOM     70  C   UNL A   1      47.227  27.365  33.816  1.00  0.00     0.001 A 
ATOM     71  C   UNL A   1      48.261  28.433  31.911  1.00  0.00     0.001 A 
ATOM     72  C   UNL A   1      48.364  27.653  33.062  1.00  0.00     0.000 A 
ENDBRANCH  54  67
ENDBRANCH  28  29
ENDBRANCH  21  23
ENDBRANCH  20  21
ENDBRANCH  19  20
ENDBRANCH   1  19
TORSDOF 13
ENDMDL
MODEL 3
REMARK VINA RESULT:     -10.2      4.664     11.201
REMARK SMILES COc1ccc2cc([C@@H](C)C(=O)OCCOC(=O)c3ccc(-c4c5nc(c(-c6ccccc6)c6ccc([nH]6)c(-c6ccccc6)c6nc(c(-c7ccccc7)c7ccc4[nH]7)C=C6)C=C5)cc3)ccc2c1
REMARK SMILES IDX 14 1 13 2 11 3 12 4 9 5 10 6 8 7 3 8 4 9 70 10 5 11 69 12
REMARK SMILES IDX 6 13 68 14 7 15 67 16 2 17 1 18 15 19 16 20 17 21 18 22
REMARK SMILES IDX 19 23 20 24 66 25 21 26 65 27 22 28 23 29 24 30 59 31 25 32
REMARK SMILES IDX 64 33 58 34 60 35 26 36 63 37 57 38 56 39 27 41 49 42 34 43
REMARK SMILES IDX 48 44 35 45 38 46 47 47 61 48 36 49 37 50 46 52 62 53 39 54
REMARK SMILES IDX 28 55 29 56 33 57 30 58 32 59 31 60 50 61 51 62 55 63 52 64
REMARK SMILES IDX 54 65 53 66 40 67 41 68 45 69 42 70 44 71 43 72
REMARK H PARENT 60 40 38 51
REMARK Flexibility Score: inf
ROOT
ATOM      1  C   UNL A   1      34.363  33.931  31.934  1.00  0.00     0.274 C 
ENDROOT
BRANCH   1   2
ATOM      2  O   UNL A   1      34.183  32.923  30.921  1.00  0.00    -0.462 OA
BRANCH   2   3
ATOM      3  C   UNL A   1      34.379  33.304  29.633  1.00  0.00     0.313 C 
ATOM      4  O   UNL A   1      33.723  34.171  29.061  1.00  0.00    -0.252 OA
BRANCH   3   5
ATOM      5  C   UNL A   1      35.469  32.516  28.917  1.00  0.00     0.126 C 
ATOM      6  C   UNL A   1      36.275  33.448  28.014  1.00  0.00     0.025 C 
BRANCH   5   7
ATOM      7  C   UNL A   1      35.016  31.255  28.195  1.00  0.00    -0.033 A 
ATOM      8  C   UNL A   1      32.523  27.655  25.617  1.00  0.00     0.119 A 
ATOM      9  C   UNL A   1      31.581  28.636  25.916  1.00  0.00     0.047 A 
ATOM     10  C   UNL A   1      33.831  27.779  26.084  1.00  0.00     0.055 A 
ATOM     11  C   UNL A   1      31.964  29.771  26.635  1.00  0.00     0.012 A 
ATOM     12  C   UNL A   1      34.232  28.919  26.800  1.00  0.00    -0.015 A 
ATOM     13  C   UNL A   1      33.289  29.934  27.068  1.00  0.00    -0.018 A 
ATOM     14  C   UNL A   1      35.550  29.077  27.245  1.00  0.00     0.009 A 
ATOM     15  C   UNL A   1      33.692  31.087  27.760  1.00  0.00     0.013 A 
ATOM     16  C   UNL A   1      35.938  30.231  27.930  1.00  0.00     0.005 A 
BRANCH   8  17
ATOM     17  O   UNL A   1      32.239  26.518  24.909  1.00  0.00    -0.497 OA
ATOM     18  C   UNL A   1      31.433  25.587  25.627  1.00  0.00     0.278 C 
ENDBRANCH   8  17
ENDBRANCH   5   7
ENDBRANCH   3   5
ENDBRANCH   2   3
ENDBRANCH   1   2
BRANCH   1  19
ATOM     19  C   UNL A   1      34.821  33.317  33.259  1.00  0.00     0.275 C 
BRANCH  19  20
ATOM     20  O   UNL A   1      35.507  32.070  33.045  1.00  0.00    -0.458 OA
BRANCH  20  21
ATOM     21  C   UNL A   1      36.735  31.990  33.605  1.00  0.00     0.338 C 
ATOM     22  O   UNL A   1      37.045  32.217  34.761  1.00  0.00    -0.246 OA
BRANCH  21  23
ATOM     23  C   UNL A   1      37.686  31.455  32.621  1.00  0.00     0.060 A 
ATOM     24  C   UNL A   1      38.738  30.666  33.088  1.00  0.00     0.016 A 
ATOM     25  C   UNL A   1      37.598  31.799  31.272  1.00  0.00     0.016 A 
ATOM     26  C   UNL A   1      39.721  30.222  32.211  1.00  0.00     0.010 A 
ATOM     27  C   UNL A   1      38.583  31.348  30.389  1.00  0.00     0.010 A 
ATOM     28  C   UNL A   1      39.657  30.569  30.856  1.00  0.00    -0.014 A 
BRANCH  28  29
ATOM     29  C   UNL A   1      40.747  30.153  29.944  1.00  0.00     0.031 A 
ATOM     30  C   UNL A   1      40.684  28.819  29.259  1.00  0.00     0.074 A 
ATOM     31  C   UNL A   1      41.776  30.987  29.708  1.00  0.00     0.049 A 
ATOM     32  N   UNL A   1      41.559  28.257  28.464  1.00  0.00    -0.248 NA
ATOM     33  C   UNL A   1      39.476  28.013  29.497  1.00  0.00     0.031 C 
ATOM     34  C   UNL A   1      41.925  32.329  30.275  1.00  0.00     0.029 A 
ATOM     35  N   UNL A   1      42.890  30.828  28.923  1.00  0.00    -0.354 N 
ATOM     36  C   UNL A   1      41.018  27.026  28.120  1.00  0.00     0.074 A 
ATOM     37  C   UNL A   1      39.747  26.915  28.803  1.00  0.00     0.031 C 
ATOM     38  C   UNL A   1      43.062  32.874  29.810  1.00  0.00     0.029 A 
ATOM     39  C   UNL A   1      43.739  31.906  28.952  1.00  0.00     0.049 A 
ATOM     40  H   UNL A   1      43.062  30.019  28.390  1.00  0.00     0.167 HD
ATOM     41  C   UNL A   1      41.535  26.072  27.309  1.00  0.00     0.031 A 
ATOM     42  C   UNL A   1      44.939  32.084  28.369  1.00  0.00     0.031 A 
ATOM     43  C   UNL A   1      42.799  26.180  26.631  1.00  0.00     0.049 A 
ATOM     44  C   UNL A   1      45.519  30.984  27.526  1.00  0.00     0.074 A 
ATOM     45  C   UNL A   1      43.406  25.267  25.786  1.00  0.00     0.029 A 
ATOM     46  N   UNL A   1      43.650  27.269  26.721  1.00  0.00    -0.354 N 
ATOM     47  N   UNL A   1      45.001  29.821  27.216  1.00  0.00    -0.248 NA
ATOM     48  C   UNL A   1      46.852  31.224  26.954  1.00  0.00     0.031 C 
ATOM     49  C   UNL A   1      44.645  25.788  25.397  1.00  0.00     0.029 A 
ATOM     50  C   UNL A   1      44.788  27.044  25.964  1.00  0.00     0.049 A 
ATOM     51  H   UNL A   1      43.474  28.083  27.245  1.00  0.00     0.167 HD
ATOM     52  C   UNL A   1      45.936  29.196  26.402  1.00  0.00     0.074 A 
ATOM     53  C   UNL A   1      47.045  30.116  26.251  1.00  0.00     0.031 C 
ATOM     54  C   UNL A   1      45.883  27.969  25.830  1.00  0.00     0.031 A 
BRANCH  41  55
ATOM     55  C   UNL A   1      40.742  24.808  27.142  1.00  0.00    -0.014 A 
ATOM     56  C   UNL A   1      41.200  23.587  27.660  1.00  0.00     0.009 A 
ATOM     57  C   UNL A   1      39.505  24.849  26.479  1.00  0.00     0.009 A 
ATOM     58  C   UNL A   1      40.444  22.424  27.493  1.00  0.00     0.001 A 
ATOM     59  C   UNL A   1      38.743  23.689  26.334  1.00  0.00     0.001 A 
ATOM     60  C   UNL A   1      39.217  22.477  26.834  1.00  0.00     0.000 A 
ENDBRANCH  41  55
BRANCH  42  61
ATOM     61  C   UNL A   1      45.689  33.346  28.589  1.00  0.00    -0.014 A 
ATOM     62  C   UNL A   1      46.571  33.475  29.672  1.00  0.00     0.009 A 
ATOM     63  C   UNL A   1      45.518  34.433  27.717  1.00  0.00     0.009 A 
ATOM     64  C   UNL A   1      47.254  34.674  29.887  1.00  0.00     0.001 A 
ATOM     65  C   UNL A   1      46.221  35.622  27.921  1.00  0.00     0.001 A 
ATOM     66  C   UNL A   1      47.081  35.744  29.010  1.00  0.00     0.000 A 
ENDBRANCH  42  61
BRANCH  54  67
ATOM     67  C   UNL A   1      47.046  27.564  24.973  1.00  0.00    -0.014 A 
ATOM     68  C   UNL A   1      47.092  27.900  23.611  1.00  0.00     0.009 A 
ATOM     69  C   UNL A   1      48.121  26.865  25.541  1.00  0.00     0.009 A 
ATOM     70  C   UNL A   1      48.183  27.514  22.828  1.00  0.00     0.001 A 
ATOM     71  C   UNL A   1      49.219  26.501  24.762  1.00  0.00     0.001 A 
ATOM     72  C   UNL A   1      49.245  26.819  23.405  1.00  0.00     0.000 A 
ENDBRANCH  54  67
ENDBRANCH  28  29
ENDBRANCH  21  23
ENDBRANCH  20  21
ENDBRANCH  19  20
ENDBRANCH   1  19
TORSDOF 13
ENDMDL
