MODEL 1
REMARK VINA RESULT:     -11.7      0.000      0.000
REMARK SMILES O=C(OCCOC(=O)c1cccc(OS(=O)(=O)c2cccc([N+](=O)[O-])c2)c1)c1ccc(-c2c3nc(c(-c4ccccc4)c4ccc([nH]4)c(-c4ccccc4)c4nc(c(-c5ccccc5)c5ccc2[nH]5)C=C4)C=C3)cc1
REMARK SMILES IDX 5 1 4 2 3 3 2 4 1 5 28 6 29 7 75 8 30 9 74 10 31 11 32 12
REMARK SMILES IDX 33 13 68 14 34 15 73 16 67 17 69 18 35 19 72 20 66 21 65 22
REMARK SMILES IDX 36 24 58 25 43 26 57 27 44 28 47 29 56 30 70 31 45 32 46 33
REMARK SMILES IDX 55 35 71 36 48 37 37 38 38 39 42 40 39 41 41 42 40 43 59 44
REMARK SMILES IDX 60 45 64 46 61 47 63 48 62 49 49 50 50 51 54 52 51 53 53 54
REMARK SMILES IDX 52 55 6 56 7 57 8 58 9 59 10 60 27 61 11 62 13 63 12 64
REMARK SMILES IDX 14 65 15 66 16 67 17 68 18 69 19 70 26 71 20 72 22 73 21 74
REMARK SMILES IDX 23 75 24 76 25 77
REMARK H PARENT 69 23 47 34
REMARK Flexibility Score: inf
ROOT
ATOM      1  C   UNL A   1      42.737  20.747  26.054  1.00  0.00     0.275 C 
ENDROOT
BRANCH   1   2
ATOM      2  C   UNL A   1      43.912  21.646  25.636  1.00  0.00     0.275 C 
BRANCH   2   3
ATOM      3  O   UNL A   1      43.520  22.936  25.134  1.00  0.00    -0.458 OA
BRANCH   3   4
ATOM      4  C   UNL A   1      44.057  24.161  25.335  1.00  0.00     0.338 C 
ATOM      5  O   UNL A   1      44.981  24.515  24.604  1.00  0.00    -0.246 OA
BRANCH   4   6
ATOM      6  C   UNL A   1      43.661  25.102  26.441  1.00  0.00     0.060 A 
ATOM      7  C   UNL A   1      44.114  26.408  26.617  1.00  0.00     0.016 A 
ATOM      8  C   UNL A   1      42.683  24.636  27.343  1.00  0.00     0.016 A 
ATOM      9  C   UNL A   1      43.586  27.239  27.599  1.00  0.00     0.010 A 
ATOM     10  C   UNL A   1      42.120  25.475  28.313  1.00  0.00     0.010 A 
ATOM     11  C   UNL A   1      42.569  26.793  28.439  1.00  0.00    -0.014 A 
BRANCH  11  12
ATOM     12  C   UNL A   1      42.148  27.673  29.551  1.00  0.00     0.031 A 
ATOM     13  C   UNL A   1      40.906  28.480  29.362  1.00  0.00     0.074 A 
ATOM     14  C   UNL A   1      42.683  27.563  30.784  1.00  0.00     0.049 A 
ATOM     15  N   UNL A   1      40.312  29.275  30.209  1.00  0.00    -0.248 NA
ATOM     16  C   UNL A   1      40.202  28.312  28.080  1.00  0.00     0.031 C 
ATOM     17  C   UNL A   1      43.670  26.557  31.160  1.00  0.00     0.029 A 
ATOM     18  N   UNL A   1      42.417  28.220  31.963  1.00  0.00    -0.354 N 
ATOM     19  C   UNL A   1      39.146  29.671  29.576  1.00  0.00     0.074 A 
ATOM     20  C   UNL A   1      39.148  29.091  28.253  1.00  0.00     0.031 C 
ATOM     21  C   UNL A   1      43.868  26.621  32.483  1.00  0.00     0.029 A 
ATOM     22  C   UNL A   1      43.177  27.781  33.027  1.00  0.00     0.049 A 
ATOM     23  H   UNL A   1      41.746  28.937  32.041  1.00  0.00     0.167 HD
ATOM     24  C   UNL A   1      38.145  30.427  30.076  1.00  0.00     0.031 A 
ATOM     25  C   UNL A   1      43.355  28.302  34.263  1.00  0.00     0.031 A 
ATOM     26  C   UNL A   1      38.173  31.018  31.384  1.00  0.00     0.049 A 
ATOM     27  C   UNL A   1      42.505  29.483  34.620  1.00  0.00     0.074 A 
ATOM     28  C   UNL A   1      37.246  31.857  31.969  1.00  0.00     0.029 A 
ATOM     29  N   UNL A   1      39.198  30.842  32.304  1.00  0.00    -0.354 N 
ATOM     30  N   UNL A   1      41.455  29.941  33.981  1.00  0.00    -0.248 NA
ATOM     31  C   UNL A   1      42.838  30.226  35.838  1.00  0.00     0.031 C 
ATOM     32  C   UNL A   1      37.753  32.262  33.209  1.00  0.00     0.029 A 
ATOM     33  C   UNL A   1      38.951  31.602  33.434  1.00  0.00     0.049 A 
ATOM     34  H   UNL A   1      39.983  30.263  32.172  1.00  0.00     0.167 HD
ATOM     35  C   UNL A   1      40.938  30.950  34.777  1.00  0.00     0.074 A 
ATOM     36  C   UNL A   1      41.815  31.064  35.924  1.00  0.00     0.031 C 
ATOM     37  C   UNL A   1      39.813  31.682  34.587  1.00  0.00     0.031 A 
BRANCH  24  38
ATOM     38  C   UNL A   1      37.004  30.716  29.149  1.00  0.00    -0.014 A 
ATOM     39  C   UNL A   1      36.774  32.002  28.633  1.00  0.00     0.009 A 
ATOM     40  C   UNL A   1      36.104  29.686  28.840  1.00  0.00     0.009 A 
ATOM     41  C   UNL A   1      35.635  32.260  27.868  1.00  0.00     0.001 A 
ATOM     42  C   UNL A   1      34.987  29.938  28.046  1.00  0.00     0.001 A 
ATOM     43  C   UNL A   1      34.745  31.227  27.574  1.00  0.00     0.000 A 
ENDBRANCH  24  38
BRANCH  25  44
ATOM     44  C   UNL A   1      44.496  27.856  35.124  1.00  0.00    -0.014 A 
ATOM     45  C   UNL A   1      46.198  28.304  34.952  1.00  0.00     0.009 A 
ATOM     46  C   UNL A   1      44.119  26.560  36.301  1.00  0.00     0.009 A 
ATOM     47  C   UNL A   1      47.533  27.536  35.864  1.00  0.00     0.001 A 
ATOM     48  C   UNL A   1      45.609  25.687  37.353  1.00  0.00     0.001 A 
ATOM     49  C   UNL A   1      47.291  26.249  37.053  1.00  0.00     0.000 A 
ENDBRANCH  25  44
BRANCH  37  50
ATOM     50  C   UNL A   1      39.378  32.546  35.733  1.00  0.00    -0.014 A 
ATOM     51  C   UNL A   1      38.547  32.077  36.760  1.00  0.00     0.009 A 
ATOM     52  C   UNL A   1      39.827  33.877  35.770  1.00  0.00     0.009 A 
ATOM     53  C   UNL A   1      38.136  32.941  37.776  1.00  0.00     0.001 A 
ATOM     54  C   UNL A   1      39.452  34.724  36.809  1.00  0.00     0.001 A 
ATOM     55  C   UNL A   1      38.594  34.260  37.804  1.00  0.00     0.000 A 
ENDBRANCH  37  50
ENDBRANCH  11  12
ENDBRANCH   4   6
ENDBRANCH   3   4
ENDBRANCH   2   3
ENDBRANCH   1   2
BRANCH   1  56
ATOM     56  O   UNL A   1      41.439  21.304  25.777  1.00  0.00    -0.458 OA
BRANCH  56  57
ATOM     57  C   UNL A   1      40.578  21.361  26.829  1.00  0.00     0.338 C 
ATOM     58  O   UNL A   1      40.772  20.931  27.951  1.00  0.00    -0.246 OA
BRANCH  57  59
ATOM     59  C   UNL A   1      39.396  22.170  26.447  1.00  0.00     0.063 A 
ATOM     60  C   UNL A   1      39.297  23.490  26.895  1.00  0.00     0.016 A 
ATOM     61  C   UNL A   1      38.397  21.629  25.634  1.00  0.00     0.064 A 
ATOM     62  C   UNL A   1      38.241  24.293  26.455  1.00  0.00     0.005 A 
ATOM     63  C   UNL A   1      37.290  22.405  25.272  1.00  0.00     0.143 A 
ATOM     64  C   UNL A   1      37.246  23.754  25.636  1.00  0.00     0.048 A 
BRANCH  63  65
ATOM     65  O   UNL A   1      36.223  21.942  24.540  1.00  0.00    -0.379 OA
BRANCH  65  66
ATOM     66  S   UNL A   1      34.814  21.550  25.272  1.00  0.00     0.339 S 
ATOM     67  O   UNL A   1      34.231  20.424  24.562  1.00  0.00    -0.181 OA
ATOM     68  O   UNL A   1      34.990  21.530  26.707  1.00  0.00    -0.181 OA
BRANCH  66  69
ATOM     69  C   UNL A   1      33.734  22.929  24.911  1.00  0.00     0.112 A 
ATOM     70  C   UNL A   1      32.094  22.685  25.499  1.00  0.00     0.024 A 
ATOM     71  C   UNL A   1      34.180  24.057  23.601  1.00  0.00     0.109 A 
ATOM     72  C   UNL A   1      30.778  23.586  24.700  1.00  0.00     0.009 A 
ATOM     73  C   UNL A   1      32.972  25.029  22.749  1.00  0.00     0.270 A 
ATOM     74  C   UNL A   1      31.236  24.867  23.203  1.00  0.00     0.086 A 
BRANCH  73  75
ATOM     75  N   UNL A   1      33.313  25.733  21.541  1.00  0.00     0.062 N 
ATOM     76  O   UNL A   1      33.677  26.908  21.656  1.00  0.00    -0.258 OA
ATOM     77  O   UNL A   1      33.191  25.109  20.481  1.00  0.00    -0.258 OA
ENDBRANCH  73  75
ENDBRANCH  66  69
ENDBRANCH  65  66
ENDBRANCH  63  65
ENDBRANCH  57  59
ENDBRANCH  56  57
ENDBRANCH   1  56
TORSDOF 15
ENDMDL
MODEL 2
REMARK VINA RESULT:     -11.5      0.790      6.146
REMARK SMILES O=C(OCCOC(=O)c1cccc(OS(=O)(=O)c2cccc([N+](=O)[O-])c2)c1)c1ccc(-c2c3nc(c(-c4ccccc4)c4ccc([nH]4)c(-c4ccccc4)c4nc(c(-c5ccccc5)c5ccc2[nH]5)C=C4)C=C3)cc1
REMARK SMILES IDX 5 1 4 2 3 3 2 4 1 5 28 6 29 7 75 8 30 9 74 10 31 11 32 12
REMARK SMILES IDX 33 13 68 14 34 15 73 16 67 17 69 18 35 19 72 20 66 21 65 22
REMARK SMILES IDX 36 24 58 25 43 26 57 27 44 28 47 29 56 30 70 31 45 32 46 33
REMARK SMILES IDX 55 35 71 36 48 37 37 38 38 39 42 40 39 41 41 42 40 43 59 44
REMARK SMILES IDX 60 45 64 46 61 47 63 48 62 49 49 50 50 51 54 52 51 53 53 54
REMARK SMILES IDX 52 55 6 56 7 57 8 58 9 59 10 60 27 61 11 62 13 63 12 64
REMARK SMILES IDX 14 65 15 66 16 67 17 68 18 69 19 70 26 71 20 72 22 73 21 74
REMARK SMILES IDX 23 75 24 76 25 77
REMARK H PARENT 69 23 47 34
REMARK Flexibility Score: inf
ROOT
ATOM      1  C   UNL A   1      42.600  20.302  25.999  1.00  0.00     0.275 C 
ENDROOT
BRANCH   1   2
ATOM      2  C   UNL A   1      43.806  21.109  25.489  1.00  0.00     0.275 C 
BRANCH   2   3
ATOM      3  O   UNL A   1      43.459  22.334  24.821  1.00  0.00    -0.458 OA
BRANCH   3   4
ATOM      4  C   UNL A   1      43.940  23.588  24.973  1.00  0.00     0.338 C 
ATOM      5  O   UNL A   1      44.859  23.949  24.237  1.00  0.00    -0.246 OA
BRANCH   4   6
ATOM      6  C   UNL A   1      43.488  24.560  26.029  1.00  0.00     0.060 A 
ATOM      7  C   UNL A   1      43.645  25.945  26.000  1.00  0.00     0.016 A 
ATOM      8  C   UNL A   1      42.777  24.018  27.119  1.00  0.00     0.016 A 
ATOM      9  C   UNL A   1      43.075  26.765  26.968  1.00  0.00     0.010 A 
ATOM     10  C   UNL A   1      42.170  24.838  28.079  1.00  0.00     0.010 A 
ATOM     11  C   UNL A   1      42.312  26.227  28.000  1.00  0.00    -0.014 A 
BRANCH  11  12
ATOM     12  C   UNL A   1      41.852  27.135  29.073  1.00  0.00     0.031 A 
ATOM     13  C   UNL A   1      42.731  27.295  30.268  1.00  0.00     0.074 A 
ATOM     14  C   UNL A   1      40.831  27.996  28.885  1.00  0.00     0.049 A 
ATOM     15  N   UNL A   1      42.569  28.071  31.304  1.00  0.00    -0.248 NA
ATOM     16  C   UNL A   1      43.995  26.538  30.260  1.00  0.00     0.031 C 
ATOM     17  C   UNL A   1      40.123  28.159  27.620  1.00  0.00     0.029 A 
ATOM     18  N   UNL A   1      40.274  28.953  29.701  1.00  0.00    -0.354 N 
ATOM     19  C   UNL A   1      43.726  27.924  32.051  1.00  0.00     0.074 A 
ATOM     20  C   UNL A   1      44.549  26.936  31.392  1.00  0.00     0.031 C 
ATOM     21  C   UNL A   1      39.284  29.198  27.727  1.00  0.00     0.029 A 
ATOM     22  C   UNL A   1      39.247  29.658  29.108  1.00  0.00     0.049 A 
ATOM     23  H   UNL A   1      40.579  29.121  30.621  1.00  0.00     0.167 HD
ATOM     24  C   UNL A   1      44.081  28.588  33.173  1.00  0.00     0.031 A 
ATOM     25  C   UNL A   1      38.337  30.509  29.636  1.00  0.00     0.031 A 
ATOM     26  C   UNL A   1      43.238  29.547  33.828  1.00  0.00     0.049 A 
ATOM     27  C   UNL A   1      38.518  30.872  31.078  1.00  0.00     0.074 A 
ATOM     28  C   UNL A   1      43.466  30.229  35.006  1.00  0.00     0.029 A 
ATOM     29  N   UNL A   1      41.991  29.944  33.364  1.00  0.00    -0.354 N 
ATOM     30  N   UNL A   1      39.565  30.653  31.838  1.00  0.00    -0.248 NA
ATOM     31  C   UNL A   1      37.427  31.581  31.750  1.00  0.00     0.031 C 
ATOM     32  C   UNL A   1      42.318  30.972  35.302  1.00  0.00     0.029 A 
ATOM     33  C   UNL A   1      41.412  30.824  34.263  1.00  0.00     0.049 A 
ATOM     34  H   UNL A   1      41.579  29.644  32.521  1.00  0.00     0.167 HD
ATOM     35  C   UNL A   1      39.304  31.296  33.036  1.00  0.00     0.074 A 
ATOM     36  C   UNL A   1      37.981  31.875  32.917  1.00  0.00     0.031 C 
ATOM     37  C   UNL A   1      40.110  31.424  34.118  1.00  0.00     0.031 A 
BRANCH  24  38
ATOM     38  C   UNL A   1      45.394  28.205  33.783  1.00  0.00    -0.014 A 
ATOM     39  C   UNL A   1      45.504  27.152  34.707  1.00  0.00     0.009 A 
ATOM     40  C   UNL A   1      46.533  28.960  33.471  1.00  0.00     0.009 A 
ATOM     41  C   UNL A   1      46.720  26.900  35.344  1.00  0.00     0.001 A 
ATOM     42  C   UNL A   1      47.754  28.683  34.083  1.00  0.00     0.001 A 
ATOM     43  C   UNL A   1      47.844  27.664  35.029  1.00  0.00     0.000 A 
ENDBRANCH  24  38
BRANCH  25  44
ATOM     44  C   UNL A   1      37.101  30.876  28.874  1.00  0.00    -0.014 A 
ATOM     45  C   UNL A   1      36.488  32.505  28.561  1.00  0.00     0.009 A 
ATOM     46  C   UNL A   1      36.025  29.512  28.438  1.00  0.00     0.009 A 
ATOM     47  C   UNL A   1      34.878  32.851  27.859  1.00  0.00     0.001 A 
ATOM     48  C   UNL A   1      34.208  29.879  27.630  1.00  0.00     0.001 A 
ATOM     49  C   UNL A   1      33.727  31.595  27.386  1.00  0.00     0.000 A 
ENDBRANCH  25  44
BRANCH  37  50
ATOM     50  C   UNL A   1      39.649  32.372  35.185  1.00  0.00    -0.014 A 
ATOM     51  C   UNL A   1      39.924  33.745  35.146  1.00  0.00     0.009 A 
ATOM     52  C   UNL A   1      38.912  31.851  36.263  1.00  0.00     0.009 A 
ATOM     53  C   UNL A   1      39.509  34.571  36.193  1.00  0.00     0.001 A 
ATOM     54  C   UNL A   1      38.461  32.684  37.282  1.00  0.00     0.001 A 
ATOM     55  C   UNL A   1      38.773  34.042  37.255  1.00  0.00     0.000 A 
ENDBRANCH  37  50
ENDBRANCH  11  12
ENDBRANCH   4   6
ENDBRANCH   3   4
ENDBRANCH   2   3
ENDBRANCH   1   2
BRANCH   1  56
ATOM     56  O   UNL A   1      41.324  20.917  25.736  1.00  0.00    -0.458 OA
BRANCH  56  57
ATOM     57  C   UNL A   1      40.547  21.167  26.823  1.00  0.00     0.338 C 
ATOM     58  O   UNL A   1      40.788  20.856  27.975  1.00  0.00    -0.246 OA
BRANCH  57  59
ATOM     59  C   UNL A   1      39.404  22.020  26.420  1.00  0.00     0.063 A 
ATOM     60  C   UNL A   1      39.365  23.353  26.838  1.00  0.00     0.016 A 
ATOM     61  C   UNL A   1      38.384  21.508  25.615  1.00  0.00     0.064 A 
ATOM     62  C   UNL A   1      38.349  24.193  26.377  1.00  0.00     0.005 A 
ATOM     63  C   UNL A   1      37.315  22.326  25.233  1.00  0.00     0.143 A 
ATOM     64  C   UNL A   1      37.332  23.683  25.566  1.00  0.00     0.048 A 
BRANCH  63  65
ATOM     65  O   UNL A   1      36.229  21.896  24.506  1.00  0.00    -0.379 OA
BRANCH  65  66
ATOM     66  S   UNL A   1      34.830  21.496  25.253  1.00  0.00     0.339 S 
ATOM     67  O   UNL A   1      34.270  20.338  24.576  1.00  0.00    -0.181 OA
ATOM     68  O   UNL A   1      35.010  21.519  26.688  1.00  0.00    -0.181 OA
BRANCH  66  69
ATOM     69  C   UNL A   1      33.721  22.842  24.857  1.00  0.00     0.112 A 
ATOM     70  C   UNL A   1      32.066  22.537  25.371  1.00  0.00     0.024 A 
ATOM     71  C   UNL A   1      34.186  23.997  23.579  1.00  0.00     0.109 A 
ATOM     72  C   UNL A   1      30.756  23.402  24.522  1.00  0.00     0.009 A 
ATOM     73  C   UNL A   1      32.984  24.937  22.683  1.00  0.00     0.270 A 
ATOM     74  C   UNL A   1      31.237  24.712  23.058  1.00  0.00     0.086 A 
BRANCH  73  75
ATOM     75  N   UNL A   1      33.354  25.664  21.497  1.00  0.00     0.062 N 
ATOM     76  O   UNL A   1      33.049  25.161  20.410  1.00  0.00    -0.258 OA
ATOM     77  O   UNL A   1      33.968  26.724  21.662  1.00  0.00    -0.258 OA
ENDBRANCH  73  75
ENDBRANCH  66  69
ENDBRANCH  65  66
ENDBRANCH  63  65
ENDBRANCH  57  59
ENDBRANCH  56  57
ENDBRANCH   1  56
TORSDOF 15
ENDMDL
MODEL 3
REMARK VINA RESULT:     -11.1      4.204      5.919
REMARK SMILES O=C(OCCOC(=O)c1cccc(OS(=O)(=O)c2cccc([N+](=O)[O-])c2)c1)c1ccc(-c2c3nc(c(-c4ccccc4)c4ccc([nH]4)c(-c4ccccc4)c4nc(c(-c5ccccc5)c5ccc2[nH]5)C=C4)C=C3)cc1
REMARK SMILES IDX 5 1 4 2 3 3 2 4 1 5 28 6 29 7 75 8 30 9 74 10 31 11 32 12
REMARK SMILES IDX 33 13 68 14 34 15 73 16 67 17 69 18 35 19 72 20 66 21 65 22
REMARK SMILES IDX 36 24 58 25 43 26 57 27 44 28 47 29 56 30 70 31 45 32 46 33
REMARK SMILES IDX 55 35 71 36 48 37 37 38 38 39 42 40 39 41 41 42 40 43 59 44
REMARK SMILES IDX 60 45 64 46 61 47 63 48 62 49 49 50 50 51 54 52 51 53 53 54
REMARK SMILES IDX 52 55 6 56 7 57 8 58 9 59 10 60 27 61 11 62 13 63 12 64
REMARK SMILES IDX 14 65 15 66 16 67 17 68 18 69 19 70 26 71 20 72 22 73 21 74
REMARK SMILES IDX 23 75 24 76 25 77
REMARK H PARENT 69 23 47 34
REMARK Flexibility Score: inf
ROOT
ATOM      1  C   UNL A   1      38.205  21.144  25.574  1.00  0.00     0.275 C 
ENDROOT
BRANCH   1   2
ATOM      2  C   UNL A   1      38.826  19.854  25.010  1.00  0.00     0.275 C 
BRANCH   2   3
ATOM      3  O   UNL A   1      39.823  19.258  25.857  1.00  0.00    -0.458 OA
BRANCH   3   4
ATOM      4  C   UNL A   1      41.108  19.610  26.089  1.00  0.00     0.338 C 
ATOM      5  O   UNL A   1      41.971  18.736  26.009  1.00  0.00    -0.246 OA
BRANCH   4   6
ATOM      6  C   UNL A   1      41.561  20.980  26.516  1.00  0.00     0.060 A 
ATOM      7  C   UNL A   1      41.615  21.463  27.823  1.00  0.00     0.016 A 
ATOM      8  C   UNL A   1      42.041  21.829  25.499  1.00  0.00     0.016 A 
ATOM      9  C   UNL A   1      42.173  22.701  28.121  1.00  0.00     0.010 A 
ATOM     10  C   UNL A   1      42.637  23.062  25.792  1.00  0.00     0.010 A 
ATOM     11  C   UNL A   1      42.712  23.501  27.118  1.00  0.00    -0.014 A 
BRANCH  11  12
ATOM     12  C   UNL A   1      43.162  24.863  27.479  1.00  0.00     0.031 A 
ATOM     13  C   UNL A   1      42.114  25.872  27.812  1.00  0.00     0.074 A 
ATOM     14  C   UNL A   1      44.452  25.131  27.768  1.00  0.00     0.049 A 
ATOM     15  N   UNL A   1      42.264  27.106  28.209  1.00  0.00    -0.248 NA
ATOM     16  C   UNL A   1      40.717  25.409  27.765  1.00  0.00     0.031 C 
ATOM     17  C   UNL A   1      45.507  24.124  27.807  1.00  0.00     0.029 A 
ATOM     18  N   UNL A   1      45.083  26.285  28.174  1.00  0.00    -0.354 N 
ATOM     19  C   UNL A   1      40.985  27.553  28.495  1.00  0.00     0.074 A 
ATOM     20  C   UNL A   1      40.066  26.489  28.160  1.00  0.00     0.031 C 
ATOM     21  C   UNL A   1      46.625  24.689  28.281  1.00  0.00     0.029 A 
ATOM     22  C   UNL A   1      46.434  26.128  28.401  1.00  0.00     0.049 A 
ATOM     23  H   UNL A   1      44.614  27.142  28.291  1.00  0.00     0.167 HD
ATOM     24  C   UNL A   1      40.618  28.740  29.025  1.00  0.00     0.031 A 
ATOM     25  C   UNL A   1      47.410  27.043  28.601  1.00  0.00     0.031 A 
ATOM     26  C   UNL A   1      41.544  29.795  29.325  1.00  0.00     0.049 A 
ATOM     27  C   UNL A   1      46.974  28.470  28.729  1.00  0.00     0.074 A 
ATOM     28  C   UNL A   1      41.277  31.063  29.801  1.00  0.00     0.029 A 
ATOM     29  N   UNL A   1      42.919  29.705  29.160  1.00  0.00    -0.354 N 
ATOM     30  N   UNL A   1      45.756  28.927  28.899  1.00  0.00    -0.248 NA
ATOM     31  C   UNL A   1      48.005  29.509  28.694  1.00  0.00     0.031 C 
ATOM     32  C   UNL A   1      42.483  31.772  29.837  1.00  0.00     0.029 A 
ATOM     33  C   UNL A   1      43.511  30.916  29.473  1.00  0.00     0.049 A 
ATOM     34  H   UNL A   1      43.402  28.899  28.863  1.00  0.00     0.167 HD
ATOM     35  C   UNL A   1      45.887  30.290  29.103  1.00  0.00     0.074 A 
ATOM     36  C   UNL A   1      47.300  30.591  28.994  1.00  0.00     0.031 C 
ATOM     37  C   UNL A   1      44.923  31.196  29.396  1.00  0.00     0.031 A 
BRANCH  24  38
ATOM     38  C   UNL A   1      39.148  28.959  29.207  1.00  0.00    -0.014 A 
ATOM     39  C   UNL A   1      38.336  29.448  28.169  1.00  0.00     0.009 A 
ATOM     40  C   UNL A   1      38.579  28.732  30.468  1.00  0.00     0.009 A 
ATOM     41  C   UNL A   1      36.995  29.751  28.410  1.00  0.00     0.001 A 
ATOM     42  C   UNL A   1      37.231  29.003  30.695  1.00  0.00     0.001 A 
ATOM     43  C   UNL A   1      36.444  29.526  29.671  1.00  0.00     0.000 A 
ENDBRANCH  24  38
BRANCH  25  44
ATOM     44  C   UNL A   1      48.853  26.663  28.470  1.00  0.00    -0.014 A 
ATOM     45  C   UNL A   1      50.051  26.565  29.767  1.00  0.00     0.009 A 
ATOM     46  C   UNL A   1      49.468  26.517  26.794  1.00  0.00     0.009 A 
ATOM     47  C   UNL A   1      51.806  26.347  29.496  1.00  0.00     0.001 A 
ATOM     48  C   UNL A   1      51.445  26.255  26.463  1.00  0.00     0.001 A 
ATOM     49  C   UNL A   1      52.535  26.188  27.893  1.00  0.00     0.000 A 
ENDBRANCH  25  44
BRANCH  37  50
ATOM     50  C   UNL A   1      45.392  32.565  29.791  1.00  0.00    -0.014 A 
ATOM     51  C   UNL A   1      45.544  33.608  28.868  1.00  0.00     0.009 A 
ATOM     52  C   UNL A   1      45.689  32.800  31.145  1.00  0.00     0.009 A 
ATOM     53  C   UNL A   1      46.030  34.848  29.287  1.00  0.00     0.001 A 
ATOM     54  C   UNL A   1      46.129  34.051  31.568  1.00  0.00     0.001 A 
ATOM     55  C   UNL A   1      46.315  35.070  30.636  1.00  0.00     0.000 A 
ENDBRANCH  37  50
ENDBRANCH  11  12
ENDBRANCH   4   6
ENDBRANCH   3   4
ENDBRANCH   2   3
ENDBRANCH   1   2
BRANCH   1  56
ATOM     56  O   UNL A   1      37.199  21.734  24.730  1.00  0.00    -0.458 OA
BRANCH  56  57
ATOM     57  C   UNL A   1      35.914  21.372  24.991  1.00  0.00     0.338 C 
ATOM     58  O   UNL A   1      35.467  20.240  25.005  1.00  0.00    -0.246 OA
BRANCH  57  59
ATOM     59  C   UNL A   1      35.147  22.569  25.410  1.00  0.00     0.063 A 
ATOM     60  C   UNL A   1      35.634  23.839  25.088  1.00  0.00     0.016 A 
ATOM     61  C   UNL A   1      33.942  22.435  26.102  1.00  0.00     0.064 A 
ATOM     62  C   UNL A   1      34.867  24.969  25.385  1.00  0.00     0.005 A 
ATOM     63  C   UNL A   1      33.222  23.573  26.483  1.00  0.00     0.143 A 
ATOM     64  C   UNL A   1      33.658  24.835  26.071  1.00  0.00     0.048 A 
BRANCH  63  65
ATOM     65  O   UNL A   1      32.066  23.547  27.230  1.00  0.00    -0.379 OA
BRANCH  65  66
ATOM     66  S   UNL A   1      30.619  23.275  26.519  1.00  0.00     0.339 S 
ATOM     67  O   UNL A   1      30.639  21.940  25.945  1.00  0.00    -0.181 OA
ATOM     68  O   UNL A   1      29.550  23.708  27.390  1.00  0.00    -0.181 OA
BRANCH  66  69
ATOM     69  C   UNL A   1      30.608  24.379  25.112  1.00  0.00     0.112 A 
ATOM     70  C   UNL A   1      31.314  23.657  23.672  1.00  0.00     0.024 A 
ATOM     71  C   UNL A   1      30.457  26.135  25.391  1.00  0.00     0.109 A 
ATOM     72  C   UNL A   1      31.974  24.752  22.427  1.00  0.00     0.009 A 
ATOM     73  C   UNL A   1      31.045  27.325  24.221  1.00  0.00     0.270 A 
ATOM     74  C   UNL A   1      31.835  26.751  22.708  1.00  0.00     0.086 A 
BRANCH  73  75
ATOM     75  N   UNL A   1      31.145  28.717  24.574  1.00  0.00     0.062 N 
ATOM     76  O   UNL A   1      30.289  29.479  24.112  1.00  0.00    -0.258 OA
ATOM     77  O   UNL A   1      32.096  29.041  25.294  1.00  0.00    -0.258 OA
ENDBRANCH  73  75
ENDBRANCH  66  69
ENDBRANCH  65  66
ENDBRANCH  63  65
ENDBRANCH  57  59
ENDBRANCH  56  57
ENDBRANCH   1  56
TORSDOF 15
ENDMDL
