MODEL 1
REMARK VINA RESULT:     -12.3      0.000      0.000
REMARK SMILES COc1cccc([C@@H]2[NH2+][C@@](C)(C(=O)OCCOC(=O)c3ccc(-c4c5nc(c(-c6ccccc6)c6ccc([nH]6)c(-c6ccccc6)c6nc(c(-c7ccccc7)c7ccc4[nH]7)C=C6)C=C5)cc3)[C@@H]3C(=O)N(C)C(=O)[C@@H]32)c1O
REMARK SMILES IDX 15 1 14 2 12 3 13 4 10 5 8 6 9 7 75 8 68 11 73 12 11 13
REMARK SMILES IDX 69 14 71 15 74 16 70 17 72 18 7 19 3 20 4 21 76 22 5 23 6 24
REMARK SMILES IDX 2 25 1 26 77 27 16 29 17 30 18 31 19 32 20 33 21 34 67 35
REMARK SMILES IDX 22 36 66 37 23 38 24 39 25 40 60 41 26 42 65 43 59 44 61 45
REMARK SMILES IDX 27 46 64 47 58 48 57 49 28 51 50 52 35 53 49 54 36 55 39 56
REMARK SMILES IDX 48 57 62 58 37 59 38 60 47 62 63 63 40 64 29 65 30 66 34 67
REMARK SMILES IDX 31 68 33 69 32 70 51 71 52 72 56 73 53 74 55 75 54 76 41 77
REMARK SMILES IDX 42 78 46 79 43 80 45 81 44 82
REMARK H PARENT 9 9 9 10 77 28 61 50 39 61
REMARK Flexibility Score: inf
ROOT
ATOM      1  C   UNL A   1      34.732  22.021  24.103  1.00  0.00     0.274 C 
ENDROOT
BRANCH   1   2
ATOM      2  O   UNL A   1      34.221  23.313  24.497  1.00  0.00    -0.457 OA
BRANCH   2   3
ATOM      3  C   UNL A   1      33.614  24.022  23.509  1.00  0.00     0.368 C 
ATOM      4  O   UNL A   1      34.057  24.100  22.363  1.00  0.00    -0.245 OA
BRANCH   3   5
ATOM      5  C   UNL A   1      32.296  24.740  23.918  1.00  0.00     0.204 C 
ATOM      6  C   UNL A   1      31.845  26.875  22.863  1.00  0.00     0.232 C 
ATOM      7  N   UNL A   1      31.597  25.415  22.782  1.00  0.00    -0.325 N 
ATOM      8  C   UNL A   1      32.833  27.086  24.002  1.00  0.00     0.161 C 
ATOM      9  H   UNL A   1      31.956  25.056  21.897  1.00  0.00     0.347 HD
ATOM     10  H   UNL A   1      30.596  25.233  22.834  1.00  0.00     0.347 HD
ATOM     11  C   UNL A   1      32.729  25.844  24.867  1.00  0.00     0.170 C 
ATOM     12  C   UNL A   1      32.575  28.191  24.990  1.00  0.00     0.239 C 
ATOM     13  C   UNL A   1      31.417  23.637  24.511  1.00  0.00     0.093 C 
ATOM     14  C   UNL A   1      31.882  26.282  26.029  1.00  0.00     0.240 C 
ATOM     15  N   UNL A   1      31.989  27.648  26.101  1.00  0.00    -0.285 N 
ATOM     16  O   UNL A   1      32.861  29.366  24.811  1.00  0.00    -0.274 OA
ATOM     17  O   UNL A   1      31.341  25.548  26.839  1.00  0.00    -0.274 OA
ATOM     18  C   UNL A   1      31.577  28.432  27.238  1.00  0.00     0.156 C 
BRANCH   6  19
ATOM     19  C   UNL A   1      30.619  27.768  22.961  1.00  0.00     0.056 A 
ATOM     20  C   UNL A   1      29.274  29.653  22.204  1.00  0.00     0.161 A 
ATOM     21  C   UNL A   1      28.128  29.096  22.757  1.00  0.00     0.050 A 
ATOM     22  C   UNL A   1      30.514  29.022  22.352  1.00  0.00     0.166 A 
ATOM     23  C   UNL A   1      28.220  27.884  23.437  1.00  0.00     0.005 A 
ATOM     24  C   UNL A   1      29.449  27.224  23.528  1.00  0.00     0.014 A 
BRANCH  20  25
ATOM     25  O   UNL A   1      29.183  30.843  21.528  1.00  0.00    -0.493 OA
ATOM     26  C   UNL A   1      28.498  31.817  22.322  1.00  0.00     0.278 C 
ENDBRANCH  20  25
BRANCH  22  27
ATOM     27  O   UNL A   1      31.633  29.634  21.863  1.00  0.00    -0.504 OA
ATOM     28  H   UNL A   1      32.460  29.507  22.287  1.00  0.00     0.293 HD
ENDBRANCH  22  27
ENDBRANCH   6  19
ENDBRANCH   3   5
ENDBRANCH   2   3
ENDBRANCH   1   2
BRANCH   1  29
ATOM     29  C   UNL A   1      35.789  21.511  25.079  1.00  0.00     0.275 C 
BRANCH  29  30
ATOM     30  O   UNL A   1      37.108  21.845  24.610  1.00  0.00    -0.458 OA
BRANCH  30  31
ATOM     31  C   UNL A   1      38.129  21.396  25.378  1.00  0.00     0.338 C 
ATOM     32  O   UNL A   1      38.581  20.263  25.407  1.00  0.00    -0.246 OA
BRANCH  31  33
ATOM     33  C   UNL A   1      38.721  22.493  26.175  1.00  0.00     0.060 A 
ATOM     34  C   UNL A   1      38.236  23.794  26.067  1.00  0.00     0.016 A 
ATOM     35  C   UNL A   1      39.908  22.257  26.870  1.00  0.00     0.016 A 
ATOM     36  C   UNL A   1      39.032  24.863  26.489  1.00  0.00     0.010 A 
ATOM     37  C   UNL A   1      40.617  23.326  27.431  1.00  0.00     0.010 A 
ATOM     38  C   UNL A   1      40.225  24.656  27.201  1.00  0.00    -0.014 A 
BRANCH  38  39
ATOM     39  C   UNL A   1      41.066  25.792  27.706  1.00  0.00     0.031 A 
ATOM     40  C   UNL A   1      40.485  26.833  28.641  1.00  0.00     0.074 A 
ATOM     41  C   UNL A   1      42.347  25.944  27.306  1.00  0.00     0.049 A 
ATOM     42  N   UNL A   1      40.917  28.043  28.908  1.00  0.00    -0.248 NA
ATOM     43  C   UNL A   1      39.242  26.480  29.347  1.00  0.00     0.031 C 
ATOM     44  C   UNL A   1      43.098  25.019  26.455  1.00  0.00     0.029 A 
ATOM     45  N   UNL A   1      43.248  26.953  27.560  1.00  0.00    -0.354 N 
ATOM     46  C   UNL A   1      39.957  28.621  29.734  1.00  0.00     0.074 A 
ATOM     47  C   UNL A   1      38.926  27.625  29.937  1.00  0.00     0.031 C 
ATOM     48  C   UNL A   1      44.350  25.469  26.303  1.00  0.00     0.029 A 
ATOM     49  C   UNL A   1      44.453  26.784  26.919  1.00  0.00     0.049 A 
ATOM     50  H   UNL A   1      43.050  27.720  28.144  1.00  0.00     0.167 HD
ATOM     51  C   UNL A   1      39.932  29.869  30.267  1.00  0.00     0.031 A 
ATOM     52  C   UNL A   1      45.502  27.611  26.759  1.00  0.00     0.031 A 
ATOM     53  C   UNL A   1      40.994  30.834  30.131  1.00  0.00     0.049 A 
ATOM     54  C   UNL A   1      45.439  29.001  27.312  1.00  0.00     0.074 A 
ATOM     55  C   UNL A   1      41.072  32.112  30.658  1.00  0.00     0.029 A 
ATOM     56  N   UNL A   1      42.175  30.616  29.441  1.00  0.00    -0.354 N 
ATOM     57  N   UNL A   1      44.485  29.569  28.006  1.00  0.00    -0.248 NA
ATOM     58  C   UNL A   1      46.587  29.875  27.032  1.00  0.00     0.031 C 
ATOM     59  C   UNL A   1      42.283  32.683  30.251  1.00  0.00     0.029 A 
ATOM     60  C   UNL A   1      42.981  31.741  29.517  1.00  0.00     0.049 A 
ATOM     61  H   UNL A   1      42.408  29.785  28.966  1.00  0.00     0.167 HD
ATOM     62  C   UNL A   1      44.921  30.863  28.257  1.00  0.00     0.074 A 
ATOM     63  C   UNL A   1      46.233  30.989  27.657  1.00  0.00     0.031 C 
ATOM     64  C   UNL A   1      44.285  31.857  28.920  1.00  0.00     0.031 A 
BRANCH  51  65
ATOM     65  C   UNL A   1      38.696  30.295  31.015  1.00  0.00    -0.014 A 
ATOM     66  C   UNL A   1      38.628  30.270  32.416  1.00  0.00     0.009 A 
ATOM     67  C   UNL A   1      37.599  30.799  30.295  1.00  0.00     0.009 A 
ATOM     68  C   UNL A   1      37.476  30.710  33.076  1.00  0.00     0.001 A 
ATOM     69  C   UNL A   1      36.461  31.266  30.958  1.00  0.00     0.001 A 
ATOM     70  C   UNL A   1      36.397  31.213  32.348  1.00  0.00     0.000 A 
ENDBRANCH  51  65
BRANCH  52  71
ATOM     71  C   UNL A   1      46.673  27.162  25.958  1.00  0.00    -0.014 A 
ATOM     72  C   UNL A   1      47.676  26.377  26.543  1.00  0.00     0.009 A 
ATOM     73  C   UNL A   1      46.775  27.494  24.597  1.00  0.00     0.009 A 
ATOM     74  C   UNL A   1      48.761  25.937  25.781  1.00  0.00     0.001 A 
ATOM     75  C   UNL A   1      47.842  27.024  23.830  1.00  0.00     0.001 A 
ATOM     76  C   UNL A   1      48.837  26.252  24.424  1.00  0.00     0.000 A 
ENDBRANCH  52  71
BRANCH  64  77
ATOM     77  C   UNL A   1      45.022  33.155  29.073  1.00  0.00    -0.014 A 
ATOM     78  C   UNL A   1      45.889  33.377  30.154  1.00  0.00     0.009 A 
ATOM     79  C   UNL A   1      44.863  34.161  28.107  1.00  0.00     0.009 A 
ATOM     80  C   UNL A   1      46.561  34.596  30.279  1.00  0.00     0.001 A 
ATOM     81  C   UNL A   1      45.554  35.368  28.222  1.00  0.00     0.001 A 
ATOM     82  C   UNL A   1      46.395  35.588  29.312  1.00  0.00     0.000 A 
ENDBRANCH  64  77
ENDBRANCH  38  39
ENDBRANCH  31  33
ENDBRANCH  30  31
ENDBRANCH  29  30
ENDBRANCH   1  29
TORSDOF 14
ENDMDL
MODEL 2
REMARK VINA RESULT:     -12.2      3.579      8.889
REMARK SMILES COc1cccc([C@@H]2[NH2+][C@@](C)(C(=O)OCCOC(=O)c3ccc(-c4c5nc(c(-c6ccccc6)c6ccc([nH]6)c(-c6ccccc6)c6nc(c(-c7ccccc7)c7ccc4[nH]7)C=C6)C=C5)cc3)[C@@H]3C(=O)N(C)C(=O)[C@@H]32)c1O
REMARK SMILES IDX 15 1 14 2 12 3 13 4 10 5 8 6 9 7 75 8 68 11 73 12 11 13
REMARK SMILES IDX 69 14 71 15 74 16 70 17 72 18 7 19 3 20 4 21 76 22 5 23 6 24
REMARK SMILES IDX 2 25 1 26 77 27 16 29 17 30 18 31 19 32 20 33 21 34 67 35
REMARK SMILES IDX 22 36 66 37 23 38 24 39 25 40 60 41 26 42 65 43 59 44 61 45
REMARK SMILES IDX 27 46 64 47 58 48 57 49 28 51 50 52 35 53 49 54 36 55 39 56
REMARK SMILES IDX 48 57 62 58 37 59 38 60 47 62 63 63 40 64 29 65 30 66 34 67
REMARK SMILES IDX 31 68 33 69 32 70 51 71 52 72 56 73 53 74 55 75 54 76 41 77
REMARK SMILES IDX 42 78 46 79 43 80 45 81 44 82
REMARK H PARENT 9 9 9 10 77 28 61 50 39 61
REMARK Flexibility Score: inf
ROOT
ATOM      1  C   UNL A   1      31.522  28.051  25.907  1.00  0.00     0.274 C 
ENDROOT
BRANCH   1   2
ATOM      2  O   UNL A   1      32.218  26.815  25.632  1.00  0.00    -0.457 OA
BRANCH   2   3
ATOM      3  C   UNL A   1      31.454  25.694  25.704  1.00  0.00     0.368 C 
ATOM      4  O   UNL A   1      30.528  25.556  26.502  1.00  0.00    -0.245 OA
BRANCH   3   5
ATOM      5  C   UNL A   1      31.824  24.571  24.692  1.00  0.00     0.204 C 
ATOM      6  C   UNL A   1      32.276  22.377  25.616  1.00  0.00     0.232 C 
ATOM      7  N   UNL A   1      31.228  23.240  25.020  1.00  0.00    -0.325 N 
ATOM      8  C   UNL A   1      33.515  23.247  25.781  1.00  0.00     0.161 C 
ATOM      9  H   UNL A   1      30.465  23.361  25.687  1.00  0.00     0.347 HD
ATOM     10  H   UNL A   1      30.865  22.805  24.172  1.00  0.00     0.347 HD
ATOM     11  C   UNL A   1      33.329  24.407  24.822  1.00  0.00     0.170 C 
ATOM     12  C   UNL A   1      34.851  22.693  25.365  1.00  0.00     0.239 C 
ATOM     13  C   UNL A   1      31.308  25.074  23.342  1.00  0.00     0.093 C 
ATOM     14  C   UNL A   1      34.202  24.052  23.652  1.00  0.00     0.240 C 
ATOM     15  N   UNL A   1      35.144  23.170  24.117  1.00  0.00    -0.285 N 
ATOM     16  O   UNL A   1      35.543  21.953  26.050  1.00  0.00    -0.274 OA
ATOM     17  O   UNL A   1      34.171  24.574  22.549  1.00  0.00    -0.274 OA
ATOM     18  C   UNL A   1      36.342  22.814  23.397  1.00  0.00     0.156 C 
BRANCH   6  19
ATOM     19  C   UNL A   1      32.559  21.063  24.906  1.00  0.00     0.056 A 
ATOM     20  C   UNL A   1      32.838  18.643  24.909  1.00  0.00     0.161 A 
ATOM     21  C   UNL A   1      32.534  18.576  23.554  1.00  0.00     0.050 A 
ATOM     22  C   UNL A   1      32.902  19.877  25.563  1.00  0.00     0.166 A 
ATOM     23  C   UNL A   1      32.265  19.752  22.859  1.00  0.00     0.005 A 
ATOM     24  C   UNL A   1      32.267  20.979  23.530  1.00  0.00     0.014 A 
BRANCH  20  25
ATOM     25  O   UNL A   1      33.096  17.484  25.596  1.00  0.00    -0.493 OA
ATOM     26  C   UNL A   1      33.471  16.440  24.691  1.00  0.00     0.278 C 
ENDBRANCH  20  25
BRANCH  22  27
ATOM     27  O   UNL A   1      33.278  19.914  26.876  1.00  0.00    -0.504 OA
ATOM     28  H   UNL A   1      33.412  19.115  27.348  1.00  0.00     0.293 HD
ENDBRANCH  22  27
ENDBRANCH   6  19
ENDBRANCH   3   5
ENDBRANCH   2   3
ENDBRANCH   1   2
BRANCH   1  29
ATOM     29  C   UNL A   1      31.952  29.164  24.953  1.00  0.00     0.275 C 
BRANCH  29  30
ATOM     30  O   UNL A   1      33.131  29.823  25.450  1.00  0.00    -0.458 OA
BRANCH  30  31
ATOM     31  C   UNL A   1      32.920  30.728  26.435  1.00  0.00     0.338 C 
ATOM     32  O   UNL A   1      31.960  31.470  26.555  1.00  0.00    -0.246 OA
BRANCH  31  33
ATOM     33  C   UNL A   1      34.000  30.679  27.446  1.00  0.00     0.060 A 
ATOM     34  C   UNL A   1      34.752  31.812  27.742  1.00  0.00     0.016 A 
ATOM     35  C   UNL A   1      34.402  29.438  27.943  1.00  0.00     0.016 A 
ATOM     36  C   UNL A   1      35.995  31.671  28.368  1.00  0.00     0.010 A 
ATOM     37  C   UNL A   1      35.568  29.333  28.710  1.00  0.00     0.010 A 
ATOM     38  C   UNL A   1      36.419  30.437  28.888  1.00  0.00    -0.014 A 
BRANCH  38  39
ATOM     39  C   UNL A   1      37.727  30.278  29.608  1.00  0.00     0.031 A 
ATOM     40  C   UNL A   1      38.871  29.509  28.980  1.00  0.00     0.074 A 
ATOM     41  C   UNL A   1      37.904  30.775  30.851  1.00  0.00     0.049 A 
ATOM     42  N   UNL A   1      39.924  28.973  29.552  1.00  0.00    -0.248 NA
ATOM     43  C   UNL A   1      38.811  29.290  27.526  1.00  0.00     0.031 C 
ATOM     44  C   UNL A   1      36.942  31.589  31.598  1.00  0.00     0.029 A 
ATOM     45  N   UNL A   1      38.967  30.657  31.717  1.00  0.00    -0.354 N 
ATOM     46  C   UNL A   1      40.596  28.282  28.547  1.00  0.00     0.074 A 
ATOM     47  C   UNL A   1      39.841  28.478  27.327  1.00  0.00     0.031 C 
ATOM     48  C   UNL A   1      37.474  31.939  32.776  1.00  0.00     0.029 A 
ATOM     49  C   UNL A   1      38.750  31.258  32.935  1.00  0.00     0.049 A 
ATOM     50  H   UNL A   1      39.802  30.187  31.488  1.00  0.00     0.167 HD
ATOM     51  C   UNL A   1      41.732  27.545  28.635  1.00  0.00     0.031 A 
ATOM     52  C   UNL A   1      39.442  31.211  34.089  1.00  0.00     0.031 A 
ATOM     53  C   UNL A   1      42.528  27.415  29.830  1.00  0.00     0.049 A 
ATOM     54  C   UNL A   1      40.666  30.355  34.183  1.00  0.00     0.074 A 
ATOM     55  C   UNL A   1      43.708  26.713  30.009  1.00  0.00     0.029 A 
ATOM     56  N   UNL A   1      42.238  28.020  31.041  1.00  0.00    -0.354 N 
ATOM     57  N   UNL A   1      41.237  29.628  33.255  1.00  0.00    -0.248 NA
ATOM     58  C   UNL A   1      41.326  30.290  35.495  1.00  0.00     0.031 C 
ATOM     59  C   UNL A   1      44.111  26.861  31.340  1.00  0.00     0.029 A 
ATOM     60  C   UNL A   1      43.210  27.697  31.975  1.00  0.00     0.049 A 
ATOM     61  H   UNL A   1      41.457  28.595  31.214  1.00  0.00     0.167 HD
ATOM     62  C   UNL A   1      42.328  29.027  33.866  1.00  0.00     0.074 A 
ATOM     63  C   UNL A   1      42.352  29.490  35.238  1.00  0.00     0.031 C 
ATOM     64  C   UNL A   1      43.227  28.164  33.336  1.00  0.00     0.031 A 
BRANCH  51  65
ATOM     65  C   UNL A   1      42.174  26.775  27.417  1.00  0.00    -0.014 A 
ATOM     66  C   UNL A   1      43.065  27.315  26.478  1.00  0.00     0.009 A 
ATOM     67  C   UNL A   1      41.735  25.451  27.248  1.00  0.00     0.009 A 
ATOM     68  C   UNL A   1      43.482  26.554  25.381  1.00  0.00     0.001 A 
ATOM     69  C   UNL A   1      42.175  24.684  26.167  1.00  0.00     0.001 A 
ATOM     70  C   UNL A   1      43.042  25.240  25.229  1.00  0.00     0.000 A 
ENDBRANCH  51  65
BRANCH  52  71
ATOM     71  C   UNL A   1      38.928  31.940  35.280  1.00  0.00    -0.014 A 
ATOM     72  C   UNL A   1      38.155  31.276  36.242  1.00  0.00     0.009 A 
ATOM     73  C   UNL A   1      39.236  33.297  35.472  1.00  0.00     0.009 A 
ATOM     74  C   UNL A   1      37.696  31.958  37.371  1.00  0.00     0.001 A 
ATOM     75  C   UNL A   1      38.807  33.966  36.618  1.00  0.00     0.001 A 
ATOM     76  C   UNL A   1      38.031  33.299  37.563  1.00  0.00     0.000 A 
ENDBRANCH  52  71
BRANCH  64  77
ATOM     77  C   UNL A   1      44.339  27.702  34.231  1.00  0.00    -0.014 A 
ATOM     78  C   UNL A   1      45.524  28.443  34.362  1.00  0.00     0.009 A 
ATOM     79  C   UNL A   1      44.188  26.519  34.971  1.00  0.00     0.009 A 
ATOM     80  C   UNL A   1      46.549  27.990  35.197  1.00  0.00     0.001 A 
ATOM     81  C   UNL A   1      45.203  26.082  35.823  1.00  0.00     0.001 A 
ATOM     82  C   UNL A   1      46.386  26.813  35.928  1.00  0.00     0.000 A 
ENDBRANCH  64  77
ENDBRANCH  38  39
ENDBRANCH  31  33
ENDBRANCH  30  31
ENDBRANCH  29  30
ENDBRANCH   1  29
TORSDOF 14
ENDMDL
MODEL 3
REMARK VINA RESULT:     -12.2      2.513      7.324
REMARK SMILES COc1cccc([C@@H]2[NH2+][C@@](C)(C(=O)OCCOC(=O)c3ccc(-c4c5nc(c(-c6ccccc6)c6ccc([nH]6)c(-c6ccccc6)c6nc(c(-c7ccccc7)c7ccc4[nH]7)C=C6)C=C5)cc3)[C@@H]3C(=O)N(C)C(=O)[C@@H]32)c1O
REMARK SMILES IDX 15 1 14 2 12 3 13 4 10 5 8 6 9 7 75 8 68 11 73 12 11 13
REMARK SMILES IDX 69 14 71 15 74 16 70 17 72 18 7 19 3 20 4 21 76 22 5 23 6 24
REMARK SMILES IDX 2 25 1 26 77 27 16 29 17 30 18 31 19 32 20 33 21 34 67 35
REMARK SMILES IDX 22 36 66 37 23 38 24 39 25 40 60 41 26 42 65 43 59 44 61 45
REMARK SMILES IDX 27 46 64 47 58 48 57 49 28 51 50 52 35 53 49 54 36 55 39 56
REMARK SMILES IDX 48 57 62 58 37 59 38 60 47 62 63 63 40 64 29 65 30 66 34 67
REMARK SMILES IDX 31 68 33 69 32 70 51 71 52 72 56 73 53 74 55 75 54 76 41 77
REMARK SMILES IDX 42 78 46 79 43 80 45 81 44 82
REMARK H PARENT 9 9 9 10 77 28 61 50 39 61
REMARK Flexibility Score: inf
ROOT
ATOM      1  C   UNL A   1      31.974  27.831  27.040  1.00  0.00     0.274 C 
ENDROOT
BRANCH   1   2
ATOM      2  O   UNL A   1      32.332  26.849  26.044  1.00  0.00    -0.457 OA
BRANCH   2   3
ATOM      3  C   UNL A   1      31.475  25.801  25.931  1.00  0.00     0.368 C 
ATOM      4  O   UNL A   1      30.453  25.688  26.607  1.00  0.00    -0.245 OA
BRANCH   3   5
ATOM      5  C   UNL A   1      31.866  24.732  24.870  1.00  0.00     0.204 C 
ATOM      6  C   UNL A   1      32.248  22.480  25.681  1.00  0.00     0.232 C 
ATOM      7  N   UNL A   1      31.237  23.395  25.098  1.00  0.00    -0.325 N 
ATOM      8  C   UNL A   1      33.493  23.318  25.944  1.00  0.00     0.161 C 
ATOM      9  H   UNL A   1      30.451  23.491  25.741  1.00  0.00     0.347 HD
ATOM     10  H   UNL A   1      30.901  23.016  24.213  1.00  0.00     0.347 HD
ATOM     11  C   UNL A   1      33.362  24.534  25.048  1.00  0.00     0.170 C 
ATOM     12  C   UNL A   1      34.835  22.765  25.547  1.00  0.00     0.239 C 
ATOM     13  C   UNL A   1      31.411  25.321  23.534  1.00  0.00     0.093 C 
ATOM     14  C   UNL A   1      34.274  24.232  23.892  1.00  0.00     0.240 C 
ATOM     15  N   UNL A   1      35.184  23.307  24.340  1.00  0.00    -0.285 N 
ATOM     16  O   UNL A   1      35.488  21.975  26.212  1.00  0.00    -0.274 OA
ATOM     17  O   UNL A   1      34.294  24.817  22.822  1.00  0.00    -0.274 OA
ATOM     18  C   UNL A   1      36.402  22.972  23.647  1.00  0.00     0.156 C 
BRANCH   6  19
ATOM     19  C   UNL A   1      32.538  21.204  24.907  1.00  0.00     0.056 A 
ATOM     20  C   UNL A   1      32.836  18.790  24.791  1.00  0.00     0.161 A 
ATOM     21  C   UNL A   1      32.526  18.786  23.437  1.00  0.00     0.050 A 
ATOM     22  C   UNL A   1      32.895  19.992  25.504  1.00  0.00     0.166 A 
ATOM     23  C   UNL A   1      32.243  19.992  22.801  1.00  0.00     0.005 A 
ATOM     24  C   UNL A   1      32.238  21.185  23.530  1.00  0.00     0.014 A 
BRANCH  20  25
ATOM     25  O   UNL A   1      33.109  17.602  25.420  1.00  0.00    -0.493 OA
ATOM     26  C   UNL A   1      33.204  16.541  24.463  1.00  0.00     0.278 C 
ENDBRANCH  20  25
BRANCH  22  27
ATOM     27  O   UNL A   1      33.278  19.968  26.815  1.00  0.00    -0.504 OA
ATOM     28  H   UNL A   1      32.773  19.487  27.442  1.00  0.00     0.293 HD
ENDBRANCH  22  27
ENDBRANCH   6  19
ENDBRANCH   3   5
ENDBRANCH   2   3
ENDBRANCH   1   2
BRANCH   1  29
ATOM     29  C   UNL A   1      32.782  29.117  26.880  1.00  0.00     0.275 C 
BRANCH  29  30
ATOM     30  O   UNL A   1      34.081  28.972  27.482  1.00  0.00    -0.458 OA
BRANCH  30  31
ATOM     31  C   UNL A   1      34.615  30.107  27.994  1.00  0.00     0.338 C 
ATOM     32  O   UNL A   1      34.022  31.136  28.272  1.00  0.00    -0.246 OA
BRANCH  31  33
ATOM     33  C   UNL A   1      36.062  29.944  28.260  1.00  0.00     0.060 A 
ATOM     34  C   UNL A   1      37.000  30.154  27.253  1.00  0.00     0.016 A 
ATOM     35  C   UNL A   1      36.465  29.368  29.467  1.00  0.00     0.016 A 
ATOM     36  C   UNL A   1      38.285  29.618  27.385  1.00  0.00     0.010 A 
ATOM     37  C   UNL A   1      37.798  28.982  29.648  1.00  0.00     0.010 A 
ATOM     38  C   UNL A   1      38.721  29.044  28.591  1.00  0.00    -0.014 A 
BRANCH  38  39
ATOM     39  C   UNL A   1      40.113  28.510  28.767  1.00  0.00     0.031 A 
ATOM     40  C   UNL A   1      41.250  29.424  29.175  1.00  0.00     0.074 A 
ATOM     41  C   UNL A   1      40.398  27.212  28.524  1.00  0.00     0.049 A 
ATOM     42  N   UNL A   1      42.544  29.246  29.048  1.00  0.00    -0.248 NA
ATOM     43  C   UNL A   1      40.886  30.716  29.778  1.00  0.00     0.031 C 
ATOM     44  C   UNL A   1      39.432  26.169  28.176  1.00  0.00     0.029 A 
ATOM     45  N   UNL A   1      41.604  26.548  28.524  1.00  0.00    -0.354 N 
ATOM     46  C   UNL A   1      43.138  30.433  29.468  1.00  0.00     0.074 A 
ATOM     47  C   UNL A   1      42.064  31.319  29.868  1.00  0.00     0.031 C 
ATOM     48  C   UNL A   1      40.067  24.997  28.051  1.00  0.00     0.029 A 
ATOM     49  C   UNL A   1      41.500  25.226  28.163  1.00  0.00     0.049 A 
ATOM     50  H   UNL A   1      42.458  26.978  28.760  1.00  0.00     0.167 HD
ATOM     51  C   UNL A   1      44.455  30.759  29.508  1.00  0.00     0.031 A 
ATOM     52  C   UNL A   1      42.436  24.305  27.866  1.00  0.00     0.031 A 
ATOM     53  C   UNL A   1      45.528  29.852  29.187  1.00  0.00     0.049 A 
ATOM     54  C   UNL A   1      43.881  24.693  27.868  1.00  0.00     0.074 A 
ATOM     55  C   UNL A   1      46.893  30.081  29.225  1.00  0.00     0.029 A 
ATOM     56  N   UNL A   1      45.357  28.535  28.794  1.00  0.00    -0.354 N 
ATOM     57  N   UNL A   1      44.425  25.846  28.171  1.00  0.00    -0.248 NA
ATOM     58  C   UNL A   1      44.843  23.660  27.459  1.00  0.00     0.031 C 
ATOM     59  C   UNL A   1      47.548  28.915  28.816  1.00  0.00     0.029 A 
ATOM     60  C   UNL A   1      46.592  27.944  28.575  1.00  0.00     0.049 A 
ATOM     61  H   UNL A   1      44.488  28.085  28.687  1.00  0.00     0.167 HD
ATOM     62  C   UNL A   1      45.791  25.675  28.000  1.00  0.00     0.074 A 
ATOM     63  C   UNL A   1      45.995  24.301  27.586  1.00  0.00     0.031 C 
ATOM     64  C   UNL A   1      46.786  26.578  28.165  1.00  0.00     0.031 A 
BRANCH  51  65
ATOM     65  C   UNL A   1      44.825  32.174  29.872  1.00  0.00    -0.014 A 
ATOM     66  C   UNL A   1      45.198  32.534  31.175  1.00  0.00     0.009 A 
ATOM     67  C   UNL A   1      44.864  33.152  28.864  1.00  0.00     0.009 A 
ATOM     68  C   UNL A   1      45.572  33.850  31.465  1.00  0.00     0.001 A 
ATOM     69  C   UNL A   1      45.265  34.459  29.150  1.00  0.00     0.001 A 
ATOM     70  C   UNL A   1      45.611  34.809  30.453  1.00  0.00     0.000 A 
ENDBRANCH  51  65
BRANCH  52  71
ATOM     71  C   UNL A   1      42.014  22.939  27.453  1.00  0.00    -0.014 A 
ATOM     72  C   UNL A   1      41.968  21.896  28.388  1.00  0.00     0.009 A 
ATOM     73  C   UNL A   1      41.629  22.683  26.126  1.00  0.00     0.009 A 
ATOM     74  C   UNL A   1      41.548  20.621  28.001  1.00  0.00     0.001 A 
ATOM     75  C   UNL A   1      41.176  21.418  25.751  1.00  0.00     0.001 A 
ATOM     76  C   UNL A   1      41.143  20.386  26.687  1.00  0.00     0.000 A 
ENDBRANCH  52  71
BRANCH  64  77
ATOM     77  C   UNL A   1      48.190  26.096  27.945  1.00  0.00    -0.014 A 
ATOM     78  C   UNL A   1      48.790  26.158  26.678  1.00  0.00     0.009 A 
ATOM     79  C   UNL A   1      48.929  25.594  29.027  1.00  0.00     0.009 A 
ATOM     80  C   UNL A   1      50.096  25.697  26.495  1.00  0.00     0.001 A 
ATOM     81  C   UNL A   1      50.242  25.158  28.846  1.00  0.00     0.001 A 
ATOM     82  C   UNL A   1      50.821  25.201  27.578  1.00  0.00     0.000 A 
ENDBRANCH  64  77
ENDBRANCH  38  39
ENDBRANCH  31  33
ENDBRANCH  30  31
ENDBRANCH  29  30
ENDBRANCH   1  29
TORSDOF 14
ENDMDL
