MODEL 1
REMARK VINA RESULT:     -10.3      0.000      0.000
REMARK SMILES CC(C)C[C@H](NC(=O)CNC(=O)[C@@H]([NH3+])C(C)C)C(=O)OCCOC(=O)c1ccc(-c2c3nc(c(-c4ccccc4)c4ccc([nH]4)c(-c4ccccc4)c4nc(c(-c5ccccc5)c5ccc2[nH]5)C=C4)C=C3)cc1
REMARK SMILES IDX 20 1 18 2 19 3 5 4 4 5 2 6 1 7 3 8 6 9 7 10 8 12 9 13 10 14
REMARK SMILES IDX 11 15 12 17 13 18 14 19 15 23 16 24 17 25 21 26 22 27 23 28
REMARK SMILES IDX 24 29 25 30 26 31 27 32 73 33 28 34 72 35 29 36 30 37 31 38
REMARK SMILES IDX 66 39 32 40 71 41 65 42 67 43 33 44 70 45 64 46 63 47 34 49
REMARK SMILES IDX 56 50 41 51 55 52 42 53 45 54 54 55 68 56 43 57 44 58 53 60
REMARK SMILES IDX 69 61 46 62 35 63 36 64 40 65 37 66 39 67 38 68 57 69 58 70
REMARK SMILES IDX 62 71 59 72 61 73 60 74 47 75 48 76 52 77 49 78 51 79 50 80
REMARK H PARENT 6 11 10 16 14 20 14 21 14 22 67 48 45 59
REMARK Flexibility Score: inf
ROOT
ATOM      1  O   UNL A   1      34.989  22.877  24.844  1.00  0.00    -0.461 OA
ENDROOT
BRANCH   1   2
ATOM      2  C   UNL A   1      34.823  23.410  23.590  1.00  0.00     0.328 C 
ATOM      3  O   UNL A   1      35.714  23.436  22.754  1.00  0.00    -0.250 OA
BRANCH   2   4
ATOM      4  C   UNL A   1      33.333  23.962  23.374  1.00  0.00     0.192 C 
BRANCH   4   5
ATOM      5  C   UNL A   1      31.983  23.387  23.979  1.00  0.00     0.040 C 
BRANCH   5   6
ATOM      6  C   UNL A   1      31.212  23.861  25.326  1.00  0.00    -0.015 C 
ATOM      7  C   UNL A   1      30.440  22.910  26.296  1.00  0.00     0.007 C 
ATOM      8  C   UNL A   1      32.241  24.532  26.270  1.00  0.00     0.007 C 
ENDBRANCH   5   6
ENDBRANCH   4   5
BRANCH   4   9
ATOM      9  N   UNL A   1      33.135  24.190  21.982  1.00  0.00    -0.341 N 
ATOM     10  C   UNL A   1      33.014  25.448  21.495  1.00  0.00     0.240 C 
ATOM     11  H   UNL A   1      33.088  23.424  21.365  1.00  0.00     0.164 HD
ATOM     12  O   UNL A   1      32.941  25.598  20.273  1.00  0.00    -0.273 OA
BRANCH  10  13
ATOM     13  C   UNL A   1      32.995  26.678  22.484  1.00  0.00     0.216 C 
BRANCH  13  14
ATOM     14  N   UNL A   1      31.908  27.535  23.216  1.00  0.00    -0.342 N 
ATOM     15  C   UNL A   1      30.888  28.395  23.440  1.00  0.00     0.278 C 
ATOM     16  H   UNL A   1      32.092  27.265  24.145  1.00  0.00     0.164 HD
ATOM     17  O   UNL A   1      30.580  28.253  24.652  1.00  0.00    -0.268 OA
BRANCH  15  18
ATOM     18  C   UNL A   1      30.054  29.613  22.715  1.00  0.00     0.273 C 
BRANCH  18  19
ATOM     19  N   UNL A   1      30.735  30.093  21.493  1.00  0.00    -0.347 N 
ATOM     20  H   UNL A   1      31.732  30.200  21.678  1.00  0.00     0.345 HD
ATOM     21  H   UNL A   1      30.342  30.993  21.217  1.00  0.00     0.345 HD
ATOM     22  H   UNL A   1      30.599  29.417  20.741  1.00  0.00     0.345 HD
ENDBRANCH  18  19
BRANCH  18  23
ATOM     23  C   UNL A   1      28.504  29.798  22.623  1.00  0.00     0.051 C 
ATOM     24  C   UNL A   1      27.779  28.488  22.957  1.00  0.00     0.014 C 
ATOM     25  C   UNL A   1      27.889  30.911  23.503  1.00  0.00     0.014 C 
ENDBRANCH  18  23
ENDBRANCH  15  18
ENDBRANCH  13  14
ENDBRANCH  10  13
ENDBRANCH   4   9
ENDBRANCH   2   4
ENDBRANCH   1   2
BRANCH   1  26
ATOM     26  C   UNL A   1      35.093  21.452  25.081  1.00  0.00     0.274 C 
BRANCH  26  27
ATOM     27  C   UNL A   1      36.543  20.996  24.895  1.00  0.00     0.275 C 
BRANCH  27  28
ATOM     28  O   UNL A   1      37.414  22.023  25.369  1.00  0.00    -0.458 OA
BRANCH  28  29
ATOM     29  C   UNL A   1      38.588  21.570  25.857  1.00  0.00     0.338 C 
ATOM     30  O   UNL A   1      39.128  20.487  25.693  1.00  0.00    -0.246 OA
BRANCH  29  31
ATOM     31  C   UNL A   1      39.245  22.719  26.462  1.00  0.00     0.060 A 
ATOM     32  C   UNL A   1      38.761  23.999  26.170  1.00  0.00     0.016 A 
ATOM     33  C   UNL A   1      40.324  22.512  27.314  1.00  0.00     0.016 A 
ATOM     34  C   UNL A   1      39.394  25.108  26.711  1.00  0.00     0.010 A 
ATOM     35  C   UNL A   1      40.954  23.617  27.856  1.00  0.00     0.010 A 
ATOM     36  C   UNL A   1      40.508  24.913  27.529  1.00  0.00    -0.014 A 
BRANCH  36  37
ATOM     37  C   UNL A   1      41.338  26.044  27.963  1.00  0.00     0.031 A 
ATOM     38  C   UNL A   1      40.690  27.096  28.804  1.00  0.00     0.074 A 
ATOM     39  C   UNL A   1      42.591  26.165  27.505  1.00  0.00     0.049 A 
ATOM     40  N   UNL A   1      41.090  28.311  29.060  1.00  0.00    -0.248 NA
ATOM     41  C   UNL A   1      39.394  26.737  29.406  1.00  0.00     0.031 C 
ATOM     42  C   UNL A   1      43.308  25.160  26.720  1.00  0.00     0.029 A 
ATOM     43  N   UNL A   1      43.458  27.218  27.593  1.00  0.00    -0.354 N 
ATOM     44  C   UNL A   1      40.071  28.881  29.809  1.00  0.00     0.074 A 
ATOM     45  C   UNL A   1      39.032  27.886  29.953  1.00  0.00     0.031 C 
ATOM     46  C   UNL A   1      44.500  25.665  26.363  1.00  0.00     0.029 A 
ATOM     47  C   UNL A   1      44.591  27.041  26.840  1.00  0.00     0.049 A 
ATOM     48  H   UNL A   1      43.287  28.020  28.139  1.00  0.00     0.167 HD
ATOM     49  C   UNL A   1      40.012  30.134  30.314  1.00  0.00     0.031 A 
ATOM     50  C   UNL A   1      45.558  27.920  26.524  1.00  0.00     0.031 A 
ATOM     51  C   UNL A   1      41.057  31.103  30.128  1.00  0.00     0.049 A 
ATOM     52  C   UNL A   1      45.451  29.325  27.045  1.00  0.00     0.074 A 
ATOM     53  C   UNL A   1      41.135  32.396  30.611  1.00  0.00     0.029 A 
ATOM     54  N   UNL A   1      42.209  30.880  29.385  1.00  0.00    -0.354 N 
ATOM     55  N   UNL A   1      44.496  29.867  27.766  1.00  0.00    -0.248 NA
ATOM     56  C   UNL A   1      46.552  30.236  26.716  1.00  0.00     0.031 C 
ATOM     57  C   UNL A   1      42.302  32.975  30.105  1.00  0.00     0.029 A 
ATOM     58  C   UNL A   1      42.992  32.019  29.372  1.00  0.00     0.049 A 
ATOM     59  H   UNL A   1      42.435  30.035  28.933  1.00  0.00     0.167 HD
ATOM     60  C   UNL A   1      44.899  31.174  28.008  1.00  0.00     0.074 A 
ATOM     61  C   UNL A   1      46.184  31.339  27.356  1.00  0.00     0.031 C 
ATOM     62  C   UNL A   1      44.270  32.147  28.714  1.00  0.00     0.031 A 
BRANCH  49  63
ATOM     63  C   UNL A   1      38.755  30.525  31.041  1.00  0.00    -0.014 A 
ATOM     64  C   UNL A   1      38.623  30.363  32.430  1.00  0.00     0.009 A 
ATOM     65  C   UNL A   1      37.671  31.043  30.316  1.00  0.00     0.009 A 
ATOM     66  C   UNL A   1      37.415  30.659  33.067  1.00  0.00     0.001 A 
ATOM     67  C   UNL A   1      36.476  31.372  30.959  1.00  0.00     0.001 A 
ATOM     68  C   UNL A   1      36.345  31.165  32.331  1.00  0.00     0.000 A 
ENDBRANCH  49  63
BRANCH  50  69
ATOM     69  C   UNL A   1      46.682  27.485  25.658  1.00  0.00    -0.014 A 
ATOM     70  C   UNL A   1      46.698  27.820  24.297  1.00  0.00     0.009 A 
ATOM     71  C   UNL A   1      47.774  26.786  26.199  1.00  0.00     0.009 A 
ATOM     72  C   UNL A   1      47.779  27.455  23.492  1.00  0.00     0.001 A 
ATOM     73  C   UNL A   1      48.866  26.448  25.398  1.00  0.00     0.001 A 
ATOM     74  C   UNL A   1      48.865  26.778  24.045  1.00  0.00     0.000 A 
ENDBRANCH  50  69
BRANCH  62  75
ATOM     75  C   UNL A   1      44.990  33.457  28.871  1.00  0.00    -0.014 A 
ATOM     76  C   UNL A   1      44.784  34.522  27.982  1.00  0.00     0.009 A 
ATOM     77  C   UNL A   1      45.833  33.644  29.978  1.00  0.00     0.009 A 
ATOM     78  C   UNL A   1      45.430  35.742  28.188  1.00  0.00     0.001 A 
ATOM     79  C   UNL A   1      46.451  34.874  30.199  1.00  0.00     0.001 A 
ATOM     80  C   UNL A   1      46.255  35.920  29.299  1.00  0.00     0.000 A 
ENDBRANCH  62  75
ENDBRANCH  36  37
ENDBRANCH  29  31
ENDBRANCH  28  29
ENDBRANCH  27  28
ENDBRANCH  26  27
ENDBRANCH   1  26
TORSDOF 19
ENDMDL
MODEL 2
REMARK VINA RESULT:     -10.2      2.468      7.348
REMARK SMILES CC(C)C[C@H](NC(=O)CNC(=O)[C@@H]([NH3+])C(C)C)C(=O)OCCOC(=O)c1ccc(-c2c3nc(c(-c4ccccc4)c4ccc([nH]4)c(-c4ccccc4)c4nc(c(-c5ccccc5)c5ccc2[nH]5)C=C4)C=C3)cc1
REMARK SMILES IDX 20 1 18 2 19 3 5 4 4 5 2 6 1 7 3 8 6 9 7 10 8 12 9 13 10 14
REMARK SMILES IDX 11 15 12 17 13 18 14 19 15 23 16 24 17 25 21 26 22 27 23 28
REMARK SMILES IDX 24 29 25 30 26 31 27 32 73 33 28 34 72 35 29 36 30 37 31 38
REMARK SMILES IDX 66 39 32 40 71 41 65 42 67 43 33 44 70 45 64 46 63 47 34 49
REMARK SMILES IDX 56 50 41 51 55 52 42 53 45 54 54 55 68 56 43 57 44 58 53 60
REMARK SMILES IDX 69 61 46 62 35 63 36 64 40 65 37 66 39 67 38 68 57 69 58 70
REMARK SMILES IDX 62 71 59 72 61 73 60 74 47 75 48 76 52 77 49 78 51 79 50 80
REMARK H PARENT 6 11 10 16 14 20 14 21 14 22 67 48 45 59
REMARK Flexibility Score: inf
ROOT
ATOM      1  O   UNL A   1      33.012  27.422  26.530  1.00  0.00    -0.461 OA
ENDROOT
BRANCH   1   2
ATOM      2  C   UNL A   1      31.695  27.232  26.868  1.00  0.00     0.328 C 
ATOM      3  O   UNL A   1      31.163  27.790  27.815  1.00  0.00    -0.250 OA
BRANCH   2   4
ATOM      4  C   UNL A   1      30.967  26.217  25.862  1.00  0.00     0.192 C 
BRANCH   4   5
ATOM      5  C   UNL A   1      30.134  26.566  24.558  1.00  0.00     0.040 C 
BRANCH   5   6
ATOM      6  C   UNL A   1      30.422  27.739  23.473  1.00  0.00    -0.015 C 
ATOM      7  C   UNL A   1      30.514  29.263  23.807  1.00  0.00     0.007 C 
ATOM      8  C   UNL A   1      31.794  27.464  22.806  1.00  0.00     0.007 C 
ENDBRANCH   5   6
ENDBRANCH   4   5
BRANCH   4   9
ATOM      9  N   UNL A   1      30.218  25.281  26.631  1.00  0.00    -0.341 N 
ATOM     10  C   UNL A   1      30.497  23.956  26.578  1.00  0.00     0.240 C 
ATOM     11  H   UNL A   1      29.489  25.600  27.210  1.00  0.00     0.164 HD
ATOM     12  O   UNL A   1      29.885  23.199  27.334  1.00  0.00    -0.273 OA
BRANCH  10  13
ATOM     13  C   UNL A   1      31.600  23.423  25.583  1.00  0.00     0.216 C 
BRANCH  13  14
ATOM     14  N   UNL A   1      32.959  22.652  25.693  1.00  0.00    -0.342 N 
ATOM     15  C   UNL A   1      34.225  22.244  25.453  1.00  0.00     0.278 C 
ATOM     16  H   UNL A   1      32.747  22.067  26.456  1.00  0.00     0.164 HD
ATOM     17  O   UNL A   1      34.536  21.502  26.421  1.00  0.00    -0.268 OA
BRANCH  15  18
ATOM     18  C   UNL A   1      35.387  22.283  24.289  1.00  0.00     0.273 C 
BRANCH  18  19
ATOM     19  N   UNL A   1      35.002  23.156  23.159  1.00  0.00    -0.347 N 
ATOM     20  H   UNL A   1      35.455  22.828  22.307  1.00  0.00     0.345 HD
ATOM     21  H   UNL A   1      35.297  24.113  23.354  1.00  0.00     0.345 HD
ATOM     22  H   UNL A   1      33.990  23.130  23.038  1.00  0.00     0.345 HD
ENDBRANCH  18  19
BRANCH  18  23
ATOM     23  C   UNL A   1      36.939  22.228  24.475  1.00  0.00     0.051 C 
ATOM     24  C   UNL A   1      37.403  23.281  25.490  1.00  0.00     0.014 C 
ATOM     25  C   UNL A   1      37.533  20.868  24.907  1.00  0.00     0.014 C 
ENDBRANCH  18  23
ENDBRANCH  15  18
ENDBRANCH  13  14
ENDBRANCH  10  13
ENDBRANCH   4   9
ENDBRANCH   2   4
ENDBRANCH   1   2
BRANCH   1  26
ATOM     26  C   UNL A   1      33.537  28.709  26.122  1.00  0.00     0.274 C 
BRANCH  26  27
ATOM     27  C   UNL A   1      33.481  29.690  27.295  1.00  0.00     0.275 C 
BRANCH  27  28
ATOM     28  O   UNL A   1      34.551  30.627  27.165  1.00  0.00    -0.458 OA
BRANCH  28  29
ATOM     29  C   UNL A   1      35.075  31.033  28.341  1.00  0.00     0.338 C 
ATOM     30  O   UNL A   1      34.574  31.727  29.213  1.00  0.00    -0.246 OA
BRANCH  29  31
ATOM     31  C   UNL A   1      36.315  30.290  28.510  1.00  0.00     0.060 A 
ATOM     32  C   UNL A   1      36.574  29.687  29.746  1.00  0.00     0.016 A 
ATOM     33  C   UNL A   1      37.198  30.193  27.439  1.00  0.00     0.016 A 
ATOM     34  C   UNL A   1      37.763  29.002  29.935  1.00  0.00     0.010 A 
ATOM     35  C   UNL A   1      38.384  29.507  27.627  1.00  0.00     0.010 A 
ATOM     36  C   UNL A   1      38.678  28.940  28.883  1.00  0.00    -0.014 A 
BRANCH  36  37
ATOM     37  C   UNL A   1      40.032  28.408  29.084  1.00  0.00     0.031 A 
ATOM     38  C   UNL A   1      41.117  29.381  29.413  1.00  0.00     0.074 A 
ATOM     39  C   UNL A   1      40.278  27.112  28.853  1.00  0.00     0.049 A 
ATOM     40  N   UNL A   1      42.411  29.231  29.342  1.00  0.00    -0.248 NA
ATOM     41  C   UNL A   1      40.678  30.719  29.845  1.00  0.00     0.031 C 
ATOM     42  C   UNL A   1      39.268  26.092  28.574  1.00  0.00     0.029 A 
ATOM     43  N   UNL A   1      41.472  26.449  28.764  1.00  0.00    -0.354 N 
ATOM     44  C   UNL A   1      42.942  30.470  29.669  1.00  0.00     0.074 A 
ATOM     45  C   UNL A   1      41.833  31.362  29.924  1.00  0.00     0.031 C 
ATOM     46  C   UNL A   1      39.890  24.933  28.305  1.00  0.00     0.029 A 
ATOM     47  C   UNL A   1      41.331  25.155  28.330  1.00  0.00     0.049 A 
ATOM     48  H   UNL A   1      42.339  26.858  28.987  1.00  0.00     0.167 HD
ATOM     49  C   UNL A   1      44.245  30.826  29.732  1.00  0.00     0.031 A 
ATOM     50  C   UNL A   1      42.270  24.275  27.938  1.00  0.00     0.031 A 
ATOM     51  C   UNL A   1      45.320  29.915  29.447  1.00  0.00     0.049 A 
ATOM     52  C   UNL A   1      43.710  24.702  27.960  1.00  0.00     0.074 A 
ATOM     53  C   UNL A   1      46.683  30.139  29.503  1.00  0.00     0.029 A 
ATOM     54  N   UNL A   1      45.143  28.598  29.041  1.00  0.00    -0.354 N 
ATOM     55  N   UNL A   1      44.220  25.869  28.281  1.00  0.00    -0.248 NA
ATOM     56  C   UNL A   1      44.702  23.694  27.570  1.00  0.00     0.031 C 
ATOM     57  C   UNL A   1      47.328  28.978  29.066  1.00  0.00     0.029 A 
ATOM     58  C   UNL A   1      46.371  28.005  28.815  1.00  0.00     0.049 A 
ATOM     59  H   UNL A   1      44.273  28.153  28.929  1.00  0.00     0.167 HD
ATOM     60  C   UNL A   1      45.597  25.726  28.168  1.00  0.00     0.074 A 
ATOM     61  C   UNL A   1      45.838  24.358  27.749  1.00  0.00     0.031 C 
ATOM     62  C   UNL A   1      46.574  26.637  28.400  1.00  0.00     0.031 A 
BRANCH  49  63
ATOM     63  C   UNL A   1      44.552  32.262  30.051  1.00  0.00    -0.014 A 
ATOM     64  C   UNL A   1      44.717  32.708  31.373  1.00  0.00     0.009 A 
ATOM     65  C   UNL A   1      44.654  33.195  29.007  1.00  0.00     0.009 A 
ATOM     66  C   UNL A   1      44.921  34.064  31.644  1.00  0.00     0.001 A 
ATOM     67  C   UNL A   1      44.893  34.543  29.277  1.00  0.00     0.001 A 
ATOM     68  C   UNL A   1      45.011  34.979  30.596  1.00  0.00     0.000 A 
ENDBRANCH  49  63
BRANCH  50  69
ATOM     69  C   UNL A   1      41.855  22.926  27.480  1.00  0.00    -0.014 A 
ATOM     70  C   UNL A   1      41.754  21.868  28.393  1.00  0.00     0.009 A 
ATOM     71  C   UNL A   1      41.499  22.703  26.139  1.00  0.00     0.009 A 
ATOM     72  C   UNL A   1      41.316  20.611  27.973  1.00  0.00     0.001 A 
ATOM     73  C   UNL A   1      41.033  21.453  25.728  1.00  0.00     0.001 A 
ATOM     74  C   UNL A   1      40.948  20.407  26.644  1.00  0.00     0.000 A 
ENDBRANCH  50  69
BRANCH  62  75
ATOM     75  C   UNL A   1      47.997  26.169  28.267  1.00  0.00    -0.014 A 
ATOM     76  C   UNL A   1      48.734  25.729  29.375  1.00  0.00     0.009 A 
ATOM     77  C   UNL A   1      48.576  26.101  26.989  1.00  0.00     0.009 A 
ATOM     78  C   UNL A   1      50.036  25.253  29.207  1.00  0.00     0.001 A 
ATOM     79  C   UNL A   1      49.863  25.594  26.821  1.00  0.00     0.001 A 
ATOM     80  C   UNL A   1      50.595  25.178  27.931  1.00  0.00     0.000 A 
ENDBRANCH  62  75
ENDBRANCH  36  37
ENDBRANCH  29  31
ENDBRANCH  28  29
ENDBRANCH  27  28
ENDBRANCH  26  27
ENDBRANCH   1  26
TORSDOF 19
ENDMDL
MODEL 3
REMARK VINA RESULT:     -10.1      3.801      8.275
REMARK SMILES CC(C)C[C@H](NC(=O)CNC(=O)[C@@H]([NH3+])C(C)C)C(=O)OCCOC(=O)c1ccc(-c2c3nc(c(-c4ccccc4)c4ccc([nH]4)c(-c4ccccc4)c4nc(c(-c5ccccc5)c5ccc2[nH]5)C=C4)C=C3)cc1
REMARK SMILES IDX 20 1 18 2 19 3 5 4 4 5 2 6 1 7 3 8 6 9 7 10 8 12 9 13 10 14
REMARK SMILES IDX 11 15 12 17 13 18 14 19 15 23 16 24 17 25 21 26 22 27 23 28
REMARK SMILES IDX 24 29 25 30 26 31 27 32 73 33 28 34 72 35 29 36 30 37 31 38
REMARK SMILES IDX 66 39 32 40 71 41 65 42 67 43 33 44 70 45 64 46 63 47 34 49
REMARK SMILES IDX 56 50 41 51 55 52 42 53 45 54 54 55 68 56 43 57 44 58 53 60
REMARK SMILES IDX 69 61 46 62 35 63 36 64 40 65 37 66 39 67 38 68 57 69 58 70
REMARK SMILES IDX 62 71 59 72 61 73 60 74 47 75 48 76 52 77 49 78 51 79 50 80
REMARK H PARENT 6 11 10 16 14 20 14 21 14 22 67 48 45 59
REMARK Flexibility Score: inf
ROOT
ATOM      1  O   UNL A   1      31.863  27.685  26.073  1.00  0.00    -0.461 OA
ENDROOT
BRANCH   1   2
ATOM      2  C   UNL A   1      33.051  27.127  25.671  1.00  0.00     0.328 C 
ATOM      3  O   UNL A   1      34.128  27.426  26.165  1.00  0.00    -0.250 OA
BRANCH   2   4
ATOM      4  C   UNL A   1      32.834  26.045  24.508  1.00  0.00     0.192 C 
BRANCH   4   5
ATOM      5  C   UNL A   1      32.866  24.463  24.629  1.00  0.00     0.040 C 
BRANCH   5   6
ATOM      6  C   UNL A   1      31.643  23.420  24.405  1.00  0.00    -0.015 C 
ATOM      7  C   UNL A   1      30.722  22.865  25.539  1.00  0.00     0.007 C 
ATOM      8  C   UNL A   1      30.620  24.064  23.435  1.00  0.00     0.007 C 
ENDBRANCH   5   6
ENDBRANCH   4   5
BRANCH   4   9
ATOM      9  N   UNL A   1      33.630  26.422  23.388  1.00  0.00    -0.341 N 
ATOM     10  C   UNL A   1      33.292  27.487  22.623  1.00  0.00     0.240 C 
ATOM     11  H   UNL A   1      34.437  25.902  23.168  1.00  0.00     0.164 HD
ATOM     12  O   UNL A   1      34.064  27.830  21.725  1.00  0.00    -0.273 OA
BRANCH  10  13
ATOM     13  C   UNL A   1      31.952  28.269  22.908  1.00  0.00     0.216 C 
BRANCH  13  14
ATOM     14  N   UNL A   1      30.456  27.902  23.195  1.00  0.00    -0.342 N 
ATOM     15  C   UNL A   1      29.104  27.914  23.166  1.00  0.00     0.278 C 
ATOM     16  H   UNL A   1      30.594  27.158  23.825  1.00  0.00     0.164 HD
ATOM     17  O   UNL A   1      28.740  26.873  23.775  1.00  0.00    -0.268 OA
BRANCH  15  18
ATOM     18  C   UNL A   1      27.838  28.872  22.741  1.00  0.00     0.273 C 
BRANCH  18  19
ATOM     19  N   UNL A   1      26.557  28.357  23.272  1.00  0.00    -0.347 N 
ATOM     20  H   UNL A   1      26.743  27.679  24.011  1.00  0.00     0.345 HD
ATOM     21  H   UNL A   1      26.035  27.906  22.521  1.00  0.00     0.345 HD
ATOM     22  H   UNL A   1      26.010  29.130  23.649  1.00  0.00     0.345 HD
ENDBRANCH  18  19
BRANCH  18  23
ATOM     23  C   UNL A   1      27.816  30.429  22.590  1.00  0.00     0.051 C 
ATOM     24  C   UNL A   1      28.770  31.087  23.594  1.00  0.00     0.014 C 
ATOM     25  C   UNL A   1      28.152  30.989  21.188  1.00  0.00     0.014 C 
ENDBRANCH  18  23
ENDBRANCH  15  18
ENDBRANCH  13  14
ENDBRANCH  10  13
ENDBRANCH   4   9
ENDBRANCH   2   4
ENDBRANCH   1   2
BRANCH   1  26
ATOM     26  C   UNL A   1      31.788  28.737  27.066  1.00  0.00     0.274 C 
BRANCH  26  27
ATOM     27  C   UNL A   1      31.850  30.105  26.382  1.00  0.00     0.275 C 
BRANCH  27  28
ATOM     28  O   UNL A   1      33.208  30.541  26.343  1.00  0.00    -0.458 OA
BRANCH  28  29
ATOM     29  C   UNL A   1      33.491  31.543  27.203  1.00  0.00     0.338 C 
ATOM     30  O   UNL A   1      32.766  32.434  27.618  1.00  0.00    -0.246 OA
BRANCH  29  31
ATOM     31  C   UNL A   1      34.804  31.243  27.756  1.00  0.00     0.060 A 
ATOM     32  C   UNL A   1      35.110  29.916  28.077  1.00  0.00     0.016 A 
ATOM     33  C   UNL A   1      35.714  32.278  27.940  1.00  0.00     0.016 A 
ATOM     34  C   UNL A   1      36.343  29.615  28.634  1.00  0.00     0.010 A 
ATOM     35  C   UNL A   1      36.946  31.978  28.493  1.00  0.00     0.010 A 
ATOM     36  C   UNL A   1      37.245  30.653  28.868  1.00  0.00    -0.014 A 
BRANCH  36  37
ATOM     37  C   UNL A   1      38.477  30.429  29.636  1.00  0.00     0.031 A 
ATOM     38  C   UNL A   1      39.503  29.516  29.050  1.00  0.00     0.074 A 
ATOM     39  C   UNL A   1      38.593  30.940  30.869  1.00  0.00     0.049 A 
ATOM     40  N   UNL A   1      40.508  28.921  29.631  1.00  0.00    -0.248 NA
ATOM     41  C   UNL A   1      39.348  29.201  27.619  1.00  0.00     0.031 C 
ATOM     42  C   UNL A   1      37.659  31.877  31.492  1.00  0.00     0.029 A 
ATOM     43  N   UNL A   1      39.530  30.692  31.835  1.00  0.00    -0.354 N 
ATOM     44  C   UNL A   1      41.076  28.120  28.650  1.00  0.00     0.074 A 
ATOM     45  C   UNL A   1      40.296  28.294  27.445  1.00  0.00     0.031 C 
ATOM     46  C   UNL A   1      38.050  32.096  32.758  1.00  0.00     0.029 A 
ATOM     47  C   UNL A   1      39.216  31.265  33.041  1.00  0.00     0.049 A 
ATOM     48  H   UNL A   1      40.342  30.157  31.681  1.00  0.00     0.167 HD
ATOM     49  C   UNL A   1      42.147  27.302  28.762  1.00  0.00     0.031 A 
ATOM     50  C   UNL A   1      39.776  31.083  34.250  1.00  0.00     0.031 A 
ATOM     51  C   UNL A   1      42.882  27.138  29.987  1.00  0.00     0.049 A 
ATOM     52  C   UNL A   1      40.929  30.127  34.371  1.00  0.00     0.074 A 
ATOM     53  C   UNL A   1      44.002  26.364  30.227  1.00  0.00     0.029 A 
ATOM     54  N   UNL A   1      42.556  27.760  31.185  1.00  0.00    -0.354 N 
ATOM     55  N   UNL A   1      41.480  29.377  33.445  1.00  0.00    -0.248 NA
ATOM     56  C   UNL A   1      41.540  29.997  35.698  1.00  0.00     0.031 C 
ATOM     57  C   UNL A   1      44.312  26.467  31.587  1.00  0.00     0.029 A 
ATOM     58  C   UNL A   1      43.436  27.367  32.176  1.00  0.00     0.049 A 
ATOM     59  H   UNL A   1      41.808  28.388  31.311  1.00  0.00     0.167 HD
ATOM     60  C   UNL A   1      42.527  28.711  34.068  1.00  0.00     0.074 A 
ATOM     61  C   UNL A   1      42.531  29.149  35.451  1.00  0.00     0.031 C 
ATOM     62  C   UNL A   1      43.412  27.827  33.545  1.00  0.00     0.031 A 
BRANCH  49  63
ATOM     63  C   UNL A   1      42.521  26.488  27.555  1.00  0.00    -0.014 A 
ATOM     64  C   UNL A   1      43.404  26.977  26.578  1.00  0.00     0.009 A 
ATOM     65  C   UNL A   1      41.958  25.214  27.379  1.00  0.00     0.009 A 
ATOM     66  C   UNL A   1      43.669  26.232  25.426  1.00  0.00     0.001 A 
ATOM     67  C   UNL A   1      42.253  24.456  26.245  1.00  0.00     0.001 A 
ATOM     68  C   UNL A   1      43.096  24.971  25.263  1.00  0.00     0.000 A 
ENDBRANCH  49  63
BRANCH  50  69
ATOM     69  C   UNL A   1      39.229  31.809  35.422  1.00  0.00    -0.014 A 
ATOM     70  C   UNL A   1      38.295  31.191  36.265  1.00  0.00     0.009 A 
ATOM     71  C   UNL A   1      39.681  33.101  35.740  1.00  0.00     0.009 A 
ATOM     72  C   UNL A   1      37.817  31.854  37.397  1.00  0.00     0.001 A 
ATOM     73  C   UNL A   1      39.224  33.749  36.889  1.00  0.00     0.001 A 
ATOM     74  C   UNL A   1      38.288  33.128  37.713  1.00  0.00     0.000 A 
ENDBRANCH  50  69
BRANCH  62  75
ATOM     75  C   UNL A   1      44.497  27.320  34.453  1.00  0.00    -0.014 A 
ATOM     76  C   UNL A   1      44.351  26.133  35.185  1.00  0.00     0.009 A 
ATOM     77  C   UNL A   1      45.717  28.014  34.512  1.00  0.00     0.009 A 
ATOM     78  C   UNL A   1      45.399  25.665  35.979  1.00  0.00     0.001 A 
ATOM     79  C   UNL A   1      46.773  27.526  35.280  1.00  0.00     0.001 A 
ATOM     80  C   UNL A   1      46.611  26.356  36.019  1.00  0.00     0.000 A 
ENDBRANCH  62  75
ENDBRANCH  36  37
ENDBRANCH  29  31
ENDBRANCH  28  29
ENDBRANCH  27  28
ENDBRANCH  26  27
ENDBRANCH   1  26
TORSDOF 19
ENDMDL
