MODEL 1
REMARK VINA RESULT:     -12.3      0.000      0.000
REMARK SMILES CC(C)CCn1nc(C(=O)OCCOC(=O)c2ccc(-c3c4nc(c(-c5ccccc5)c5ccc([nH]5)c(-c5ccccc5)c5nc(c(-c6ccccc6)c6ccc3[nH]6)C=C5)C=C4)cc2)c2c1CCN(C(=O)[C@@H]1CCc3nn(C)c(=O)n3C1)C2
REMARK SMILES IDX 12 1 11 2 9 3 10 4 8 5 6 6 7 7 66 8 65 9 67 10 83 11 68 12
REMARK SMILES IDX 69 13 5 14 4 15 2 16 1 17 3 18 70 19 71 20 72 21 73 22 82 23
REMARK SMILES IDX 74 24 81 25 75 26 79 27 76 28 77 29 80 30 78 31 13 32 14 33
REMARK SMILES IDX 15 34 16 35 17 36 18 37 64 38 19 39 63 40 20 41 21 42 22 43
REMARK SMILES IDX 57 44 23 45 62 46 56 47 58 48 24 49 61 50 55 51 54 52 25 54
REMARK SMILES IDX 47 55 32 56 46 57 33 58 36 59 45 60 59 61 34 62 35 63 44 65
REMARK SMILES IDX 60 66 37 67 26 68 27 69 31 70 28 71 30 72 29 73 48 74 49 75
REMARK SMILES IDX 53 76 50 77 52 78 51 79 38 80 39 81 43 82 40 83 42 84 41 85
REMARK H PARENT 58 53 36 64
REMARK Flexibility Score: inf
ROOT
ATOM      1  C   UNL A   1      32.911  30.874  27.414  1.00  0.00     0.275 C 
ENDROOT
BRANCH   1   2
ATOM      2  O   UNL A   1      33.226  30.434  26.084  1.00  0.00    -0.457 OA
BRANCH   2   3
ATOM      3  C   UNL A   1      33.434  29.100  25.848  1.00  0.00     0.359 C 
ATOM      4  O   UNL A   1      34.349  28.453  26.352  1.00  0.00    -0.244 OA
BRANCH   3   5
ATOM      5  C   UNL A   1      32.370  28.550  24.987  1.00  0.00     0.175 A 
ATOM      6  N   UNL A   1      30.850  28.378  23.470  1.00  0.00    -0.268 N 
ATOM      7  N   UNL A   1      31.831  29.200  23.929  1.00  0.00    -0.165 NA
ATOM      8  C   UNL A   1      30.695  27.297  24.279  1.00  0.00     0.046 A 
ATOM      9  C   UNL A   1      31.779  27.267  25.130  1.00  0.00     0.028 A 
ATOM     10  C   UNL A   1      29.603  26.312  24.382  1.00  0.00     0.078 C 
ATOM     11  C   UNL A   1      32.082  26.137  26.083  1.00  0.00     0.159 C 
ATOM     12  C   UNL A   1      29.686  25.769  25.818  1.00  0.00     0.126 C 
ATOM     13  N   UNL A   1      30.980  25.154  26.063  1.00  0.00    -0.338 N 
BRANCH   6  14
ATOM     14  C   UNL A   1      30.251  28.662  22.174  1.00  0.00     0.145 C 
BRANCH  14  15
ATOM     15  C   UNL A   1      29.200  29.780  22.079  1.00  0.00     0.027 C 
BRANCH  15  16
ATOM     16  C   UNL A   1      28.246  29.878  23.285  1.00  0.00    -0.016 C 
ATOM     17  C   UNL A   1      27.671  31.283  23.451  1.00  0.00     0.007 C 
ATOM     18  C   UNL A   1      27.108  28.860  23.145  1.00  0.00     0.007 C 
ENDBRANCH  15  16
ENDBRANCH  14  15
ENDBRANCH   6  14
BRANCH  13  19
ATOM     19  C   UNL A   1      31.268  23.832  26.322  1.00  0.00     0.227 C 
ATOM     20  O   UNL A   1      31.530  23.481  27.482  1.00  0.00    -0.274 OA
BRANCH  19  21
ATOM     21  C   UNL A   1      31.304  22.721  25.243  1.00  0.00     0.099 C 
ATOM     22  C   UNL A   1      31.662  21.308  25.719  1.00  0.00     0.023 C 
ATOM     23  C   UNL A   1      31.945  23.071  23.904  1.00  0.00     0.142 C 
ATOM     24  C   UNL A   1      33.129  20.908  25.602  1.00  0.00     0.078 C 
ATOM     25  N   UNL A   1      33.296  22.575  23.772  1.00  0.00    -0.278 N 
ATOM     26  C   UNL A   1      33.899  21.659  24.557  1.00  0.00     0.133 A 
ATOM     27  C   UNL A   1      34.305  23.241  23.117  1.00  0.00     0.345 A 
ATOM     28  N   UNL A   1      35.198  21.634  24.470  1.00  0.00    -0.155 NA
ATOM     29  N   UNL A   1      35.485  22.635  23.565  1.00  0.00    -0.216 N 
ATOM     30  O   UNL A   1      34.199  24.242  22.428  1.00  0.00    -0.246 OA
ATOM     31  C   UNL A   1      36.795  23.221  23.451  1.00  0.00     0.179 C 
ENDBRANCH  19  21
ENDBRANCH  13  19
ENDBRANCH   3   5
ENDBRANCH   2   3
ENDBRANCH   1   2
BRANCH   1  32
ATOM     32  C   UNL A   1      34.059  31.702  27.977  1.00  0.00     0.275 C 
BRANCH  32  33
ATOM     33  O   UNL A   1      33.760  33.078  27.778  1.00  0.00    -0.458 OA
BRANCH  33  34
ATOM     34  C   UNL A   1      33.586  33.825  28.890  1.00  0.00     0.338 C 
ATOM     35  O   UNL A   1      32.567  34.387  29.246  1.00  0.00    -0.246 OA
BRANCH  34  36
ATOM     36  C   UNL A   1      34.881  33.969  29.557  1.00  0.00     0.060 A 
ATOM     37  C   UNL A   1      35.909  34.585  28.835  1.00  0.00     0.016 A 
ATOM     38  C   UNL A   1      35.124  33.163  30.674  1.00  0.00     0.016 A 
ATOM     39  C   UNL A   1      37.195  34.146  29.051  1.00  0.00     0.010 A 
ATOM     40  C   UNL A   1      36.389  32.690  30.852  1.00  0.00     0.010 A 
ATOM     41  C   UNL A   1      37.378  33.111  29.967  1.00  0.00    -0.014 A 
BRANCH  41  42
ATOM     42  C   UNL A   1      38.630  32.399  29.993  1.00  0.00     0.031 A 
ATOM     43  C   UNL A   1      38.510  30.996  29.547  1.00  0.00     0.074 A 
ATOM     44  C   UNL A   1      39.782  33.065  30.197  1.00  0.00     0.049 A 
ATOM     45  N   UNL A   1      38.648  29.928  30.256  1.00  0.00    -0.248 NA
ATOM     46  C   UNL A   1      37.979  30.758  28.192  1.00  0.00     0.031 C 
ATOM     47  C   UNL A   1      40.000  34.514  30.290  1.00  0.00     0.029 A 
ATOM     48  N   UNL A   1      41.042  32.575  30.214  1.00  0.00    -0.354 N 
ATOM     49  C   UNL A   1      38.394  28.875  29.385  1.00  0.00     0.074 A 
ATOM     50  C   UNL A   1      37.755  29.446  28.231  1.00  0.00     0.031 C 
ATOM     51  C   UNL A   1      41.313  34.777  30.080  1.00  0.00     0.029 A 
ATOM     52  C   UNL A   1      42.029  33.516  29.959  1.00  0.00     0.049 A 
ATOM     53  H   UNL A   1      41.243  31.628  30.390  1.00  0.00     0.167 HD
ATOM     54  C   UNL A   1      38.983  27.659  29.539  1.00  0.00     0.031 A 
ATOM     55  C   UNL A   1      43.300  33.244  29.570  1.00  0.00     0.031 A 
ATOM     56  C   UNL A   1      39.602  27.536  30.832  1.00  0.00     0.049 A 
ATOM     57  C   UNL A   1      43.543  31.800  29.845  1.00  0.00     0.074 A 
ATOM     58  C   UNL A   1      39.141  27.567  32.132  1.00  0.00     0.029 A 
ATOM     59  N   UNL A   1      40.956  27.778  30.896  1.00  0.00    -0.354 N 
ATOM     60  N   UNL A   1      43.591  31.299  31.049  1.00  0.00    -0.248 NA
ATOM     61  C   UNL A   1      43.218  30.847  28.790  1.00  0.00     0.031 C 
ATOM     62  C   UNL A   1      40.134  28.291  32.852  1.00  0.00     0.029 A 
ATOM     63  C   UNL A   1      41.177  28.596  31.974  1.00  0.00     0.049 A 
ATOM     64  H   UNL A   1      41.640  27.429  30.280  1.00  0.00     0.167 HD
ATOM     65  C   UNL A   1      42.900  30.096  30.966  1.00  0.00     0.074 A 
ATOM     66  C   UNL A   1      42.762  29.832  29.533  1.00  0.00     0.031 C 
ATOM     67  C   UNL A   1      42.234  29.581  32.044  1.00  0.00     0.031 A 
BRANCH  54  68
ATOM     68  C   UNL A   1      39.371  26.770  28.384  1.00  0.00    -0.014 A 
ATOM     69  C   UNL A   1      39.076  25.399  28.476  1.00  0.00     0.009 A 
ATOM     70  C   UNL A   1      40.239  27.161  27.347  1.00  0.00     0.009 A 
ATOM     71  C   UNL A   1      39.689  24.467  27.632  1.00  0.00     0.001 A 
ATOM     72  C   UNL A   1      40.819  26.238  26.475  1.00  0.00     0.001 A 
ATOM     73  C   UNL A   1      40.569  24.886  26.639  1.00  0.00     0.000 A 
ENDBRANCH  54  68
BRANCH  55  74
ATOM     74  C   UNL A   1      44.159  34.038  28.658  1.00  0.00    -0.014 A 
ATOM     75  C   UNL A   1      43.817  34.219  27.308  1.00  0.00     0.009 A 
ATOM     76  C   UNL A   1      45.203  34.830  29.173  1.00  0.00     0.009 A 
ATOM     77  C   UNL A   1      44.479  35.172  26.516  1.00  0.00     0.001 A 
ATOM     78  C   UNL A   1      45.866  35.778  28.384  1.00  0.00     0.001 A 
ATOM     79  C   UNL A   1      45.495  35.957  27.058  1.00  0.00     0.000 A 
ENDBRANCH  55  74
BRANCH  67  80
ATOM     80  C   UNL A   1      42.402  30.257  33.382  1.00  0.00    -0.014 A 
ATOM     81  C   UNL A   1      41.611  31.347  33.793  1.00  0.00     0.009 A 
ATOM     82  C   UNL A   1      43.219  29.632  34.334  1.00  0.00     0.009 A 
ATOM     83  C   UNL A   1      41.644  31.795  35.118  1.00  0.00     0.001 A 
ATOM     84  C   UNL A   1      43.235  30.066  35.661  1.00  0.00     0.001 A 
ATOM     85  C   UNL A   1      42.448  31.146  36.053  1.00  0.00     0.000 A 
ENDBRANCH  67  80
ENDBRANCH  41  42
ENDBRANCH  34  36
ENDBRANCH  33  34
ENDBRANCH  32  33
ENDBRANCH   1  32
TORSDOF 16
ENDMDL
MODEL 2
REMARK VINA RESULT:     -12.1      3.275      8.800
REMARK SMILES CC(C)CCn1nc(C(=O)OCCOC(=O)c2ccc(-c3c4nc(c(-c5ccccc5)c5ccc([nH]5)c(-c5ccccc5)c5nc(c(-c6ccccc6)c6ccc3[nH]6)C=C5)C=C4)cc2)c2c1CCN(C(=O)[C@@H]1CCc3nn(C)c(=O)n3C1)C2
REMARK SMILES IDX 12 1 11 2 9 3 10 4 8 5 6 6 7 7 66 8 65 9 67 10 83 11 68 12
REMARK SMILES IDX 69 13 5 14 4 15 2 16 1 17 3 18 70 19 71 20 72 21 73 22 82 23
REMARK SMILES IDX 74 24 81 25 75 26 79 27 76 28 77 29 80 30 78 31 13 32 14 33
REMARK SMILES IDX 15 34 16 35 17 36 18 37 64 38 19 39 63 40 20 41 21 42 22 43
REMARK SMILES IDX 57 44 23 45 62 46 56 47 58 48 24 49 61 50 55 51 54 52 25 54
REMARK SMILES IDX 47 55 32 56 46 57 33 58 36 59 45 60 59 61 34 62 35 63 44 65
REMARK SMILES IDX 60 66 37 67 26 68 27 69 31 70 28 71 30 72 29 73 48 74 49 75
REMARK SMILES IDX 53 76 50 77 52 78 51 79 38 80 39 81 43 82 40 83 42 84 41 85
REMARK H PARENT 58 53 36 64
REMARK Flexibility Score: inf
ROOT
ATOM      1  C   UNL A   1      38.587  22.037  25.832  1.00  0.00     0.275 C 
ENDROOT
BRANCH   1   2
ATOM      2  O   UNL A   1      37.377  22.159  25.068  1.00  0.00    -0.457 OA
BRANCH   2   3
ATOM      3  C   UNL A   1      36.289  22.780  25.624  1.00  0.00     0.359 C 
ATOM      4  O   UNL A   1      36.369  23.684  26.452  1.00  0.00    -0.244 OA
BRANCH   3   5
ATOM      5  C   UNL A   1      35.038  22.272  25.029  1.00  0.00     0.175 A 
ATOM      6  N   UNL A   1      33.423  20.961  24.472  1.00  0.00    -0.268 N 
ATOM      7  N   UNL A   1      34.526  21.042  25.263  1.00  0.00    -0.165 NA
ATOM      8  C   UNL A   1      33.306  22.057  23.677  1.00  0.00     0.046 A 
ATOM      9  C   UNL A   1      34.192  23.001  24.151  1.00  0.00     0.028 A 
ATOM     10  C   UNL A   1      32.488  22.301  22.474  1.00  0.00     0.078 C 
ATOM     11  C   UNL A   1      34.268  24.423  23.656  1.00  0.00     0.159 C 
ATOM     12  C   UNL A   1      33.230  23.401  21.700  1.00  0.00     0.126 C 
ATOM     13  N   UNL A   1      33.358  24.603  22.507  1.00  0.00    -0.338 N 
BRANCH   6  14
ATOM     14  C   UNL A   1      32.490  19.863  24.684  1.00  0.00     0.145 C 
BRANCH  14  15
ATOM     15  C   UNL A   1      33.012  18.570  25.332  1.00  0.00     0.027 C 
BRANCH  15  16
ATOM     16  C   UNL A   1      33.845  17.668  24.401  1.00  0.00    -0.016 C 
ATOM     17  C   UNL A   1      34.130  16.304  25.025  1.00  0.00     0.007 C 
ATOM     18  C   UNL A   1      33.130  17.490  23.056  1.00  0.00     0.007 C 
ENDBRANCH  15  16
ENDBRANCH  14  15
ENDBRANCH   6  14
BRANCH  13  19
ATOM     19  C   UNL A   1      32.797  25.844  22.295  1.00  0.00     0.227 C 
ATOM     20  O   UNL A   1      33.466  26.728  21.741  1.00  0.00    -0.274 OA
BRANCH  19  21
ATOM     21  C   UNL A   1      31.359  26.234  22.719  1.00  0.00     0.099 C 
ATOM     22  C   UNL A   1      30.755  27.476  22.053  1.00  0.00     0.023 C 
ATOM     23  C   UNL A   1      31.023  26.141  24.204  1.00  0.00     0.142 C 
ATOM     24  C   UNL A   1      30.903  28.789  22.813  1.00  0.00     0.078 C 
ATOM     25  N   UNL A   1      31.052  27.421  24.876  1.00  0.00    -0.278 N 
ATOM     26  C   UNL A   1      31.076  28.637  24.294  1.00  0.00     0.133 A 
ATOM     27  C   UNL A   1      31.482  27.606  26.169  1.00  0.00     0.345 A 
ATOM     28  N   UNL A   1      31.453  29.609  25.074  1.00  0.00    -0.155 NA
ATOM     29  N   UNL A   1      31.725  28.982  26.272  1.00  0.00    -0.216 N 
ATOM     30  O   UNL A   1      31.748  26.741  26.987  1.00  0.00    -0.246 OA
ATOM     31  C   UNL A   1      32.528  29.591  27.299  1.00  0.00     0.179 C 
ENDBRANCH  19  21
ENDBRANCH  13  19
ENDBRANCH   3   5
ENDBRANCH   2   3
ENDBRANCH   1   2
BRANCH   1  32
ATOM     32  C   UNL A   1      39.151  20.629  25.697  1.00  0.00     0.275 C 
BRANCH  32  33
ATOM     33  O   UNL A   1      40.246  20.496  26.594  1.00  0.00    -0.458 OA
BRANCH  33  34
ATOM     34  C   UNL A   1      41.457  20.266  26.040  1.00  0.00     0.338 C 
ATOM     35  O   UNL A   1      41.767  19.349  25.303  1.00  0.00    -0.246 OA
BRANCH  34  36
ATOM     36  C   UNL A   1      42.404  21.245  26.578  1.00  0.00     0.060 A 
ATOM     37  C   UNL A   1      42.740  21.134  27.932  1.00  0.00     0.016 A 
ATOM     38  C   UNL A   1      42.600  22.421  25.848  1.00  0.00     0.016 A 
ATOM     39  C   UNL A   1      42.989  22.295  28.626  1.00  0.00     0.010 A 
ATOM     40  C   UNL A   1      42.796  23.576  26.544  1.00  0.00     0.010 A 
ATOM     41  C   UNL A   1      42.879  23.499  27.932  1.00  0.00    -0.014 A 
BRANCH  41  42
ATOM     42  C   UNL A   1      42.806  24.737  28.665  1.00  0.00     0.031 A 
ATOM     43  C   UNL A   1      41.626  25.552  28.312  1.00  0.00     0.074 A 
ATOM     44  C   UNL A   1      43.634  24.958  29.703  1.00  0.00     0.049 A 
ATOM     45  N   UNL A   1      41.605  26.684  27.695  1.00  0.00    -0.248 NA
ATOM     46  C   UNL A   1      40.298  24.938  28.494  1.00  0.00     0.031 C 
ATOM     47  C   UNL A   1      44.589  24.034  30.328  1.00  0.00     0.029 A 
ATOM     48  N   UNL A   1      43.682  26.032  30.523  1.00  0.00    -0.354 N 
ATOM     49  C   UNL A   1      40.258  27.008  27.571  1.00  0.00     0.074 A 
ATOM     50  C   UNL A   1      39.523  25.804  27.845  1.00  0.00     0.031 C 
ATOM     51  C   UNL A   1      44.903  24.493  31.563  1.00  0.00     0.029 A 
ATOM     52  C   UNL A   1      44.268  25.788  31.756  1.00  0.00     0.049 A 
ATOM     53  H   UNL A   1      43.330  26.914  30.266  1.00  0.00     0.167 HD
ATOM     54  C   UNL A   1      39.831  28.299  27.541  1.00  0.00     0.031 A 
ATOM     55  C   UNL A   1      44.126  26.557  32.865  1.00  0.00     0.031 A 
ATOM     56  C   UNL A   1      40.927  29.209  27.335  1.00  0.00     0.049 A 
ATOM     57  C   UNL A   1      43.578  27.869  32.421  1.00  0.00     0.074 A 
ATOM     58  C   UNL A   1      41.846  29.404  26.325  1.00  0.00     0.029 A 
ATOM     59  N   UNL A   1      41.454  29.807  28.458  1.00  0.00    -0.354 N 
ATOM     60  N   UNL A   1      44.244  28.710  31.679  1.00  0.00    -0.248 NA
ATOM     61  C   UNL A   1      42.127  28.012  32.368  1.00  0.00     0.031 C 
ATOM     62  C   UNL A   1      43.070  29.683  26.996  1.00  0.00     0.029 A 
ATOM     63  C   UNL A   1      42.819  29.716  28.370  1.00  0.00     0.049 A 
ATOM     64  H   UNL A   1      40.944  30.223  29.191  1.00  0.00     0.167 HD
ATOM     65  C   UNL A   1      43.320  29.190  30.759  1.00  0.00     0.074 A 
ATOM     66  C   UNL A   1      42.013  28.785  31.283  1.00  0.00     0.031 C 
ATOM     67  C   UNL A   1      43.701  29.596  29.511  1.00  0.00     0.031 A 
BRANCH  54  68
ATOM     68  C   UNL A   1      38.518  28.755  28.125  1.00  0.00    -0.014 A 
ATOM     69  C   UNL A   1      37.706  29.598  27.348  1.00  0.00     0.009 A 
ATOM     70  C   UNL A   1      38.171  28.619  29.483  1.00  0.00     0.009 A 
ATOM     71  C   UNL A   1      36.662  30.331  27.923  1.00  0.00     0.001 A 
ATOM     72  C   UNL A   1      37.102  29.315  30.050  1.00  0.00     0.001 A 
ATOM     73  C   UNL A   1      36.368  30.197  29.276  1.00  0.00     0.000 A 
ENDBRANCH  54  68
BRANCH  55  74
ATOM     74  C   UNL A   1      44.082  26.111  34.279  1.00  0.00    -0.014 A 
ATOM     75  C   UNL A   1      43.047  25.287  34.752  1.00  0.00     0.009 A 
ATOM     76  C   UNL A   1      45.197  26.295  35.119  1.00  0.00     0.009 A 
ATOM     77  C   UNL A   1      43.138  24.658  36.004  1.00  0.00     0.001 A 
ATOM     78  C   UNL A   1      45.288  25.670  36.369  1.00  0.00     0.001 A 
ATOM     79  C   UNL A   1      44.263  24.841  36.806  1.00  0.00     0.000 A 
ENDBRANCH  55  74
BRANCH  67  80
ATOM     80  C   UNL A   1      45.175  29.676  29.201  1.00  0.00    -0.014 A 
ATOM     81  C   UNL A   1      45.940  30.838  29.418  1.00  0.00     0.009 A 
ATOM     82  C   UNL A   1      45.849  28.483  28.905  1.00  0.00     0.009 A 
ATOM     83  C   UNL A   1      47.337  30.802  29.334  1.00  0.00     0.001 A 
ATOM     84  C   UNL A   1      47.243  28.443  28.841  1.00  0.00     0.001 A 
ATOM     85  C   UNL A   1      47.986  29.601  29.056  1.00  0.00     0.000 A 
ENDBRANCH  67  80
ENDBRANCH  41  42
ENDBRANCH  34  36
ENDBRANCH  33  34
ENDBRANCH  32  33
ENDBRANCH   1  32
TORSDOF 16
ENDMDL
MODEL 3
REMARK VINA RESULT:     -12.0      3.035      8.524
REMARK SMILES CC(C)CCn1nc(C(=O)OCCOC(=O)c2ccc(-c3c4nc(c(-c5ccccc5)c5ccc([nH]5)c(-c5ccccc5)c5nc(c(-c6ccccc6)c6ccc3[nH]6)C=C5)C=C4)cc2)c2c1CCN(C(=O)[C@@H]1CCc3nn(C)c(=O)n3C1)C2
REMARK SMILES IDX 12 1 11 2 9 3 10 4 8 5 6 6 7 7 66 8 65 9 67 10 83 11 68 12
REMARK SMILES IDX 69 13 5 14 4 15 2 16 1 17 3 18 70 19 71 20 72 21 73 22 82 23
REMARK SMILES IDX 74 24 81 25 75 26 79 27 76 28 77 29 80 30 78 31 13 32 14 33
REMARK SMILES IDX 15 34 16 35 17 36 18 37 64 38 19 39 63 40 20 41 21 42 22 43
REMARK SMILES IDX 57 44 23 45 62 46 56 47 58 48 24 49 61 50 55 51 54 52 25 54
REMARK SMILES IDX 47 55 32 56 46 57 33 58 36 59 45 60 59 61 34 62 35 63 44 65
REMARK SMILES IDX 60 66 37 67 26 68 27 69 31 70 28 71 30 72 29 73 48 74 49 75
REMARK SMILES IDX 53 76 50 77 52 78 51 79 38 80 39 81 43 82 40 83 42 84 41 85
REMARK H PARENT 58 53 36 64
REMARK Flexibility Score: inf
ROOT
ATOM      1  C   UNL A   1      39.065  22.039  25.839  1.00  0.00     0.275 C 
ENDROOT
BRANCH   1   2
ATOM      2  O   UNL A   1      37.674  21.712  25.700  1.00  0.00    -0.457 OA
BRANCH   2   3
ATOM      3  C   UNL A   1      36.748  22.720  25.635  1.00  0.00     0.359 C 
ATOM      4  O   UNL A   1      37.020  23.907  25.795  1.00  0.00    -0.244 OA
BRANCH   3   5
ATOM      5  C   UNL A   1      35.422  22.187  25.266  1.00  0.00     0.175 A 
ATOM      6  N   UNL A   1      33.714  20.885  25.100  1.00  0.00    -0.268 N 
ATOM      7  N   UNL A   1      34.902  21.033  25.745  1.00  0.00    -0.165 NA
ATOM      8  C   UNL A   1      33.541  21.850  24.159  1.00  0.00     0.046 A 
ATOM      9  C   UNL A   1      34.504  22.812  24.380  1.00  0.00     0.028 A 
ATOM     10  C   UNL A   1      32.599  21.945  23.028  1.00  0.00     0.078 C 
ATOM     11  C   UNL A   1      34.566  24.137  23.661  1.00  0.00     0.159 C 
ATOM     12  C   UNL A   1      33.281  22.877  22.014  1.00  0.00     0.126 C 
ATOM     13  N   UNL A   1      33.537  24.181  22.603  1.00  0.00    -0.338 N 
BRANCH   6  14
ATOM     14  C   UNL A   1      32.779  19.879  25.582  1.00  0.00     0.145 C 
BRANCH  14  15
ATOM     15  C   UNL A   1      32.989  18.417  25.157  1.00  0.00     0.027 C 
BRANCH  15  16
ATOM     16  C   UNL A   1      33.504  18.226  23.718  1.00  0.00    -0.016 C 
ATOM     17  C   UNL A   1      34.230  16.895  23.538  1.00  0.00     0.007 C 
ATOM     18  C   UNL A   1      32.343  18.329  22.721  1.00  0.00     0.007 C 
ENDBRANCH  15  16
ENDBRANCH  14  15
ENDBRANCH   6  14
BRANCH  13  19
ATOM     19  C   UNL A   1      32.994  25.400  22.259  1.00  0.00     0.227 C 
ATOM     20  O   UNL A   1      33.704  26.247  21.698  1.00  0.00    -0.274 OA
BRANCH  19  21
ATOM     21  C   UNL A   1      31.527  25.811  22.541  1.00  0.00     0.099 C 
ATOM     22  C   UNL A   1      31.079  27.179  22.013  1.00  0.00     0.023 C 
ATOM     23  C   UNL A   1      30.974  25.506  23.929  1.00  0.00     0.142 C 
ATOM     24  C   UNL A   1      31.169  28.343  22.993  1.00  0.00     0.078 C 
ATOM     25  N   UNL A   1      30.958  26.659  24.802  1.00  0.00    -0.278 N 
ATOM     26  C   UNL A   1      31.117  27.948  24.438  1.00  0.00     0.133 A 
ATOM     27  C   UNL A   1      31.202  26.609  26.154  1.00  0.00     0.345 A 
ATOM     28  N   UNL A   1      31.417  28.757  25.413  1.00  0.00    -0.155 NA
ATOM     29  N   UNL A   1      31.484  27.932  26.517  1.00  0.00    -0.216 N 
ATOM     30  O   UNL A   1      31.309  25.610  26.846  1.00  0.00    -0.246 OA
ATOM     31  C   UNL A   1      32.153  28.319  27.730  1.00  0.00     0.179 C 
ENDBRANCH  19  21
ENDBRANCH  13  19
ENDBRANCH   3   5
ENDBRANCH   2   3
ENDBRANCH   1   2
BRANCH   1  32
ATOM     32  C   UNL A   1      39.873  20.781  26.128  1.00  0.00     0.275 C 
BRANCH  32  33
ATOM     33  O   UNL A   1      41.091  21.162  26.752  1.00  0.00    -0.458 OA
BRANCH  33  34
ATOM     34  C   UNL A   1      42.209  21.080  25.998  1.00  0.00     0.338 C 
ATOM     35  O   UNL A   1      42.625  20.103  25.404  1.00  0.00    -0.246 OA
BRANCH  34  36
ATOM     36  C   UNL A   1      42.936  22.346  26.109  1.00  0.00     0.060 A 
ATOM     37  C   UNL A   1      43.778  22.506  27.215  1.00  0.00     0.016 A 
ATOM     38  C   UNL A   1      42.464  23.428  25.359  1.00  0.00     0.016 A 
ATOM     39  C   UNL A   1      43.899  23.769  27.749  1.00  0.00     0.010 A 
ATOM     40  C   UNL A   1      42.542  24.669  25.915  1.00  0.00     0.010 A 
ATOM     41  C   UNL A   1      43.166  24.794  27.154  1.00  0.00    -0.014 A 
BRANCH  41  42
ATOM     42  C   UNL A   1      42.996  26.044  27.852  1.00  0.00     0.031 A 
ATOM     43  C   UNL A   1      44.016  27.050  27.496  1.00  0.00     0.074 A 
ATOM     44  C   UNL A   1      41.878  26.273  28.565  1.00  0.00     0.049 A 
ATOM     45  N   UNL A   1      44.955  27.522  28.244  1.00  0.00    -0.248 NA
ATOM     46  C   UNL A   1      44.124  27.434  26.076  1.00  0.00     0.031 C 
ATOM     47  C   UNL A   1      40.667  25.448  28.664  1.00  0.00     0.029 A 
ATOM     48  N   UNL A   1      41.532  27.389  29.246  1.00  0.00    -0.354 N 
ATOM     49  C   UNL A   1      45.665  28.399  27.431  1.00  0.00     0.074 A 
ATOM     50  C   UNL A   1      45.271  28.111  26.080  1.00  0.00     0.031 C 
ATOM     51  C   UNL A   1      39.649  26.213  29.127  1.00  0.00     0.029 A 
ATOM     52  C   UNL A   1      40.170  27.530  29.463  1.00  0.00     0.049 A 
ATOM     53  H   UNL A   1      42.192  28.048  29.558  1.00  0.00     0.167 HD
ATOM     54  C   UNL A   1      46.300  29.490  27.937  1.00  0.00     0.031 A 
ATOM     55  C   UNL A   1      39.535  28.686  29.785  1.00  0.00     0.031 A 
ATOM     56  C   UNL A   1      46.401  29.419  29.371  1.00  0.00     0.049 A 
ATOM     57  C   UNL A   1      40.580  29.647  30.236  1.00  0.00     0.074 A 
ATOM     58  C   UNL A   1      47.008  28.554  30.257  1.00  0.00     0.029 A 
ATOM     59  N   UNL A   1      45.452  30.109  30.093  1.00  0.00    -0.354 N 
ATOM     60  N   UNL A   1      41.275  29.490  31.329  1.00  0.00    -0.248 NA
ATOM     61  C   UNL A   1      41.202  30.494  29.223  1.00  0.00     0.031 C 
ATOM     62  C   UNL A   1      46.082  28.426  31.332  1.00  0.00     0.029 A 
ATOM     63  C   UNL A   1      45.000  29.273  31.081  1.00  0.00     0.049 A 
ATOM     64  H   UNL A   1      45.152  31.032  29.928  1.00  0.00     0.167 HD
ATOM     65  C   UNL A   1      42.573  29.849  30.986  1.00  0.00     0.074 A 
ATOM     66  C   UNL A   1      42.452  30.534  29.697  1.00  0.00     0.031 C 
ATOM     67  C   UNL A   1      43.654  29.294  31.611  1.00  0.00     0.031 A 
BRANCH  54  68
ATOM     68  C   UNL A   1      46.434  30.794  27.194  1.00  0.00    -0.014 A 
ATOM     69  C   UNL A   1      47.685  31.434  27.199  1.00  0.00     0.009 A 
ATOM     70  C   UNL A   1      45.341  31.548  26.724  1.00  0.00     0.009 A 
ATOM     71  C   UNL A   1      47.813  32.780  26.840  1.00  0.00     0.001 A 
ATOM     72  C   UNL A   1      45.473  32.879  26.323  1.00  0.00     0.001 A 
ATOM     73  C   UNL A   1      46.705  33.504  26.412  1.00  0.00     0.000 A 
ENDBRANCH  54  68
BRANCH  55  74
ATOM     74  C   UNL A   1      38.174  29.117  29.382  1.00  0.00    -0.014 A 
ATOM     75  C   UNL A   1      37.237  29.555  30.332  1.00  0.00     0.009 A 
ATOM     76  C   UNL A   1      37.867  29.330  28.025  1.00  0.00     0.009 A 
ATOM     77  C   UNL A   1      36.054  30.201  29.937  1.00  0.00     0.001 A 
ATOM     78  C   UNL A   1      36.687  29.972  27.629  1.00  0.00     0.001 A 
ATOM     79  C   UNL A   1      35.786  30.418  28.587  1.00  0.00     0.000 A 
ENDBRANCH  55  74
BRANCH  67  80
ATOM     80  C   UNL A   1      43.414  28.405  32.806  1.00  0.00    -0.014 A 
ATOM     81  C   UNL A   1      43.376  27.001  32.719  1.00  0.00     0.009 A 
ATOM     82  C   UNL A   1      43.461  28.991  34.079  1.00  0.00     0.009 A 
ATOM     83  C   UNL A   1      43.379  26.212  33.875  1.00  0.00     0.001 A 
ATOM     84  C   UNL A   1      43.484  28.203  35.231  1.00  0.00     0.001 A 
ATOM     85  C   UNL A   1      43.444  26.815  35.129  1.00  0.00     0.000 A 
ENDBRANCH  67  80
ENDBRANCH  41  42
ENDBRANCH  34  36
ENDBRANCH  33  34
ENDBRANCH  32  33
ENDBRANCH   1  32
TORSDOF 16
ENDMDL
