MODEL 1
REMARK VINA RESULT:     -11.5      0.000      0.000
REMARK SMILES CCC(=O)Nc1ccc(-c2ccc(C(=O)OCCOC(=O)c3ccc(-c4c5nc(c(-c6ccccc6)c6ccc([nH]6)c(-c6ccccc6)c6nc(c(-c7ccccc7)c7ccc4[nH]7)C=C6)C=C5)cc3)cc2)nc1
REMARK SMILES IDX 17 1 16 2 14 3 15 4 13 5 10 6 11 7 71 8 12 9 70 10 9 11 6 12
REMARK SMILES IDX 7 13 73 14 8 15 72 16 5 17 3 18 4 19 2 21 1 22 18 23 19 24
REMARK SMILES IDX 20 25 21 26 22 27 23 28 69 29 24 30 68 31 25 32 26 33 27 34
REMARK SMILES IDX 62 35 28 36 67 37 61 38 63 39 29 40 66 41 60 42 59 43 30 45
REMARK SMILES IDX 52 46 37 47 51 48 38 49 41 50 50 51 64 52 39 53 40 54 49 56
REMARK SMILES IDX 65 57 42 58 31 59 32 60 36 61 33 62 35 63 34 64 53 65 54 66
REMARK SMILES IDX 58 67 55 68 57 69 56 70 43 71 44 72 48 73 45 74 47 75 46 76
REMARK H PARENT 5 20 63 44 41 55
REMARK Flexibility Score: inf
ROOT
ATOM      1  C   UNL A   1      35.301  21.510  26.381  1.00  0.00     0.275 C 
ENDROOT
BRANCH   1   2
ATOM      2  O   UNL A   1      33.918  21.791  26.085  1.00  0.00    -0.458 OA
BRANCH   2   3
ATOM      3  C   UNL A   1      33.249  22.512  27.016  1.00  0.00     0.338 C 
ATOM      4  O   UNL A   1      33.101  22.228  28.196  1.00  0.00    -0.246 OA
BRANCH   3   5
ATOM      5  C   UNL A   1      32.773  23.786  26.435  1.00  0.00     0.060 A 
ATOM      6  C   UNL A   1      31.772  26.119  25.212  1.00  0.00     0.000 A 
ATOM      7  C   UNL A   1      30.912  25.243  25.880  1.00  0.00     0.011 A 
ATOM      8  C   UNL A   1      33.149  25.826  25.203  1.00  0.00     0.011 A 
ATOM      9  C   UNL A   1      31.403  24.069  26.445  1.00  0.00     0.016 A 
ATOM     10  C   UNL A   1      33.653  24.676  25.822  1.00  0.00     0.016 A 
BRANCH   6  11
ATOM     11  C   UNL A   1      31.209  27.232  24.441  1.00  0.00     0.070 A 
ATOM     12  C   UNL A   1      30.441  29.330  22.831  1.00  0.00     0.059 A 
ATOM     13  C   UNL A   1      30.816  29.575  24.144  1.00  0.00     0.030 A 
ATOM     14  C   UNL A   1      30.384  28.006  22.417  1.00  0.00     0.137 A 
ATOM     15  C   UNL A   1      31.218  28.523  24.955  1.00  0.00     0.031 A 
ATOM     16  N   UNL A   1      30.784  26.959  23.181  1.00  0.00    -0.254 NA
BRANCH  12  17
ATOM     17  N   UNL A   1      30.038  30.370  21.987  1.00  0.00    -0.325 N 
ATOM     18  C   UNL A   1      28.763  30.720  21.622  1.00  0.00     0.224 C 
ATOM     19  O   UNL A   1      28.589  31.354  20.581  1.00  0.00    -0.275 OA
ATOM     20  H   UNL A   1      30.759  30.922  21.608  1.00  0.00     0.169 HD
BRANCH  18  21
ATOM     21  C   UNL A   1      27.618  30.497  22.604  1.00  0.00     0.097 C 
ATOM     22  C   UNL A   1      27.494  31.479  23.751  1.00  0.00     0.014 C 
ENDBRANCH  18  21
ENDBRANCH  12  17
ENDBRANCH   6  11
ENDBRANCH   3   5
ENDBRANCH   2   3
ENDBRANCH   1   2
BRANCH   1  23
ATOM     23  C   UNL A   1      36.020  20.949  25.154  1.00  0.00     0.275 C 
BRANCH  23  24
ATOM     24  O   UNL A   1      37.240  21.672  24.912  1.00  0.00    -0.458 OA
BRANCH  24  25
ATOM     25  C   UNL A   1      38.335  21.200  25.553  1.00  0.00     0.338 C 
ATOM     26  O   UNL A   1      38.712  20.045  25.635  1.00  0.00    -0.246 OA
BRANCH  25  27
ATOM     27  C   UNL A   1      39.098  22.321  26.123  1.00  0.00     0.060 A 
ATOM     28  C   UNL A   1      38.538  23.590  26.068  1.00  0.00     0.016 A 
ATOM     29  C   UNL A   1      40.408  22.162  26.563  1.00  0.00     0.016 A 
ATOM     30  C   UNL A   1      39.310  24.714  26.328  1.00  0.00     0.010 A 
ATOM     31  C   UNL A   1      41.135  23.285  26.981  1.00  0.00     0.010 A 
ATOM     32  C   UNL A   1      40.601  24.582  26.851  1.00  0.00    -0.014 A 
BRANCH  32  33
ATOM     33  C   UNL A   1      41.347  25.788  27.314  1.00  0.00     0.031 A 
ATOM     34  C   UNL A   1      40.721  26.769  28.271  1.00  0.00     0.074 A 
ATOM     35  C   UNL A   1      42.601  26.011  26.863  1.00  0.00     0.049 A 
ATOM     36  N   UNL A   1      41.134  27.964  28.615  1.00  0.00    -0.248 NA
ATOM     37  C   UNL A   1      39.462  26.364  28.917  1.00  0.00     0.031 C 
ATOM     38  C   UNL A   1      43.360  25.123  25.974  1.00  0.00     0.029 A 
ATOM     39  N   UNL A   1      43.468  27.054  27.088  1.00  0.00    -0.354 N 
ATOM     40  C   UNL A   1      40.169  28.469  29.478  1.00  0.00     0.074 A 
ATOM     41  C   UNL A   1      39.143  27.456  29.601  1.00  0.00     0.031 C 
ATOM     42  C   UNL A   1      44.582  25.631  25.771  1.00  0.00     0.029 A 
ATOM     43  C   UNL A   1      44.655  26.939  26.403  1.00  0.00     0.049 A 
ATOM     44  H   UNL A   1      43.258  27.811  27.683  1.00  0.00     0.167 HD
ATOM     45  C   UNL A   1      40.141  29.671  30.104  1.00  0.00     0.031 A 
ATOM     46  C   UNL A   1      45.666  27.809  26.230  1.00  0.00     0.031 A 
ATOM     47  C   UNL A   1      41.177  30.667  29.992  1.00  0.00     0.049 A 
ATOM     48  C   UNL A   1      45.558  29.170  26.849  1.00  0.00     0.074 A 
ATOM     49  C   UNL A   1      41.244  31.913  30.592  1.00  0.00     0.029 A 
ATOM     50  N   UNL A   1      42.329  30.527  29.235  1.00  0.00    -0.354 N 
ATOM     51  N   UNL A   1      44.623  29.650  27.631  1.00  0.00    -0.248 NA
ATOM     52  C   UNL A   1      46.636  30.121  26.542  1.00  0.00     0.031 C 
ATOM     53  C   UNL A   1      42.406  32.551  30.150  1.00  0.00     0.029 A 
ATOM     54  C   UNL A   1      43.096  31.677  29.325  1.00  0.00     0.049 A 
ATOM     55  H   UNL A   1      42.568  29.728  28.711  1.00  0.00     0.167 HD
ATOM     56  C   UNL A   1      45.002  30.952  27.918  1.00  0.00     0.074 A 
ATOM     57  C   UNL A   1      46.269  31.176  27.254  1.00  0.00     0.031 C 
ATOM     58  C   UNL A   1      44.353  31.885  28.655  1.00  0.00     0.031 A 
BRANCH  45  59
ATOM     59  C   UNL A   1      38.935  30.005  30.942  1.00  0.00    -0.014 A 
ATOM     60  C   UNL A   1      37.791  30.593  30.384  1.00  0.00     0.009 A 
ATOM     61  C   UNL A   1      38.921  29.656  32.303  1.00  0.00     0.009 A 
ATOM     62  C   UNL A   1      36.666  30.843  31.175  1.00  0.00     0.001 A 
ATOM     63  C   UNL A   1      37.787  29.882  33.085  1.00  0.00     0.001 A 
ATOM     64  C   UNL A   1      36.663  30.482  32.522  1.00  0.00     0.000 A 
ENDBRANCH  45  59
BRANCH  46  65
ATOM     65  C   UNL A   1      46.819  27.457  25.357  1.00  0.00    -0.014 A 
ATOM     66  C   UNL A   1      46.849  27.853  24.012  1.00  0.00     0.009 A 
ATOM     67  C   UNL A   1      47.893  26.705  25.864  1.00  0.00     0.009 A 
ATOM     68  C   UNL A   1      47.916  27.482  23.189  1.00  0.00     0.001 A 
ATOM     69  C   UNL A   1      48.977  26.370  25.050  1.00  0.00     0.001 A 
ATOM     70  C   UNL A   1      48.980  26.747  23.710  1.00  0.00     0.000 A 
ENDBRANCH  46  65
BRANCH  58  71
ATOM     71  C   UNL A   1      45.021  33.221  28.798  1.00  0.00    -0.014 A 
ATOM     72  C   UNL A   1      44.736  34.272  27.914  1.00  0.00     0.009 A 
ATOM     73  C   UNL A   1      45.929  33.437  29.846  1.00  0.00     0.009 A 
ATOM     74  C   UNL A   1      45.372  35.505  28.057  1.00  0.00     0.001 A 
ATOM     75  C   UNL A   1      46.539  34.681  30.006  1.00  0.00     0.001 A 
ATOM     76  C   UNL A   1      46.268  35.710  29.106  1.00  0.00     0.000 A 
ENDBRANCH  58  71
ENDBRANCH  32  33
ENDBRANCH  25  27
ENDBRANCH  24  25
ENDBRANCH  23  24
ENDBRANCH   1  23
TORSDOF 14
ENDMDL
MODEL 2
REMARK VINA RESULT:     -11.5      5.538      9.663
REMARK SMILES CCC(=O)Nc1ccc(-c2ccc(C(=O)OCCOC(=O)c3ccc(-c4c5nc(c(-c6ccccc6)c6ccc([nH]6)c(-c6ccccc6)c6nc(c(-c7ccccc7)c7ccc4[nH]7)C=C6)C=C5)cc3)cc2)nc1
REMARK SMILES IDX 17 1 16 2 14 3 15 4 13 5 10 6 11 7 71 8 12 9 70 10 9 11 6 12
REMARK SMILES IDX 7 13 73 14 8 15 72 16 5 17 3 18 4 19 2 21 1 22 18 23 19 24
REMARK SMILES IDX 20 25 21 26 22 27 23 28 69 29 24 30 68 31 25 32 26 33 27 34
REMARK SMILES IDX 62 35 28 36 67 37 61 38 63 39 29 40 66 41 60 42 59 43 30 45
REMARK SMILES IDX 52 46 37 47 51 48 38 49 41 50 50 51 64 52 39 53 40 54 49 56
REMARK SMILES IDX 65 57 42 58 31 59 32 60 36 61 33 62 35 63 34 64 53 65 54 66
REMARK SMILES IDX 58 67 55 68 57 69 56 70 43 71 44 72 48 73 45 74 47 75 46 76
REMARK H PARENT 5 20 63 44 41 55
REMARK Flexibility Score: inf
ROOT
ATOM      1  C   UNL A   1      33.671  35.387  28.741  1.00  0.00     0.275 C 
ENDROOT
BRANCH   1   2
ATOM      2  O   UNL A   1      33.639  34.011  29.172  1.00  0.00    -0.458 OA
BRANCH   2   3
ATOM      3  C   UNL A   1      34.755  33.286  28.917  1.00  0.00     0.338 C 
ATOM      4  O   UNL A   1      35.899  33.562  29.247  1.00  0.00    -0.246 OA
BRANCH   3   5
ATOM      5  C   UNL A   1      34.401  32.017  28.243  1.00  0.00     0.060 A 
ATOM      6  C   UNL A   1      33.857  29.632  26.846  1.00  0.00     0.000 A 
ATOM      7  C   UNL A   1      35.074  29.802  27.513  1.00  0.00     0.011 A 
ATOM      8  C   UNL A   1      32.902  30.664  26.925  1.00  0.00     0.011 A 
ATOM      9  C   UNL A   1      35.357  30.999  28.166  1.00  0.00     0.016 A 
ATOM     10  C   UNL A   1      33.162  31.844  27.631  1.00  0.00     0.016 A 
BRANCH   6  11
ATOM     11  C   UNL A   1      33.665  28.460  25.987  1.00  0.00     0.070 A 
ATOM     12  C   UNL A   1      33.037  26.413  24.255  1.00  0.00     0.059 A 
ATOM     13  C   UNL A   1      32.739  26.285  25.603  1.00  0.00     0.030 A 
ATOM     14  C   UNL A   1      33.731  27.548  23.856  1.00  0.00     0.137 A 
ATOM     15  C   UNL A   1      33.040  27.320  26.478  1.00  0.00     0.031 A 
ATOM     16  N   UNL A   1      34.025  28.581  24.684  1.00  0.00    -0.254 NA
BRANCH  12  17
ATOM     17  N   UNL A   1      32.740  25.391  23.347  1.00  0.00    -0.325 N 
ATOM     18  C   UNL A   1      33.605  24.508  22.752  1.00  0.00     0.224 C 
ATOM     19  O   UNL A   1      33.278  23.968  21.694  1.00  0.00    -0.275 OA
ATOM     20  H   UNL A   1      31.791  25.291  23.106  1.00  0.00     0.169 HD
BRANCH  18  21
ATOM     21  C   UNL A   1      34.852  24.061  23.507  1.00  0.00     0.097 C 
ATOM     22  C   UNL A   1      34.653  23.089  24.651  1.00  0.00     0.014 C 
ENDBRANCH  18  21
ENDBRANCH  12  17
ENDBRANCH   6  11
ENDBRANCH   3   5
ENDBRANCH   2   3
ENDBRANCH   1   2
BRANCH   1  23
ATOM     23  C   UNL A   1      32.897  36.281  29.710  1.00  0.00     0.275 C 
BRANCH  23  24
ATOM     24  O   UNL A   1      32.392  35.507  30.813  1.00  0.00    -0.458 OA
BRANCH  24  25
ATOM     25  C   UNL A   1      32.768  35.929  32.043  1.00  0.00     0.338 C 
ATOM     26  O   UNL A   1      32.278  36.825  32.706  1.00  0.00    -0.246 OA
BRANCH  25  27
ATOM     27  C   UNL A   1      33.865  35.087  32.543  1.00  0.00     0.060 A 
ATOM     28  C   UNL A   1      35.157  35.591  32.485  1.00  0.00     0.016 A 
ATOM     29  C   UNL A   1      33.655  33.763  32.918  1.00  0.00     0.016 A 
ATOM     30  C   UNL A   1      36.250  34.756  32.674  1.00  0.00     0.010 A 
ATOM     31  C   UNL A   1      34.753  32.964  33.267  1.00  0.00     0.010 A 
ATOM     32  C   UNL A   1      36.069  33.446  33.132  1.00  0.00    -0.014 A 
BRANCH  32  33
ATOM     33  C   UNL A   1      37.250  32.622  33.524  1.00  0.00     0.031 A 
ATOM     34  C   UNL A   1      37.967  32.864  34.827  1.00  0.00     0.074 A 
ATOM     35  C   UNL A   1      37.691  31.650  32.695  1.00  0.00     0.049 A 
ATOM     36  N   UNL A   1      39.121  32.392  35.233  1.00  0.00    -0.248 NA
ATOM     37  C   UNL A   1      37.314  33.758  35.796  1.00  0.00     0.031 C 
ATOM     38  C   UNL A   1      37.068  31.264  31.424  1.00  0.00     0.029 A 
ATOM     39  N   UNL A   1      38.768  30.802  32.794  1.00  0.00    -0.354 N 
ATOM     40  C   UNL A   1      39.352  32.965  36.479  1.00  0.00     0.074 A 
ATOM     41  C   UNL A   1      38.223  33.826  36.761  1.00  0.00     0.031 C 
ATOM     42  C   UNL A   1      37.738  30.235  30.890  1.00  0.00     0.029 A 
ATOM     43  C   UNL A   1      38.912  29.970  31.707  1.00  0.00     0.049 A 
ATOM     44  H   UNL A   1      39.378  30.791  33.567  1.00  0.00     0.167 HD
ATOM     45  C   UNL A   1      40.411  32.791  37.305  1.00  0.00     0.031 A 
ATOM     46  C   UNL A   1      39.908  29.137  31.356  1.00  0.00     0.031 A 
ATOM     47  C   UNL A   1      41.522  31.916  37.025  1.00  0.00     0.049 A 
ATOM     48  C   UNL A   1      41.116  29.045  32.239  1.00  0.00     0.074 A 
ATOM     49  C   UNL A   1      42.641  31.667  37.802  1.00  0.00     0.029 A 
ATOM     50  N   UNL A   1      41.650  31.143  35.882  1.00  0.00    -0.354 N 
ATOM     51  N   UNL A   1      41.339  29.621  33.395  1.00  0.00    -0.248 NA
ATOM     52  C   UNL A   1      42.222  28.206  31.758  1.00  0.00     0.031 C 
ATOM     53  C   UNL A   1      43.474  30.790  37.102  1.00  0.00     0.029 A 
ATOM     54  C   UNL A   1      42.846  30.444  35.917  1.00  0.00     0.049 A 
ATOM     55  H   UNL A   1      40.990  31.098  35.154  1.00  0.00     0.167 HD
ATOM     56  C   UNL A   1      42.604  29.207  33.784  1.00  0.00     0.074 A 
ATOM     57  C   UNL A   1      43.085  28.305  32.758  1.00  0.00     0.031 C 
ATOM     58  C   UNL A   1      43.310  29.553  34.886  1.00  0.00     0.031 A 
BRANCH  45  59
ATOM     59  C   UNL A   1      40.452  33.589  38.581  1.00  0.00    -0.014 A 
ATOM     60  C   UNL A   1      41.025  34.868  38.632  1.00  0.00     0.009 A 
ATOM     61  C   UNL A   1      39.839  33.076  39.737  1.00  0.00     0.009 A 
ATOM     62  C   UNL A   1      41.001  35.607  39.818  1.00  0.00     0.001 A 
ATOM     63  C   UNL A   1      39.792  33.827  40.912  1.00  0.00     0.001 A 
ATOM     64  C   UNL A   1      40.379  35.090  40.955  1.00  0.00     0.000 A 
ENDBRANCH  45  59
BRANCH  46  65
ATOM     65  C   UNL A   1      39.850  28.401  30.063  1.00  0.00    -0.014 A 
ATOM     66  C   UNL A   1      40.291  29.000  28.875  1.00  0.00     0.009 A 
ATOM     67  C   UNL A   1      39.334  27.094  30.011  1.00  0.00     0.009 A 
ATOM     68  C   UNL A   1      40.194  28.316  27.659  1.00  0.00     0.001 A 
ATOM     69  C   UNL A   1      39.276  26.399  28.801  1.00  0.00     0.001 A 
ATOM     70  C   UNL A   1      39.693  27.016  27.625  1.00  0.00     0.000 A 
ENDBRANCH  46  65
BRANCH  58  71
ATOM     71  C   UNL A   1      44.666  28.930  35.045  1.00  0.00    -0.014 A 
ATOM     72  C   UNL A   1      44.818  27.664  35.632  1.00  0.00     0.009 A 
ATOM     73  C   UNL A   1      45.803  29.608  34.579  1.00  0.00     0.009 A 
ATOM     74  C   UNL A   1      46.087  27.104  35.778  1.00  0.00     0.001 A 
ATOM     75  C   UNL A   1      47.068  29.031  34.698  1.00  0.00     0.001 A 
ATOM     76  C   UNL A   1      47.210  27.785  35.307  1.00  0.00     0.000 A 
ENDBRANCH  58  71
ENDBRANCH  32  33
ENDBRANCH  25  27
ENDBRANCH  24  25
ENDBRANCH  23  24
ENDBRANCH   1  23
TORSDOF 14
ENDMDL
MODEL 3
REMARK VINA RESULT:     -11.5      2.943      7.716
REMARK SMILES CCC(=O)Nc1ccc(-c2ccc(C(=O)OCCOC(=O)c3ccc(-c4c5nc(c(-c6ccccc6)c6ccc([nH]6)c(-c6ccccc6)c6nc(c(-c7ccccc7)c7ccc4[nH]7)C=C6)C=C5)cc3)cc2)nc1
REMARK SMILES IDX 17 1 16 2 14 3 15 4 13 5 10 6 11 7 71 8 12 9 70 10 9 11 6 12
REMARK SMILES IDX 7 13 73 14 8 15 72 16 5 17 3 18 4 19 2 21 1 22 18 23 19 24
REMARK SMILES IDX 20 25 21 26 22 27 23 28 69 29 24 30 68 31 25 32 26 33 27 34
REMARK SMILES IDX 62 35 28 36 67 37 61 38 63 39 29 40 66 41 60 42 59 43 30 45
REMARK SMILES IDX 52 46 37 47 51 48 38 49 41 50 50 51 64 52 39 53 40 54 49 56
REMARK SMILES IDX 65 57 42 58 31 59 32 60 36 61 33 62 35 63 34 64 53 65 54 66
REMARK SMILES IDX 58 67 55 68 57 69 56 70 43 71 44 72 48 73 45 74 47 75 46 76
REMARK H PARENT 5 20 63 44 41 55
REMARK Flexibility Score: inf
ROOT
ATOM      1  C   UNL A   1      42.286  19.253  26.666  1.00  0.00     0.275 C 
ENDROOT
BRANCH   1   2
ATOM      2  O   UNL A   1      41.715  20.355  25.933  1.00  0.00    -0.458 OA
BRANCH   2   3
ATOM      3  C   UNL A   1      41.422  21.460  26.659  1.00  0.00     0.338 C 
ATOM      4  O   UNL A   1      42.175  22.065  27.407  1.00  0.00    -0.246 OA
BRANCH   3   5
ATOM      5  C   UNL A   1      40.051  21.925  26.356  1.00  0.00     0.060 A 
ATOM      6  C   UNL A   1      37.473  22.783  25.610  1.00  0.00     0.000 A 
ATOM      7  C   UNL A   1      37.875  21.463  25.384  1.00  0.00     0.011 A 
ATOM      8  C   UNL A   1      38.372  23.655  26.254  1.00  0.00     0.011 A 
ATOM      9  C   UNL A   1      39.164  21.054  25.714  1.00  0.00     0.016 A 
ATOM     10  C   UNL A   1      39.648  23.229  26.640  1.00  0.00     0.016 A 
BRANCH   6  11
ATOM     11  C   UNL A   1      36.196  23.251  25.062  1.00  0.00     0.070 A 
ATOM     12  C   UNL A   1      33.653  23.920  24.244  1.00  0.00     0.059 A 
ATOM     13  C   UNL A   1      34.425  23.074  23.460  1.00  0.00     0.030 A 
ATOM     14  C   UNL A   1      34.247  24.468  25.373  1.00  0.00     0.137 A 
ATOM     15  C   UNL A   1      35.701  22.722  23.875  1.00  0.00     0.031 A 
ATOM     16  N   UNL A   1      35.485  24.131  25.812  1.00  0.00    -0.254 NA
BRANCH  12  17
ATOM     17  N   UNL A   1      32.361  24.288  23.855  1.00  0.00    -0.325 N 
ATOM     18  C   UNL A   1      31.963  25.428  23.204  1.00  0.00     0.224 C 
ATOM     19  O   UNL A   1      30.794  25.802  23.307  1.00  0.00    -0.275 OA
ATOM     20  H   UNL A   1      31.646  23.648  24.076  1.00  0.00     0.169 HD
BRANCH  18  21
ATOM     21  C   UNL A   1      32.913  26.091  22.212  1.00  0.00     0.097 C 
ATOM     22  C   UNL A   1      32.899  25.566  20.791  1.00  0.00     0.014 C 
ENDBRANCH  18  21
ENDBRANCH  12  17
ENDBRANCH   6  11
ENDBRANCH   3   5
ENDBRANCH   2   3
ENDBRANCH   1   2
BRANCH   1  23
ATOM     23  C   UNL A   1      43.293  18.488  25.808  1.00  0.00     0.275 C 
BRANCH  23  24
ATOM     24  O   UNL A   1      43.555  19.200  24.585  1.00  0.00    -0.458 OA
BRANCH  24  25
ATOM     25  C   UNL A   1      44.848  19.536  24.371  1.00  0.00     0.338 C 
ATOM     26  O   UNL A   1      45.749  18.820  23.974  1.00  0.00    -0.246 OA
BRANCH  25  27
ATOM     27  C   UNL A   1      45.038  20.972  24.630  1.00  0.00     0.060 A 
ATOM     28  C   UNL A   1      45.620  21.350  25.831  1.00  0.00     0.016 A 
ATOM     29  C   UNL A   1      44.511  21.941  23.780  1.00  0.00     0.016 A 
ATOM     30  C   UNL A   1      45.571  22.672  26.254  1.00  0.00     0.010 A 
ATOM     31  C   UNL A   1      44.609  23.294  24.135  1.00  0.00     0.010 A 
ATOM     32  C   UNL A   1      45.125  23.676  25.389  1.00  0.00    -0.014 A 
BRANCH  32  33
ATOM     33  C   UNL A   1      45.263  25.111  25.775  1.00  0.00     0.031 A 
ATOM     34  C   UNL A   1      46.597  25.808  25.710  1.00  0.00     0.074 A 
ATOM     35  C   UNL A   1      44.178  25.795  26.199  1.00  0.00     0.049 A 
ATOM     36  N   UNL A   1      46.943  26.975  26.197  1.00  0.00    -0.248 NA
ATOM     37  C   UNL A   1      47.689  25.102  25.020  1.00  0.00     0.031 C 
ATOM     38  C   UNL A   1      42.809  25.270  26.266  1.00  0.00     0.029 A 
ATOM     39  N   UNL A   1      44.048  27.085  26.655  1.00  0.00    -0.354 N 
ATOM     40  C   UNL A   1      48.296  27.123  25.914  1.00  0.00     0.074 A 
ATOM     41  C   UNL A   1      48.713  25.924  25.219  1.00  0.00     0.031 C 
ATOM     42  C   UNL A   1      41.979  26.234  26.686  1.00  0.00     0.029 A 
ATOM     43  C   UNL A   1      42.767  27.403  27.044  1.00  0.00     0.049 A 
ATOM     44  H   UNL A   1      44.799  27.720  26.700  1.00  0.00     0.167 HD
ATOM     45  C   UNL A   1      49.113  28.161  26.212  1.00  0.00     0.031 A 
ATOM     46  C   UNL A   1      42.277  28.480  27.685  1.00  0.00     0.031 A 
ATOM     47  C   UNL A   1      48.685  29.361  26.887  1.00  0.00     0.049 A 
ATOM     48  C   UNL A   1      43.225  29.566  28.096  1.00  0.00     0.074 A 
ATOM     49  C   UNL A   1      49.436  30.473  27.230  1.00  0.00     0.029 A 
ATOM     50  N   UNL A   1      47.390  29.607  27.316  1.00  0.00    -0.354 N 
ATOM     51  N   UNL A   1      44.508  29.676  27.856  1.00  0.00    -0.248 NA
ATOM     52  C   UNL A   1      42.661  30.668  28.888  1.00  0.00     0.031 C 
ATOM     53  C   UNL A   1      48.609  31.364  27.919  1.00  0.00     0.029 A 
ATOM     54  C   UNL A   1      47.329  30.837  27.950  1.00  0.00     0.049 A 
ATOM     55  H   UNL A   1      46.627  28.998  27.188  1.00  0.00     0.167 HD
ATOM     56  C   UNL A   1      44.904  30.861  28.458  1.00  0.00     0.074 A 
ATOM     57  C   UNL A   1      43.718  31.451  29.045  1.00  0.00     0.031 C 
ATOM     58  C   UNL A   1      46.141  31.407  28.531  1.00  0.00     0.031 A 
BRANCH  45  59
ATOM     59  C   UNL A   1      50.570  28.043  25.851  1.00  0.00    -0.014 A 
ATOM     60  C   UNL A   1      51.063  28.501  24.620  1.00  0.00     0.009 A 
ATOM     61  C   UNL A   1      51.476  27.528  26.793  1.00  0.00     0.009 A 
ATOM     62  C   UNL A   1      52.429  28.427  24.333  1.00  0.00     0.001 A 
ATOM     63  C   UNL A   1      52.843  27.480  26.515  1.00  0.00     0.001 A 
ATOM     64  C   UNL A   1      53.318  27.923  25.283  1.00  0.00     0.000 A 
ENDBRANCH  45  59
BRANCH  46  65
ATOM     65  C   UNL A   1      40.839  28.538  28.065  1.00  0.00    -0.014 A 
ATOM     66  C   UNL A   1      39.905  29.191  27.248  1.00  0.00     0.009 A 
ATOM     67  C   UNL A   1      40.396  27.952  29.264  1.00  0.00     0.009 A 
ATOM     68  C   UNL A   1      38.565  29.276  27.635  1.00  0.00     0.001 A 
ATOM     69  C   UNL A   1      39.049  28.004  29.628  1.00  0.00     0.001 A 
ATOM     70  C   UNL A   1      38.137  28.678  28.819  1.00  0.00     0.000 A 
ENDBRANCH  46  65
BRANCH  58  71
ATOM     71  C   UNL A   1      46.262  32.719  29.249  1.00  0.00    -0.014 A 
ATOM     72  C   UNL A   1      46.073  33.935  28.574  1.00  0.00     0.009 A 
ATOM     73  C   UNL A   1      46.545  32.737  30.623  1.00  0.00     0.009 A 
ATOM     74  C   UNL A   1      46.196  35.145  29.256  1.00  0.00     0.001 A 
ATOM     75  C   UNL A   1      46.637  33.949  31.309  1.00  0.00     0.001 A 
ATOM     76  C   UNL A   1      46.473  35.151  30.624  1.00  0.00     0.000 A 
ENDBRANCH  58  71
ENDBRANCH  32  33
ENDBRANCH  25  27
ENDBRANCH  24  25
ENDBRANCH  23  24
ENDBRANCH   1  23
TORSDOF 14
ENDMDL
