MODEL 1
REMARK VINA RESULT:     -12.1      0.000      0.000
REMARK SMILES O=C(CC1(NC(=O)C2(c3ccccc3)CC2)CCC1)OCCOC(=O)c1ccc(-c2c3nc(c(-c4ccccc4)c4ccc([nH]4)c(-c4ccccc4)c4nc(c(-c5ccccc5)c5ccc2[nH]5)C=C4)C=C3)cc1
REMARK SMILES IDX 21 1 20 2 2 3 1 4 3 5 4 6 17 7 19 8 18 9 5 10 6 11 7 13 8 14
REMARK SMILES IDX 15 15 16 16 9 17 10 18 14 19 11 20 13 21 12 22 22 23 23 24
REMARK SMILES IDX 24 25 25 26 26 27 27 28 73 29 28 30 72 31 29 32 30 33 31 34
REMARK SMILES IDX 66 35 32 36 71 37 65 38 67 39 33 40 70 41 64 42 63 43 34 45
REMARK SMILES IDX 56 46 41 47 55 48 42 49 45 50 54 51 68 52 43 53 44 54 53 56
REMARK SMILES IDX 69 57 46 58 35 59 36 60 40 61 37 62 39 63 38 64 57 65 58 66
REMARK SMILES IDX 62 67 59 68 61 69 60 70 47 71 48 72 52 73 49 74 51 75 50 76
REMARK H PARENT 5 12 67 44 45 55
REMARK Flexibility Score: inf
ROOT
ATOM      1  C   UNL A   1      35.287  21.166  25.532  1.00  0.00     0.274 C 
ENDROOT
BRANCH   1   2
ATOM      2  O   UNL A   1      34.612  22.387  25.178  1.00  0.00    -0.462 OA
BRANCH   2   3
ATOM      3  C   UNL A   1      34.534  23.483  25.963  1.00  0.00     0.308 C 
ATOM      4  O   UNL A   1      35.355  23.641  26.871  1.00  0.00    -0.252 OA
BRANCH   3   5
ATOM      5  C   UNL A   1      33.341  24.658  25.669  1.00  0.00     0.151 C 
BRANCH   5   6
ATOM      6  C   UNL A   1      33.279  26.842  25.592  1.00  0.00     0.051 C 
ATOM      7  C   UNL A   1      32.001  28.064  26.131  1.00  0.00     0.029 C 
ATOM      8  C   UNL A   1      34.191  28.136  26.574  1.00  0.00     0.029 C 
ATOM      9  C   UNL A   1      32.902  28.597  27.242  1.00  0.00     0.005 C 
BRANCH   6  10
ATOM     10  N   UNL A   1      33.623  27.854  24.090  1.00  0.00    -0.349 N 
ATOM     11  C   UNL A   1      33.473  27.583  22.738  1.00  0.00     0.231 C 
ATOM     12  H   UNL A   1      33.977  28.752  24.282  1.00  0.00     0.164 HD
ATOM     13  O   UNL A   1      34.040  28.187  21.841  1.00  0.00    -0.274 OA
BRANCH  11  14
ATOM     14  C   UNL A   1      32.452  26.565  22.516  1.00  0.00     0.074 C 
ATOM     15  C   UNL A   1      32.471  25.893  21.155  1.00  0.00     0.023 C 
ATOM     16  C   UNL A   1      32.647  25.081  22.398  1.00  0.00     0.023 C 
BRANCH  14  17
ATOM     17  C   UNL A   1      31.266  27.244  23.055  1.00  0.00    -0.032 A 
ATOM     18  C   UNL A   1      30.042  26.147  23.833  1.00  0.00     0.005 A 
ATOM     19  C   UNL A   1      30.688  28.763  22.272  1.00  0.00     0.005 A 
ATOM     20  C   UNL A   1      28.339  26.610  23.929  1.00  0.00     0.000 A 
ATOM     21  C   UNL A   1      28.939  29.253  22.414  1.00  0.00     0.000 A 
ATOM     22  C   UNL A   1      27.783  28.176  23.240  1.00  0.00     0.000 A 
ENDBRANCH  14  17
ENDBRANCH  11  14
ENDBRANCH   6  10
ENDBRANCH   5   6
ENDBRANCH   3   5
ENDBRANCH   2   3
ENDBRANCH   1   2
BRANCH   1  23
ATOM     23  C   UNL A   1      36.705  20.855  25.043  1.00  0.00     0.275 C 
BRANCH  23  24
ATOM     24  O   UNL A   1      37.689  21.854  25.312  1.00  0.00    -0.458 OA
BRANCH  24  25
ATOM     25  C   UNL A   1      38.839  21.481  25.915  1.00  0.00     0.338 C 
ATOM     26  O   UNL A   1      39.368  20.388  25.866  1.00  0.00    -0.246 OA
BRANCH  25  27
ATOM     27  C   UNL A   1      39.420  22.691  26.554  1.00  0.00     0.060 A 
ATOM     28  C   UNL A   1      38.828  23.931  26.319  1.00  0.00     0.016 A 
ATOM     29  C   UNL A   1      40.483  22.599  27.457  1.00  0.00     0.016 A 
ATOM     30  C   UNL A   1      39.316  25.079  26.959  1.00  0.00     0.010 A 
ATOM     31  C   UNL A   1      40.928  23.739  28.146  1.00  0.00     0.010 A 
ATOM     32  C   UNL A   1      40.389  25.004  27.861  1.00  0.00    -0.014 A 
BRANCH  32  33
ATOM     33  C   UNL A   1      41.044  26.263  28.336  1.00  0.00     0.031 A 
ATOM     34  C   UNL A   1      42.437  26.584  27.848  1.00  0.00     0.074 A 
ATOM     35  C   UNL A   1      40.413  27.165  29.117  1.00  0.00     0.049 A 
ATOM     36  N   UNL A   1      43.081  27.726  27.883  1.00  0.00    -0.248 NA
ATOM     37  C   UNL A   1      43.204  25.489  27.235  1.00  0.00     0.031 C 
ATOM     38  C   UNL A   1      39.089  26.998  29.709  1.00  0.00     0.029 A 
ATOM     39  N   UNL A   1      40.803  28.417  29.541  1.00  0.00    -0.354 N 
ATOM     40  C   UNL A   1      44.287  27.495  27.235  1.00  0.00     0.074 A 
ATOM     41  C   UNL A   1      44.343  26.086  26.926  1.00  0.00     0.031 C 
ATOM     42  C   UNL A   1      38.779  28.092  30.429  1.00  0.00     0.029 A 
ATOM     43  C   UNL A   1      39.862  29.065  30.310  1.00  0.00     0.049 A 
ATOM     44  H   UNL A   1      41.676  28.813  29.314  1.00  0.00     0.167 HD
ATOM     45  C   UNL A   1      45.244  28.379  26.867  1.00  0.00     0.031 A 
ATOM     46  C   UNL A   1      39.847  30.315  30.818  1.00  0.00     0.031 A 
ATOM     47  C   UNL A   1      45.237  29.771  27.216  1.00  0.00     0.049 A 
ATOM     48  C   UNL A   1      40.955  31.276  30.457  1.00  0.00     0.074 A 
ATOM     49  C   UNL A   1      46.150  30.752  26.876  1.00  0.00     0.029 A 
ATOM     50  N   UNL A   1      44.277  30.373  28.013  1.00  0.00    -0.354 N 
ATOM     51  N   UNL A   1      42.011  31.078  29.706  1.00  0.00    -0.248 NA
ATOM     52  C   UNL A   1      40.834  32.650  30.967  1.00  0.00     0.031 C 
ATOM     53  C   UNL A   1      45.776  31.936  27.520  1.00  0.00     0.029 A 
ATOM     54  C   UNL A   1      44.591  31.707  28.202  1.00  0.00     0.049 A 
ATOM     55  H   UNL A   1      43.488  29.919  28.389  1.00  0.00     0.167 HD
ATOM     56  C   UNL A   1      42.654  32.309  29.619  1.00  0.00     0.074 A 
ATOM     57  C   UNL A   1      41.856  33.252  30.375  1.00  0.00     0.031 C 
ATOM     58  C   UNL A   1      43.798  32.634  28.966  1.00  0.00     0.031 A 
BRANCH  45  59
ATOM     59  C   UNL A   1      46.368  27.847  26.019  1.00  0.00    -0.014 A 
ATOM     60  C   UNL A   1      47.528  27.325  26.619  1.00  0.00     0.009 A 
ATOM     61  C   UNL A   1      46.272  27.854  24.621  1.00  0.00     0.009 A 
ATOM     62  C   UNL A   1      48.584  26.859  25.835  1.00  0.00     0.001 A 
ATOM     63  C   UNL A   1      47.316  27.356  23.840  1.00  0.00     0.001 A 
ATOM     64  C   UNL A   1      48.476  26.870  24.446  1.00  0.00     0.000 A 
ENDBRANCH  45  59
BRANCH  46  65
ATOM     65  C   UNL A   1      38.716  30.773  31.679  1.00  0.00    -0.014 A 
ATOM     66  C   UNL A   1      37.571  31.366  31.120  1.00  0.00     0.009 A 
ATOM     67  C   UNL A   1      38.807  30.673  33.076  1.00  0.00     0.009 A 
ATOM     68  C   UNL A   1      36.565  31.886  31.942  1.00  0.00     0.001 A 
ATOM     69  C   UNL A   1      37.785  31.166  33.893  1.00  0.00     0.001 A 
ATOM     70  C   UNL A   1      36.672  31.784  33.328  1.00  0.00     0.000 A 
ENDBRANCH  46  65
BRANCH  58  71
ATOM     71  C   UNL A   1      44.242  34.072  29.019  1.00  0.00    -0.014 A 
ATOM     72  C   UNL A   1      45.328  34.477  29.811  1.00  0.00     0.009 A 
ATOM     73  C   UNL A   1      43.578  35.033  28.239  1.00  0.00     0.009 A 
ATOM     74  C   UNL A   1      45.704  35.822  29.862  1.00  0.00     0.001 A 
ATOM     75  C   UNL A   1      43.980  36.369  28.262  1.00  0.00     0.001 A 
ATOM     76  C   UNL A   1      45.032  36.765  29.085  1.00  0.00     0.000 A 
ENDBRANCH  58  71
ENDBRANCH  32  33
ENDBRANCH  25  27
ENDBRANCH  24  25
ENDBRANCH  23  24
ENDBRANCH   1  23
TORSDOF 15
ENDMDL
MODEL 2
REMARK VINA RESULT:     -11.9      4.070      8.970
REMARK SMILES O=C(CC1(NC(=O)C2(c3ccccc3)CC2)CCC1)OCCOC(=O)c1ccc(-c2c3nc(c(-c4ccccc4)c4ccc([nH]4)c(-c4ccccc4)c4nc(c(-c5ccccc5)c5ccc2[nH]5)C=C4)C=C3)cc1
REMARK SMILES IDX 21 1 20 2 2 3 1 4 3 5 4 6 17 7 19 8 18 9 5 10 6 11 7 13 8 14
REMARK SMILES IDX 15 15 16 16 9 17 10 18 14 19 11 20 13 21 12 22 22 23 23 24
REMARK SMILES IDX 24 25 25 26 26 27 27 28 73 29 28 30 72 31 29 32 30 33 31 34
REMARK SMILES IDX 66 35 32 36 71 37 65 38 67 39 33 40 70 41 64 42 63 43 34 45
REMARK SMILES IDX 56 46 41 47 55 48 42 49 45 50 54 51 68 52 43 53 44 54 53 56
REMARK SMILES IDX 69 57 46 58 35 59 36 60 40 61 37 62 39 63 38 64 57 65 58 66
REMARK SMILES IDX 62 67 59 68 61 69 60 70 47 71 48 72 52 73 49 74 51 75 50 76
REMARK H PARENT 5 12 67 44 45 55
REMARK Flexibility Score: inf
ROOT
ATOM      1  C   UNL A   1      32.178  31.412  26.861  1.00  0.00     0.274 C 
ENDROOT
BRANCH   1   2
ATOM      2  O   UNL A   1      32.743  30.435  25.968  1.00  0.00    -0.462 OA
BRANCH   2   3
ATOM      3  C   UNL A   1      33.151  29.199  26.330  1.00  0.00     0.308 C 
ATOM      4  O   UNL A   1      33.082  28.859  27.515  1.00  0.00    -0.252 OA
BRANCH   3   5
ATOM      5  C   UNL A   1      33.709  28.107  25.153  1.00  0.00     0.151 C 
BRANCH   5   6
ATOM      6  C   UNL A   1      33.576  25.949  24.830  1.00  0.00     0.051 C 
ATOM      7  C   UNL A   1      34.835  24.693  24.328  1.00  0.00     0.029 C 
ATOM      8  C   UNL A   1      33.389  24.533  26.025  1.00  0.00     0.029 C 
ATOM      9  C   UNL A   1      34.784  24.017  25.696  1.00  0.00     0.005 C 
BRANCH   6  10
ATOM     10  N   UNL A   1      32.315  25.119  23.771  1.00  0.00    -0.349 N 
ATOM     11  C   UNL A   1      30.946  24.959  23.916  1.00  0.00     0.231 C 
ATOM     12  H   UNL A   1      32.683  24.714  22.951  1.00  0.00     0.164 HD
ATOM     13  O   UNL A   1      30.279  24.115  23.337  1.00  0.00    -0.274 OA
BRANCH  11  14
ATOM     14  C   UNL A   1      30.379  26.012  24.753  1.00  0.00     0.074 C 
ATOM     15  C   UNL A   1      29.659  25.547  26.005  1.00  0.00     0.023 C 
ATOM     16  C   UNL A   1      30.844  26.452  26.110  1.00  0.00     0.023 C 
BRANCH  14  17
ATOM     17  C   UNL A   1      29.745  26.860  23.734  1.00  0.00    -0.032 A 
ATOM     18  C   UNL A   1      30.783  28.219  23.116  1.00  0.00     0.005 A 
ATOM     19  C   UNL A   1      27.956  27.086  23.765  1.00  0.00     0.005 A 
ATOM     20  C   UNL A   1      30.056  29.685  22.447  1.00  0.00     0.000 A 
ATOM     21  C   UNL A   1      27.214  28.580  23.033  1.00  0.00     0.000 A 
ATOM     22  C   UNL A   1      28.267  29.862  22.381  1.00  0.00     0.000 A 
ENDBRANCH  14  17
ENDBRANCH  11  14
ENDBRANCH   6  10
ENDBRANCH   5   6
ENDBRANCH   3   5
ENDBRANCH   2   3
ENDBRANCH   1   2
BRANCH   1  23
ATOM     23  C   UNL A   1      32.994  32.602  27.378  1.00  0.00     0.275 C 
BRANCH  23  24
ATOM     24  O   UNL A   1      32.258  33.603  28.080  1.00  0.00    -0.458 OA
BRANCH  24  25
ATOM     25  C   UNL A   1      32.930  34.656  28.595  1.00  0.00     0.338 C 
ATOM     26  O   UNL A   1      32.535  35.802  28.682  1.00  0.00    -0.246 OA
BRANCH  25  27
ATOM     27  C   UNL A   1      34.205  34.139  29.158  1.00  0.00     0.060 A 
ATOM     28  C   UNL A   1      35.411  34.555  28.596  1.00  0.00     0.016 A 
ATOM     29  C   UNL A   1      34.223  33.324  30.293  1.00  0.00     0.016 A 
ATOM     30  C   UNL A   1      36.630  34.133  29.148  1.00  0.00     0.010 A 
ATOM     31  C   UNL A   1      35.443  32.956  30.883  1.00  0.00     0.010 A 
ATOM     32  C   UNL A   1      36.663  33.307  30.283  1.00  0.00    -0.014 A 
BRANCH  32  33
ATOM     33  C   UNL A   1      37.955  32.676  30.698  1.00  0.00     0.031 A 
ATOM     34  C   UNL A   1      38.638  33.177  31.948  1.00  0.00     0.074 A 
ATOM     35  C   UNL A   1      38.495  31.622  30.049  1.00  0.00     0.049 A 
ATOM     36  N   UNL A   1      39.585  32.611  32.655  1.00  0.00    -0.248 NA
ATOM     37  C   UNL A   1      38.197  34.477  32.480  1.00  0.00     0.031 C 
ATOM     38  C   UNL A   1      37.993  31.040  28.809  1.00  0.00     0.029 A 
ATOM     39  N   UNL A   1      39.590  30.843  30.355  1.00  0.00    -0.354 N 
ATOM     40  C   UNL A   1      39.794  33.449  33.743  1.00  0.00     0.074 A 
ATOM     41  C   UNL A   1      38.970  34.618  33.544  1.00  0.00     0.031 C 
ATOM     42  C   UNL A   1      38.779  30.009  28.448  1.00  0.00     0.029 A 
ATOM     43  C   UNL A   1      39.816  29.821  29.460  1.00  0.00     0.049 A 
ATOM     44  H   UNL A   1      40.160  31.003  31.143  1.00  0.00     0.167 HD
ATOM     45  C   UNL A   1      40.552  33.249  34.846  1.00  0.00     0.031 A 
ATOM     46  C   UNL A   1      40.718  28.817  29.477  1.00  0.00     0.031 A 
ATOM     47  C   UNL A   1      41.423  32.124  35.034  1.00  0.00     0.049 A 
ATOM     48  C   UNL A   1      41.609  28.640  30.683  1.00  0.00     0.074 A 
ATOM     49  C   UNL A   1      42.219  31.820  36.124  1.00  0.00     0.029 A 
ATOM     50  N   UNL A   1      41.634  31.131  34.092  1.00  0.00    -0.354 N 
ATOM     51  N   UNL A   1      41.676  29.361  31.777  1.00  0.00    -0.248 NA
ATOM     52  C   UNL A   1      42.507  27.475  30.680  1.00  0.00     0.031 C 
ATOM     53  C   UNL A   1      42.960  30.675  35.816  1.00  0.00     0.029 A 
ATOM     54  C   UNL A   1      42.571  30.227  34.563  1.00  0.00     0.049 A 
ATOM     55  H   UNL A   1      41.184  31.075  33.219  1.00  0.00     0.167 HD
ATOM     56  C   UNL A   1      42.586  28.713  32.605  1.00  0.00     0.074 A 
ATOM     57  C   UNL A   1      43.028  27.530  31.898  1.00  0.00     0.031 C 
ATOM     58  C   UNL A   1      43.014  29.060  33.846  1.00  0.00     0.031 A 
BRANCH  45  59
ATOM     59  C   UNL A   1      40.442  34.275  35.940  1.00  0.00    -0.014 A 
ATOM     60  C   UNL A   1      39.509  34.111  36.980  1.00  0.00     0.009 A 
ATOM     61  C   UNL A   1      41.272  35.403  35.947  1.00  0.00     0.009 A 
ATOM     62  C   UNL A   1      39.384  35.076  37.981  1.00  0.00     0.001 A 
ATOM     63  C   UNL A   1      41.168  36.350  36.967  1.00  0.00     0.001 A 
ATOM     64  C   UNL A   1      40.217  36.192  37.976  1.00  0.00     0.000 A 
ENDBRANCH  45  59
BRANCH  46  65
ATOM     65  C   UNL A   1      40.799  27.848  28.344  1.00  0.00    -0.014 A 
ATOM     66  C   UNL A   1      41.524  28.150  27.179  1.00  0.00     0.009 A 
ATOM     67  C   UNL A   1      40.095  26.635  28.401  1.00  0.00     0.009 A 
ATOM     68  C   UNL A   1      41.508  27.281  26.083  1.00  0.00     0.001 A 
ATOM     69  C   UNL A   1      40.105  25.754  27.315  1.00  0.00     0.001 A 
ATOM     70  C   UNL A   1      40.799  26.082  26.153  1.00  0.00     0.000 A 
ENDBRANCH  46  65
BRANCH  58  71
ATOM     71  C   UNL A   1      43.989  28.138  34.526  1.00  0.00    -0.014 A 
ATOM     72  C   UNL A   1      43.555  27.055  35.307  1.00  0.00     0.009 A 
ATOM     73  C   UNL A   1      45.369  28.339  34.358  1.00  0.00     0.009 A 
ATOM     74  C   UNL A   1      44.480  26.228  35.949  1.00  0.00     0.001 A 
ATOM     75  C   UNL A   1      46.292  27.488  34.969  1.00  0.00     0.001 A 
ATOM     76  C   UNL A   1      45.847  26.444  35.776  1.00  0.00     0.000 A 
ENDBRANCH  58  71
ENDBRANCH  32  33
ENDBRANCH  25  27
ENDBRANCH  24  25
ENDBRANCH  23  24
ENDBRANCH   1  23
TORSDOF 15
ENDMDL
MODEL 3
REMARK VINA RESULT:     -11.8      2.545      3.967
REMARK SMILES O=C(CC1(NC(=O)C2(c3ccccc3)CC2)CCC1)OCCOC(=O)c1ccc(-c2c3nc(c(-c4ccccc4)c4ccc([nH]4)c(-c4ccccc4)c4nc(c(-c5ccccc5)c5ccc2[nH]5)C=C4)C=C3)cc1
REMARK SMILES IDX 21 1 20 2 2 3 1 4 3 5 4 6 17 7 19 8 18 9 5 10 6 11 7 13 8 14
REMARK SMILES IDX 15 15 16 16 9 17 10 18 14 19 11 20 13 21 12 22 22 23 23 24
REMARK SMILES IDX 24 25 25 26 26 27 27 28 73 29 28 30 72 31 29 32 30 33 31 34
REMARK SMILES IDX 66 35 32 36 71 37 65 38 67 39 33 40 70 41 64 42 63 43 34 45
REMARK SMILES IDX 56 46 41 47 55 48 42 49 45 50 54 51 68 52 43 53 44 54 53 56
REMARK SMILES IDX 69 57 46 58 35 59 36 60 40 61 37 62 39 63 38 64 57 65 58 66
REMARK SMILES IDX 62 67 59 68 61 69 60 70 47 71 48 72 52 73 49 74 51 75 50 76
REMARK H PARENT 5 12 67 44 45 55
REMARK Flexibility Score: inf
ROOT
ATOM      1  C   UNL A   1      38.772  21.430  25.724  1.00  0.00     0.274 C 
ENDROOT
BRANCH   1   2
ATOM      2  O   UNL A   1      37.367  21.720  25.832  1.00  0.00    -0.462 OA
BRANCH   2   3
ATOM      3  C   UNL A   1      36.796  22.907  25.530  1.00  0.00     0.308 C 
ATOM      4  O   UNL A   1      37.399  23.705  24.807  1.00  0.00    -0.252 OA
BRANCH   3   5
ATOM      5  C   UNL A   1      35.239  23.273  26.104  1.00  0.00     0.151 C 
BRANCH   5   6
ATOM      6  C   UNL A   1      33.660  24.683  25.558  1.00  0.00     0.051 C 
ATOM      7  C   UNL A   1      32.874  26.079  26.481  1.00  0.00     0.029 C 
ATOM      8  C   UNL A   1      33.652  26.130  24.385  1.00  0.00     0.029 C 
ATOM      9  C   UNL A   1      33.478  27.115  25.535  1.00  0.00     0.005 C 
BRANCH   6  10
ATOM     10  N   UNL A   1      32.020  24.211  24.862  1.00  0.00    -0.349 N 
ATOM     11  C   UNL A   1      31.662  23.601  23.669  1.00  0.00     0.231 C 
ATOM     12  H   UNL A   1      31.257  24.431  25.445  1.00  0.00     0.164 HD
ATOM     13  O   UNL A   1      30.546  23.645  23.173  1.00  0.00    -0.274 OA
BRANCH  11  14
ATOM     14  C   UNL A   1      32.756  22.793  23.142  1.00  0.00     0.074 C 
ATOM     15  C   UNL A   1      33.243  23.159  21.752  1.00  0.00     0.023 C 
ATOM     16  C   UNL A   1      34.179  23.212  22.917  1.00  0.00     0.023 C 
BRANCH  14  17
ATOM     17  C   UNL A   1      32.295  21.444  23.499  1.00  0.00    -0.032 A 
ATOM     18  C   UNL A   1      32.794  20.875  25.152  1.00  0.00     0.005 A 
ATOM     19  C   UNL A   1      32.072  20.216  22.196  1.00  0.00     0.005 A 
ATOM     20  C   UNL A   1      32.942  19.152  25.514  1.00  0.00     0.000 A 
ATOM     21  C   UNL A   1      32.183  18.441  22.588  1.00  0.00     0.000 A 
ATOM     22  C   UNL A   1      32.615  17.925  24.239  1.00  0.00     0.000 A 
ENDBRANCH  14  17
ENDBRANCH  11  14
ENDBRANCH   6  10
ENDBRANCH   5   6
ENDBRANCH   3   5
ENDBRANCH   2   3
ENDBRANCH   1   2
BRANCH   1  23
ATOM     23  C   UNL A   1      39.286  20.012  25.451  1.00  0.00     0.275 C 
BRANCH  23  24
ATOM     24  O   UNL A   1      40.355  19.567  26.285  1.00  0.00    -0.458 OA
BRANCH  24  25
ATOM     25  C   UNL A   1      41.624  19.847  25.913  1.00  0.00     0.338 C 
ATOM     26  O   UNL A   1      42.315  19.212  25.140  1.00  0.00    -0.246 OA
BRANCH  25  27
ATOM     27  C   UNL A   1      41.990  21.153  26.522  1.00  0.00     0.060 A 
ATOM     28  C   UNL A   1      42.016  21.267  27.911  1.00  0.00     0.016 A 
ATOM     29  C   UNL A   1      42.398  22.234  25.737  1.00  0.00     0.016 A 
ATOM     30  C   UNL A   1      42.420  22.468  28.513  1.00  0.00     0.010 A 
ATOM     31  C   UNL A   1      42.864  23.413  26.342  1.00  0.00     0.010 A 
ATOM     32  C   UNL A   1      42.823  23.567  27.737  1.00  0.00    -0.014 A 
BRANCH  32  33
ATOM     33  C   UNL A   1      43.009  24.901  28.387  1.00  0.00     0.031 A 
ATOM     34  C   UNL A   1      44.411  25.367  28.699  1.00  0.00     0.074 A 
ATOM     35  C   UNL A   1      41.982  25.743  28.634  1.00  0.00     0.049 A 
ATOM     36  N   UNL A   1      44.836  26.575  28.984  1.00  0.00    -0.248 NA
ATOM     37  C   UNL A   1      45.476  24.352  28.682  1.00  0.00     0.031 C 
ATOM     38  C   UNL A   1      40.569  25.440  28.434  1.00  0.00     0.029 A 
ATOM     39  N   UNL A   1      41.975  27.040  29.100  1.00  0.00    -0.354 N 
ATOM     40  C   UNL A   1      46.215  26.468  29.104  1.00  0.00     0.074 A 
ATOM     41  C   UNL A   1      46.546  25.068  28.987  1.00  0.00     0.031 C 
ATOM     42  C   UNL A   1      39.828  26.507  28.787  1.00  0.00     0.029 A 
ATOM     43  C   UNL A   1      40.717  27.594  29.190  1.00  0.00     0.049 A 
ATOM     44  H   UNL A   1      42.795  27.527  29.346  1.00  0.00     0.167 HD
ATOM     45  C   UNL A   1      47.141  27.446  29.239  1.00  0.00     0.031 A 
ATOM     46  C   UNL A   1      40.325  28.845  29.510  1.00  0.00     0.031 A 
ATOM     47  C   UNL A   1      46.829  28.835  29.418  1.00  0.00     0.049 A 
ATOM     48  C   UNL A   1      41.367  29.916  29.726  1.00  0.00     0.074 A 
ATOM     49  C   UNL A   1      47.696  29.906  29.545  1.00  0.00     0.029 A 
ATOM     50  N   UNL A   1      45.545  29.342  29.526  1.00  0.00    -0.354 N 
ATOM     51  N   UNL A   1      42.674  29.823  29.677  1.00  0.00    -0.248 NA
ATOM     52  C   UNL A   1      40.875  31.279  29.981  1.00  0.00     0.031 C 
ATOM     53  C   UNL A   1      46.935  31.054  29.792  1.00  0.00     0.029 A 
ATOM     54  C   UNL A   1      45.595  30.707  29.747  1.00  0.00     0.049 A 
ATOM     55  H   UNL A   1      44.720  28.810  29.454  1.00  0.00     0.167 HD
ATOM     56  C   UNL A   1      43.156  31.116  29.851  1.00  0.00     0.074 A 
ATOM     57  C   UNL A   1      42.001  31.979  29.983  1.00  0.00     0.031 C 
ATOM     58  C   UNL A   1      44.440  31.555  29.891  1.00  0.00     0.031 A 
BRANCH  45  59
ATOM     59  C   UNL A   1      48.585  27.027  29.171  1.00  0.00    -0.014 A 
ATOM     60  C   UNL A   1      49.260  26.989  27.937  1.00  0.00     0.009 A 
ATOM     61  C   UNL A   1      49.282  26.680  30.336  1.00  0.00     0.009 A 
ATOM     62  C   UNL A   1      50.590  26.572  27.869  1.00  0.00     0.001 A 
ATOM     63  C   UNL A   1      50.622  26.295  30.268  1.00  0.00     0.001 A 
ATOM     64  C   UNL A   1      51.271  26.230  29.034  1.00  0.00     0.000 A 
ENDBRANCH  45  59
BRANCH  46  65
ATOM     65  C   UNL A   1      38.875  29.191  29.591  1.00  0.00    -0.014 A 
ATOM     66  C   UNL A   1      38.177  29.665  28.467  1.00  0.00     0.009 A 
ATOM     67  C   UNL A   1      38.195  29.104  30.816  1.00  0.00     0.009 A 
ATOM     68  C   UNL A   1      36.847  30.084  28.579  1.00  0.00     0.001 A 
ATOM     69  C   UNL A   1      36.857  29.495  30.918  1.00  0.00     0.001 A 
ATOM     70  C   UNL A   1      36.187  29.997  29.804  1.00  0.00     0.000 A 
ENDBRANCH  46  65
BRANCH  58  71
ATOM     71  C   UNL A   1      44.662  33.034  30.059  1.00  0.00    -0.014 A 
ATOM     72  C   UNL A   1      44.728  33.898  28.954  1.00  0.00     0.009 A 
ATOM     73  C   UNL A   1      44.779  33.577  31.349  1.00  0.00     0.009 A 
ATOM     74  C   UNL A   1      44.961  35.263  29.135  1.00  0.00     0.001 A 
ATOM     75  C   UNL A   1      44.973  34.947  31.529  1.00  0.00     0.001 A 
ATOM     76  C   UNL A   1      45.080  35.787  30.422  1.00  0.00     0.000 A 
ENDBRANCH  58  71
ENDBRANCH  32  33
ENDBRANCH  25  27
ENDBRANCH  24  25
ENDBRANCH  23  24
ENDBRANCH   1  23
TORSDOF 15
ENDMDL
