MODEL 1
REMARK VINA RESULT:     -10.5      0.000      0.000
REMARK SMILES CCn1ccc([C@@H](C)NC(=O)[C@H](C)n2ccc(C(=O)OCCOC(=O)c3ccc(-c4c5nc(c(-c6ccccc6)c6ccc([nH]6)c(-c6ccccc6)c6nc(c(-c7ccccc7)c7ccc4[nH]7)C=C6)C=C5)cc3)n2)n1
REMARK SMILES IDX 20 1 18 2 19 3 17 4 14 5 15 6 74 7 16 8 12 9 13 10 10 11
REMARK SMILES IDX 9 12 11 14 7 15 8 16 6 17 3 18 4 19 75 20 5 21 2 22 1 23
REMARK SMILES IDX 21 24 22 25 23 26 24 27 25 28 26 29 27 30 73 31 28 32 72 33
REMARK SMILES IDX 29 34 30 35 31 36 66 37 32 38 71 39 65 40 67 41 33 42 70 43
REMARK SMILES IDX 64 44 63 45 34 47 56 48 41 49 55 50 42 51 45 52 54 53 68 54
REMARK SMILES IDX 43 55 44 56 53 58 69 59 46 60 35 61 36 62 40 63 37 64 39 65
REMARK SMILES IDX 38 66 57 67 58 68 62 69 59 70 61 71 60 72 47 73 48 74 52 75
REMARK SMILES IDX 49 76 51 77 50 78
REMARK H PARENT 9 13 67 46 45 57
REMARK Flexibility Score: inf
ROOT
ATOM      1  O   UNL A   1      41.401  20.257  25.772  1.00  0.00    -0.457 OA
ENDROOT
BRANCH   1   2
ATOM      2  C   UNL A   1      40.062  19.970  25.671  1.00  0.00     0.358 C 
ATOM      3  O   UNL A   1      39.610  18.839  25.603  1.00  0.00    -0.244 OA
BRANCH   2   4
ATOM      4  C   UNL A   1      39.209  21.167  25.765  1.00  0.00     0.170 A 
ATOM      5  N   UNL A   1      37.672  22.599  25.357  1.00  0.00    -0.260 N 
ATOM      6  C   UNL A   1      38.433  23.172  26.338  1.00  0.00     0.110 A 
ATOM      7  N   UNL A   1      38.103  21.362  25.028  1.00  0.00    -0.165 NA
ATOM      8  C   UNL A   1      39.432  22.273  26.627  1.00  0.00     0.057 A 
BRANCH   5   9
ATOM      9  C   UNL A   1      36.423  23.078  24.771  1.00  0.00     0.193 C 
ATOM     10  C   UNL A   1      36.197  22.820  23.278  1.00  0.00     0.044 C 
BRANCH   9  11
ATOM     11  C   UNL A   1      35.210  22.713  25.626  1.00  0.00     0.245 C 
ATOM     12  N   UNL A   1      34.067  23.448  25.649  1.00  0.00    -0.346 N 
ATOM     13  H   UNL A   1      33.352  23.073  26.210  1.00  0.00     0.164 HD
ATOM     14  O   UNL A   1      35.254  21.748  26.399  1.00  0.00    -0.273 OA
BRANCH  12  15
ATOM     15  C   UNL A   1      33.721  24.697  24.984  1.00  0.00     0.130 C 
ATOM     16  C   UNL A   1      34.601  25.826  25.515  1.00  0.00     0.038 C 
BRANCH  15  17
ATOM     17  C   UNL A   1      32.264  24.990  25.197  1.00  0.00     0.084 A 
ATOM     18  N   UNL A   1      30.320  25.694  24.739  1.00  0.00    -0.273 N 
ATOM     19  C   UNL A   1      30.197  25.152  25.983  1.00  0.00     0.109 A 
ATOM     20  N   UNL A   1      31.576  25.654  24.258  1.00  0.00    -0.176 NA
ATOM     21  C   UNL A   1      31.447  24.686  26.315  1.00  0.00     0.047 A 
BRANCH  18  22
ATOM     22  C   UNL A   1      29.255  26.209  23.907  1.00  0.00     0.141 C 
ATOM     23  C   UNL A   1      29.485  27.628  23.426  1.00  0.00     0.029 C 
ENDBRANCH  18  22
ENDBRANCH  15  17
ENDBRANCH  12  15
ENDBRANCH   9  11
ENDBRANCH   5   9
ENDBRANCH   2   4
ENDBRANCH   1   2
BRANCH   1  24
ATOM     24  C   UNL A   1      42.196  19.325  26.520  1.00  0.00     0.275 C 
BRANCH  24  25
ATOM     25  C   UNL A   1      43.358  18.782  25.694  1.00  0.00     0.275 C 
BRANCH  25  26
ATOM     26  O   UNL A   1      43.428  19.390  24.399  1.00  0.00    -0.458 OA
BRANCH  26  27
ATOM     27  C   UNL A   1      44.675  19.695  23.986  1.00  0.00     0.338 C 
ATOM     28  O   UNL A   1      45.512  18.929  23.533  1.00  0.00    -0.246 OA
BRANCH  27  29
ATOM     29  C   UNL A   1      45.011  21.074  24.345  1.00  0.00     0.060 A 
ATOM     30  C   UNL A   1      45.995  21.259  25.319  1.00  0.00     0.016 A 
ATOM     31  C   UNL A   1      44.144  22.108  23.979  1.00  0.00     0.016 A 
ATOM     32  C   UNL A   1      45.965  22.410  26.081  1.00  0.00     0.010 A 
ATOM     33  C   UNL A   1      44.133  23.267  24.727  1.00  0.00     0.010 A 
ATOM     34  C   UNL A   1      44.969  23.362  25.840  1.00  0.00    -0.014 A 
BRANCH  34  35
ATOM     35  C   UNL A   1      44.852  24.476  26.772  1.00  0.00     0.031 A 
ATOM     36  C   UNL A   1      46.001  25.417  26.781  1.00  0.00     0.074 A 
ATOM     37  C   UNL A   1      43.727  24.726  27.474  1.00  0.00     0.049 A 
ATOM     38  N   UNL A   1      46.691  25.839  27.789  1.00  0.00    -0.248 NA
ATOM     39  C   UNL A   1      46.486  25.883  25.472  1.00  0.00     0.031 C 
ATOM     40  C   UNL A   1      42.424  24.065  27.357  1.00  0.00     0.029 A 
ATOM     41  N   UNL A   1      43.481  25.743  28.347  1.00  0.00    -0.354 N 
ATOM     42  C   UNL A   1      47.618  26.735  27.263  1.00  0.00     0.074 A 
ATOM     43  C   UNL A   1      47.520  26.642  25.828  1.00  0.00     0.031 C 
ATOM     44  C   UNL A   1      41.479  24.856  27.910  1.00  0.00     0.029 A 
ATOM     45  C   UNL A   1      42.130  25.996  28.532  1.00  0.00     0.049 A 
ATOM     46  H   UNL A   1      44.193  26.248  28.802  1.00  0.00     0.167 HD
ATOM     47  C   UNL A   1      48.291  27.637  28.027  1.00  0.00     0.031 A 
ATOM     48  C   UNL A   1      41.583  27.112  29.071  1.00  0.00     0.031 A 
ATOM     49  C   UNL A   1      48.296  27.291  29.419  1.00  0.00     0.049 A 
ATOM     50  C   UNL A   1      42.637  27.825  29.826  1.00  0.00     0.074 A 
ATOM     51  C   UNL A   1      48.795  26.236  30.156  1.00  0.00     0.029 A 
ATOM     52  N   UNL A   1      47.427  27.952  30.250  1.00  0.00    -0.354 N 
ATOM     53  N   UNL A   1      43.163  27.380  30.929  1.00  0.00    -0.248 NA
ATOM     54  C   UNL A   1      43.398  28.861  29.146  1.00  0.00     0.031 C 
ATOM     55  C   UNL A   1      47.856  26.044  31.211  1.00  0.00     0.029 A 
ATOM     56  C   UNL A   1      46.857  27.007  31.064  1.00  0.00     0.049 A 
ATOM     57  H   UNL A   1      47.247  28.920  30.260  1.00  0.00     0.167 HD
ATOM     58  C   UNL A   1      44.496  27.760  30.865  1.00  0.00     0.074 A 
ATOM     59  C   UNL A   1      44.552  28.769  29.813  1.00  0.00     0.031 C 
ATOM     60  C   UNL A   1      45.470  27.020  31.475  1.00  0.00     0.031 A 
BRANCH  47  61
ATOM     61  C   UNL A   1      48.660  29.008  27.529  1.00  0.00    -0.014 A 
ATOM     62  C   UNL A   1      49.991  29.276  27.171  1.00  0.00     0.009 A 
ATOM     63  C   UNL A   1      47.797  30.115  27.646  1.00  0.00     0.009 A 
ATOM     64  C   UNL A   1      50.441  30.590  26.983  1.00  0.00     0.001 A 
ATOM     65  C   UNL A   1      48.230  31.422  27.416  1.00  0.00     0.001 A 
ATOM     66  C   UNL A   1      49.561  31.661  27.107  1.00  0.00     0.000 A 
ENDBRANCH  47  61
BRANCH  48  67
ATOM     67  C   UNL A   1      40.290  27.740  28.732  1.00  0.00    -0.014 A 
ATOM     68  C   UNL A   1      39.253  27.809  29.674  1.00  0.00     0.009 A 
ATOM     69  C   UNL A   1      40.155  28.496  27.551  1.00  0.00     0.009 A 
ATOM     70  C   UNL A   1      38.136  28.626  29.452  1.00  0.00     0.001 A 
ATOM     71  C   UNL A   1      39.038  29.304  27.326  1.00  0.00     0.001 A 
ATOM     72  C   UNL A   1      38.034  29.379  28.284  1.00  0.00     0.000 A 
ENDBRANCH  48  67
BRANCH  60  73
ATOM     73  C   UNL A   1      45.036  25.918  32.411  1.00  0.00    -0.014 A 
ATOM     74  C   UNL A   1      44.677  24.637  31.953  1.00  0.00     0.009 A 
ATOM     75  C   UNL A   1      45.140  26.125  33.794  1.00  0.00     0.009 A 
ATOM     76  C   UNL A   1      44.394  23.606  32.854  1.00  0.00     0.001 A 
ATOM     77  C   UNL A   1      44.880  25.088  34.694  1.00  0.00     0.001 A 
ATOM     78  C   UNL A   1      44.501  23.832  34.225  1.00  0.00     0.000 A 
ENDBRANCH  60  73
ENDBRANCH  34  35
ENDBRANCH  27  29
ENDBRANCH  26  27
ENDBRANCH  25  26
ENDBRANCH  24  25
ENDBRANCH   1  24
TORSDOF 16
ENDMDL
MODEL 2
REMARK VINA RESULT:     -10.5      2.980      8.103
REMARK SMILES CCn1ccc([C@@H](C)NC(=O)[C@H](C)n2ccc(C(=O)OCCOC(=O)c3ccc(-c4c5nc(c(-c6ccccc6)c6ccc([nH]6)c(-c6ccccc6)c6nc(c(-c7ccccc7)c7ccc4[nH]7)C=C6)C=C5)cc3)n2)n1
REMARK SMILES IDX 20 1 18 2 19 3 17 4 14 5 15 6 74 7 16 8 12 9 13 10 10 11
REMARK SMILES IDX 9 12 11 14 7 15 8 16 6 17 3 18 4 19 75 20 5 21 2 22 1 23
REMARK SMILES IDX 21 24 22 25 23 26 24 27 25 28 26 29 27 30 73 31 28 32 72 33
REMARK SMILES IDX 29 34 30 35 31 36 66 37 32 38 71 39 65 40 67 41 33 42 70 43
REMARK SMILES IDX 64 44 63 45 34 47 56 48 41 49 55 50 42 51 45 52 54 53 68 54
REMARK SMILES IDX 43 55 44 56 53 58 69 59 46 60 35 61 36 62 40 63 37 64 39 65
REMARK SMILES IDX 38 66 57 67 58 68 62 69 59 70 61 71 60 72 47 73 48 74 52 75
REMARK SMILES IDX 49 76 51 77 50 78
REMARK H PARENT 9 13 67 46 45 57
REMARK Flexibility Score: inf
ROOT
ATOM      1  O   UNL A   1      34.037  28.886  26.400  1.00  0.00    -0.457 OA
ENDROOT
BRANCH   1   2
ATOM      2  C   UNL A   1      33.670  28.055  25.371  1.00  0.00     0.358 C 
ATOM      3  O   UNL A   1      33.756  28.350  24.190  1.00  0.00    -0.244 OA
BRANCH   2   4
ATOM      4  C   UNL A   1      33.259  26.717  25.831  1.00  0.00     0.170 A 
ATOM      5  N   UNL A   1      33.269  24.612  26.215  1.00  0.00    -0.260 N 
ATOM      6  C   UNL A   1      32.029  25.033  26.606  1.00  0.00     0.110 A 
ATOM      7  N   UNL A   1      34.045  25.630  25.782  1.00  0.00    -0.165 NA
ATOM      8  C   UNL A   1      31.989  26.387  26.375  1.00  0.00     0.057 A 
BRANCH   5   9
ATOM      9  C   UNL A   1      33.873  23.289  26.352  1.00  0.00     0.193 C 
ATOM     10  C   UNL A   1      33.011  22.177  26.959  1.00  0.00     0.044 C 
BRANCH   9  11
ATOM     11  C   UNL A   1      34.594  22.852  25.078  1.00  0.00     0.245 C 
ATOM     12  N   UNL A   1      33.972  22.733  23.875  1.00  0.00    -0.346 N 
ATOM     13  H   UNL A   1      34.567  22.486  23.131  1.00  0.00     0.164 HD
ATOM     14  O   UNL A   1      35.785  22.516  25.112  1.00  0.00    -0.273 OA
BRANCH  12  15
ATOM     15  C   UNL A   1      32.576  22.910  23.499  1.00  0.00     0.130 C 
ATOM     16  C   UNL A   1      32.158  21.807  22.530  1.00  0.00     0.038 C 
BRANCH  15  17
ATOM     17  C   UNL A   1      32.389  24.271  22.895  1.00  0.00     0.084 A 
ATOM     18  N   UNL A   1      31.455  26.132  22.510  1.00  0.00    -0.273 N 
ATOM     19  C   UNL A   1      32.610  26.181  21.791  1.00  0.00     0.109 A 
ATOM     20  N   UNL A   1      31.270  24.963  23.151  1.00  0.00    -0.176 NA
ATOM     21  C   UNL A   1      33.244  24.983  22.015  1.00  0.00     0.047 A 
BRANCH  18  22
ATOM     22  C   UNL A   1      30.500  27.203  22.695  1.00  0.00     0.141 C 
ATOM     23  C   UNL A   1      29.455  26.916  23.755  1.00  0.00     0.029 C 
ENDBRANCH  18  22
ENDBRANCH  15  17
ENDBRANCH  12  15
ENDBRANCH   9  11
ENDBRANCH   5   9
ENDBRANCH   2   4
ENDBRANCH   1   2
BRANCH   1  24
ATOM     24  C   UNL A   1      33.188  30.020  26.633  1.00  0.00     0.275 C 
BRANCH  24  25
ATOM     25  C   UNL A   1      33.912  31.118  27.406  1.00  0.00     0.275 C 
BRANCH  25  26
ATOM     26  O   UNL A   1      35.309  30.841  27.553  1.00  0.00    -0.458 OA
BRANCH  26  27
ATOM     27  C   UNL A   1      35.975  31.702  28.349  1.00  0.00     0.338 C 
ATOM     28  O   UNL A   1      35.950  32.923  28.304  1.00  0.00    -0.246 OA
BRANCH  27  29
ATOM     29  C   UNL A   1      36.939  30.985  29.187  1.00  0.00     0.060 A 
ATOM     30  C   UNL A   1      38.198  31.566  29.350  1.00  0.00     0.016 A 
ATOM     31  C   UNL A   1      36.708  29.643  29.501  1.00  0.00     0.016 A 
ATOM     32  C   UNL A   1      39.276  30.745  29.618  1.00  0.00     0.010 A 
ATOM     33  C   UNL A   1      37.784  28.830  29.792  1.00  0.00     0.010 A 
ATOM     34  C   UNL A   1      39.071  29.366  29.739  1.00  0.00    -0.014 A 
BRANCH  34  35
ATOM     35  C   UNL A   1      40.244  28.509  29.842  1.00  0.00     0.031 A 
ATOM     36  C   UNL A   1      40.830  28.398  31.202  1.00  0.00     0.074 A 
ATOM     37  C   UNL A   1      40.689  27.754  28.816  1.00  0.00     0.049 A 
ATOM     38  N   UNL A   1      42.057  28.572  31.570  1.00  0.00    -0.248 NA
ATOM     39  C   UNL A   1      39.894  28.132  32.306  1.00  0.00     0.031 C 
ATOM     40  C   UNL A   1      40.054  27.537  27.512  1.00  0.00     0.029 A 
ATOM     41  N   UNL A   1      41.747  26.895  28.791  1.00  0.00    -0.354 N 
ATOM     42  C   UNL A   1      42.082  28.304  32.936  1.00  0.00     0.074 A 
ATOM     43  C   UNL A   1      40.712  28.146  33.356  1.00  0.00     0.031 C 
ATOM     44  C   UNL A   1      40.575  26.425  26.949  1.00  0.00     0.029 A 
ATOM     45  C   UNL A   1      41.663  25.944  27.785  1.00  0.00     0.049 A 
ATOM     46  H   UNL A   1      42.498  26.945  29.427  1.00  0.00     0.167 HD
ATOM     47  C   UNL A   1      43.230  28.047  33.618  1.00  0.00     0.031 A 
ATOM     48  C   UNL A   1      42.370  24.793  27.700  1.00  0.00     0.031 A 
ATOM     49  C   UNL A   1      44.400  28.504  32.926  1.00  0.00     0.049 A 
ATOM     50  C   UNL A   1      43.545  24.905  28.592  1.00  0.00     0.074 A 
ATOM     51  C   UNL A   1      44.871  29.737  32.522  1.00  0.00     0.029 A 
ATOM     52  N   UNL A   1      45.155  27.575  32.255  1.00  0.00    -0.354 N 
ATOM     53  N   UNL A   1      44.549  25.703  28.370  1.00  0.00    -0.248 NA
ATOM     54  C   UNL A   1      43.432  24.410  29.954  1.00  0.00     0.031 C 
ATOM     55  C   UNL A   1      45.548  29.491  31.292  1.00  0.00     0.029 A 
ATOM     56  C   UNL A   1      45.467  28.121  31.035  1.00  0.00     0.049 A 
ATOM     57  H   UNL A   1      45.423  26.687  32.585  1.00  0.00     0.167 HD
ATOM     58  C   UNL A   1      44.937  26.143  29.626  1.00  0.00     0.074 A 
ATOM     59  C   UNL A   1      44.300  25.224  30.563  1.00  0.00     0.031 C 
ATOM     60  C   UNL A   1      45.506  27.374  29.798  1.00  0.00     0.031 A 
BRANCH  47  61
ATOM     61  C   UNL A   1      43.292  27.080  34.769  1.00  0.00    -0.014 A 
ATOM     62  C   UNL A   1      43.315  25.700  34.508  1.00  0.00     0.009 A 
ATOM     63  C   UNL A   1      43.066  27.471  36.103  1.00  0.00     0.009 A 
ATOM     64  C   UNL A   1      43.082  24.766  35.526  1.00  0.00     0.001 A 
ATOM     65  C   UNL A   1      42.877  26.543  37.128  1.00  0.00     0.001 A 
ATOM     66  C   UNL A   1      42.861  25.187  36.834  1.00  0.00     0.000 A 
ENDBRANCH  47  61
BRANCH  48  67
ATOM     67  C   UNL A   1      41.936  23.505  27.121  1.00  0.00    -0.014 A 
ATOM     68  C   UNL A   1      42.664  22.898  26.087  1.00  0.00     0.009 A 
ATOM     69  C   UNL A   1      40.934  22.744  27.753  1.00  0.00     0.009 A 
ATOM     70  C   UNL A   1      42.414  21.568  25.720  1.00  0.00     0.001 A 
ATOM     71  C   UNL A   1      40.679  21.422  27.382  1.00  0.00     0.001 A 
ATOM     72  C   UNL A   1      41.430  20.829  26.372  1.00  0.00     0.000 A 
ENDBRANCH  48  67
BRANCH  60  73
ATOM     73  C   UNL A   1      45.914  28.140  28.563  1.00  0.00    -0.014 A 
ATOM     74  C   UNL A   1      45.018  28.961  27.854  1.00  0.00     0.009 A 
ATOM     75  C   UNL A   1      47.266  28.159  28.193  1.00  0.00     0.009 A 
ATOM     76  C   UNL A   1      45.458  29.749  26.786  1.00  0.00     0.001 A 
ATOM     77  C   UNL A   1      47.709  28.962  27.140  1.00  0.00     0.001 A 
ATOM     78  C   UNL A   1      46.805  29.752  26.433  1.00  0.00     0.000 A 
ENDBRANCH  60  73
ENDBRANCH  34  35
ENDBRANCH  27  29
ENDBRANCH  26  27
ENDBRANCH  25  26
ENDBRANCH  24  25
ENDBRANCH   1  24
TORSDOF 16
ENDMDL
MODEL 3
REMARK VINA RESULT:     -10.5      4.177      8.469
REMARK SMILES CCn1ccc([C@@H](C)NC(=O)[C@H](C)n2ccc(C(=O)OCCOC(=O)c3ccc(-c4c5nc(c(-c6ccccc6)c6ccc([nH]6)c(-c6ccccc6)c6nc(c(-c7ccccc7)c7ccc4[nH]7)C=C6)C=C5)cc3)n2)n1
REMARK SMILES IDX 20 1 18 2 19 3 17 4 14 5 15 6 74 7 16 8 12 9 13 10 10 11
REMARK SMILES IDX 9 12 11 14 7 15 8 16 6 17 3 18 4 19 75 20 5 21 2 22 1 23
REMARK SMILES IDX 21 24 22 25 23 26 24 27 25 28 26 29 27 30 73 31 28 32 72 33
REMARK SMILES IDX 29 34 30 35 31 36 66 37 32 38 71 39 65 40 67 41 33 42 70 43
REMARK SMILES IDX 64 44 63 45 34 47 56 48 41 49 55 50 42 51 45 52 54 53 68 54
REMARK SMILES IDX 43 55 44 56 53 58 69 59 46 60 35 61 36 62 40 63 37 64 39 65
REMARK SMILES IDX 38 66 57 67 58 68 62 69 59 70 61 71 60 72 47 73 48 74 52 75
REMARK SMILES IDX 49 76 51 77 50 78
REMARK H PARENT 9 13 67 46 45 57
REMARK Flexibility Score: inf
ROOT
ATOM      1  O   UNL A   1      34.956  31.204  27.303  1.00  0.00    -0.457 OA
ENDROOT
BRANCH   1   2
ATOM      2  C   UNL A   1      33.640  30.825  27.194  1.00  0.00     0.358 C 
ATOM      3  O   UNL A   1      32.696  31.553  27.456  1.00  0.00    -0.244 OA
BRANCH   2   4
ATOM      4  C   UNL A   1      33.475  29.479  26.619  1.00  0.00     0.170 A 
ATOM      5  N   UNL A   1      33.471  27.855  25.225  1.00  0.00    -0.260 N 
ATOM      6  C   UNL A   1      32.876  27.354  26.349  1.00  0.00     0.110 A 
ATOM      7  N   UNL A   1      33.881  29.133  25.386  1.00  0.00    -0.165 NA
ATOM      8  C   UNL A   1      32.865  28.375  27.269  1.00  0.00     0.057 A 
BRANCH   5   9
ATOM      9  C   UNL A   1      33.838  27.159  23.994  1.00  0.00     0.193 C 
ATOM     10  C   UNL A   1      33.408  25.695  23.855  1.00  0.00     0.044 C 
BRANCH   9  11
ATOM     11  C   UNL A   1      33.525  27.989  22.750  1.00  0.00     0.245 C 
ATOM     12  N   UNL A   1      32.280  28.445  22.454  1.00  0.00    -0.346 N 
ATOM     13  H   UNL A   1      32.231  29.004  21.645  1.00  0.00     0.164 HD
ATOM     14  O   UNL A   1      34.406  28.224  21.913  1.00  0.00    -0.273 OA
BRANCH  12  15
ATOM     15  C   UNL A   1      31.004  28.248  23.128  1.00  0.00     0.130 C 
ATOM     16  C   UNL A   1      30.345  26.967  22.621  1.00  0.00     0.038 C 
BRANCH  15  17
ATOM     17  C   UNL A   1      30.126  29.444  22.900  1.00  0.00     0.084 A 
ATOM     18  N   UNL A   1      28.824  30.748  21.858  1.00  0.00    -0.273 N 
ATOM     19  C   UNL A   1      28.942  31.309  23.093  1.00  0.00     0.109 A 
ATOM     20  N   UNL A   1      29.572  29.641  21.696  1.00  0.00    -0.176 NA
ATOM     21  C   UNL A   1      29.787  30.487  23.800  1.00  0.00     0.047 A 
BRANCH  18  22
ATOM     22  C   UNL A   1      27.947  31.176  20.790  1.00  0.00     0.141 C 
ATOM     23  C   UNL A   1      27.873  32.682  20.624  1.00  0.00     0.029 C 
ENDBRANCH  18  22
ENDBRANCH  15  17
ENDBRANCH  12  15
ENDBRANCH   9  11
ENDBRANCH   5   9
ENDBRANCH   2   4
ENDBRANCH   1   2
BRANCH   1  24
ATOM     24  C   UNL A   1      35.485  31.280  28.636  1.00  0.00     0.275 C 
BRANCH  24  25
ATOM     25  C   UNL A   1      36.094  32.649  28.924  1.00  0.00     0.275 C 
BRANCH  25  26
ATOM     26  O   UNL A   1      36.844  32.658  30.144  1.00  0.00    -0.458 OA
BRANCH  26  27
ATOM     27  C   UNL A   1      38.134  33.026  30.010  1.00  0.00     0.338 C 
ATOM     28  O   UNL A   1      38.568  34.000  29.413  1.00  0.00    -0.246 OA
BRANCH  27  29
ATOM     29  C   UNL A   1      39.022  31.973  30.507  1.00  0.00     0.060 A 
ATOM     30  C   UNL A   1      40.366  32.042  30.133  1.00  0.00     0.016 A 
ATOM     31  C   UNL A   1      38.468  30.799  31.025  1.00  0.00     0.016 A 
ATOM     32  C   UNL A   1      41.097  30.871  30.072  1.00  0.00     0.010 A 
ATOM     33  C   UNL A   1      39.210  29.636  30.985  1.00  0.00     0.010 A 
ATOM     34  C   UNL A   1      40.480  29.662  30.407  1.00  0.00    -0.014 A 
BRANCH  34  35
ATOM     35  C   UNL A   1      41.217  28.429  30.162  1.00  0.00     0.031 A 
ATOM     36  C   UNL A   1      42.046  27.952  31.299  1.00  0.00     0.074 A 
ATOM     37  C   UNL A   1      41.056  27.692  29.045  1.00  0.00     0.049 A 
ATOM     38  N   UNL A   1      43.295  27.620  31.304  1.00  0.00    -0.248 NA
ATOM     39  C   UNL A   1      41.399  27.918  32.621  1.00  0.00     0.031 C 
ATOM     40  C   UNL A   1      40.072  27.878  27.973  1.00  0.00     0.029 A 
ATOM     41  N   UNL A   1      41.657  26.515  28.711  1.00  0.00    -0.354 N 
ATOM     42  C   UNL A   1      43.568  27.202  32.604  1.00  0.00     0.074 A 
ATOM     43  C   UNL A   1      42.402  27.508  33.394  1.00  0.00     0.031 C 
ATOM     44  C   UNL A   1      39.961  26.728  27.274  1.00  0.00     0.029 A 
ATOM     45  C   UNL A   1      40.957  25.787  27.761  1.00  0.00     0.049 A 
ATOM     46  H   UNL A   1      42.506  26.211  29.107  1.00  0.00     0.167 HD
ATOM     47  C   UNL A   1      44.663  26.465  32.929  1.00  0.00     0.031 A 
ATOM     48  C   UNL A   1      41.119  24.476  27.466  1.00  0.00     0.031 A 
ATOM     49  C   UNL A   1      45.697  26.541  31.937  1.00  0.00     0.049 A 
ATOM     50  C   UNL A   1      42.435  24.044  27.988  1.00  0.00     0.074 A 
ATOM     51  C   UNL A   1      46.483  27.555  31.429  1.00  0.00     0.029 A 
ATOM     52  N   UNL A   1      45.836  25.487  31.069  1.00  0.00    -0.354 N 
ATOM     53  N   UNL A   1      43.573  24.440  27.498  1.00  0.00    -0.248 NA
ATOM     54  C   UNL A   1      42.498  23.467  29.321  1.00  0.00     0.031 C 
ATOM     55  C   UNL A   1      46.670  27.226  30.054  1.00  0.00     0.029 A 
ATOM     56  C   UNL A   1      46.006  26.022  29.817  1.00  0.00     0.049 A 
ATOM     57  H   UNL A   1      45.817  24.530  31.300  1.00  0.00     0.167 HD
ATOM     58  C   UNL A   1      44.412  24.556  28.596  1.00  0.00     0.074 A 
ATOM     59  C   UNL A   1      43.736  23.829  29.666  1.00  0.00     0.031 C 
ATOM     60  C   UNL A   1      45.433  25.464  28.612  1.00  0.00     0.031 A 
BRANCH  47  61
ATOM     61  C   UNL A   1      44.644  25.413  34.004  1.00  0.00    -0.014 A 
ATOM     62  C   UNL A   1      45.543  25.509  35.079  1.00  0.00     0.009 A 
ATOM     63  C   UNL A   1      43.953  24.194  33.861  1.00  0.00     0.009 A 
ATOM     64  C   UNL A   1      45.765  24.425  35.938  1.00  0.00     0.001 A 
ATOM     65  C   UNL A   1      44.138  23.126  34.741  1.00  0.00     0.001 A 
ATOM     66  C   UNL A   1      45.065  23.235  35.768  1.00  0.00     0.000 A 
ENDBRANCH  47  61
BRANCH  48  67
ATOM     67  C   UNL A   1      40.090  23.514  27.021  1.00  0.00    -0.014 A 
ATOM     68  C   UNL A   1      38.820  23.951  26.620  1.00  0.00     0.009 A 
ATOM     69  C   UNL A   1      40.437  22.175  26.756  1.00  0.00     0.009 A 
ATOM     70  C   UNL A   1      37.941  23.086  25.954  1.00  0.00     0.001 A 
ATOM     71  C   UNL A   1      39.559  21.310  26.100  1.00  0.00     0.001 A 
ATOM     72  C   UNL A   1      38.314  21.771  25.687  1.00  0.00     0.000 A 
ENDBRANCH  48  67
BRANCH  60  73
ATOM     73  C   UNL A   1      45.769  26.169  27.320  1.00  0.00    -0.014 A 
ATOM     74  C   UNL A   1      46.689  25.647  26.393  1.00  0.00     0.009 A 
ATOM     75  C   UNL A   1      45.030  27.303  26.955  1.00  0.00     0.009 A 
ATOM     76  C   UNL A   1      46.889  26.263  25.154  1.00  0.00     0.001 A 
ATOM     77  C   UNL A   1      45.213  27.907  25.709  1.00  0.00     0.001 A 
ATOM     78  C   UNL A   1      46.147  27.391  24.811  1.00  0.00     0.000 A 
ENDBRANCH  60  73
ENDBRANCH  34  35
ENDBRANCH  27  29
ENDBRANCH  26  27
ENDBRANCH  25  26
ENDBRANCH  24  25
ENDBRANCH   1  24
TORSDOF 16
ENDMDL
