MODEL 1
REMARK VINA RESULT:     -13.1      0.000      0.000
REMARK SMILES Cc1ccc(CCC(=O)N2CCC3(CC2)[C@H](C(=O)OCCOC(=O)c2ccc(-c4c5nc(c(-c6ccccc6)c6ccc([nH]6)c(-c6ccccc6)c6nc(c(-c7ccccc7)c7ccc4[nH]7)C=C6)C=C5)cc2)CC(=O)N3C)cc1
REMARK SMILES IDX 20 1 19 2 17 3 18 4 16 5 8 6 9 7 10 8 11 9 15 10 12 11 14 12
REMARK SMILES IDX 13 13 76 14 73 15 74 16 77 17 75 18 7 19 6 20 5 21 1 22 2 23
REMARK SMILES IDX 3 24 79 25 4 26 78 27 21 28 22 29 23 30 24 31 25 32 26 33
REMARK SMILES IDX 72 34 27 35 71 36 28 37 29 38 30 39 65 40 31 41 70 42 64 43
REMARK SMILES IDX 66 44 32 45 69 46 63 47 62 48 33 50 55 51 40 52 54 53 41 54
REMARK SMILES IDX 44 55 53 56 67 57 42 58 43 59 52 61 68 62 45 63 34 64 35 65
REMARK SMILES IDX 39 66 36 67 38 68 37 69 56 70 57 71 61 72 58 73 60 74 59 75
REMARK SMILES IDX 46 76 47 77 51 78 48 79 50 80 49 81
REMARK H PARENT 66 49 44 60
REMARK Flexibility Score: inf
ROOT
ATOM      1  C   UNL A   1      33.690  27.328  25.220  1.00  0.00     0.274 C 
ENDROOT
BRANCH   1   2
ATOM      2  O   UNL A   1      33.499  26.232  26.157  1.00  0.00    -0.462 OA
BRANCH   2   3
ATOM      3  C   UNL A   1      34.049  25.044  25.877  1.00  0.00     0.311 C 
ATOM      4  O   UNL A   1      35.245  24.868  25.670  1.00  0.00    -0.252 OA
BRANCH   3   5
ATOM      5  C   UNL A   1      33.171  23.841  25.904  1.00  0.00     0.134 C 
ATOM      6  C   UNL A   1      30.730  26.693  22.530  1.00  0.00     0.222 C 
ATOM      7  O   UNL A   1      31.178  27.426  21.644  1.00  0.00    -0.275 OA
ATOM      8  N   UNL A   1      31.210  25.401  22.684  1.00  0.00    -0.343 N 
ATOM      9  C   UNL A   1      32.499  24.961  22.179  1.00  0.00     0.122 C 
ATOM     10  C   UNL A   1      30.481  24.342  23.301  1.00  0.00     0.122 C 
ATOM     11  C   UNL A   1      33.351  24.341  23.304  1.00  0.00     0.051 C 
ATOM     12  C   UNL A   1      31.104  24.006  24.622  1.00  0.00     0.051 C 
ATOM     13  C   UNL A   1      32.585  23.600  24.483  1.00  0.00     0.060 C 
ATOM     14  N   UNL A   1      32.752  22.140  24.345  1.00  0.00    -0.339 N 
ATOM     15  C   UNL A   1      33.556  22.510  26.508  1.00  0.00     0.118 C 
ATOM     16  C   UNL A   1      33.371  21.522  25.413  1.00  0.00     0.223 C 
ATOM     17  C   UNL A   1      32.181  21.336  23.290  1.00  0.00     0.147 C 
ATOM     18  O   UNL A   1      33.645  20.327  25.502  1.00  0.00    -0.275 OA
BRANCH   6  19
ATOM     19  C   UNL A   1      29.750  27.284  23.581  1.00  0.00     0.105 C 
BRANCH  19  20
ATOM     20  C   UNL A   1      28.306  27.709  23.212  1.00  0.00     0.045 C 
BRANCH  20  21
ATOM     21  C   UNL A   1      28.155  29.189  22.871  1.00  0.00    -0.047 A 
ATOM     22  C   UNL A   1      28.925  33.402  23.020  1.00  0.00     0.044 C 
ATOM     23  C   UNL A   1      28.500  31.975  22.836  1.00  0.00    -0.051 A 
ATOM     24  C   UNL A   1      27.537  31.397  23.667  1.00  0.00     0.004 A 
ATOM     25  C   UNL A   1      29.133  31.174  21.879  1.00  0.00     0.004 A 
ATOM     26  C   UNL A   1      27.322  30.017  23.639  1.00  0.00     0.004 A 
ATOM     27  C   UNL A   1      28.971  29.785  21.903  1.00  0.00     0.004 A 
ENDBRANCH  20  21
ENDBRANCH  19  20
ENDBRANCH   6  19
ENDBRANCH   3   5
ENDBRANCH   2   3
ENDBRANCH   1   2
BRANCH   1  28
ATOM     28  C   UNL A   1      33.381  28.825  25.586  1.00  0.00     0.275 C 
BRANCH  28  29
ATOM     29  O   UNL A   1      33.293  29.439  26.937  1.00  0.00    -0.458 OA
BRANCH  29  30
ATOM     30  C   UNL A   1      33.636  30.690  27.370  1.00  0.00     0.338 C 
ATOM     31  O   UNL A   1      32.933  31.684  27.262  1.00  0.00    -0.246 OA
BRANCH  30  32
ATOM     32  C   UNL A   1      35.028  30.783  27.824  1.00  0.00     0.060 A 
ATOM     33  C   UNL A   1      35.788  31.970  27.835  1.00  0.00     0.016 A 
ATOM     34  C   UNL A   1      35.497  29.631  28.416  1.00  0.00     0.016 A 
ATOM     35  C   UNL A   1      37.007  31.987  28.521  1.00  0.00     0.010 A 
ATOM     36  C   UNL A   1      36.482  29.752  29.342  1.00  0.00     0.010 A 
ATOM     37  C   UNL A   1      37.324  30.864  29.286  1.00  0.00    -0.014 A 
BRANCH  37  38
ATOM     38  C   UNL A   1      38.645  30.438  29.721  1.00  0.00     0.031 A 
ATOM     39  C   UNL A   1      39.358  29.367  29.005  1.00  0.00     0.074 A 
ATOM     40  C   UNL A   1      39.183  31.400  30.519  1.00  0.00     0.049 A 
ATOM     41  N   UNL A   1      39.963  28.366  29.555  1.00  0.00    -0.248 NA
ATOM     42  C   UNL A   1      39.373  29.308  27.535  1.00  0.00     0.031 C 
ATOM     43  C   UNL A   1      40.547  31.741  30.850  1.00  0.00     0.029 A 
ATOM     44  N   UNL A   1      38.480  32.419  31.185  1.00  0.00    -0.354 N 
ATOM     45  C   UNL A   1      40.748  27.835  28.543  1.00  0.00     0.074 A 
ATOM     46  C   UNL A   1      40.120  28.223  27.302  1.00  0.00     0.031 C 
ATOM     47  C   UNL A   1      40.529  32.568  31.922  1.00  0.00     0.029 A 
ATOM     48  C   UNL A   1      39.141  32.715  32.356  1.00  0.00     0.049 A 
ATOM     49  H   UNL A   1      37.654  32.849  30.866  1.00  0.00     0.167 HD
ATOM     50  C   UNL A   1      42.088  27.644  28.737  1.00  0.00     0.031 A 
ATOM     51  C   UNL A   1      38.579  32.302  33.534  1.00  0.00     0.031 A 
ATOM     52  C   UNL A   1      42.514  28.314  29.960  1.00  0.00     0.049 A 
ATOM     53  C   UNL A   1      39.405  31.148  34.053  1.00  0.00     0.074 A 
ATOM     54  C   UNL A   1      43.167  29.521  30.154  1.00  0.00     0.029 A 
ATOM     55  N   UNL A   1      41.971  27.953  31.181  1.00  0.00    -0.354 N 
ATOM     56  N   UNL A   1      40.009  30.282  33.282  1.00  0.00    -0.248 NA
ATOM     57  C   UNL A   1      39.705  30.958  35.467  1.00  0.00     0.031 C 
ATOM     58  C   UNL A   1      43.002  29.889  31.513  1.00  0.00     0.029 A 
ATOM     59  C   UNL A   1      42.216  28.927  32.127  1.00  0.00     0.049 A 
ATOM     60  H   UNL A   1      41.478  27.117  31.351  1.00  0.00     0.167 HD
ATOM     61  C   UNL A   1      40.887  29.556  34.038  1.00  0.00     0.074 A 
ATOM     62  C   UNL A   1      40.617  29.974  35.405  1.00  0.00     0.031 C 
ATOM     63  C   UNL A   1      41.820  28.715  33.508  1.00  0.00     0.031 A 
BRANCH  50  64
ATOM     64  C   UNL A   1      43.075  27.230  27.665  1.00  0.00    -0.014 A 
ATOM     65  C   UNL A   1      43.259  25.863  27.377  1.00  0.00     0.009 A 
ATOM     66  C   UNL A   1      43.784  28.134  26.854  1.00  0.00     0.009 A 
ATOM     67  C   UNL A   1      44.138  25.416  26.384  1.00  0.00     0.001 A 
ATOM     68  C   UNL A   1      44.682  27.691  25.867  1.00  0.00     0.001 A 
ATOM     69  C   UNL A   1      44.860  26.332  25.633  1.00  0.00     0.000 A 
ENDBRANCH  50  64
BRANCH  51  70
ATOM     70  C   UNL A   1      37.073  32.384  33.558  1.00  0.00    -0.014 A 
ATOM     71  C   UNL A   1      36.477  33.365  34.388  1.00  0.00     0.009 A 
ATOM     72  C   UNL A   1      36.263  31.791  32.577  1.00  0.00     0.009 A 
ATOM     73  C   UNL A   1      35.172  33.825  34.162  1.00  0.00     0.001 A 
ATOM     74  C   UNL A   1      34.941  32.233  32.376  1.00  0.00     0.001 A 
ATOM     75  C   UNL A   1      34.410  33.271  33.141  1.00  0.00     0.000 A 
ENDBRANCH  51  70
BRANCH  63  76
ATOM     76  C   UNL A   1      42.545  27.637  34.266  1.00  0.00    -0.014 A 
ATOM     77  C   UNL A   1      43.859  27.771  34.721  1.00  0.00     0.009 A 
ATOM     78  C   UNL A   1      41.828  26.499  34.703  1.00  0.00     0.009 A 
ATOM     79  C   UNL A   1      44.448  26.790  35.522  1.00  0.00     0.001 A 
ATOM     80  C   UNL A   1      42.388  25.555  35.560  1.00  0.00     0.001 A 
ATOM     81  C   UNL A   1      43.709  25.692  35.954  1.00  0.00     0.000 A 
ENDBRANCH  63  76
ENDBRANCH  37  38
ENDBRANCH  30  32
ENDBRANCH  29  30
ENDBRANCH  28  29
ENDBRANCH   1  28
TORSDOF 14
ENDMDL
MODEL 2
REMARK VINA RESULT:     -13.0      1.708      5.173
REMARK SMILES Cc1ccc(CCC(=O)N2CCC3(CC2)[C@H](C(=O)OCCOC(=O)c2ccc(-c4c5nc(c(-c6ccccc6)c6ccc([nH]6)c(-c6ccccc6)c6nc(c(-c7ccccc7)c7ccc4[nH]7)C=C6)C=C5)cc2)CC(=O)N3C)cc1
REMARK SMILES IDX 20 1 19 2 17 3 18 4 16 5 8 6 9 7 10 8 11 9 15 10 12 11 14 12
REMARK SMILES IDX 13 13 76 14 73 15 74 16 77 17 75 18 7 19 6 20 5 21 1 22 2 23
REMARK SMILES IDX 3 24 79 25 4 26 78 27 21 28 22 29 23 30 24 31 25 32 26 33
REMARK SMILES IDX 72 34 27 35 71 36 28 37 29 38 30 39 65 40 31 41 70 42 64 43
REMARK SMILES IDX 66 44 32 45 69 46 63 47 62 48 33 50 55 51 40 52 54 53 41 54
REMARK SMILES IDX 44 55 53 56 67 57 42 58 43 59 52 61 68 62 45 63 34 64 35 65
REMARK SMILES IDX 39 66 36 67 38 68 37 69 56 70 57 71 61 72 58 73 60 74 59 75
REMARK SMILES IDX 46 76 47 77 51 78 48 79 50 80 49 81
REMARK H PARENT 66 49 44 60
REMARK Flexibility Score: inf
ROOT
ATOM      1  C   UNL A   1      31.417  27.934  27.869  1.00  0.00     0.274 C 
ENDROOT
BRANCH   1   2
ATOM      2  O   UNL A   1      31.648  26.708  27.121  1.00  0.00    -0.462 OA
BRANCH   2   3
ATOM      3  C   UNL A   1      31.002  26.531  25.961  1.00  0.00     0.311 C 
ATOM      4  O   UNL A   1      29.930  25.944  25.850  1.00  0.00    -0.252 OA
BRANCH   3   5
ATOM      5  C   UNL A   1      31.572  27.162  24.738  1.00  0.00     0.134 C 
ATOM      6  C   UNL A   1      34.381  22.978  25.015  1.00  0.00     0.222 C 
ATOM      7  O   UNL A   1      34.059  21.830  25.335  1.00  0.00    -0.275 OA
ATOM      8  N   UNL A   1      33.621  23.692  24.100  1.00  0.00    -0.343 N 
ATOM      9  C   UNL A   1      32.234  23.385  23.801  1.00  0.00     0.122 C 
ATOM     10  C   UNL A   1      34.120  24.769  23.310  1.00  0.00     0.122 C 
ATOM     11  C   UNL A   1      31.338  24.624  23.999  1.00  0.00     0.051 C 
ATOM     12  C   UNL A   1      33.527  26.060  23.787  1.00  0.00     0.051 C 
ATOM     13  C   UNL A   1      31.985  26.051  23.732  1.00  0.00     0.060 C 
ATOM     14  N   UNL A   1      31.471  26.601  22.464  1.00  0.00    -0.339 N 
ATOM     15  C   UNL A   1      30.925  28.296  23.977  1.00  0.00     0.118 C 
ATOM     16  C   UNL A   1      30.796  27.800  22.582  1.00  0.00     0.223 C 
ATOM     17  C   UNL A   1      31.762  26.075  21.150  1.00  0.00     0.147 C 
ATOM     18  O   UNL A   1      30.255  28.423  21.670  1.00  0.00    -0.275 OA
BRANCH   6  19
ATOM     19  C   UNL A   1      35.542  23.680  25.772  1.00  0.00     0.105 C 
BRANCH  19  20
ATOM     20  C   UNL A   1      36.958  23.822  25.159  1.00  0.00     0.045 C 
BRANCH  20  21
ATOM     21  C   UNL A   1      38.093  23.449  26.109  1.00  0.00    -0.047 A 
ATOM     22  C   UNL A   1      42.117  22.817  27.441  1.00  0.00     0.044 C 
ATOM     23  C   UNL A   1      40.650  22.963  27.161  1.00  0.00    -0.051 A 
ATOM     24  C   UNL A   1      39.922  21.923  26.578  1.00  0.00     0.004 A 
ATOM     25  C   UNL A   1      40.010  24.183  27.400  1.00  0.00     0.004 A 
ATOM     26  C   UNL A   1      38.624  22.150  26.110  1.00  0.00     0.004 A 
ATOM     27  C   UNL A   1      38.741  24.430  26.867  1.00  0.00     0.004 A 
ENDBRANCH  20  21
ENDBRANCH  19  20
ENDBRANCH   6  19
ENDBRANCH   3   5
ENDBRANCH   2   3
ENDBRANCH   1   2
BRANCH   1  28
ATOM     28  C   UNL A   1      31.833  29.350  27.331  1.00  0.00     0.275 C 
BRANCH  28  29
ATOM     29  O   UNL A   1      33.200  29.926  27.226  1.00  0.00    -0.458 OA
BRANCH  29  30
ATOM     30  C   UNL A   1      33.685  31.145  27.610  1.00  0.00     0.338 C 
ATOM     31  O   UNL A   1      33.092  32.206  27.478  1.00  0.00    -0.246 OA
BRANCH  30  32
ATOM     32  C   UNL A   1      35.088  31.101  28.036  1.00  0.00     0.060 A 
ATOM     33  C   UNL A   1      35.949  32.218  28.071  1.00  0.00     0.016 A 
ATOM     34  C   UNL A   1      35.465  29.894  28.579  1.00  0.00     0.016 A 
ATOM     35  C   UNL A   1      37.176  32.104  28.731  1.00  0.00     0.010 A 
ATOM     36  C   UNL A   1      36.474  29.895  29.487  1.00  0.00     0.010 A 
ATOM     37  C   UNL A   1      37.409  30.931  29.450  1.00  0.00    -0.014 A 
BRANCH  37  38
ATOM     38  C   UNL A   1      38.695  30.378  29.842  1.00  0.00     0.031 A 
ATOM     39  C   UNL A   1      39.277  29.245  29.103  1.00  0.00     0.074 A 
ATOM     40  C   UNL A   1      39.350  31.280  30.622  1.00  0.00     0.049 A 
ATOM     41  N   UNL A   1      39.799  28.189  29.633  1.00  0.00    -0.248 NA
ATOM     42  C   UNL A   1      39.239  29.189  27.634  1.00  0.00     0.031 C 
ATOM     43  C   UNL A   1      40.750  31.486  30.909  1.00  0.00     0.029 A 
ATOM     44  N   UNL A   1      38.772  32.361  31.311  1.00  0.00    -0.354 N 
ATOM     45  C   UNL A   1      40.496  27.587  28.597  1.00  0.00     0.074 A 
ATOM     46  C   UNL A   1      39.869  28.037  27.377  1.00  0.00     0.031 C 
ATOM     47  C   UNL A   1      40.848  32.308  31.982  1.00  0.00     0.029 A 
ATOM     48  C   UNL A   1      39.495  32.588  32.461  1.00  0.00     0.049 A 
ATOM     49  H   UNL A   1      37.981  32.870  31.019  1.00  0.00     0.167 HD
ATOM     50  C   UNL A   1      41.817  27.265  28.747  1.00  0.00     0.031 A 
ATOM     51  C   UNL A   1      38.934  32.228  33.656  1.00  0.00     0.031 A 
ATOM     52  C   UNL A   1      42.345  27.887  29.956  1.00  0.00     0.049 A 
ATOM     53  C   UNL A   1      39.660  30.996  34.148  1.00  0.00     0.074 A 
ATOM     54  C   UNL A   1      43.118  29.024  30.128  1.00  0.00     0.029 A 
ATOM     55  N   UNL A   1      41.809  27.577  31.194  1.00  0.00    -0.354 N 
ATOM     56  N   UNL A   1      40.152  30.079  33.358  1.00  0.00    -0.248 NA
ATOM     57  C   UNL A   1      39.985  30.774  35.551  1.00  0.00     0.031 C 
ATOM     58  C   UNL A   1      43.034  29.402  31.492  1.00  0.00     0.029 A 
ATOM     59  C   UNL A   1      42.178  28.519  32.131  1.00  0.00     0.049 A 
ATOM     60  H   UNL A   1      41.243  26.792  31.380  1.00  0.00     0.167 HD
ATOM     61  C   UNL A   1      40.979  29.268  34.085  1.00  0.00     0.074 A 
ATOM     62  C   UNL A   1      40.795  29.706  35.460  1.00  0.00     0.031 C 
ATOM     63  C   UNL A   1      41.808  28.342  33.524  1.00  0.00     0.031 A 
BRANCH  50  64
ATOM     64  C   UNL A   1      42.723  26.761  27.644  1.00  0.00    -0.014 A 
ATOM     65  C   UNL A   1      43.879  26.024  27.972  1.00  0.00     0.009 A 
ATOM     66  C   UNL A   1      42.451  26.906  26.272  1.00  0.00     0.009 A 
ATOM     67  C   UNL A   1      44.745  25.511  27.001  1.00  0.00     0.001 A 
ATOM     68  C   UNL A   1      43.326  26.409  25.290  1.00  0.00     0.001 A 
ATOM     69  C   UNL A   1      44.474  25.712  25.655  1.00  0.00     0.000 A 
ENDBRANCH  50  64
BRANCH  51  70
ATOM     70  C   UNL A   1      37.445  32.455  33.729  1.00  0.00    -0.014 A 
ATOM     71  C   UNL A   1      36.984  33.594  34.433  1.00  0.00     0.009 A 
ATOM     72  C   UNL A   1      36.535  31.813  32.875  1.00  0.00     0.009 A 
ATOM     73  C   UNL A   1      35.715  34.141  34.197  1.00  0.00     0.001 A 
ATOM     74  C   UNL A   1      35.248  32.347  32.667  1.00  0.00     0.001 A 
ATOM     75  C   UNL A   1      34.853  33.527  33.297  1.00  0.00     0.000 A 
ENDBRANCH  51  70
BRANCH  63  76
ATOM     76  C   UNL A   1      42.449  27.196  34.258  1.00  0.00    -0.014 A 
ATOM     77  C   UNL A   1      43.831  27.055  34.403  1.00  0.00     0.009 A 
ATOM     78  C   UNL A   1      41.633  26.305  34.995  1.00  0.00     0.009 A 
ATOM     79  C   UNL A   1      44.373  26.039  35.194  1.00  0.00     0.001 A 
ATOM     80  C   UNL A   1      42.170  25.338  35.840  1.00  0.00     0.001 A 
ATOM     81  C   UNL A   1      43.544  25.192  35.923  1.00  0.00     0.000 A 
ENDBRANCH  63  76
ENDBRANCH  37  38
ENDBRANCH  30  32
ENDBRANCH  29  30
ENDBRANCH  28  29
ENDBRANCH   1  28
TORSDOF 14
ENDMDL
MODEL 3
REMARK VINA RESULT:     -12.7      2.393      5.621
REMARK SMILES Cc1ccc(CCC(=O)N2CCC3(CC2)[C@H](C(=O)OCCOC(=O)c2ccc(-c4c5nc(c(-c6ccccc6)c6ccc([nH]6)c(-c6ccccc6)c6nc(c(-c7ccccc7)c7ccc4[nH]7)C=C6)C=C5)cc2)CC(=O)N3C)cc1
REMARK SMILES IDX 20 1 19 2 17 3 18 4 16 5 8 6 9 7 10 8 11 9 15 10 12 11 14 12
REMARK SMILES IDX 13 13 76 14 73 15 74 16 77 17 75 18 7 19 6 20 5 21 1 22 2 23
REMARK SMILES IDX 3 24 79 25 4 26 78 27 21 28 22 29 23 30 24 31 25 32 26 33
REMARK SMILES IDX 72 34 27 35 71 36 28 37 29 38 30 39 65 40 31 41 70 42 64 43
REMARK SMILES IDX 66 44 32 45 69 46 63 47 62 48 33 50 55 51 40 52 54 53 41 54
REMARK SMILES IDX 44 55 53 56 67 57 42 58 43 59 52 61 68 62 45 63 34 64 35 65
REMARK SMILES IDX 39 66 36 67 38 68 37 69 56 70 57 71 61 72 58 73 60 74 59 75
REMARK SMILES IDX 46 76 47 77 51 78 48 79 50 80 49 81
REMARK H PARENT 66 49 44 60
REMARK Flexibility Score: inf
ROOT
ATOM      1  C   UNL A   1      32.801  29.470  26.222  1.00  0.00     0.274 C 
ENDROOT
BRANCH   1   2
ATOM      2  O   UNL A   1      32.505  29.593  24.802  1.00  0.00    -0.462 OA
BRANCH   2   3
ATOM      3  C   UNL A   1      32.601  28.504  24.029  1.00  0.00     0.311 C 
ATOM      4  O   UNL A   1      33.540  27.715  24.061  1.00  0.00    -0.252 OA
BRANCH   3   5
ATOM      5  C   UNL A   1      31.454  28.174  23.137  1.00  0.00     0.134 C 
ATOM      6  C   UNL A   1      32.630  23.582  24.869  1.00  0.00     0.222 C 
ATOM      7  O   UNL A   1      32.986  23.230  25.997  1.00  0.00    -0.275 OA
ATOM      8  N   UNL A   1      31.528  24.408  24.706  1.00  0.00    -0.343 N 
ATOM      9  C   UNL A   1      31.002  25.258  25.759  1.00  0.00     0.122 C 
ATOM     10  C   UNL A   1      30.752  24.483  23.512  1.00  0.00     0.122 C 
ATOM     11  C   UNL A   1      30.917  26.726  25.294  1.00  0.00     0.051 C 
ATOM     12  C   UNL A   1      30.990  25.799  22.838  1.00  0.00     0.051 C 
ATOM     13  C   UNL A   1      30.648  26.995  23.752  1.00  0.00     0.060 C 
ATOM     14  N   UNL A   1      29.261  27.461  23.562  1.00  0.00    -0.339 N 
ATOM     15  C   UNL A   1      30.486  29.188  22.573  1.00  0.00     0.118 C 
ATOM     16  C   UNL A   1      29.142  28.715  22.996  1.00  0.00     0.223 C 
ATOM     17  C   UNL A   1      28.079  26.656  23.764  1.00  0.00     0.147 C 
ATOM     18  O   UNL A   1      28.093  29.317  22.777  1.00  0.00    -0.275 OA
BRANCH   6  19
ATOM     19  C   UNL A   1      33.525  23.234  23.648  1.00  0.00     0.105 C 
BRANCH  19  20
ATOM     20  C   UNL A   1      34.994  23.716  23.540  1.00  0.00     0.045 C 
BRANCH  20  21
ATOM     21  C   UNL A   1      35.947  23.052  24.530  1.00  0.00    -0.047 A 
ATOM     22  C   UNL A   1      39.662  21.652  26.145  1.00  0.00     0.044 C 
ATOM     23  C   UNL A   1      38.271  22.051  25.745  1.00  0.00    -0.051 A 
ATOM     24  C   UNL A   1      37.487  21.221  24.941  1.00  0.00     0.004 A 
ATOM     25  C   UNL A   1      37.775  23.309  26.103  1.00  0.00     0.004 A 
ATOM     26  C   UNL A   1      36.297  21.701  24.386  1.00  0.00     0.004 A 
ATOM     27  C   UNL A   1      36.623  23.813  25.490  1.00  0.00     0.004 A 
ENDBRANCH  20  21
ENDBRANCH  19  20
ENDBRANCH   6  19
ENDBRANCH   3   5
ENDBRANCH   2   3
ENDBRANCH   1   2
BRANCH   1  28
ATOM     28  C   UNL A   1      34.260  29.553  26.797  1.00  0.00     0.275 C 
BRANCH  28  29
ATOM     29  O   UNL A   1      34.743  30.339  27.963  1.00  0.00    -0.458 OA
BRANCH  29  30
ATOM     30  C   UNL A   1      35.904  31.038  28.146  1.00  0.00     0.338 C 
ATOM     31  O   UNL A   1      36.080  32.200  27.812  1.00  0.00    -0.246 OA
BRANCH  30  32
ATOM     32  C   UNL A   1      37.012  30.203  28.624  1.00  0.00     0.060 A 
ATOM     33  C   UNL A   1      36.940  29.337  29.735  1.00  0.00     0.016 A 
ATOM     34  C   UNL A   1      38.102  30.194  27.783  1.00  0.00     0.016 A 
ATOM     35  C   UNL A   1      37.968  28.411  29.937  1.00  0.00     0.010 A 
ATOM     36  C   UNL A   1      38.898  29.095  27.789  1.00  0.00     0.010 A 
ATOM     37  C   UNL A   1      38.932  28.297  28.934  1.00  0.00    -0.014 A 
BRANCH  37  38
ATOM     38  C   UNL A   1      40.281  27.771  29.065  1.00  0.00     0.031 A 
ATOM     39  C   UNL A   1      40.657  26.508  28.407  1.00  0.00     0.074 A 
ATOM     40  C   UNL A   1      41.111  28.768  29.476  1.00  0.00     0.049 A 
ATOM     41  N   UNL A   1      41.311  25.538  28.957  1.00  0.00    -0.248 NA
ATOM     42  C   UNL A   1      40.231  26.205  27.032  1.00  0.00     0.031 C 
ATOM     43  C   UNL A   1      42.535  28.967  29.345  1.00  0.00     0.029 A 
ATOM     44  N   UNL A   1      40.726  29.970  30.094  1.00  0.00    -0.354 N 
ATOM     45  C   UNL A   1      41.713  24.744  27.894  1.00  0.00     0.074 A 
ATOM     46  C   UNL A   1      40.781  25.003  26.823  1.00  0.00     0.031 C 
ATOM     47  C   UNL A   1      42.907  29.955  30.194  1.00  0.00     0.029 A 
ATOM     48  C   UNL A   1      41.727  30.362  30.955  1.00  0.00     0.049 A 
ATOM     49  H   UNL A   1      39.881  30.452  29.936  1.00  0.00     0.167 HD
ATOM     50  C   UNL A   1      43.030  24.403  27.746  1.00  0.00     0.031 A 
ATOM     51  C   UNL A   1      41.506  30.232  32.300  1.00  0.00     0.031 A 
ATOM     52  C   UNL A   1      43.853  25.202  28.646  1.00  0.00     0.049 A 
ATOM     53  C   UNL A   1      42.348  29.076  32.789  1.00  0.00     0.074 A 
ATOM     54  C   UNL A   1      44.634  26.321  28.409  1.00  0.00     0.029 A 
ATOM     55  N   UNL A   1      43.668  25.126  30.016  1.00  0.00    -0.354 N 
ATOM     56  N   UNL A   1      42.621  28.020  32.070  1.00  0.00    -0.248 NA
ATOM     57  C   UNL A   1      43.036  29.084  34.074  1.00  0.00     0.031 C 
ATOM     58  C   UNL A   1      44.911  26.929  29.659  1.00  0.00     0.029 A 
ATOM     59  C   UNL A   1      44.264  26.200  30.645  1.00  0.00     0.049 A 
ATOM     60  H   UNL A   1      43.179  24.406  30.477  1.00  0.00     0.167 HD
ATOM     61  C   UNL A   1      43.619  27.314  32.684  1.00  0.00     0.074 A 
ATOM     62  C   UNL A   1      43.803  27.986  33.961  1.00  0.00     0.031 C 
ATOM     63  C   UNL A   1      44.279  26.276  32.094  1.00  0.00     0.031 A 
BRANCH  50  64
ATOM     64  C   UNL A   1      43.615  23.686  26.548  1.00  0.00    -0.014 A 
ATOM     65  C   UNL A   1      43.439  22.294  26.414  1.00  0.00     0.009 A 
ATOM     66  C   UNL A   1      44.273  24.331  25.485  1.00  0.00     0.009 A 
ATOM     67  C   UNL A   1      43.935  21.575  25.321  1.00  0.00     0.001 A 
ATOM     68  C   UNL A   1      44.790  23.612  24.393  1.00  0.00     0.001 A 
ATOM     69  C   UNL A   1      44.622  22.234  24.311  1.00  0.00     0.000 A 
ENDBRANCH  50  64
BRANCH  51  70
ATOM     70  C   UNL A   1      40.087  30.524  32.721  1.00  0.00    -0.014 A 
ATOM     71  C   UNL A   1      39.497  31.728  32.266  1.00  0.00     0.009 A 
ATOM     72  C   UNL A   1      39.230  29.540  33.237  1.00  0.00     0.009 A 
ATOM     73  C   UNL A   1      38.106  31.889  32.210  1.00  0.00     0.001 A 
ATOM     74  C   UNL A   1      37.833  29.721  33.210  1.00  0.00     0.001 A 
ATOM     75  C   UNL A   1      37.272  30.875  32.664  1.00  0.00     0.000 A 
ENDBRANCH  51  70
BRANCH  63  76
ATOM     76  C   UNL A   1      45.102  25.249  32.821  1.00  0.00    -0.014 A 
ATOM     77  C   UNL A   1      46.445  25.438  33.154  1.00  0.00     0.009 A 
ATOM     78  C   UNL A   1      44.463  24.107  33.360  1.00  0.00     0.009 A 
ATOM     79  C   UNL A   1      47.134  24.505  33.932  1.00  0.00     0.001 A 
ATOM     80  C   UNL A   1      45.127  23.213  34.196  1.00  0.00     0.001 A 
ATOM     81  C   UNL A   1      46.472  23.403  34.466  1.00  0.00     0.000 A 
ENDBRANCH  63  76
ENDBRANCH  37  38
ENDBRANCH  30  32
ENDBRANCH  29  30
ENDBRANCH  28  29
ENDBRANCH   1  28
TORSDOF 14
ENDMDL
