MODEL 1
REMARK VINA RESULT:     -10.1      0.000      0.000
REMARK SMILES O=C(OCCOC(=O)c1ccc2c(c1)[C@@H](C1CCOCC1)C(=O)N2)c1ccc(-c2c3nc(c(-c4ccccc4)c4ccc([nH]4)c(-c4ccccc4)c4nc(c(-c5ccccc5)c5ccc2[nH]5)C=C4)C=C3)cc1
REMARK SMILES IDX 4 1 3 2 2 3 1 4 25 5 26 6 72 7 27 8 71 9 28 10 29 11 30 12
REMARK SMILES IDX 65 13 31 14 70 15 64 16 66 17 32 18 69 19 63 20 62 21 33 23
REMARK SMILES IDX 55 24 40 25 54 26 41 27 44 28 53 29 67 30 42 31 43 32 52 34
REMARK SMILES IDX 68 35 45 36 34 37 35 38 39 39 36 40 38 41 37 42 56 43 57 44
REMARK SMILES IDX 61 45 58 46 60 47 59 48 46 49 47 50 51 51 48 52 50 53 49 54
REMARK SMILES IDX 5 55 6 56 7 57 8 58 9 59 10 60 14 61 11 62 13 63 12 64 15 65
REMARK SMILES IDX 24 66 22 67 23 69 16 70 17 71 21 72 18 73 20 74 19 75
REMARK H PARENT 66 22 44 33 24 68
REMARK Flexibility Score: inf
ROOT
ATOM      1  C   UNL A   1      32.435  35.741  30.678  1.00  0.00     0.275 C 
ENDROOT
BRANCH   1   2
ATOM      2  O   UNL A   1      32.562  35.556  29.262  1.00  0.00    -0.458 OA
BRANCH   2   3
ATOM      3  C   UNL A   1      33.087  34.524  28.569  1.00  0.00     0.338 C 
ATOM      4  O   UNL A   1      32.387  33.986  27.710  1.00  0.00    -0.246 OA
BRANCH   3   5
ATOM      5  C   UNL A   1      34.437  33.918  28.834  1.00  0.00     0.060 A 
ATOM      6  C   UNL A   1      35.695  34.443  28.514  1.00  0.00     0.016 A 
ATOM      7  C   UNL A   1      34.415  32.698  29.520  1.00  0.00     0.016 A 
ATOM      8  C   UNL A   1      36.884  33.839  28.947  1.00  0.00     0.010 A 
ATOM      9  C   UNL A   1      35.596  32.095  29.940  1.00  0.00     0.010 A 
ATOM     10  C   UNL A   1      36.846  32.668  29.689  1.00  0.00    -0.014 A 
BRANCH  10  11
ATOM     11  C   UNL A   1      38.084  31.959  30.098  1.00  0.00     0.031 A 
ATOM     12  C   UNL A   1      39.012  32.646  31.058  1.00  0.00     0.074 A 
ATOM     13  C   UNL A   1      38.393  30.742  29.609  1.00  0.00     0.049 A 
ATOM     14  N   UNL A   1      40.168  32.248  31.517  1.00  0.00    -0.248 NA
ATOM     15  C   UNL A   1      38.581  33.960  31.567  1.00  0.00     0.031 C 
ATOM     16  C   UNL A   1      37.556  29.949  28.711  1.00  0.00     0.029 A 
ATOM     17  N   UNL A   1      39.508  29.958  29.786  1.00  0.00    -0.354 N 
ATOM     18  C   UNL A   1      40.589  33.255  32.374  1.00  0.00     0.074 A 
ATOM     19  C   UNL A   1      39.626  34.328  32.286  1.00  0.00     0.031 C 
ATOM     20  C   UNL A   1      38.200  28.818  28.377  1.00  0.00     0.029 A 
ATOM     21  C   UNL A   1      39.494  28.797  29.046  1.00  0.00     0.049 A 
ATOM     22  H   UNL A   1      40.248  30.203  30.386  1.00  0.00     0.167 HD
ATOM     23  C   UNL A   1      41.647  33.262  33.214  1.00  0.00     0.031 A 
ATOM     24  C   UNL A   1      40.416  27.822  28.930  1.00  0.00     0.031 A 
ATOM     25  C   UNL A   1      42.595  32.190  33.308  1.00  0.00     0.049 A 
ATOM     26  C   UNL A   1      41.649  27.899  29.790  1.00  0.00     0.074 A 
ATOM     27  C   UNL A   1      43.686  32.073  34.146  1.00  0.00     0.029 A 
ATOM     28  N   UNL A   1      42.558  31.046  32.524  1.00  0.00    -0.354 N 
ATOM     29  N   UNL A   1      41.991  28.824  30.654  1.00  0.00    -0.248 NA
ATOM     30  C   UNL A   1      42.592  26.777  29.700  1.00  0.00     0.031 C 
ATOM     31  C   UNL A   1      44.342  30.878  33.832  1.00  0.00     0.029 A 
ATOM     32  C   UNL A   1      43.623  30.224  32.842  1.00  0.00     0.049 A 
ATOM     33  H   UNL A   1      41.875  30.849  31.842  1.00  0.00     0.167 HD
ATOM     34  C   UNL A   1      43.157  28.369  31.254  1.00  0.00     0.074 A 
ATOM     35  C   UNL A   1      43.463  27.087  30.652  1.00  0.00     0.031 C 
ATOM     36  C   UNL A   1      43.897  28.949  32.230  1.00  0.00     0.031 A 
BRANCH  23  37
ATOM     37  C   UNL A   1      41.804  34.475  34.087  1.00  0.00    -0.014 A 
ATOM     38  C   UNL A   1      41.217  34.528  35.365  1.00  0.00     0.009 A 
ATOM     39  C   UNL A   1      42.498  35.596  33.611  1.00  0.00     0.009 A 
ATOM     40  C   UNL A   1      41.272  35.699  36.121  1.00  0.00     0.001 A 
ATOM     41  C   UNL A   1      42.581  36.754  34.386  1.00  0.00     0.001 A 
ATOM     42  C   UNL A   1      41.956  36.811  35.631  1.00  0.00     0.000 A 
ENDBRANCH  23  37
BRANCH  24  43
ATOM     43  C   UNL A   1      40.200  26.673  28.007  1.00  0.00    -0.014 A 
ATOM     44  C   UNL A   1      39.443  25.560  28.405  1.00  0.00     0.009 A 
ATOM     45  C   UNL A   1      40.779  26.670  26.726  1.00  0.00     0.009 A 
ATOM     46  C   UNL A   1      39.301  24.456  27.559  1.00  0.00     0.001 A 
ATOM     47  C   UNL A   1      40.613  25.574  25.872  1.00  0.00     0.001 A 
ATOM     48  C   UNL A   1      39.884  24.465  26.293  1.00  0.00     0.000 A 
ENDBRANCH  24  43
BRANCH  36  49
ATOM     49  C   UNL A   1      45.076  28.177  32.748  1.00  0.00    -0.014 A 
ATOM     50  C   UNL A   1      46.359  28.350  32.207  1.00  0.00     0.009 A 
ATOM     51  C   UNL A   1      44.905  27.308  33.837  1.00  0.00     0.009 A 
ATOM     52  C   UNL A   1      47.442  27.644  32.731  1.00  0.00     0.001 A 
ATOM     53  C   UNL A   1      45.996  26.631  34.380  1.00  0.00     0.001 A 
ATOM     54  C   UNL A   1      47.262  26.792  33.821  1.00  0.00     0.000 A 
ENDBRANCH  36  49
ENDBRANCH  10  11
ENDBRANCH   3   5
ENDBRANCH   2   3
ENDBRANCH   1   2
BRANCH   1  55
ATOM     55  C   UNL A   1      33.635  36.431  31.341  1.00  0.00     0.275 C 
BRANCH  55  56
ATOM     56  O   UNL A   1      34.627  35.533  31.879  1.00  0.00    -0.458 OA
BRANCH  56  57
ATOM     57  C   UNL A   1      34.800  35.564  33.229  1.00  0.00     0.338 C 
ATOM     58  O   UNL A   1      34.360  36.405  33.995  1.00  0.00    -0.246 OA
BRANCH  57  59
ATOM     59  C   UNL A   1      35.555  34.363  33.674  1.00  0.00     0.060 A 
ATOM     60  C   UNL A   1      35.359  33.139  33.005  1.00  0.00     0.018 A 
ATOM     61  C   UNL A   1      36.503  34.469  34.719  1.00  0.00     0.022 A 
ATOM     62  C   UNL A   1      36.109  32.015  33.356  1.00  0.00     0.027 A 
ATOM     63  C   UNL A   1      37.214  33.332  35.092  1.00  0.00    -0.011 A 
ATOM     64  C   UNL A   1      37.020  32.144  34.386  1.00  0.00     0.045 A 
ATOM     65  C   UNL A   1      38.336  33.124  36.102  1.00  0.00     0.114 C 
ATOM     66  N   UNL A   1      37.916  31.182  34.812  1.00  0.00    -0.325 N 
ATOM     67  C   UNL A   1      38.787  31.683  35.766  1.00  0.00     0.232 C 
ATOM     68  H   UNL A   1      37.933  30.255  34.479  1.00  0.00     0.169 HD
ATOM     69  O   UNL A   1      39.723  31.071  36.252  1.00  0.00    -0.274 OA
BRANCH  65  70
ATOM     70  C   UNL A   1      37.957  33.258  37.599  1.00  0.00     0.010 C 
ATOM     71  C   UNL A   1      39.159  33.686  38.468  1.00  0.00     0.033 C 
ATOM     72  C   UNL A   1      37.406  31.971  38.237  1.00  0.00     0.033 C 
ATOM     73  C   UNL A   1      38.768  33.806  39.945  1.00  0.00     0.160 C 
ATOM     74  C   UNL A   1      36.980  32.265  39.672  1.00  0.00     0.160 C 
ATOM     75  O   UNL A   1      38.125  32.631  40.437  1.00  0.00    -0.381 OA
ENDBRANCH  65  70
ENDBRANCH  57  59
ENDBRANCH  56  57
ENDBRANCH  55  56
ENDBRANCH   1  55
TORSDOF 12
ENDMDL
MODEL 2
REMARK VINA RESULT:     -10.0      4.318     10.015
REMARK SMILES O=C(OCCOC(=O)c1ccc2c(c1)[C@@H](C1CCOCC1)C(=O)N2)c1ccc(-c2c3nc(c(-c4ccccc4)c4ccc([nH]4)c(-c4ccccc4)c4nc(c(-c5ccccc5)c5ccc2[nH]5)C=C4)C=C3)cc1
REMARK SMILES IDX 4 1 3 2 2 3 1 4 25 5 26 6 72 7 27 8 71 9 28 10 29 11 30 12
REMARK SMILES IDX 65 13 31 14 70 15 64 16 66 17 32 18 69 19 63 20 62 21 33 23
REMARK SMILES IDX 55 24 40 25 54 26 41 27 44 28 53 29 67 30 42 31 43 32 52 34
REMARK SMILES IDX 68 35 45 36 34 37 35 38 39 39 36 40 38 41 37 42 56 43 57 44
REMARK SMILES IDX 61 45 58 46 60 47 59 48 46 49 47 50 51 51 48 52 50 53 49 54
REMARK SMILES IDX 5 55 6 56 7 57 8 58 9 59 10 60 14 61 11 62 13 63 12 64 15 65
REMARK SMILES IDX 24 66 22 67 23 69 16 70 17 71 21 72 18 73 20 74 19 75
REMARK H PARENT 66 22 44 33 24 68
REMARK Flexibility Score: inf
ROOT
ATOM      1  C   UNL A   1      31.607  32.180  27.105  1.00  0.00     0.275 C 
ENDROOT
BRANCH   1   2
ATOM      2  O   UNL A   1      32.159  33.499  27.194  1.00  0.00    -0.458 OA
BRANCH   2   3
ATOM      3  C   UNL A   1      32.929  34.051  28.156  1.00  0.00     0.338 C 
ATOM      4  O   UNL A   1      32.541  35.096  28.680  1.00  0.00    -0.246 OA
BRANCH   3   5
ATOM      5  C   UNL A   1      34.277  33.533  28.570  1.00  0.00     0.060 A 
ATOM      6  C   UNL A   1      35.511  33.742  27.940  1.00  0.00     0.016 A 
ATOM      7  C   UNL A   1      34.288  32.783  29.752  1.00  0.00     0.016 A 
ATOM      8  C   UNL A   1      36.718  33.317  28.512  1.00  0.00     0.010 A 
ATOM      9  C   UNL A   1      35.487  32.354  30.313  1.00  0.00     0.010 A 
ATOM     10  C   UNL A   1      36.720  32.639  29.723  1.00  0.00    -0.014 A 
BRANCH  10  11
ATOM     11  C   UNL A   1      37.970  32.106  30.319  1.00  0.00     0.031 A 
ATOM     12  C   UNL A   1      38.490  30.788  29.822  1.00  0.00     0.074 A 
ATOM     13  C   UNL A   1      38.620  32.765  31.300  1.00  0.00     0.049 A 
ATOM     14  N   UNL A   1      39.529  30.105  30.223  1.00  0.00    -0.248 NA
ATOM     15  C   UNL A   1      37.736  30.152  28.726  1.00  0.00     0.031 C 
ATOM     16  C   UNL A   1      38.247  34.073  31.836  1.00  0.00     0.029 A 
ATOM     17  N   UNL A   1      39.727  32.418  32.036  1.00  0.00    -0.354 N 
ATOM     18  C   UNL A   1      39.555  28.973  29.421  1.00  0.00     0.074 A 
ATOM     19  C   UNL A   1      38.373  29.003  28.591  1.00  0.00     0.031 C 
ATOM     20  C   UNL A   1      39.076  34.398  32.843  1.00  0.00     0.029 A 
ATOM     21  C   UNL A   1      40.048  33.328  33.018  1.00  0.00     0.049 A 
ATOM     22  H   UNL A   1      40.243  31.596  31.876  1.00  0.00     0.167 HD
ATOM     23  C   UNL A   1      40.512  28.023  29.332  1.00  0.00     0.031 A 
ATOM     24  C   UNL A   1      41.022  33.305  33.948  1.00  0.00     0.031 A 
ATOM     25  C   UNL A   1      41.690  28.003  30.148  1.00  0.00     0.049 A 
ATOM     26  C   UNL A   1      42.020  32.178  33.909  1.00  0.00     0.074 A 
ATOM     27  C   UNL A   1      42.744  27.110  30.123  1.00  0.00     0.029 A 
ATOM     28  N   UNL A   1      41.963  28.927  31.146  1.00  0.00    -0.354 N 
ATOM     29  N   UNL A   1      42.072  31.155  33.091  1.00  0.00    -0.248 NA
ATOM     30  C   UNL A   1      43.118  32.229  34.883  1.00  0.00     0.031 C 
ATOM     31  C   UNL A   1      43.632  27.464  31.143  1.00  0.00     0.029 A 
ATOM     32  C   UNL A   1      43.161  28.613  31.762  1.00  0.00     0.049 A 
ATOM     33  H   UNL A   1      41.390  29.692  31.382  1.00  0.00     0.167 HD
ATOM     34  C   UNL A   1      43.238  30.474  33.409  1.00  0.00     0.074 A 
ATOM     35  C   UNL A   1      43.860  31.199  34.499  1.00  0.00     0.031 C 
ATOM     36  C   UNL A   1      43.759  29.359  32.839  1.00  0.00     0.031 A 
BRANCH  23  37
ATOM     37  C   UNL A   1      40.298  26.949  28.303  1.00  0.00    -0.014 A 
ATOM     38  C   UNL A   1      39.590  25.774  28.619  1.00  0.00     0.009 A 
ATOM     39  C   UNL A   1      40.850  27.085  27.022  1.00  0.00     0.009 A 
ATOM     40  C   UNL A   1      39.494  24.736  27.693  1.00  0.00     0.001 A 
ATOM     41  C   UNL A   1      40.721  26.058  26.086  1.00  0.00     0.001 A 
ATOM     42  C   UNL A   1      40.058  24.879  26.426  1.00  0.00     0.000 A 
ENDBRANCH  23  37
BRANCH  24  43
ATOM     43  C   UNL A   1      41.138  34.391  34.960  1.00  0.00    -0.014 A 
ATOM     44  C   UNL A   1      40.415  34.337  36.163  1.00  0.00     0.009 A 
ATOM     45  C   UNL A   1      41.952  35.510  34.715  1.00  0.00     0.009 A 
ATOM     46  C   UNL A   1      40.476  35.392  37.078  1.00  0.00     0.001 A 
ATOM     47  C   UNL A   1      42.031  36.552  35.644  1.00  0.00     0.001 A 
ATOM     48  C   UNL A   1      41.285  36.497  36.819  1.00  0.00     0.000 A 
ENDBRANCH  24  43
BRANCH  36  49
ATOM     49  C   UNL A   1      45.093  28.890  33.343  1.00  0.00    -0.014 A 
ATOM     50  C   UNL A   1      46.292  29.376  32.802  1.00  0.00     0.009 A 
ATOM     51  C   UNL A   1      45.144  27.991  34.421  1.00  0.00     0.009 A 
ATOM     52  C   UNL A   1      47.518  28.947  33.314  1.00  0.00     0.001 A 
ATOM     53  C   UNL A   1      46.369  27.592  34.952  1.00  0.00     0.001 A 
ATOM     54  C   UNL A   1      47.555  28.063  34.392  1.00  0.00     0.000 A 
ENDBRANCH  36  49
ENDBRANCH  10  11
ENDBRANCH   3   5
ENDBRANCH   2   3
ENDBRANCH   1   2
BRANCH   1  55
ATOM     55  C   UNL A   1      32.644  31.067  26.900  1.00  0.00     0.275 C 
BRANCH  55  56
ATOM     56  O   UNL A   1      32.408  30.225  25.753  1.00  0.00    -0.458 OA
BRANCH  56  57
ATOM     57  C   UNL A   1      31.847  29.010  26.002  1.00  0.00     0.338 C 
ATOM     58  O   UNL A   1      31.460  28.600  27.084  1.00  0.00    -0.246 OA
BRANCH  57  59
ATOM     59  C   UNL A   1      31.695  28.249  24.734  1.00  0.00     0.060 A 
ATOM     60  C   UNL A   1      30.532  28.430  23.959  1.00  0.00     0.018 A 
ATOM     61  C   UNL A   1      32.734  27.401  24.287  1.00  0.00     0.022 A 
ATOM     62  C   UNL A   1      30.397  27.783  22.729  1.00  0.00     0.027 A 
ATOM     63  C   UNL A   1      32.571  26.725  23.080  1.00  0.00    -0.011 A 
ATOM     64  C   UNL A   1      31.423  26.953  22.321  1.00  0.00     0.045 A 
ATOM     65  C   UNL A   1      33.507  25.817  22.292  1.00  0.00     0.114 C 
ATOM     66  N   UNL A   1      31.518  26.306  21.103  1.00  0.00    -0.325 N 
ATOM     67  C   UNL A   1      32.741  25.672  20.956  1.00  0.00     0.232 C 
ATOM     68  H   UNL A   1      30.804  26.297  20.424  1.00  0.00     0.169 HD
ATOM     69  O   UNL A   1      33.116  25.096  19.950  1.00  0.00    -0.274 OA
BRANCH  65  70
ATOM     70  C   UNL A   1      33.817  24.431  22.913  1.00  0.00     0.010 C 
ATOM     71  C   UNL A   1      32.535  23.616  23.187  1.00  0.00     0.033 C 
ATOM     72  C   UNL A   1      34.582  24.484  24.247  1.00  0.00     0.033 C 
ATOM     73  C   UNL A   1      32.860  22.252  23.807  1.00  0.00     0.160 C 
ATOM     74  C   UNL A   1      34.910  23.063  24.695  1.00  0.00     0.160 C 
ATOM     75  O   UNL A   1      33.697  22.362  24.958  1.00  0.00    -0.381 OA
ENDBRANCH  65  70
ENDBRANCH  57  59
ENDBRANCH  56  57
ENDBRANCH  55  56
ENDBRANCH   1  55
TORSDOF 12
ENDMDL
MODEL 3
REMARK VINA RESULT:     -10.0      5.792     11.530
REMARK SMILES O=C(OCCOC(=O)c1ccc2c(c1)[C@@H](C1CCOCC1)C(=O)N2)c1ccc(-c2c3nc(c(-c4ccccc4)c4ccc([nH]4)c(-c4ccccc4)c4nc(c(-c5ccccc5)c5ccc2[nH]5)C=C4)C=C3)cc1
REMARK SMILES IDX 4 1 3 2 2 3 1 4 25 5 26 6 72 7 27 8 71 9 28 10 29 11 30 12
REMARK SMILES IDX 65 13 31 14 70 15 64 16 66 17 32 18 69 19 63 20 62 21 33 23
REMARK SMILES IDX 55 24 40 25 54 26 41 27 44 28 53 29 67 30 42 31 43 32 52 34
REMARK SMILES IDX 68 35 45 36 34 37 35 38 39 39 36 40 38 41 37 42 56 43 57 44
REMARK SMILES IDX 61 45 58 46 60 47 59 48 46 49 47 50 51 51 48 52 50 53 49 54
REMARK SMILES IDX 5 55 6 56 7 57 8 58 9 59 10 60 14 61 11 62 13 63 12 64 15 65
REMARK SMILES IDX 24 66 22 67 23 69 16 70 17 71 21 72 18 73 20 74 19 75
REMARK H PARENT 66 22 44 33 24 68
REMARK Flexibility Score: inf
ROOT
ATOM      1  C   UNL A   1      38.489  19.691  24.913  1.00  0.00     0.275 C 
ENDROOT
BRANCH   1   2
ATOM      2  O   UNL A   1      39.541  19.196  25.751  1.00  0.00    -0.458 OA
BRANCH   2   3
ATOM      3  C   UNL A   1      40.803  19.651  25.913  1.00  0.00     0.338 C 
ATOM      4  O   UNL A   1      41.731  18.917  25.571  1.00  0.00    -0.246 OA
BRANCH   3   5
ATOM      5  C   UNL A   1      41.161  20.954  26.570  1.00  0.00     0.060 A 
ATOM      6  C   UNL A   1      41.074  21.287  27.929  1.00  0.00     0.016 A 
ATOM      7  C   UNL A   1      41.679  21.929  25.711  1.00  0.00     0.016 A 
ATOM      8  C   UNL A   1      41.576  22.495  28.431  1.00  0.00     0.010 A 
ATOM      9  C   UNL A   1      42.168  23.132  26.211  1.00  0.00     0.010 A 
ATOM     10  C   UNL A   1      42.154  23.423  27.577  1.00  0.00    -0.014 A 
BRANCH  10  11
ATOM     11  C   UNL A   1      42.626  24.744  28.061  1.00  0.00     0.031 A 
ATOM     12  C   UNL A   1      41.616  25.844  28.222  1.00  0.00     0.074 A 
ATOM     13  C   UNL A   1      43.927  24.973  28.329  1.00  0.00     0.049 A 
ATOM     14  N   UNL A   1      41.798  27.087  28.581  1.00  0.00    -0.248 NA
ATOM     15  C   UNL A   1      40.212  25.497  27.938  1.00  0.00     0.031 C 
ATOM     16  C   UNL A   1      44.997  23.979  28.261  1.00  0.00     0.029 A 
ATOM     17  N   UNL A   1      44.580  26.123  28.701  1.00  0.00    -0.354 N 
ATOM     18  C   UNL A   1      40.535  27.658  28.576  1.00  0.00     0.074 A 
ATOM     19  C   UNL A   1      39.613  26.666  28.074  1.00  0.00     0.031 C 
ATOM     20  C   UNL A   1      46.175  24.566  28.532  1.00  0.00     0.029 A 
ATOM     21  C   UNL A   1      45.945  25.979  28.806  1.00  0.00     0.049 A 
ATOM     22  H   UNL A   1      44.115  26.973  28.878  1.00  0.00     0.167 HD
ATOM     23  C   UNL A   1      40.158  28.880  29.016  1.00  0.00     0.031 A 
ATOM     24  C   UNL A   1      46.901  26.881  29.099  1.00  0.00     0.031 A 
ATOM     25  C   UNL A   1      41.074  29.858  29.526  1.00  0.00     0.049 A 
ATOM     26  C   UNL A   1      46.475  28.274  29.478  1.00  0.00     0.074 A 
ATOM     27  C   UNL A   1      40.804  31.115  30.029  1.00  0.00     0.029 A 
ATOM     28  N   UNL A   1      42.448  29.680  29.589  1.00  0.00    -0.354 N 
ATOM     29  N   UNL A   1      45.265  28.775  29.542  1.00  0.00    -0.248 NA
ATOM     30  C   UNL A   1      47.537  29.208  29.874  1.00  0.00     0.031 C 
ATOM     31  C   UNL A   1      42.022  31.720  30.352  1.00  0.00     0.029 A 
ATOM     32  C   UNL A   1      43.045  30.816  30.105  1.00  0.00     0.049 A 
ATOM     33  H   UNL A   1      42.928  28.867  29.310  1.00  0.00     0.167 HD
ATOM     34  C   UNL A   1      45.413  30.060  30.043  1.00  0.00     0.074 A 
ATOM     35  C   UNL A   1      46.831  30.262  30.261  1.00  0.00     0.031 C 
ATOM     36  C   UNL A   1      44.460  30.985  30.318  1.00  0.00     0.031 A 
BRANCH  23  37
ATOM     37  C   UNL A   1      38.690  29.191  28.956  1.00  0.00    -0.014 A 
ATOM     38  C   UNL A   1      38.107  29.720  27.790  1.00  0.00     0.009 A 
ATOM     39  C   UNL A   1      37.888  29.004  30.090  1.00  0.00     0.009 A 
ATOM     40  C   UNL A   1      36.768  30.111  27.782  1.00  0.00     0.001 A 
ATOM     41  C   UNL A   1      36.539  29.364  30.067  1.00  0.00     0.001 A 
ATOM     42  C   UNL A   1      35.985  29.931  28.920  1.00  0.00     0.000 A 
ENDBRANCH  23  37
BRANCH  24  43
ATOM     43  C   UNL A   1      48.340  26.498  29.093  1.00  0.00    -0.014 A 
ATOM     44  C   UNL A   1      49.113  26.615  27.927  1.00  0.00     0.009 A 
ATOM     45  C   UNL A   1      48.944  25.981  30.252  1.00  0.00     0.009 A 
ATOM     46  C   UNL A   1      50.445  26.190  27.911  1.00  0.00     0.001 A 
ATOM     47  C   UNL A   1      50.284  25.581  30.239  1.00  0.00     0.001 A 
ATOM     48  C   UNL A   1      51.030  25.676  29.067  1.00  0.00     0.000 A 
ENDBRANCH  24  43
BRANCH  36  49
ATOM     49  C   UNL A   1      44.914  32.275  30.937  1.00  0.00    -0.014 A 
ATOM     50  C   UNL A   1      45.039  32.416  32.327  1.00  0.00     0.009 A 
ATOM     51  C   UNL A   1      45.279  33.346  30.105  1.00  0.00     0.009 A 
ATOM     52  C   UNL A   1      45.495  33.616  32.872  1.00  0.00     0.001 A 
ATOM     53  C   UNL A   1      45.768  34.531  30.652  1.00  0.00     0.001 A 
ATOM     54  C   UNL A   1      45.867  34.669  32.036  1.00  0.00     0.000 A 
ENDBRANCH  36  49
ENDBRANCH  10  11
ENDBRANCH   3   5
ENDBRANCH   2   3
ENDBRANCH   1   2
BRANCH   1  55
ATOM     55  C   UNL A   1      37.969  21.083  25.297  1.00  0.00     0.275 C 
BRANCH  55  56
ATOM     56  O   UNL A   1      36.991  21.634  24.392  1.00  0.00    -0.458 OA
BRANCH  56  57
ATOM     57  C   UNL A   1      36.405  22.802  24.774  1.00  0.00     0.338 C 
ATOM     58  O   UNL A   1      36.947  23.893  24.846  1.00  0.00    -0.246 OA
BRANCH  57  59
ATOM     59  C   UNL A   1      34.957  22.586  25.030  1.00  0.00     0.060 A 
ATOM     60  C   UNL A   1      34.346  21.402  24.572  1.00  0.00     0.018 A 
ATOM     61  C   UNL A   1      34.220  23.535  25.776  1.00  0.00     0.022 A 
ATOM     62  C   UNL A   1      33.005  21.143  24.863  1.00  0.00     0.027 A 
ATOM     63  C   UNL A   1      32.872  23.288  26.023  1.00  0.00    -0.011 A 
ATOM     64  C   UNL A   1      32.307  22.090  25.585  1.00  0.00     0.045 A 
ATOM     65  C   UNL A   1      31.835  24.050  26.839  1.00  0.00     0.114 C 
ATOM     66  N   UNL A   1      31.011  21.974  26.050  1.00  0.00    -0.325 N 
ATOM     67  C   UNL A   1      30.663  23.040  26.863  1.00  0.00     0.232 C 
ATOM     68  H   UNL A   1      30.408  21.226  25.829  1.00  0.00     0.169 HD
ATOM     69  O   UNL A   1      29.609  23.148  27.467  1.00  0.00    -0.274 OA
BRANCH  65  70
ATOM     70  C   UNL A   1      31.381  25.421  26.280  1.00  0.00     0.010 C 
ATOM     71  C   UNL A   1      30.784  25.304  24.862  1.00  0.00     0.033 C 
ATOM     72  C   UNL A   1      32.497  26.477  26.188  1.00  0.00     0.033 C 
ATOM     73  C   UNL A   1      30.347  26.671  24.323  1.00  0.00     0.160 C 
ATOM     74  C   UNL A   1      31.899  27.800  25.722  1.00  0.00     0.160 C 
ATOM     75  O   UNL A   1      31.385  27.647  24.402  1.00  0.00    -0.381 OA
ENDBRANCH  65  70
ENDBRANCH  57  59
ENDBRANCH  56  57
ENDBRANCH  55  56
ENDBRANCH   1  55
TORSDOF 12
ENDMDL
