MODEL 1
REMARK VINA RESULT:     -11.9      0.000      0.000
REMARK SMILES O=C(OCCOC(=O)c1ccccc1Nc1nc(Cl)nc(Nc2ccc(N3CCOCC3=O)cc2)n1)c1ccc(-c2c3nc(c(-c4ccccc4)c4ccc([nH]4)c(-c4ccccc4)c4nc(c(-c5ccccc5)c5ccc2[nH]5)C=C4)C=C3)cc1
REMARK SMILES IDX 6 1 5 2 4 3 3 4 2 5 1 6 37 7 38 8 84 9 39 10 83 11 40 12
REMARK SMILES IDX 41 13 42 14 77 15 43 16 82 17 76 18 78 19 44 20 81 21 75 22
REMARK SMILES IDX 74 23 45 25 67 26 52 27 66 28 53 29 56 30 65 31 79 32 54 33
REMARK SMILES IDX 55 34 64 36 80 37 57 38 46 39 47 40 51 41 48 42 50 43 49 44
REMARK SMILES IDX 68 45 69 46 73 47 70 48 72 49 71 50 58 51 59 52 63 53 60 54
REMARK SMILES IDX 62 55 61 56 7 57 8 58 9 59 10 60 14 61 11 62 13 63 12 64
REMARK SMILES IDX 15 65 16 67 17 68 36 69 18 70 21 71 19 72 20 73 22 74 23 76
REMARK SMILES IDX 24 77 35 78 25 79 34 80 26 81 27 82 28 83 32 84 29 85 31 86
REMARK SMILES IDX 33 87 30 88
REMARK H PARENT 78 24 56 35 15 66 22 75
REMARK Flexibility Score: inf
ROOT
ATOM      1  O   UNL A   1      41.944  19.733  25.954  1.00  0.00    -0.458 OA
ENDROOT
BRANCH   1   2
ATOM      2  C   UNL A   1      42.385  18.442  26.405  1.00  0.00     0.275 C 
BRANCH   2   3
ATOM      3  C   UNL A   1      43.834  18.136  26.015  1.00  0.00     0.275 C 
BRANCH   3   4
ATOM      4  O   UNL A   1      44.185  18.580  24.693  1.00  0.00    -0.458 OA
BRANCH   4   5
ATOM      5  C   UNL A   1      45.094  19.483  24.263  1.00  0.00     0.338 C 
ATOM      6  O   UNL A   1      46.058  19.066  23.620  1.00  0.00    -0.246 OA
BRANCH   5   7
ATOM      7  C   UNL A   1      45.070  20.954  24.570  1.00  0.00     0.060 A 
ATOM      8  C   UNL A   1      44.769  21.991  23.683  1.00  0.00     0.016 A 
ATOM      9  C   UNL A   1      45.391  21.313  25.898  1.00  0.00     0.016 A 
ATOM     10  C   UNL A   1      44.793  23.328  24.094  1.00  0.00     0.010 A 
ATOM     11  C   UNL A   1      45.412  22.647  26.319  1.00  0.00     0.010 A 
ATOM     12  C   UNL A   1      45.145  23.663  25.402  1.00  0.00    -0.014 A 
BRANCH  12  13
ATOM     13  C   UNL A   1      45.412  25.082  25.724  1.00  0.00     0.031 A 
ATOM     14  C   UNL A   1      44.317  25.874  26.365  1.00  0.00     0.074 A 
ATOM     15  C   UNL A   1      46.621  25.625  25.510  1.00  0.00     0.049 A 
ATOM     16  N   UNL A   1      44.361  27.066  26.894  1.00  0.00    -0.248 NA
ATOM     17  C   UNL A   1      42.988  25.240  26.401  1.00  0.00     0.031 C 
ATOM     18  C   UNL A   1      47.730  24.932  24.873  1.00  0.00     0.029 A 
ATOM     19  N   UNL A   1      47.138  26.851  25.836  1.00  0.00    -0.354 N 
ATOM     20  C   UNL A   1      43.059  27.347  27.281  1.00  0.00     0.074 A 
ATOM     21  C   UNL A   1      42.251  26.200  26.933  1.00  0.00     0.031 C 
ATOM     22  C   UNL A   1      48.826  25.706  24.917  1.00  0.00     0.029 A 
ATOM     23  C   UNL A   1      48.490  26.949  25.597  1.00  0.00     0.049 A 
ATOM     24  H   UNL A   1      46.597  27.586  26.204  1.00  0.00     0.167 HD
ATOM     25  C   UNL A   1      42.581  28.476  27.851  1.00  0.00     0.031 A 
ATOM     26  C   UNL A   1      49.362  27.912  25.955  1.00  0.00     0.031 A 
ATOM     27  C   UNL A   1      43.399  29.615  28.164  1.00  0.00     0.049 A 
ATOM     28  C   UNL A   1      48.829  29.106  26.699  1.00  0.00     0.074 A 
ATOM     29  C   UNL A   1      43.029  30.825  28.720  1.00  0.00     0.029 A 
ATOM     30  N   UNL A   1      44.768  29.678  27.938  1.00  0.00    -0.354 N 
ATOM     31  N   UNL A   1      47.604  29.347  27.105  1.00  0.00    -0.248 NA
ATOM     32  C   UNL A   1      49.796  30.157  27.040  1.00  0.00     0.031 C 
ATOM     33  C   UNL A   1      44.167  31.638  28.786  1.00  0.00     0.029 A 
ATOM     34  C   UNL A   1      45.256  30.911  28.328  1.00  0.00     0.049 A 
ATOM     35  H   UNL A   1      45.312  28.951  27.557  1.00  0.00     0.167 HD
ATOM     36  C   UNL A   1      47.652  30.577  27.744  1.00  0.00     0.074 A 
ATOM     37  C   UNL A   1      49.039  31.001  27.725  1.00  0.00     0.031 C 
ATOM     38  C   UNL A   1      46.640  31.309  28.273  1.00  0.00     0.031 A 
BRANCH  25  39
ATOM     39  C   UNL A   1      41.095  28.543  28.062  1.00  0.00    -0.014 A 
ATOM     40  C   UNL A   1      40.232  29.092  27.099  1.00  0.00     0.009 A 
ATOM     41  C   UNL A   1      40.560  28.111  29.285  1.00  0.00     0.009 A 
ATOM     42  C   UNL A   1      38.873  29.256  27.381  1.00  0.00     0.001 A 
ATOM     43  C   UNL A   1      39.196  28.246  29.551  1.00  0.00     0.001 A 
ATOM     44  C   UNL A   1      38.358  28.832  28.605  1.00  0.00     0.000 A 
ENDBRANCH  25  39
BRANCH  26  45
ATOM     45  C   UNL A   1      50.822  27.746  25.713  1.00  0.00    -0.014 A 
ATOM     46  C   UNL A   1      51.411  28.307  24.567  1.00  0.00     0.009 A 
ATOM     47  C   UNL A   1      51.641  27.040  26.608  1.00  0.00     0.009 A 
ATOM     48  C   UNL A   1      52.774  28.141  24.308  1.00  0.00     0.001 A 
ATOM     49  C   UNL A   1      53.011  26.907  26.366  1.00  0.00     0.001 A 
ATOM     50  C   UNL A   1      53.574  27.450  25.212  1.00  0.00     0.000 A 
ENDBRANCH  26  45
BRANCH  38  51
ATOM     51  C   UNL A   1      47.011  32.647  28.848  1.00  0.00    -0.014 A 
ATOM     52  C   UNL A   1      47.008  33.802  28.049  1.00  0.00     0.009 A 
ATOM     53  C   UNL A   1      47.351  32.755  30.204  1.00  0.00     0.009 A 
ATOM     54  C   UNL A   1      47.390  35.031  28.585  1.00  0.00     0.001 A 
ATOM     55  C   UNL A   1      47.701  33.992  30.745  1.00  0.00     0.001 A 
ATOM     56  C   UNL A   1      47.735  35.125  29.933  1.00  0.00     0.000 A 
ENDBRANCH  38  51
ENDBRANCH  12  13
ENDBRANCH   5   7
ENDBRANCH   4   5
ENDBRANCH   3   4
ENDBRANCH   2   3
ENDBRANCH   1   2
BRANCH   1  57
ATOM     57  C   UNL A   1      40.597  19.933  26.005  1.00  0.00     0.340 C 
ATOM     58  O   UNL A   1      39.735  19.121  25.715  1.00  0.00    -0.246 OA
BRANCH  57  59
ATOM     59  C   UNL A   1      40.307  21.259  26.595  1.00  0.00     0.083 A 
ATOM     60  C   UNL A   1      41.215  21.723  27.562  1.00  0.00     0.018 A 
ATOM     61  C   UNL A   1      39.198  22.039  26.206  1.00  0.00     0.055 A 
ATOM     62  C   UNL A   1      41.033  22.970  28.151  1.00  0.00     0.001 A 
ATOM     63  C   UNL A   1      38.975  23.237  26.902  1.00  0.00     0.027 A 
ATOM     64  C   UNL A   1      39.904  23.718  27.833  1.00  0.00     0.002 A 
BRANCH  61  65
ATOM     65  N   UNL A   1      38.324  21.590  25.186  1.00  0.00    -0.323 N 
ATOM     66  H   UNL A   1      38.742  21.396  24.316  1.00  0.00     0.170 HD
BRANCH  65  67
ATOM     67  C   UNL A   1      36.947  21.386  25.260  1.00  0.00     0.233 A 
ATOM     68  N   UNL A   1      36.500  20.198  24.890  1.00  0.00    -0.182 NA
ATOM     69  N   UNL A   1      36.188  22.341  25.788  1.00  0.00    -0.176 NA
ATOM     70  C   UNL A   1      35.189  20.071  25.007  1.00  0.00     0.228 A 
ATOM     71  C   UNL A   1      34.892  22.071  25.921  1.00  0.00     0.233 A 
ATOM     72  Cl  UNL A   1      34.518  18.593  24.477  1.00  0.00    -0.041 Cl
ATOM     73  N   UNL A   1      34.338  20.944  25.509  1.00  0.00    -0.182 NA
BRANCH  71  74
ATOM     74  N   UNL A   1      34.120  23.083  26.488  1.00  0.00    -0.324 N 
ATOM     75  H   UNL A   1      33.997  23.006  27.462  1.00  0.00     0.170 HD
BRANCH  74  76
ATOM     76  C   UNL A   1      33.491  24.188  25.906  1.00  0.00     0.041 A 
ATOM     77  C   UNL A   1      32.241  24.584  26.395  1.00  0.00     0.028 A 
ATOM     78  C   UNL A   1      34.102  25.003  24.952  1.00  0.00     0.028 A 
ATOM     79  C   UNL A   1      31.651  25.789  25.988  1.00  0.00     0.028 A 
ATOM     80  C   UNL A   1      33.501  26.188  24.516  1.00  0.00     0.028 A 
ATOM     81  C   UNL A   1      32.280  26.611  25.048  1.00  0.00     0.044 A 
BRANCH  81  82
ATOM     82  N   UNL A   1      31.712  27.867  24.674  1.00  0.00    -0.308 N 
ATOM     83  C   UNL A   1      30.752  27.869  23.561  1.00  0.00     0.154 C 
ATOM     84  C   UNL A   1      31.827  28.993  25.502  1.00  0.00     0.253 C 
ATOM     85  C   UNL A   1      30.466  29.260  23.012  1.00  0.00     0.183 C 
ATOM     86  C   UNL A   1      31.108  30.258  25.010  1.00  0.00     0.260 C 
ATOM     87  O   UNL A   1      32.534  29.056  26.511  1.00  0.00    -0.272 OA
ATOM     88  O   UNL A   1      30.049  30.106  24.079  1.00  0.00    -0.370 OA
ENDBRANCH  81  82
ENDBRANCH  74  76
ENDBRANCH  71  74
ENDBRANCH  65  67
ENDBRANCH  61  65
ENDBRANCH  57  59
ENDBRANCH   1  57
TORSDOF 16
ENDMDL
MODEL 2
REMARK VINA RESULT:     -11.7      4.606      6.667
REMARK SMILES O=C(OCCOC(=O)c1ccccc1Nc1nc(Cl)nc(Nc2ccc(N3CCOCC3=O)cc2)n1)c1ccc(-c2c3nc(c(-c4ccccc4)c4ccc([nH]4)c(-c4ccccc4)c4nc(c(-c5ccccc5)c5ccc2[nH]5)C=C4)C=C3)cc1
REMARK SMILES IDX 6 1 5 2 4 3 3 4 2 5 1 6 37 7 38 8 84 9 39 10 83 11 40 12
REMARK SMILES IDX 41 13 42 14 77 15 43 16 82 17 76 18 78 19 44 20 81 21 75 22
REMARK SMILES IDX 74 23 45 25 67 26 52 27 66 28 53 29 56 30 65 31 79 32 54 33
REMARK SMILES IDX 55 34 64 36 80 37 57 38 46 39 47 40 51 41 48 42 50 43 49 44
REMARK SMILES IDX 68 45 69 46 73 47 70 48 72 49 71 50 58 51 59 52 63 53 60 54
REMARK SMILES IDX 62 55 61 56 7 57 8 58 9 59 10 60 14 61 11 62 13 63 12 64
REMARK SMILES IDX 15 65 16 67 17 68 36 69 18 70 21 71 19 72 20 73 22 74 23 76
REMARK SMILES IDX 24 77 35 78 25 79 34 80 26 81 27 82 28 83 32 84 29 85 31 86
REMARK SMILES IDX 33 87 30 88
REMARK H PARENT 78 24 56 35 15 66 22 75
REMARK Flexibility Score: inf
ROOT
ATOM      1  O   UNL A   1      39.937  20.546  26.694  1.00  0.00    -0.458 OA
ENDROOT
BRANCH   1   2
ATOM      2  C   UNL A   1      41.235  20.073  26.297  1.00  0.00     0.275 C 
BRANCH   2   3
ATOM      3  C   UNL A   1      42.379  20.906  26.882  1.00  0.00     0.275 C 
BRANCH   3   4
ATOM      4  O   UNL A   1      43.145  21.613  25.892  1.00  0.00    -0.458 OA
BRANCH   4   5
ATOM      5  C   UNL A   1      43.135  22.910  25.509  1.00  0.00     0.338 C 
ATOM      6  O   UNL A   1      43.591  23.184  24.398  1.00  0.00    -0.246 OA
BRANCH   5   7
ATOM      7  C   UNL A   1      42.682  24.063  26.360  1.00  0.00     0.060 A 
ATOM      8  C   UNL A   1      43.031  25.407  26.206  1.00  0.00     0.016 A 
ATOM      9  C   UNL A   1      41.814  23.739  27.426  1.00  0.00     0.016 A 
ATOM     10  C   UNL A   1      42.546  26.388  27.078  1.00  0.00     0.010 A 
ATOM     11  C   UNL A   1      41.320  24.714  28.299  1.00  0.00     0.010 A 
ATOM     12  C   UNL A   1      41.716  26.042  28.145  1.00  0.00    -0.014 A 
BRANCH  12  13
ATOM     13  C   UNL A   1      41.440  27.055  29.187  1.00  0.00     0.031 A 
ATOM     14  C   UNL A   1      40.161  27.822  29.098  1.00  0.00     0.074 A 
ATOM     15  C   UNL A   1      42.281  27.234  30.219  1.00  0.00     0.049 A 
ATOM     16  N   UNL A   1      39.617  28.627  29.971  1.00  0.00    -0.248 NA
ATOM     17  C   UNL A   1      39.396  27.674  27.848  1.00  0.00     0.031 C 
ATOM     18  C   UNL A   1      43.554  26.545  30.368  1.00  0.00     0.029 A 
ATOM     19  N   UNL A   1      42.183  28.001  31.350  1.00  0.00    -0.354 N 
ATOM     20  C   UNL A   1      38.474  29.119  29.358  1.00  0.00     0.074 A 
ATOM     21  C   UNL A   1      38.398  28.519  28.045  1.00  0.00     0.031 C 
ATOM     22  C   UNL A   1      44.093  26.855  31.557  1.00  0.00     0.029 A 
ATOM     23  C   UNL A   1      43.191  27.761  32.256  1.00  0.00     0.049 A 
ATOM     24  H   UNL A   1      41.464  28.657  31.498  1.00  0.00     0.167 HD
ATOM     25  C   UNL A   1      37.584  30.014  29.843  1.00  0.00     0.031 A 
ATOM     26  C   UNL A   1      43.323  28.179  33.529  1.00  0.00     0.031 A 
ATOM     27  C   UNL A   1      37.695  30.618  31.142  1.00  0.00     0.049 A 
ATOM     28  C   UNL A   1      42.256  29.078  34.093  1.00  0.00     0.074 A 
ATOM     29  C   UNL A   1      36.872  31.555  31.737  1.00  0.00     0.029 A 
ATOM     30  N   UNL A   1      38.708  30.338  32.050  1.00  0.00    -0.354 N 
ATOM     31  N   UNL A   1      41.152  29.504  33.525  1.00  0.00    -0.248 NA
ATOM     32  C   UNL A   1      42.449  29.548  35.470  1.00  0.00     0.031 C 
ATOM     33  C   UNL A   1      37.415  31.878  32.987  1.00  0.00     0.029 A 
ATOM     34  C   UNL A   1      38.541  31.095  33.194  1.00  0.00     0.049 A 
ATOM     35  H   UNL A   1      39.438  29.694  31.900  1.00  0.00     0.167 HD
ATOM     36  C   UNL A   1      40.521  30.296  34.473  1.00  0.00     0.074 A 
ATOM     37  C   UNL A   1      41.336  30.239  35.671  1.00  0.00     0.031 C 
ATOM     38  C   UNL A   1      39.386  31.031  34.359  1.00  0.00     0.031 A 
BRANCH  25  39
ATOM     39  C   UNL A   1      36.493  30.449  28.907  1.00  0.00    -0.014 A 
ATOM     40  C   UNL A   1      36.355  31.785  28.498  1.00  0.00     0.009 A 
ATOM     41  C   UNL A   1      35.541  29.508  28.486  1.00  0.00     0.009 A 
ATOM     42  C   UNL A   1      35.254  32.178  27.731  1.00  0.00     0.001 A 
ATOM     43  C   UNL A   1      34.460  29.898  27.692  1.00  0.00     0.001 A 
ATOM     44  C   UNL A   1      34.310  31.235  27.329  1.00  0.00     0.000 A 
ENDBRANCH  25  39
BRANCH  26  45
ATOM     45  C   UNL A   1      44.436  27.679  34.384  1.00  0.00    -0.014 A 
ATOM     46  C   UNL A   1      44.271  26.501  35.132  1.00  0.00     0.009 A 
ATOM     47  C   UNL A   1      45.664  28.355  34.465  1.00  0.00     0.009 A 
ATOM     48  C   UNL A   1      45.292  26.028  35.960  1.00  0.00     0.001 A 
ATOM     49  C   UNL A   1      46.698  27.860  35.265  1.00  0.00     0.001 A 
ATOM     50  C   UNL A   1      46.507  26.703  36.018  1.00  0.00     0.000 A 
ENDBRANCH  26  45
BRANCH  38  51
ATOM     51  C   UNL A   1      38.990  31.841  35.561  1.00  0.00    -0.014 A 
ATOM     52  C   UNL A   1      39.396  33.178  35.696  1.00  0.00     0.009 A 
ATOM     53  C   UNL A   1      38.191  31.265  36.560  1.00  0.00     0.009 A 
ATOM     54  C   UNL A   1      39.053  33.908  36.834  1.00  0.00     0.001 A 
ATOM     55  C   UNL A   1      37.822  32.008  37.682  1.00  0.00     0.001 A 
ATOM     56  C   UNL A   1      38.266  33.323  37.824  1.00  0.00     0.000 A 
ENDBRANCH  38  51
ENDBRANCH  12  13
ENDBRANCH   5   7
ENDBRANCH   4   5
ENDBRANCH   3   4
ENDBRANCH   2   3
ENDBRANCH   1   2
BRANCH   1  57
ATOM     57  C   UNL A   1      38.973  20.463  25.735  1.00  0.00     0.340 C 
ATOM     58  O   UNL A   1      38.760  19.509  25.006  1.00  0.00    -0.246 OA
BRANCH  57  59
ATOM     59  C   UNL A   1      38.114  21.667  25.779  1.00  0.00     0.083 A 
ATOM     60  C   UNL A   1      38.772  22.896  25.957  1.00  0.00     0.018 A 
ATOM     61  C   UNL A   1      36.713  21.608  25.633  1.00  0.00     0.055 A 
ATOM     62  C   UNL A   1      38.043  24.081  25.986  1.00  0.00     0.001 A 
ATOM     63  C   UNL A   1      35.995  22.804  25.786  1.00  0.00     0.027 A 
ATOM     64  C   UNL A   1      36.655  24.033  25.919  1.00  0.00     0.002 A 
BRANCH  61  65
ATOM     65  N   UNL A   1      36.065  20.371  25.392  1.00  0.00    -0.323 N 
ATOM     66  H   UNL A   1      36.633  19.569  25.456  1.00  0.00     0.170 HD
BRANCH  65  67
ATOM     67  C   UNL A   1      34.725  20.146  25.079  1.00  0.00     0.233 A 
ATOM     68  N   UNL A   1      34.441  19.014  24.460  1.00  0.00    -0.182 NA
ATOM     69  N   UNL A   1      33.816  21.015  25.509  1.00  0.00    -0.176 NA
ATOM     70  C   UNL A   1      33.151  18.860  24.215  1.00  0.00     0.228 A 
ATOM     71  C   UNL A   1      32.543  20.718  25.266  1.00  0.00     0.233 A 
ATOM     72  Cl  UNL A   1      32.702  17.460  23.346  1.00  0.00    -0.041 Cl
ATOM     73  N   UNL A   1      32.162  19.650  24.585  1.00  0.00    -0.182 NA
BRANCH  71  74
ATOM     74  N   UNL A   1      31.608  21.637  25.736  1.00  0.00    -0.324 N 
ATOM     75  H   UNL A   1      31.177  21.385  26.585  1.00  0.00     0.170 HD
BRANCH  74  76
ATOM     76  C   UNL A   1      31.177  22.856  25.204  1.00  0.00     0.041 A 
ATOM     77  C   UNL A   1      31.111  23.972  26.047  1.00  0.00     0.028 A 
ATOM     78  C   UNL A   1      30.937  23.057  23.844  1.00  0.00     0.028 A 
ATOM     79  C   UNL A   1      30.875  25.256  25.535  1.00  0.00     0.028 A 
ATOM     80  C   UNL A   1      30.666  24.330  23.334  1.00  0.00     0.028 A 
ATOM     81  C   UNL A   1      30.658  25.451  24.168  1.00  0.00     0.044 A 
BRANCH  81  82
ATOM     82  N   UNL A   1      30.475  26.763  23.633  1.00  0.00    -0.308 N 
ATOM     83  C   UNL A   1      31.647  27.417  23.034  1.00  0.00     0.154 C 
ATOM     84  C   UNL A   1      29.192  27.287  23.417  1.00  0.00     0.253 C 
ATOM     85  C   UNL A   1      31.455  28.910  22.807  1.00  0.00     0.183 C 
ATOM     86  C   UNL A   1      29.143  28.681  22.770  1.00  0.00     0.260 C 
ATOM     87  O   UNL A   1      28.143  26.763  23.798  1.00  0.00    -0.272 OA
ATOM     88  O   UNL A   1      30.275  29.118  22.037  1.00  0.00    -0.370 OA
ENDBRANCH  81  82
ENDBRANCH  74  76
ENDBRANCH  71  74
ENDBRANCH  65  67
ENDBRANCH  61  65
ENDBRANCH  57  59
ENDBRANCH   1  57
TORSDOF 16
ENDMDL
MODEL 3
REMARK VINA RESULT:     -11.7      4.767      8.688
REMARK SMILES O=C(OCCOC(=O)c1ccccc1Nc1nc(Cl)nc(Nc2ccc(N3CCOCC3=O)cc2)n1)c1ccc(-c2c3nc(c(-c4ccccc4)c4ccc([nH]4)c(-c4ccccc4)c4nc(c(-c5ccccc5)c5ccc2[nH]5)C=C4)C=C3)cc1
REMARK SMILES IDX 6 1 5 2 4 3 3 4 2 5 1 6 37 7 38 8 84 9 39 10 83 11 40 12
REMARK SMILES IDX 41 13 42 14 77 15 43 16 82 17 76 18 78 19 44 20 81 21 75 22
REMARK SMILES IDX 74 23 45 25 67 26 52 27 66 28 53 29 56 30 65 31 79 32 54 33
REMARK SMILES IDX 55 34 64 36 80 37 57 38 46 39 47 40 51 41 48 42 50 43 49 44
REMARK SMILES IDX 68 45 69 46 73 47 70 48 72 49 71 50 58 51 59 52 63 53 60 54
REMARK SMILES IDX 62 55 61 56 7 57 8 58 9 59 10 60 14 61 11 62 13 63 12 64
REMARK SMILES IDX 15 65 16 67 17 68 36 69 18 70 21 71 19 72 20 73 22 74 23 76
REMARK SMILES IDX 24 77 35 78 25 79 34 80 26 81 27 82 28 83 32 84 29 85 31 86
REMARK SMILES IDX 33 87 30 88
REMARK H PARENT 78 24 56 35 15 66 22 75
REMARK Flexibility Score: inf
ROOT
ATOM      1  O   UNL A   1      45.666  22.122  25.277  1.00  0.00    -0.458 OA
ENDROOT
BRANCH   1   2
ATOM      2  C   UNL A   1      45.977  23.244  26.119  1.00  0.00     0.275 C 
BRANCH   2   3
ATOM      3  C   UNL A   1      46.732  24.353  25.381  1.00  0.00     0.275 C 
BRANCH   3   4
ATOM      4  O   UNL A   1      45.873  25.306  24.733  1.00  0.00    -0.458 OA
BRANCH   4   5
ATOM      5  C   UNL A   1      45.700  26.633  24.928  1.00  0.00     0.338 C 
ATOM      6  O   UNL A   1      46.365  27.406  24.238  1.00  0.00    -0.246 OA
BRANCH   5   7
ATOM      7  C   UNL A   1      44.813  27.249  25.973  1.00  0.00     0.060 A 
ATOM      8  C   UNL A   1      44.793  28.588  26.373  1.00  0.00     0.016 A 
ATOM      9  C   UNL A   1      43.914  26.370  26.616  1.00  0.00     0.016 A 
ATOM     10  C   UNL A   1      43.922  29.035  27.372  1.00  0.00     0.010 A 
ATOM     11  C   UNL A   1      43.036  26.809  27.612  1.00  0.00     0.010 A 
ATOM     12  C   UNL A   1      43.064  28.143  28.018  1.00  0.00    -0.014 A 
BRANCH  12  13
ATOM     13  C   UNL A   1      42.356  28.595  29.235  1.00  0.00     0.031 A 
ATOM     14  C   UNL A   1      43.109  28.595  30.526  1.00  0.00     0.074 A 
ATOM     15  C   UNL A   1      41.095  29.054  29.171  1.00  0.00     0.049 A 
ATOM     16  N   UNL A   1      42.769  29.102  31.680  1.00  0.00    -0.248 NA
ATOM     17  C   UNL A   1      44.417  27.919  30.519  1.00  0.00     0.031 C 
ATOM     18  C   UNL A   1      40.287  29.067  27.962  1.00  0.00     0.029 A 
ATOM     19  N   UNL A   1      40.290  29.635  30.116  1.00  0.00    -0.354 N 
ATOM     20  C   UNL A   1      43.797  28.765  32.548  1.00  0.00     0.074 A 
ATOM     21  C   UNL A   1      44.773  28.017  31.788  1.00  0.00     0.031 C 
ATOM     22  C   UNL A   1      39.126  29.694  28.206  1.00  0.00     0.029 A 
ATOM     23  C   UNL A   1      39.119  30.135  29.595  1.00  0.00     0.049 A 
ATOM     24  H   UNL A   1      40.527  29.688  31.070  1.00  0.00     0.167 HD
ATOM     25  C   UNL A   1      43.899  29.034  33.869  1.00  0.00     0.031 A 
ATOM     26  C   UNL A   1      38.186  30.919  30.168  1.00  0.00     0.031 A 
ATOM     27  C   UNL A   1      42.902  29.757  34.610  1.00  0.00     0.049 A 
ATOM     28  C   UNL A   1      38.379  31.311  31.608  1.00  0.00     0.074 A 
ATOM     29  C   UNL A   1      42.878  30.072  35.955  1.00  0.00     0.029 A 
ATOM     30  N   UNL A   1      41.740  30.276  34.055  1.00  0.00    -0.354 N 
ATOM     31  N   UNL A   1      39.377  31.028  32.413  1.00  0.00    -0.248 NA
ATOM     32  C   UNL A   1      37.326  32.132  32.216  1.00  0.00     0.031 C 
ATOM     33  C   UNL A   1      41.678  30.742  36.223  1.00  0.00     0.029 A 
ATOM     34  C   UNL A   1      40.984  30.896  35.032  1.00  0.00     0.049 A 
ATOM     35  H   UNL A   1      41.492  30.213  33.104  1.00  0.00     0.167 HD
ATOM     36  C   UNL A   1      39.068  31.632  33.623  1.00  0.00     0.074 A 
ATOM     37  C   UNL A   1      37.823  32.347  33.425  1.00  0.00     0.031 C 
ATOM     38  C   UNL A   1      39.736  31.578  34.803  1.00  0.00     0.031 A 
BRANCH  25  39
ATOM     39  C   UNL A   1      45.081  28.445  34.585  1.00  0.00    -0.014 A 
ATOM     40  C   UNL A   1      45.055  27.145  35.115  1.00  0.00     0.009 A 
ATOM     41  C   UNL A   1      46.218  29.240  34.793  1.00  0.00     0.009 A 
ATOM     42  C   UNL A   1      46.123  26.675  35.885  1.00  0.00     0.001 A 
ATOM     43  C   UNL A   1      47.297  28.757  35.535  1.00  0.00     0.001 A 
ATOM     44  C   UNL A   1      47.241  27.481  36.094  1.00  0.00     0.000 A 
ENDBRANCH  25  39
BRANCH  26  45
ATOM     45  C   UNL A   1      37.054  31.467  29.369  1.00  0.00    -0.014 A 
ATOM     46  C   UNL A   1      37.130  32.770  28.848  1.00  0.00     0.009 A 
ATOM     47  C   UNL A   1      35.899  30.710  29.113  1.00  0.00     0.009 A 
ATOM     48  C   UNL A   1      36.070  33.312  28.118  1.00  0.00     0.001 A 
ATOM     49  C   UNL A   1      34.855  31.241  28.350  1.00  0.00     0.001 A 
ATOM     50  C   UNL A   1      34.938  32.544  27.862  1.00  0.00     0.000 A 
ENDBRANCH  26  45
BRANCH  38  51
ATOM     51  C   UNL A   1      39.105  32.298  35.962  1.00  0.00    -0.014 A 
ATOM     52  C   UNL A   1      39.361  33.659  36.192  1.00  0.00     0.009 A 
ATOM     53  C   UNL A   1      38.235  31.612  36.822  1.00  0.00     0.009 A 
ATOM     54  C   UNL A   1      38.799  34.307  37.292  1.00  0.00     0.001 A 
ATOM     55  C   UNL A   1      37.649  32.270  37.903  1.00  0.00     0.001 A 
ATOM     56  C   UNL A   1      37.943  33.613  38.145  1.00  0.00     0.000 A 
ENDBRANCH  38  51
ENDBRANCH  12  13
ENDBRANCH   5   7
ENDBRANCH   4   5
ENDBRANCH   3   4
ENDBRANCH   2   3
ENDBRANCH   1   2
BRANCH   1  57
ATOM     57  C   UNL A   1      44.364  22.037  24.884  1.00  0.00     0.340 C 
ATOM     58  O   UNL A   1      43.804  22.763  24.081  1.00  0.00    -0.246 OA
BRANCH  57  59
ATOM     59  C   UNL A   1      43.735  20.837  25.481  1.00  0.00     0.083 A 
ATOM     60  C   UNL A   1      44.135  19.598  24.954  1.00  0.00     0.018 A 
ATOM     61  C   UNL A   1      42.799  20.912  26.533  1.00  0.00     0.055 A 
ATOM     62  C   UNL A   1      43.613  18.417  25.473  1.00  0.00     0.001 A 
ATOM     63  C   UNL A   1      42.201  19.714  26.953  1.00  0.00     0.027 A 
ATOM     64  C   UNL A   1      42.634  18.476  26.459  1.00  0.00     0.002 A 
BRANCH  61  65
ATOM     65  N   UNL A   1      42.449  22.163  27.098  1.00  0.00    -0.323 N 
ATOM     66  H   UNL A   1      43.180  22.657  27.536  1.00  0.00     0.170 HD
BRANCH  65  67
ATOM     67  C   UNL A   1      41.201  22.784  27.109  1.00  0.00     0.233 A 
ATOM     68  N   UNL A   1      41.083  23.870  27.854  1.00  0.00    -0.182 NA
ATOM     69  N   UNL A   1      40.251  22.321  26.303  1.00  0.00    -0.176 NA
ATOM     70  C   UNL A   1      39.880  24.416  27.799  1.00  0.00     0.228 A 
ATOM     71  C   UNL A   1      39.105  22.996  26.279  1.00  0.00     0.233 A 
ATOM     72  Cl  UNL A   1      39.616  25.778  28.793  1.00  0.00    -0.041 Cl
ATOM     73  N   UNL A   1      38.863  24.046  27.045  1.00  0.00    -0.182 NA
BRANCH  71  74
ATOM     74  N   UNL A   1      38.129  22.499  25.418  1.00  0.00    -0.324 N 
ATOM     75  H   UNL A   1      38.279  21.571  25.122  1.00  0.00     0.170 HD
BRANCH  74  76
ATOM     76  C   UNL A   1      36.975  23.095  24.903  1.00  0.00     0.041 A 
ATOM     77  C   UNL A   1      36.553  22.742  23.615  1.00  0.00     0.028 A 
ATOM     78  C   UNL A   1      36.141  23.925  25.653  1.00  0.00     0.028 A 
ATOM     79  C   UNL A   1      35.307  23.156  23.122  1.00  0.00     0.028 A 
ATOM     80  C   UNL A   1      34.914  24.369  25.151  1.00  0.00     0.028 A 
ATOM     81  C   UNL A   1      34.468  23.968  23.889  1.00  0.00     0.044 A 
BRANCH  81  82
ATOM     82  N   UNL A   1      33.174  24.344  23.414  1.00  0.00    -0.308 N 
ATOM     83  C   UNL A   1      32.009  23.819  24.141  1.00  0.00     0.154 C 
ATOM     84  C   UNL A   1      33.013  25.391  22.494  1.00  0.00     0.253 C 
ATOM     85  C   UNL A   1      30.700  23.980  23.381  1.00  0.00     0.183 C 
ATOM     86  C   UNL A   1      31.561  25.735  22.125  1.00  0.00     0.260 C 
ATOM     87  O   UNL A   1      33.935  25.959  21.904  1.00  0.00    -0.272 OA
ATOM     88  O   UNL A   1      30.533  25.348  23.022  1.00  0.00    -0.370 OA
ENDBRANCH  81  82
ENDBRANCH  74  76
ENDBRANCH  71  74
ENDBRANCH  65  67
ENDBRANCH  61  65
ENDBRANCH  57  59
ENDBRANCH   1  57
TORSDOF 16
ENDMDL
