MODEL 1
REMARK VINA RESULT:      -9.8      0.000      0.000
REMARK SMILES CC(C)CCc1cc2c(cc1Cl)C=C(C(=O)OCCOC(=O)c1ccc(-c3c4nc(c(-c5ccccc5)c5ccc([nH]5)c(-c5ccccc5)c5nc(c(-c6ccccc6)c6ccc3[nH]6)C=C5)C=C4)cc1)[C@@H](C(F)(F)F)O2
REMARK SMILES IDX 18 1 17 2 15 3 16 4 14 5 6 6 7 7 11 8 8 9 10 10 12 11 9 12
REMARK SMILES IDX 76 13 13 14 71 15 5 16 4 17 2 18 1 19 3 20 72 21 73 22 74 23
REMARK SMILES IDX 75 24 19 25 20 26 21 27 22 28 23 29 24 30 70 31 25 32 69 33
REMARK SMILES IDX 26 34 27 35 28 36 63 37 29 38 68 39 62 40 64 41 30 42 67 43
REMARK SMILES IDX 61 44 60 45 31 47 53 48 38 49 52 50 39 51 42 52 51 53 65 54
REMARK SMILES IDX 40 55 41 56 50 58 66 59 43 60 32 61 33 62 37 63 34 64 36 65
REMARK SMILES IDX 35 66 54 67 55 68 59 69 56 70 58 71 57 72 44 73 45 74 49 75
REMARK SMILES IDX 46 76 48 77 47 78
REMARK H PARENT 64 46 42 57
REMARK Flexibility Score: inf
ROOT
ATOM      1  C   UNL A   1      41.175  19.226  27.029  1.00  0.00     0.275 C 
ENDROOT
BRANCH   1   2
ATOM      2  O   UNL A   1      42.546  19.683  26.989  1.00  0.00    -0.459 OA
BRANCH   2   3
ATOM      3  C   UNL A   1      43.069  19.876  25.755  1.00  0.00     0.338 C 
ATOM      4  O   UNL A   1      42.887  19.179  24.769  1.00  0.00    -0.246 OA
BRANCH   3   5
ATOM      5  C   UNL A   1      43.868  21.117  25.726  1.00  0.00     0.087 C 
ATOM      6  C   UNL A   1      45.421  25.870  25.128  1.00  0.00    -0.026 A 
ATOM      7  C   UNL A   1      46.071  24.641  25.374  1.00  0.00     0.052 A 
ATOM      8  C   UNL A   1      44.018  25.894  25.135  1.00  0.00     0.045 A 
ATOM      9  C   UNL A   1      45.349  23.458  25.536  1.00  0.00     0.128 A 
ATOM     10  C   UNL A   1      43.296  24.712  25.296  1.00  0.00     0.032 A 
ATOM     11  Cl  UNL A   1      43.100  27.344  24.938  1.00  0.00    -0.084 Cl
ATOM     12  C   UNL A   1      43.964  23.496  25.466  1.00  0.00     0.019 A 
ATOM     13  O   UNL A   1      46.064  22.316  25.758  1.00  0.00    -0.475 OA
ATOM     14  C   UNL A   1      43.209  22.268  25.552  1.00  0.00     0.027 C 
ATOM     15  C   UNL A   1      45.367  21.034  25.772  1.00  0.00     0.316 C 
BRANCH   6  16
ATOM     16  C   UNL A   1      46.260  27.096  24.839  1.00  0.00     0.037 C 
BRANCH  16  17
ATOM     17  C   UNL A   1      47.539  27.183  25.687  1.00  0.00     0.008 C 
BRANCH  17  18
ATOM     18  C   UNL A   1      48.864  27.210  24.894  1.00  0.00    -0.017 C 
ATOM     19  C   UNL A   1      49.946  26.344  25.536  1.00  0.00     0.007 C 
ATOM     20  C   UNL A   1      48.612  26.742  23.459  1.00  0.00     0.007 C 
ENDBRANCH  17  18
ENDBRANCH  16  17
ENDBRANCH   6  16
BRANCH  15  21
ATOM     21  C   UNL A   1      45.897  20.177  24.610  1.00  0.00     0.430 C 
ATOM     22  F   UNL A   1      45.880  18.858  24.916  1.00  0.00    -0.167 F 
ATOM     23  F   UNL A   1      45.137  20.325  23.497  1.00  0.00    -0.167 F 
ATOM     24  F   UNL A   1      47.167  20.500  24.277  1.00  0.00    -0.167 F 
ENDBRANCH  15  21
ENDBRANCH   3   5
ENDBRANCH   2   3
ENDBRANCH   1   2
BRANCH   1  25
ATOM     25  C   UNL A   1      40.234  20.225  26.354  1.00  0.00     0.275 C 
BRANCH  25  26
ATOM     26  O   UNL A   1      40.144  21.432  27.134  1.00  0.00    -0.458 OA
BRANCH  26  27
ATOM     27  C   UNL A   1      39.451  22.441  26.562  1.00  0.00     0.338 C 
ATOM     28  O   UNL A   1      38.418  22.369  25.921  1.00  0.00    -0.246 OA
BRANCH  27  29
ATOM     29  C   UNL A   1      40.071  23.724  26.923  1.00  0.00     0.060 A 
ATOM     30  C   UNL A   1      39.746  24.904  26.269  1.00  0.00     0.016 A 
ATOM     31  C   UNL A   1      40.865  23.758  28.061  1.00  0.00     0.016 A 
ATOM     32  C   UNL A   1      40.237  26.116  26.773  1.00  0.00     0.010 A 
ATOM     33  C   UNL A   1      41.213  24.968  28.651  1.00  0.00     0.010 A 
ATOM     34  C   UNL A   1      40.937  26.171  27.999  1.00  0.00    -0.014 A 
BRANCH  34  35
ATOM     35  C   UNL A   1      41.356  27.474  28.597  1.00  0.00     0.031 A 
ATOM     36  C   UNL A   1      42.815  27.849  28.740  1.00  0.00     0.074 A 
ATOM     37  C   UNL A   1      40.413  28.327  29.050  1.00  0.00     0.049 A 
ATOM     38  N   UNL A   1      43.335  28.977  29.162  1.00  0.00    -0.248 NA
ATOM     39  C   UNL A   1      43.823  26.826  28.413  1.00  0.00     0.031 C 
ATOM     40  C   UNL A   1      38.974  28.051  29.093  1.00  0.00     0.029 A 
ATOM     41  N   UNL A   1      40.514  29.610  29.531  1.00  0.00    -0.354 N 
ATOM     42  C   UNL A   1      44.712  28.785  29.169  1.00  0.00     0.074 A 
ATOM     43  C   UNL A   1      44.949  27.414  28.786  1.00  0.00     0.031 C 
ATOM     44  C   UNL A   1      38.323  29.161  29.472  1.00  0.00     0.029 A 
ATOM     45  C   UNL A   1      39.296  30.213  29.744  1.00  0.00     0.049 A 
ATOM     46  H   UNL A   1      41.374  30.056  29.705  1.00  0.00     0.167 HD
ATOM     47  C   UNL A   1      45.697  29.679  29.423  1.00  0.00     0.031 A 
ATOM     48  C   UNL A   1      38.985  31.478  30.090  1.00  0.00     0.031 A 
ATOM     49  C   UNL A   1      45.467  31.060  29.748  1.00  0.00     0.049 A 
ATOM     50  C   UNL A   1      40.090  32.476  30.294  1.00  0.00     0.074 A 
ATOM     51  C   UNL A   1      46.399  32.067  29.921  1.00  0.00     0.029 A 
ATOM     52  N   UNL A   1      44.219  31.628  29.940  1.00  0.00    -0.354 N 
ATOM     53  N   UNL A   1      41.384  32.304  30.185  1.00  0.00    -0.248 NA
ATOM     54  C   UNL A   1      39.693  33.845  30.656  1.00  0.00     0.031 C 
ATOM     55  C   UNL A   1      45.718  33.235  30.268  1.00  0.00     0.029 A 
ATOM     56  C   UNL A   1      44.358  32.970  30.250  1.00  0.00     0.049 A 
ATOM     57  H   UNL A   1      43.362  31.151  29.866  1.00  0.00     0.167 HD
ATOM     58  C   UNL A   1      41.956  33.540  30.457  1.00  0.00     0.074 A 
ATOM     59  C   UNL A   1      40.867  34.461  30.705  1.00  0.00     0.031 C 
ATOM     60  C   UNL A   1      43.268  33.875  30.503  1.00  0.00     0.031 A 
BRANCH  47  61
ATOM     61  C   UNL A   1      47.126  29.213  29.313  1.00  0.00    -0.014 A 
ATOM     62  C   UNL A   1      47.725  28.520  30.379  1.00  0.00     0.009 A 
ATOM     63  C   UNL A   1      47.911  29.540  28.195  1.00  0.00     0.009 A 
ATOM     64  C   UNL A   1      49.077  28.174  30.330  1.00  0.00     0.001 A 
ATOM     65  C   UNL A   1      49.254  29.163  28.134  1.00  0.00     0.001 A 
ATOM     66  C   UNL A   1      49.838  28.490  29.206  1.00  0.00     0.000 A 
ENDBRANCH  47  61
BRANCH  48  67
ATOM     67  C   UNL A   1      37.556  31.879  30.180  1.00  0.00    -0.014 A 
ATOM     68  C   UNL A   1      36.848  31.760  31.386  1.00  0.00     0.009 A 
ATOM     69  C   UNL A   1      36.873  32.325  29.037  1.00  0.00     0.009 A 
ATOM     70  C   UNL A   1      35.483  32.050  31.440  1.00  0.00     0.001 A 
ATOM     71  C   UNL A   1      35.515  32.644  29.101  1.00  0.00     0.001 A 
ATOM     72  C   UNL A   1      34.818  32.495  30.299  1.00  0.00     0.000 A 
ENDBRANCH  48  67
BRANCH  60  73
ATOM     73  C   UNL A   1      43.619  35.296  30.842  1.00  0.00    -0.014 A 
ATOM     74  C   UNL A   1      43.714  35.693  32.186  1.00  0.00     0.009 A 
ATOM     75  C   UNL A   1      43.743  36.266  29.836  1.00  0.00     0.009 A 
ATOM     76  C   UNL A   1      43.907  37.034  32.515  1.00  0.00     0.001 A 
ATOM     77  C   UNL A   1      43.966  37.603  30.168  1.00  0.00     0.001 A 
ATOM     78  C   UNL A   1      44.037  37.988  31.507  1.00  0.00     0.000 A 
ENDBRANCH  60  73
ENDBRANCH  34  35
ENDBRANCH  27  29
ENDBRANCH  26  27
ENDBRANCH  25  26
ENDBRANCH   1  25
TORSDOF 15
ENDMDL
MODEL 2
REMARK VINA RESULT:      -9.7      6.580     12.284
REMARK SMILES CC(C)CCc1cc2c(cc1Cl)C=C(C(=O)OCCOC(=O)c1ccc(-c3c4nc(c(-c5ccccc5)c5ccc([nH]5)c(-c5ccccc5)c5nc(c(-c6ccccc6)c6ccc3[nH]6)C=C5)C=C4)cc1)[C@@H](C(F)(F)F)O2
REMARK SMILES IDX 18 1 17 2 15 3 16 4 14 5 6 6 7 7 11 8 8 9 10 10 12 11 9 12
REMARK SMILES IDX 76 13 13 14 71 15 5 16 4 17 2 18 1 19 3 20 72 21 73 22 74 23
REMARK SMILES IDX 75 24 19 25 20 26 21 27 22 28 23 29 24 30 70 31 25 32 69 33
REMARK SMILES IDX 26 34 27 35 28 36 63 37 29 38 68 39 62 40 64 41 30 42 67 43
REMARK SMILES IDX 61 44 60 45 31 47 53 48 38 49 52 50 39 51 42 52 51 53 65 54
REMARK SMILES IDX 40 55 41 56 50 58 66 59 43 60 32 61 33 62 37 63 34 64 36 65
REMARK SMILES IDX 35 66 54 67 55 68 59 69 56 70 58 71 57 72 44 73 45 74 49 75
REMARK SMILES IDX 46 76 48 77 47 78
REMARK H PARENT 64 46 42 57
REMARK Flexibility Score: inf
ROOT
ATOM      1  C   UNL A   1      32.881  34.556  28.077  1.00  0.00     0.275 C 
ENDROOT
BRANCH   1   2
ATOM      2  O   UNL A   1      32.676  34.677  29.503  1.00  0.00    -0.459 OA
BRANCH   2   3
ATOM      3  C   UNL A   1      33.289  35.725  30.102  1.00  0.00     0.338 C 
ATOM      4  O   UNL A   1      33.079  36.910  29.891  1.00  0.00    -0.246 OA
BRANCH   3   5
ATOM      5  C   UNL A   1      34.234  35.247  31.130  1.00  0.00     0.087 C 
ATOM      6  C   UNL A   1      37.027  32.389  34.195  1.00  0.00    -0.026 A 
ATOM      7  C   UNL A   1      36.695  33.761  34.152  1.00  0.00     0.052 A 
ATOM      8  C   UNL A   1      36.617  31.572  33.130  1.00  0.00     0.045 A 
ATOM      9  C   UNL A   1      35.908  34.285  33.126  1.00  0.00     0.128 A 
ATOM     10  C   UNL A   1      35.829  32.094  32.106  1.00  0.00     0.032 A 
ATOM     11  Cl  UNL A   1      37.032  29.899  33.013  1.00  0.00    -0.084 Cl
ATOM     12  C   UNL A   1      35.453  33.440  32.123  1.00  0.00     0.019 A 
ATOM     13  O   UNL A   1      35.628  35.621  33.174  1.00  0.00    -0.475 OA
ATOM     14  C   UNL A   1      34.571  33.954  31.101  1.00  0.00     0.027 C 
ATOM     15  C   UNL A   1      34.679  36.182  32.219  1.00  0.00     0.316 C 
BRANCH   6  16
ATOM     16  C   UNL A   1      37.779  31.855  35.394  1.00  0.00     0.037 C 
BRANCH  16  17
ATOM     17  C   UNL A   1      39.142  32.532  35.619  1.00  0.00     0.008 C 
BRANCH  17  18
ATOM     18  C   UNL A   1      39.224  33.474  36.839  1.00  0.00    -0.017 C 
ATOM     19  C   UNL A   1      39.440  34.932  36.438  1.00  0.00     0.007 C 
ATOM     20  C   UNL A   1      37.943  33.353  37.669  1.00  0.00     0.007 C 
ENDBRANCH  17  18
ENDBRANCH  16  17
ENDBRANCH   6  16
BRANCH  15  21
ATOM     21  C   UNL A   1      33.466  36.724  32.995  1.00  0.00     0.430 C 
ATOM     22  F   UNL A   1      33.067  37.926  32.518  1.00  0.00    -0.167 F 
ATOM     23  F   UNL A   1      32.399  35.894  32.892  1.00  0.00    -0.167 F 
ATOM     24  F   UNL A   1      33.732  36.877  34.312  1.00  0.00    -0.167 F 
ENDBRANCH  15  21
ENDBRANCH   3   5
ENDBRANCH   2   3
ENDBRANCH   1   2
BRANCH   1  25
ATOM     25  C   UNL A   1      33.053  33.095  27.661  1.00  0.00     0.275 C 
BRANCH  25  26
ATOM     26  O   UNL A   1      34.327  32.593  28.108  1.00  0.00    -0.458 OA
BRANCH  26  27
ATOM     27  C   UNL A   1      34.521  31.267  27.935  1.00  0.00     0.338 C 
ATOM     28  O   UNL A   1      33.864  30.497  27.258  1.00  0.00    -0.246 OA
BRANCH  27  29
ATOM     29  C   UNL A   1      35.761  30.864  28.614  1.00  0.00     0.060 A 
ATOM     30  C   UNL A   1      35.865  29.659  29.296  1.00  0.00     0.016 A 
ATOM     31  C   UNL A   1      36.892  31.642  28.406  1.00  0.00     0.016 A 
ATOM     32  C   UNL A   1      37.119  29.254  29.770  1.00  0.00     0.010 A 
ATOM     33  C   UNL A   1      38.156  31.162  28.731  1.00  0.00     0.010 A 
ATOM     34  C   UNL A   1      38.292  29.974  29.452  1.00  0.00    -0.014 A 
BRANCH  34  35
ATOM     35  C   UNL A   1      39.642  29.479  29.854  1.00  0.00     0.031 A 
ATOM     36  C   UNL A   1      40.430  30.139  30.965  1.00  0.00     0.074 A 
ATOM     37  C   UNL A   1      40.187  28.436  29.193  1.00  0.00     0.049 A 
ATOM     38  N   UNL A   1      41.578  29.774  31.485  1.00  0.00    -0.248 NA
ATOM     39  C   UNL A   1      39.897  31.385  31.541  1.00  0.00     0.031 C 
ATOM     40  C   UNL A   1      39.602  27.779  28.022  1.00  0.00     0.029 A 
ATOM     41  N   UNL A   1      41.339  27.724  29.426  1.00  0.00    -0.354 N 
ATOM     42  C   UNL A   1      41.903  30.750  32.420  1.00  0.00     0.074 A 
ATOM     43  C   UNL A   1      40.878  31.763  32.345  1.00  0.00     0.031 C 
ATOM     44  C   UNL A   1      40.337  26.703  27.706  1.00  0.00     0.029 A 
ATOM     45  C   UNL A   1      41.472  26.618  28.619  1.00  0.00     0.049 A 
ATOM     46  H   UNL A   1      42.004  27.980  30.105  1.00  0.00     0.167 HD
ATOM     47  C   UNL A   1      42.934  30.783  33.298  1.00  0.00     0.031 A 
ATOM     48  C   UNL A   1      42.384  25.626  28.625  1.00  0.00     0.031 A 
ATOM     49  C   UNL A   1      43.925  29.748  33.414  1.00  0.00     0.049 A 
ATOM     50  C   UNL A   1      43.477  25.638  29.654  1.00  0.00     0.074 A 
ATOM     51  C   UNL A   1      44.947  29.639  34.340  1.00  0.00     0.029 A 
ATOM     52  N   UNL A   1      44.012  28.641  32.586  1.00  0.00    -0.354 N 
ATOM     53  N   UNL A   1      43.702  26.513  30.605  1.00  0.00    -0.248 NA
ATOM     54  C   UNL A   1      44.436  24.524  29.624  1.00  0.00     0.031 C 
ATOM     55  C   UNL A   1      45.684  28.492  34.041  1.00  0.00     0.029 A 
ATOM     56  C   UNL A   1      45.084  27.854  32.967  1.00  0.00     0.049 A 
ATOM     57  H   UNL A   1      43.402  28.444  31.839  1.00  0.00     0.167 HD
ATOM     58  C   UNL A   1      44.820  26.052  31.288  1.00  0.00     0.074 A 
ATOM     59  C   UNL A   1      45.209  24.804  30.665  1.00  0.00     0.031 C 
ATOM     60  C   UNL A   1      45.467  26.619  32.334  1.00  0.00     0.031 A 
BRANCH  47  61
ATOM     61  C   UNL A   1      43.025  31.951  34.245  1.00  0.00    -0.014 A 
ATOM     62  C   UNL A   1      43.656  33.139  33.839  1.00  0.00     0.009 A 
ATOM     63  C   UNL A   1      42.573  31.846  35.571  1.00  0.00     0.009 A 
ATOM     64  C   UNL A   1      43.837  34.191  34.740  1.00  0.00     0.001 A 
ATOM     65  C   UNL A   1      42.726  32.911  36.460  1.00  0.00     0.001 A 
ATOM     66  C   UNL A   1      43.367  34.078  36.047  1.00  0.00     0.000 A 
ENDBRANCH  47  61
BRANCH  48  67
ATOM     67  C   UNL A   1      42.239  24.497  27.666  1.00  0.00    -0.014 A 
ATOM     68  C   UNL A   1      41.504  23.351  28.007  1.00  0.00     0.009 A 
ATOM     69  C   UNL A   1      42.893  24.536  26.424  1.00  0.00     0.009 A 
ATOM     70  C   UNL A   1      41.451  22.258  27.139  1.00  0.00     0.001 A 
ATOM     71  C   UNL A   1      42.813  23.454  25.546  1.00  0.00     0.001 A 
ATOM     72  C   UNL A   1      42.102  22.311  25.908  1.00  0.00     0.000 A 
ENDBRANCH  48  67
BRANCH  60  73
ATOM     73  C   UNL A   1      46.675  25.912  32.881  1.00  0.00    -0.014 A 
ATOM     74  C   UNL A   1      47.935  26.128  32.301  1.00  0.00     0.009 A 
ATOM     75  C   UNL A   1      46.547  24.949  33.893  1.00  0.00     0.009 A 
ATOM     76  C   UNL A   1      49.040  25.381  32.709  1.00  0.00     0.001 A 
ATOM     77  C   UNL A   1      47.661  24.223  34.320  1.00  0.00     0.001 A 
ATOM     78  C   UNL A   1      48.903  24.432  33.721  1.00  0.00     0.000 A 
ENDBRANCH  60  73
ENDBRANCH  34  35
ENDBRANCH  27  29
ENDBRANCH  26  27
ENDBRANCH  25  26
ENDBRANCH   1  25
TORSDOF 15
ENDMDL
MODEL 3
REMARK VINA RESULT:      -9.6      5.930     10.802
REMARK SMILES CC(C)CCc1cc2c(cc1Cl)C=C(C(=O)OCCOC(=O)c1ccc(-c3c4nc(c(-c5ccccc5)c5ccc([nH]5)c(-c5ccccc5)c5nc(c(-c6ccccc6)c6ccc3[nH]6)C=C5)C=C4)cc1)[C@@H](C(F)(F)F)O2
REMARK SMILES IDX 18 1 17 2 15 3 16 4 14 5 6 6 7 7 11 8 8 9 10 10 12 11 9 12
REMARK SMILES IDX 76 13 13 14 71 15 5 16 4 17 2 18 1 19 3 20 72 21 73 22 74 23
REMARK SMILES IDX 75 24 19 25 20 26 21 27 22 28 23 29 24 30 70 31 25 32 69 33
REMARK SMILES IDX 26 34 27 35 28 36 63 37 29 38 68 39 62 40 64 41 30 42 67 43
REMARK SMILES IDX 61 44 60 45 31 47 53 48 38 49 52 50 39 51 42 52 51 53 65 54
REMARK SMILES IDX 40 55 41 56 50 58 66 59 43 60 32 61 33 62 37 63 34 64 36 65
REMARK SMILES IDX 35 66 54 67 55 68 59 69 56 70 58 71 57 72 44 73 45 74 49 75
REMARK SMILES IDX 46 76 48 77 47 78
REMARK H PARENT 64 46 42 57
REMARK Flexibility Score: inf
ROOT
ATOM      1  C   UNL A   1      31.760  28.405  26.788  1.00  0.00     0.275 C 
ENDROOT
BRANCH   1   2
ATOM      2  O   UNL A   1      33.039  27.835  26.427  1.00  0.00    -0.459 OA
BRANCH   2   3
ATOM      3  C   UNL A   1      33.130  27.335  25.172  1.00  0.00     0.338 C 
ATOM      4  O   UNL A   1      33.234  27.976  24.138  1.00  0.00    -0.246 OA
BRANCH   3   5
ATOM      5  C   UNL A   1      33.156  25.859  25.210  1.00  0.00     0.087 C 
ATOM      6  C   UNL A   1      34.515  21.023  24.858  1.00  0.00    -0.026 A 
ATOM      7  C   UNL A   1      33.287  21.693  25.048  1.00  0.00     0.052 A 
ATOM      8  C   UNL A   1      35.695  21.783  24.855  1.00  0.00     0.045 A 
ATOM      9  C   UNL A   1      33.228  23.084  25.147  1.00  0.00     0.128 A 
ATOM     10  C   UNL A   1      35.636  23.172  24.952  1.00  0.00     0.032 A 
ATOM     11  Cl  UNL A   1      37.267  21.080  24.722  1.00  0.00    -0.084 Cl
ATOM     12  C   UNL A   1      34.402  23.819  25.068  1.00  0.00     0.019 A 
ATOM     13  O   UNL A   1      31.995  23.645  25.318  1.00  0.00    -0.475 OA
ATOM     14  C   UNL A   1      34.346  25.262  25.087  1.00  0.00     0.027 C 
ATOM     15  C   UNL A   1      31.862  25.098  25.263  1.00  0.00     0.316 C 
BRANCH   6  16
ATOM     16  C   UNL A   1      34.505  19.526  24.635  1.00  0.00     0.037 C 
BRANCH  16  17
ATOM     17  C   UNL A   1      33.104  18.898  24.727  1.00  0.00     0.008 C 
BRANCH  17  18
ATOM     18  C   UNL A   1      32.816  17.762  23.722  1.00  0.00    -0.017 C 
ATOM     19  C   UNL A   1      32.339  18.286  22.369  1.00  0.00     0.007 C 
ATOM     20  C   UNL A   1      34.077  16.914  23.531  1.00  0.00     0.007 C 
ENDBRANCH  17  18
ENDBRANCH  16  17
ENDBRANCH   6  16
BRANCH  15  21
ATOM     21  C   UNL A   1      30.970  25.463  24.065  1.00  0.00     0.430 C 
ATOM     22  F   UNL A   1      31.704  25.689  22.950  1.00  0.00    -0.167 F 
ATOM     23  F   UNL A   1      30.108  24.462  23.763  1.00  0.00    -0.167 F 
ATOM     24  F   UNL A   1      30.233  26.573  24.299  1.00  0.00    -0.167 F 
ENDBRANCH  15  21
ENDBRANCH   3   5
ENDBRANCH   2   3
ENDBRANCH   1   2
BRANCH   1  25
ATOM     25  C   UNL A   1      31.792  29.932  26.724  1.00  0.00     0.275 C 
BRANCH  25  26
ATOM     26  O   UNL A   1      33.122  30.393  26.424  1.00  0.00    -0.458 OA
BRANCH  26  27
ATOM     27  C   UNL A   1      33.584  31.386  27.217  1.00  0.00     0.338 C 
ATOM     28  O   UNL A   1      32.984  32.371  27.608  1.00  0.00    -0.246 OA
BRANCH  27  29
ATOM     29  C   UNL A   1      34.943  31.056  27.669  1.00  0.00     0.060 A 
ATOM     30  C   UNL A   1      35.866  32.039  27.996  1.00  0.00     0.016 A 
ATOM     31  C   UNL A   1      35.229  29.723  27.933  1.00  0.00     0.016 A 
ATOM     32  C   UNL A   1      37.080  31.662  28.584  1.00  0.00     0.010 A 
ATOM     33  C   UNL A   1      36.357  29.367  28.664  1.00  0.00     0.010 A 
ATOM     34  C   UNL A   1      37.324  30.326  28.973  1.00  0.00    -0.014 A 
BRANCH  34  35
ATOM     35  C   UNL A   1      38.566  29.944  29.708  1.00  0.00     0.031 A 
ATOM     36  C   UNL A   1      38.762  30.289  31.169  1.00  0.00     0.074 A 
ATOM     37  C   UNL A   1      39.553  29.301  29.049  1.00  0.00     0.049 A 
ATOM     38  N   UNL A   1      39.747  29.953  31.966  1.00  0.00    -0.248 NA
ATOM     39  C   UNL A   1      37.756  31.151  31.812  1.00  0.00     0.031 C 
ATOM     40  C   UNL A   1      39.560  29.012  27.612  1.00  0.00     0.029 A 
ATOM     41  N   UNL A   1      40.727  28.747  29.500  1.00  0.00    -0.354 N 
ATOM     42  C   UNL A   1      39.488  30.578  33.181  1.00  0.00     0.074 A 
ATOM     43  C   UNL A   1      38.298  31.375  33.000  1.00  0.00     0.031 C 
ATOM     44  C   UNL A   1      40.623  28.248  27.322  1.00  0.00     0.029 A 
ATOM     45  C   UNL A   1      41.400  28.031  28.537  1.00  0.00     0.049 A 
ATOM     46  H   UNL A   1      41.053  28.850  30.423  1.00  0.00     0.167 HD
ATOM     47  C   UNL A   1      40.148  30.464  34.358  1.00  0.00     0.031 A 
ATOM     48  C   UNL A   1      42.501  27.259  28.621  1.00  0.00     0.031 A 
ATOM     49  C   UNL A   1      41.299  29.627  34.558  1.00  0.00     0.049 A 
ATOM     50  C   UNL A   1      43.177  27.084  29.951  1.00  0.00     0.074 A 
ATOM     51  C   UNL A   1      41.975  29.365  35.736  1.00  0.00     0.029 A 
ATOM     52  N   UNL A   1      41.937  28.911  33.559  1.00  0.00    -0.354 N 
ATOM     53  N   UNL A   1      42.849  27.593  31.113  1.00  0.00    -0.248 NA
ATOM     54  C   UNL A   1      44.366  26.220  29.986  1.00  0.00     0.031 C 
ATOM     55  C   UNL A   1      43.054  28.530  35.442  1.00  0.00     0.029 A 
ATOM     56  C   UNL A   1      43.013  28.222  34.091  1.00  0.00     0.049 A 
ATOM     57  H   UNL A   1      41.666  28.893  32.613  1.00  0.00     0.167 HD
ATOM     58  C   UNL A   1      43.784  27.107  32.018  1.00  0.00     0.074 A 
ATOM     59  C   UNL A   1      44.673  26.237  31.277  1.00  0.00     0.031 C 
ATOM     60  C   UNL A   1      43.896  27.366  33.343  1.00  0.00     0.031 A 
BRANCH  47  61
ATOM     61  C   UNL A   1      39.619  31.225  35.547  1.00  0.00    -0.014 A 
ATOM     62  C   UNL A   1      38.447  30.796  36.192  1.00  0.00     0.009 A 
ATOM     63  C   UNL A   1      40.224  32.419  35.971  1.00  0.00     0.009 A 
ATOM     64  C   UNL A   1      37.891  31.550  37.229  1.00  0.00     0.001 A 
ATOM     65  C   UNL A   1      39.686  33.153  37.029  1.00  0.00     0.001 A 
ATOM     66  C   UNL A   1      38.514  32.723  37.650  1.00  0.00     0.000 A 
ENDBRANCH  47  61
BRANCH  48  67
ATOM     67  C   UNL A   1      42.975  26.531  27.412  1.00  0.00    -0.014 A 
ATOM     68  C   UNL A   1      42.522  25.233  27.129  1.00  0.00     0.009 A 
ATOM     69  C   UNL A   1      43.936  27.111  26.569  1.00  0.00     0.009 A 
ATOM     70  C   UNL A   1      43.042  24.521  26.045  1.00  0.00     0.001 A 
ATOM     71  C   UNL A   1      44.430  26.408  25.469  1.00  0.00     0.001 A 
ATOM     72  C   UNL A   1      43.992  25.111  25.214  1.00  0.00     0.000 A 
ENDBRANCH  48  67
BRANCH  60  73
ATOM     73  C   UNL A   1      45.023  26.715  34.095  1.00  0.00    -0.014 A 
ATOM     74  C   UNL A   1      46.292  27.316  34.113  1.00  0.00     0.009 A 
ATOM     75  C   UNL A   1      44.858  25.454  34.686  1.00  0.00     0.009 A 
ATOM     76  C   UNL A   1      47.377  26.659  34.692  1.00  0.00     0.001 A 
ATOM     77  C   UNL A   1      45.940  24.812  35.291  1.00  0.00     0.001 A 
ATOM     78  C   UNL A   1      47.200  25.410  35.285  1.00  0.00     0.000 A 
ENDBRANCH  60  73
ENDBRANCH  34  35
ENDBRANCH  27  29
ENDBRANCH  26  27
ENDBRANCH  25  26
ENDBRANCH   1  25
TORSDOF 15
ENDMDL
