MODEL 1
REMARK VINA RESULT:     -10.3      0.000      0.000
REMARK SMILES CC(=O)c1cc2c(cc1NC(=O)/C=C/C(=O)OCCOC(=O)c1ccc(-c3c4nc(c(-c5ccccc5)c5ccc([nH]5)c(-c5ccccc5)c5nc(c(-c6ccccc6)c6ccc3[nH]6)C=C5)C=C4)cc1)OCO2
REMARK SMILES IDX 18 1 17 2 15 3 16 4 14 5 13 6 11 7 10 8 12 10 9 11 4 12 5 13
REMARK SMILES IDX 6 14 8 15 7 16 73 17 71 18 72 19 2 20 1 21 3 22 19 23 20 24
REMARK SMILES IDX 21 25 22 26 23 27 24 28 70 29 25 30 69 31 26 32 27 33 28 34
REMARK SMILES IDX 63 35 29 36 68 37 62 38 64 39 30 40 67 41 61 42 60 43 31 45
REMARK SMILES IDX 53 46 38 47 52 48 39 49 42 50 51 51 65 52 40 53 41 54 50 56
REMARK SMILES IDX 66 57 43 58 32 59 33 60 37 61 34 62 36 63 35 64 54 65 55 66
REMARK SMILES IDX 59 67 56 68 58 69 57 70 44 71 45 72 49 73 46 74 48 75 47 76
REMARK H PARENT 10 9 64 44 42 55
REMARK Flexibility Score: inf
ROOT
ATOM      1  C   UNL A   1      31.922  29.514  25.737  1.00  0.00     0.275 C 
ENDROOT
BRANCH   1   2
ATOM      2  O   UNL A   1      31.157  28.322  25.456  1.00  0.00    -0.459 OA
BRANCH   2   3
ATOM      3  C   UNL A   1      31.875  27.189  25.250  1.00  0.00     0.331 C 
ATOM      4  O   UNL A   1      32.925  27.114  24.626  1.00  0.00    -0.247 OA
BRANCH   3   5
ATOM      5  C   UNL A   1      31.311  25.999  25.939  1.00  0.00     0.099 C 
ATOM      6  C   UNL A   1      32.055  25.030  26.500  1.00  0.00     0.079 C 
BRANCH   6   7
ATOM      7  C   UNL A   1      31.484  23.702  26.854  1.00  0.00     0.248 C 
ATOM      8  N   UNL A   1      32.244  22.550  26.818  1.00  0.00    -0.322 N 
ATOM      9  H   UNL A   1      31.810  21.776  27.246  1.00  0.00     0.170 HD
ATOM     10  O   UNL A   1      30.320  23.661  27.250  1.00  0.00    -0.270 OA
BRANCH   8  11
ATOM     11  C   UNL A   1      33.525  22.265  26.284  1.00  0.00     0.056 A 
ATOM     12  C   UNL A   1      33.697  21.513  25.088  1.00  0.00     0.045 A 
ATOM     13  C   UNL A   1      34.929  21.513  24.396  1.00  0.00     0.064 A 
ATOM     14  C   UNL A   1      35.946  22.283  24.913  1.00  0.00     0.166 A 
ATOM     15  C   UNL A   1      34.662  22.798  26.856  1.00  0.00     0.077 A 
ATOM     16  C   UNL A   1      35.800  22.909  26.114  1.00  0.00     0.167 A 
ATOM     17  O   UNL A   1      37.182  22.495  24.397  1.00  0.00    -0.454 OA
ATOM     18  O   UNL A   1      36.873  23.633  26.502  1.00  0.00    -0.454 OA
ATOM     19  C   UNL A   1      37.766  23.325  25.428  1.00  0.00     0.468 C 
BRANCH  12  20
ATOM     20  C   UNL A   1      32.593  20.667  24.574  1.00  0.00     0.162 C 
ATOM     21  C   UNL A   1      32.176  20.857  23.134  1.00  0.00     0.093 C 
ATOM     22  O   UNL A   1      32.142  19.772  25.281  1.00  0.00    -0.294 OA
ENDBRANCH  12  20
ENDBRANCH   8  11
ENDBRANCH   6   7
ENDBRANCH   3   5
ENDBRANCH   2   3
ENDBRANCH   1   2
BRANCH   1  23
ATOM     23  C   UNL A   1      32.401  29.556  27.193  1.00  0.00     0.275 C 
BRANCH  23  24
ATOM     24  O   UNL A   1      33.822  29.327  27.308  1.00  0.00    -0.458 OA
BRANCH  24  25
ATOM     25  C   UNL A   1      34.517  30.293  27.955  1.00  0.00     0.338 C 
ATOM     26  O   UNL A   1      34.080  31.379  28.314  1.00  0.00    -0.246 OA
BRANCH  25  27
ATOM     27  C   UNL A   1      35.893  29.836  28.287  1.00  0.00     0.060 A 
ATOM     28  C   UNL A   1      36.844  29.898  27.268  1.00  0.00     0.016 A 
ATOM     29  C   UNL A   1      36.277  29.360  29.546  1.00  0.00     0.016 A 
ATOM     30  C   UNL A   1      38.186  29.613  27.530  1.00  0.00     0.010 A 
ATOM     31  C   UNL A   1      37.618  29.003  29.791  1.00  0.00     0.010 A 
ATOM     32  C   UNL A   1      38.593  29.159  28.795  1.00  0.00    -0.014 A 
BRANCH  32  33
ATOM     33  C   UNL A   1      40.023  28.777  28.982  1.00  0.00     0.031 A 
ATOM     34  C   UNL A   1      40.472  27.419  28.527  1.00  0.00     0.074 A 
ATOM     35  C   UNL A   1      40.946  29.647  29.441  1.00  0.00     0.049 A 
ATOM     36  N   UNL A   1      41.679  26.916  28.499  1.00  0.00    -0.248 NA
ATOM     37  C   UNL A   1      39.419  26.498  28.069  1.00  0.00     0.031 C 
ATOM     38  C   UNL A   1      40.661  30.976  29.957  1.00  0.00     0.029 A 
ATOM     39  N   UNL A   1      42.319  29.572  29.497  1.00  0.00    -0.354 N 
ATOM     40  C   UNL A   1      41.528  25.612  28.053  1.00  0.00     0.074 A 
ATOM     41  C   UNL A   1      40.119  25.412  27.787  1.00  0.00     0.031 C 
ATOM     42  C   UNL A   1      41.806  31.661  30.100  1.00  0.00     0.029 A 
ATOM     43  C   UNL A   1      42.925  30.754  29.870  1.00  0.00     0.049 A 
ATOM     44  H   UNL A   1      42.821  28.751  29.291  1.00  0.00     0.167 HD
ATOM     45  C   UNL A   1      42.470  24.648  27.928  1.00  0.00     0.031 A 
ATOM     46  C   UNL A   1      44.224  31.058  30.071  1.00  0.00     0.031 A 
ATOM     47  C   UNL A   1      43.855  24.815  28.274  1.00  0.00     0.049 A 
ATOM     48  C   UNL A   1      45.238  29.950  29.979  1.00  0.00     0.074 A 
ATOM     49  C   UNL A   1      44.867  23.872  28.242  1.00  0.00     0.029 A 
ATOM     50  N   UNL A   1      44.417  25.994  28.738  1.00  0.00    -0.354 N 
ATOM     51  N   UNL A   1      45.078  28.713  29.579  1.00  0.00    -0.248 NA
ATOM     52  C   UNL A   1      46.604  30.262  30.427  1.00  0.00     0.031 C 
ATOM     53  C   UNL A   1      46.029  24.465  28.745  1.00  0.00     0.029 A 
ATOM     54  C   UNL A   1      45.760  25.796  29.015  1.00  0.00     0.049 A 
ATOM     55  H   UNL A   1      43.935  26.844  28.853  1.00  0.00     0.167 HD
ATOM     56  C   UNL A   1      46.316  28.102  29.726  1.00  0.00     0.074 A 
ATOM     57  C   UNL A   1      47.229  29.113  30.215  1.00  0.00     0.031 C 
ATOM     58  C   UNL A   1      46.660  26.812  29.494  1.00  0.00     0.031 A 
BRANCH  45  59
ATOM     59  C   UNL A   1      41.991  23.293  27.498  1.00  0.00    -0.014 A 
ATOM     60  C   UNL A   1      41.539  22.345  28.429  1.00  0.00     0.009 A 
ATOM     61  C   UNL A   1      42.010  22.958  26.135  1.00  0.00     0.009 A 
ATOM     62  C   UNL A   1      41.150  21.073  28.003  1.00  0.00     0.001 A 
ATOM     63  C   UNL A   1      41.593  21.697  25.710  1.00  0.00     0.001 A 
ATOM     64  C   UNL A   1      41.174  20.753  26.646  1.00  0.00     0.000 A 
ENDBRANCH  45  59
BRANCH  46  65
ATOM     65  C   UNL A   1      44.650  32.425  30.500  1.00  0.00    -0.014 A 
ATOM     66  C   UNL A   1      45.048  33.387  29.556  1.00  0.00     0.009 A 
ATOM     67  C   UNL A   1      44.732  32.756  31.863  1.00  0.00     0.009 A 
ATOM     68  C   UNL A   1      45.541  34.630  29.968  1.00  0.00     0.001 A 
ATOM     69  C   UNL A   1      45.180  34.015  32.271  1.00  0.00     0.001 A 
ATOM     70  C   UNL A   1      45.599  34.946  31.324  1.00  0.00     0.000 A 
ENDBRANCH  46  65
BRANCH  58  71
ATOM     71  C   UNL A   1      48.097  26.428  29.715  1.00  0.00    -0.014 A 
ATOM     72  C   UNL A   1      48.538  25.889  30.934  1.00  0.00     0.009 A 
ATOM     73  C   UNL A   1      49.013  26.559  28.659  1.00  0.00     0.009 A 
ATOM     74  C   UNL A   1      49.874  25.518  31.098  1.00  0.00     0.001 A 
ATOM     75  C   UNL A   1      50.339  26.157  28.816  1.00  0.00     0.001 A 
ATOM     76  C   UNL A   1      50.771  25.645  30.037  1.00  0.00     0.000 A 
ENDBRANCH  58  71
ENDBRANCH  32  33
ENDBRANCH  25  27
ENDBRANCH  24  25
ENDBRANCH  23  24
ENDBRANCH   1  23
TORSDOF 14
ENDMDL
MODEL 2
REMARK VINA RESULT:     -10.2      3.412      4.769
REMARK SMILES CC(=O)c1cc2c(cc1NC(=O)/C=C/C(=O)OCCOC(=O)c1ccc(-c3c4nc(c(-c5ccccc5)c5ccc([nH]5)c(-c5ccccc5)c5nc(c(-c6ccccc6)c6ccc3[nH]6)C=C5)C=C4)cc1)OCO2
REMARK SMILES IDX 18 1 17 2 15 3 16 4 14 5 13 6 11 7 10 8 12 10 9 11 4 12 5 13
REMARK SMILES IDX 6 14 8 15 7 16 73 17 71 18 72 19 2 20 1 21 3 22 19 23 20 24
REMARK SMILES IDX 21 25 22 26 23 27 24 28 70 29 25 30 69 31 26 32 27 33 28 34
REMARK SMILES IDX 63 35 29 36 68 37 62 38 64 39 30 40 67 41 61 42 60 43 31 45
REMARK SMILES IDX 53 46 38 47 52 48 39 49 42 50 51 51 65 52 40 53 41 54 50 56
REMARK SMILES IDX 66 57 43 58 32 59 33 60 37 61 34 62 36 63 35 64 54 65 55 66
REMARK SMILES IDX 59 67 56 68 58 69 57 70 44 71 45 72 49 73 46 74 48 75 47 76
REMARK H PARENT 10 9 64 44 42 55
REMARK Flexibility Score: inf
ROOT
ATOM      1  C   UNL A   1      31.510  28.025  25.632  1.00  0.00     0.275 C 
ENDROOT
BRANCH   1   2
ATOM      2  O   UNL A   1      31.775  27.162  24.504  1.00  0.00    -0.459 OA
BRANCH   2   3
ATOM      3  C   UNL A   1      32.573  26.092  24.747  1.00  0.00     0.331 C 
ATOM      4  O   UNL A   1      33.793  26.076  24.656  1.00  0.00    -0.247 OA
BRANCH   3   5
ATOM      5  C   UNL A   1      31.830  24.902  25.239  1.00  0.00     0.099 C 
ATOM      6  C   UNL A   1      31.744  24.549  26.533  1.00  0.00     0.079 C 
BRANCH   6   7
ATOM      7  C   UNL A   1      31.312  23.187  26.952  1.00  0.00     0.248 C 
ATOM      8  N   UNL A   1      32.186  22.119  26.964  1.00  0.00    -0.322 N 
ATOM      9  H   UNL A   1      31.836  21.325  27.430  1.00  0.00     0.170 HD
ATOM     10  O   UNL A   1      30.159  23.046  27.356  1.00  0.00    -0.270 OA
BRANCH   8  11
ATOM     11  C   UNL A   1      33.490  21.942  26.435  1.00  0.00     0.056 A 
ATOM     12  C   UNL A   1      33.752  21.068  25.343  1.00  0.00     0.045 A 
ATOM     13  C   UNL A   1      34.965  21.144  24.622  1.00  0.00     0.064 A 
ATOM     14  C   UNL A   1      35.870  22.106  25.005  1.00  0.00     0.166 A 
ATOM     15  C   UNL A   1      34.548  22.696  26.900  1.00  0.00     0.077 A 
ATOM     16  C   UNL A   1      35.652  22.860  26.118  1.00  0.00     0.167 A 
ATOM     17  O   UNL A   1      37.059  22.413  24.431  1.00  0.00    -0.454 OA
ATOM     18  O   UNL A   1      36.618  23.768  26.377  1.00  0.00    -0.454 OA
ATOM     19  C   UNL A   1      37.533  23.445  25.328  1.00  0.00     0.468 C 
BRANCH  12  20
ATOM     20  C   UNL A   1      32.770  20.019  24.975  1.00  0.00     0.162 C 
ATOM     21  C   UNL A   1      32.246  20.015  23.557  1.00  0.00     0.093 C 
ATOM     22  O   UNL A   1      32.509  19.130  25.780  1.00  0.00    -0.294 OA
ENDBRANCH  12  20
ENDBRANCH   8  11
ENDBRANCH   6   7
ENDBRANCH   3   5
ENDBRANCH   2   3
ENDBRANCH   1   2
BRANCH   1  23
ATOM     23  C   UNL A   1      31.439  29.500  25.220  1.00  0.00     0.275 C 
BRANCH  23  24
ATOM     24  O   UNL A   1      32.670  30.204  25.491  1.00  0.00    -0.458 OA
BRANCH  24  25
ATOM     25  C   UNL A   1      32.625  31.078  26.524  1.00  0.00     0.338 C 
ATOM     26  O   UNL A   1      31.715  31.859  26.770  1.00  0.00    -0.246 OA
BRANCH  25  27
ATOM     27  C   UNL A   1      33.799  30.910  27.422  1.00  0.00     0.060 A 
ATOM     28  C   UNL A   1      34.276  29.612  27.606  1.00  0.00     0.016 A 
ATOM     29  C   UNL A   1      34.442  31.968  28.076  1.00  0.00     0.016 A 
ATOM     30  C   UNL A   1      35.450  29.381  28.326  1.00  0.00     0.010 A 
ATOM     31  C   UNL A   1      35.585  31.726  28.862  1.00  0.00     0.010 A 
ATOM     32  C   UNL A   1      36.121  30.435  28.968  1.00  0.00    -0.014 A 
BRANCH  32  33
ATOM     33  C   UNL A   1      37.314  30.108  29.803  1.00  0.00     0.031 A 
ATOM     34  C   UNL A   1      38.510  29.489  29.139  1.00  0.00     0.074 A 
ATOM     35  C   UNL A   1      37.397  30.450  31.105  1.00  0.00     0.049 A 
ATOM     36  N   UNL A   1      39.684  29.216  29.646  1.00  0.00    -0.248 NA
ATOM     37  C   UNL A   1      38.353  29.104  27.728  1.00  0.00     0.031 C 
ATOM     38  C   UNL A   1      36.314  31.013  31.893  1.00  0.00     0.029 A 
ATOM     39  N   UNL A   1      38.454  30.429  31.986  1.00  0.00    -0.354 N 
ATOM     40  C   UNL A   1      40.394  28.597  28.628  1.00  0.00     0.074 A 
ATOM     41  C   UNL A   1      39.534  28.569  27.464  1.00  0.00     0.031 C 
ATOM     42  C   UNL A   1      36.792  31.458  33.066  1.00  0.00     0.029 A 
ATOM     43  C   UNL A   1      38.181  31.036  33.194  1.00  0.00     0.049 A 
ATOM     44  H   UNL A   1      39.323  30.019  31.773  1.00  0.00     0.167 HD
ATOM     45  C   UNL A   1      41.631  28.052  28.672  1.00  0.00     0.031 A 
ATOM     46  C   UNL A   1      38.936  31.178  34.303  1.00  0.00     0.031 A 
ATOM     47  C   UNL A   1      42.456  27.999  29.848  1.00  0.00     0.049 A 
ATOM     48  C   UNL A   1      40.285  30.511  34.339  1.00  0.00     0.074 A 
ATOM     49  C   UNL A   1      43.696  27.407  30.001  1.00  0.00     0.029 A 
ATOM     50  N   UNL A   1      42.112  28.538  31.078  1.00  0.00    -0.354 N 
ATOM     51  N   UNL A   1      40.935  29.908  33.375  1.00  0.00    -0.248 NA
ATOM     52  C   UNL A   1      40.980  30.489  35.636  1.00  0.00     0.031 C 
ATOM     53  C   UNL A   1      44.077  27.534  31.340  1.00  0.00     0.029 A 
ATOM     54  C   UNL A   1      43.110  28.273  32.001  1.00  0.00     0.049 A 
ATOM     55  H   UNL A   1      41.283  29.034  31.267  1.00  0.00     0.167 HD
ATOM     56  C   UNL A   1      42.110  29.436  33.945  1.00  0.00     0.074 A 
ATOM     57  C   UNL A   1      42.104  29.856  35.330  1.00  0.00     0.031 C 
ATOM     58  C   UNL A   1      43.097  28.703  33.375  1.00  0.00     0.031 A 
BRANCH  45  59
ATOM     59  C   UNL A   1      42.110  27.369  27.424  1.00  0.00    -0.014 A 
ATOM     60  C   UNL A   1      42.782  28.073  26.414  1.00  0.00     0.009 A 
ATOM     61  C   UNL A   1      41.866  25.997  27.255  1.00  0.00     0.009 A 
ATOM     62  C   UNL A   1      43.167  27.421  25.240  1.00  0.00     0.001 A 
ATOM     63  C   UNL A   1      42.278  25.342  26.096  1.00  0.00     0.001 A 
ATOM     64  C   UNL A   1      42.919  26.057  25.085  1.00  0.00     0.000 A 
ENDBRANCH  45  59
BRANCH  46  65
ATOM     65  C   UNL A   1      38.413  31.867  35.522  1.00  0.00    -0.014 A 
ATOM     66  C   UNL A   1      38.443  33.268  35.629  1.00  0.00     0.009 A 
ATOM     67  C   UNL A   1      37.945  31.126  36.620  1.00  0.00     0.009 A 
ATOM     68  C   UNL A   1      38.046  33.903  36.811  1.00  0.00     0.001 A 
ATOM     69  C   UNL A   1      37.504  31.764  37.783  1.00  0.00     0.001 A 
ATOM     70  C   UNL A   1      37.569  33.151  37.883  1.00  0.00     0.000 A 
ENDBRANCH  46  65
BRANCH  58  71
ATOM     71  C   UNL A   1      44.281  28.351  34.232  1.00  0.00    -0.014 A 
ATOM     72  C   UNL A   1      44.371  27.118  34.897  1.00  0.00     0.009 A 
ATOM     73  C   UNL A   1      45.352  29.255  34.328  1.00  0.00     0.009 A 
ATOM     74  C   UNL A   1      45.496  26.811  35.663  1.00  0.00     0.001 A 
ATOM     75  C   UNL A   1      46.489  28.931  35.068  1.00  0.00     0.001 A 
ATOM     76  C   UNL A   1      46.557  27.714  35.743  1.00  0.00     0.000 A 
ENDBRANCH  58  71
ENDBRANCH  32  33
ENDBRANCH  25  27
ENDBRANCH  24  25
ENDBRANCH  23  24
ENDBRANCH   1  23
TORSDOF 14
ENDMDL
MODEL 3
REMARK VINA RESULT:     -10.2      3.128      7.410
REMARK SMILES CC(=O)c1cc2c(cc1NC(=O)/C=C/C(=O)OCCOC(=O)c1ccc(-c3c4nc(c(-c5ccccc5)c5ccc([nH]5)c(-c5ccccc5)c5nc(c(-c6ccccc6)c6ccc3[nH]6)C=C5)C=C4)cc1)OCO2
REMARK SMILES IDX 18 1 17 2 15 3 16 4 14 5 13 6 11 7 10 8 12 10 9 11 4 12 5 13
REMARK SMILES IDX 6 14 8 15 7 16 73 17 71 18 72 19 2 20 1 21 3 22 19 23 20 24
REMARK SMILES IDX 21 25 22 26 23 27 24 28 70 29 25 30 69 31 26 32 27 33 28 34
REMARK SMILES IDX 63 35 29 36 68 37 62 38 64 39 30 40 67 41 61 42 60 43 31 45
REMARK SMILES IDX 53 46 38 47 52 48 39 49 42 50 51 51 65 52 40 53 41 54 50 56
REMARK SMILES IDX 66 57 43 58 32 59 33 60 37 61 34 62 36 63 35 64 54 65 55 66
REMARK SMILES IDX 59 67 56 68 58 69 57 70 44 71 45 72 49 73 46 74 48 75 47 76
REMARK H PARENT 10 9 64 44 42 55
REMARK Flexibility Score: inf
ROOT
ATOM      1  C   UNL A   1      31.454  32.048  26.635  1.00  0.00     0.275 C 
ENDROOT
BRANCH   1   2
ATOM      2  O   UNL A   1      32.075  30.966  27.364  1.00  0.00    -0.459 OA
BRANCH   2   3
ATOM      3  C   UNL A   1      33.234  30.487  26.847  1.00  0.00     0.331 C 
ATOM      4  O   UNL A   1      34.360  30.797  27.212  1.00  0.00    -0.247 OA
BRANCH   3   5
ATOM      5  C   UNL A   1      33.030  29.444  25.808  1.00  0.00     0.099 C 
ATOM      6  C   UNL A   1      33.898  28.448  25.559  1.00  0.00     0.079 C 
BRANCH   6   7
ATOM      7  C   UNL A   1      33.845  27.652  24.303  1.00  0.00     0.248 C 
ATOM      8  N   UNL A   1      33.511  26.312  24.303  1.00  0.00    -0.322 N 
ATOM      9  H   UNL A   1      33.332  25.948  23.406  1.00  0.00     0.170 HD
ATOM     10  O   UNL A   1      34.044  28.237  23.240  1.00  0.00    -0.270 OA
BRANCH   8  11
ATOM     11  C   UNL A   1      33.376  25.360  25.344  1.00  0.00     0.056 A 
ATOM     12  C   UNL A   1      32.137  25.130  26.005  1.00  0.00     0.045 A 
ATOM     13  C   UNL A   1      31.933  23.976  26.795  1.00  0.00     0.064 A 
ATOM     14  C   UNL A   1      32.970  23.077  26.882  1.00  0.00     0.166 A 
ATOM     15  C   UNL A   1      34.430  24.539  25.689  1.00  0.00     0.077 A 
ATOM     16  C   UNL A   1      34.184  23.363  26.333  1.00  0.00     0.167 A 
ATOM     17  O   UNL A   1      32.990  21.879  27.516  1.00  0.00    -0.454 OA
ATOM     18  O   UNL A   1      35.111  22.393  26.488  1.00  0.00    -0.454 OA
ATOM     19  C   UNL A   1      34.359  21.473  27.284  1.00  0.00     0.468 C 
BRANCH  12  20
ATOM     20  C   UNL A   1      31.049  26.135  25.920  1.00  0.00     0.162 C 
ATOM     21  C   UNL A   1      30.101  26.044  24.746  1.00  0.00     0.093 C 
ATOM     22  O   UNL A   1      30.879  26.919  26.849  1.00  0.00    -0.294 OA
ENDBRANCH  12  20
ENDBRANCH   8  11
ENDBRANCH   6   7
ENDBRANCH   3   5
ENDBRANCH   2   3
ENDBRANCH   1   2
BRANCH   1  23
ATOM     23  C   UNL A   1      32.094  33.401  26.965  1.00  0.00     0.275 C 
BRANCH  23  24
ATOM     24  O   UNL A   1      32.156  33.645  28.387  1.00  0.00    -0.458 OA
BRANCH  24  25
ATOM     25  C   UNL A   1      32.996  34.635  28.772  1.00  0.00     0.338 C 
ATOM     26  O   UNL A   1      32.702  35.814  28.920  1.00  0.00    -0.246 OA
BRANCH  25  27
ATOM     27  C   UNL A   1      34.341  34.099  29.108  1.00  0.00     0.060 A 
ATOM     28  C   UNL A   1      34.407  33.142  30.122  1.00  0.00     0.016 A 
ATOM     29  C   UNL A   1      35.523  34.492  28.469  1.00  0.00     0.016 A 
ATOM     30  C   UNL A   1      35.609  32.493  30.410  1.00  0.00     0.010 A 
ATOM     31  C   UNL A   1      36.749  33.887  28.810  1.00  0.00     0.010 A 
ATOM     32  C   UNL A   1      36.799  32.857  29.760  1.00  0.00    -0.014 A 
BRANCH  32  33
ATOM     33  C   UNL A   1      38.067  32.193  30.183  1.00  0.00     0.031 A 
ATOM     34  C   UNL A   1      38.796  32.730  31.380  1.00  0.00     0.074 A 
ATOM     35  C   UNL A   1      38.518  31.065  29.599  1.00  0.00     0.049 A 
ATOM     36  N   UNL A   1      39.855  32.254  31.983  1.00  0.00    -0.248 NA
ATOM     37  C   UNL A   1      38.281  33.983  31.956  1.00  0.00     0.031 C 
ATOM     38  C   UNL A   1      37.948  30.451  28.411  1.00  0.00     0.029 A 
ATOM     39  N   UNL A   1      39.526  30.197  29.953  1.00  0.00    -0.354 N 
ATOM     40  C   UNL A   1      40.153  33.163  32.986  1.00  0.00     0.074 A 
ATOM     41  C   UNL A   1      39.143  34.199  32.937  1.00  0.00     0.031 C 
ATOM     42  C   UNL A   1      38.473  29.228  28.238  1.00  0.00     0.029 A 
ATOM     43  C   UNL A   1      39.560  29.047  29.192  1.00  0.00     0.049 A 
ATOM     44  H   UNL A   1      40.162  30.380  30.681  1.00  0.00     0.167 HD
ATOM     45  C   UNL A   1      41.203  33.166  33.839  1.00  0.00     0.031 A 
ATOM     46  C   UNL A   1      40.409  27.998  29.211  1.00  0.00     0.031 A 
ATOM     47  C   UNL A   1      42.256  32.187  33.835  1.00  0.00     0.049 A 
ATOM     48  C   UNL A   1      41.599  28.059  30.131  1.00  0.00     0.074 A 
ATOM     49  C   UNL A   1      43.395  32.149  34.619  1.00  0.00     0.029 A 
ATOM     50  N   UNL A   1      42.312  31.090  32.990  1.00  0.00    -0.354 N 
ATOM     51  N   UNL A   1      41.881  28.939  31.061  1.00  0.00    -0.248 NA
ATOM     52  C   UNL A   1      42.622  27.015  29.963  1.00  0.00     0.031 C 
ATOM     53  C   UNL A   1      44.171  31.061  34.206  1.00  0.00     0.029 A 
ATOM     54  C   UNL A   1      43.477  30.378  33.221  1.00  0.00     0.049 A 
ATOM     55  H   UNL A   1      41.626  30.852  32.325  1.00  0.00     0.167 HD
ATOM     56  C   UNL A   1      43.109  28.556  31.586  1.00  0.00     0.074 A 
ATOM     57  C   UNL A   1      43.500  27.343  30.900  1.00  0.00     0.031 C 
ATOM     58  C   UNL A   1      43.853  29.168  32.538  1.00  0.00     0.031 A 
BRANCH  45  59
ATOM     59  C   UNL A   1      41.310  34.337  34.770  1.00  0.00    -0.014 A 
ATOM     60  C   UNL A   1      40.834  34.272  36.089  1.00  0.00     0.009 A 
ATOM     61  C   UNL A   1      41.885  35.532  34.309  1.00  0.00     0.009 A 
ATOM     62  C   UNL A   1      40.899  35.397  36.915  1.00  0.00     0.001 A 
ATOM     63  C   UNL A   1      41.976  36.643  35.146  1.00  0.00     0.001 A 
ATOM     64  C   UNL A   1      41.473  36.577  36.444  1.00  0.00     0.000 A 
ENDBRANCH  45  59
BRANCH  46  65
ATOM     65  C   UNL A   1      40.260  26.854  28.261  1.00  0.00    -0.014 A 
ATOM     66  C   UNL A   1      40.798  26.917  26.964  1.00  0.00     0.009 A 
ATOM     67  C   UNL A   1      39.514  25.718  28.617  1.00  0.00     0.009 A 
ATOM     68  C   UNL A   1      40.570  25.887  26.045  1.00  0.00     0.001 A 
ATOM     69  C   UNL A   1      39.327  24.669  27.713  1.00  0.00     0.001 A 
ATOM     70  C   UNL A   1      39.841  24.760  26.423  1.00  0.00     0.000 A 
ENDBRANCH  46  65
BRANCH  58  71
ATOM     71  C   UNL A   1      45.144  28.509  32.937  1.00  0.00    -0.014 A 
ATOM     72  C   UNL A   1      45.193  27.526  33.938  1.00  0.00     0.009 A 
ATOM     73  C   UNL A   1      46.325  28.843  32.255  1.00  0.00     0.009 A 
ATOM     74  C   UNL A   1      46.404  26.913  34.266  1.00  0.00     0.001 A 
ATOM     75  C   UNL A   1      47.527  28.207  32.563  1.00  0.00     0.001 A 
ATOM     76  C   UNL A   1      47.568  27.249  33.574  1.00  0.00     0.000 A 
ENDBRANCH  58  71
ENDBRANCH  32  33
ENDBRANCH  25  27
ENDBRANCH  24  25
ENDBRANCH  23  24
ENDBRANCH   1  23
TORSDOF 14
ENDMDL
