MODEL 1
REMARK VINA RESULT:     -11.5      0.000      0.000
REMARK SMILES Cc1ccc(C[C@H](C(=O)OCCOC(=O)c2ccc(-c3c4nc(c(-c5ccccc5)c5ccc([nH]5)c(-c5ccccc5)c5nc(c(-c6ccccc6)c6ccc3[nH]6)C=C5)C=C4)cc2)[C@@H]2CCCC[C@@H]2O)cc1
REMARK SMILES IDX 11 1 10 2 8 3 9 4 7 5 6 6 5 7 1 8 2 9 3 10 72 11 4 12 71 13
REMARK SMILES IDX 64 14 65 15 69 16 66 17 68 18 67 19 70 20 12 22 13 23 14 24
REMARK SMILES IDX 15 25 16 26 17 27 63 28 18 29 62 30 19 31 20 32 21 33 56 34
REMARK SMILES IDX 22 35 61 36 55 37 57 38 23 39 60 40 54 41 53 42 24 44 46 45
REMARK SMILES IDX 31 46 45 47 32 48 35 49 44 50 58 51 33 52 34 53 43 55 59 56
REMARK SMILES IDX 36 57 25 58 26 59 30 60 27 61 29 62 28 63 47 64 48 65 52 66
REMARK SMILES IDX 49 67 51 68 50 69 37 70 38 71 42 72 39 73 41 74 40 75
REMARK H PARENT 70 21 57 43 35 54
REMARK Flexibility Score: inf
ROOT
ATOM      1  C   UNL A   1      32.594  31.253  26.937  1.00  0.00     0.274 C 
ENDROOT
BRANCH   1   2
ATOM      2  O   UNL A   1      31.898  30.342  26.061  1.00  0.00    -0.462 OA
BRANCH   2   3
ATOM      3  C   UNL A   1      31.778  29.075  26.572  1.00  0.00     0.309 C 
ATOM      4  O   UNL A   1      31.698  28.822  27.766  1.00  0.00    -0.252 OA
BRANCH   3   5
ATOM      5  C   UNL A   1      31.951  27.967  25.544  1.00  0.00     0.109 C 
BRANCH   5   6
ATOM      6  C   UNL A   1      31.140  26.733  26.101  1.00  0.00     0.051 C 
BRANCH   6   7
ATOM      7  C   UNL A   1      31.839  25.378  26.084  1.00  0.00    -0.047 A 
ATOM      8  C   UNL A   1      33.944  21.929  27.551  1.00  0.00     0.044 C 
ATOM      9  C   UNL A   1      33.195  23.041  26.875  1.00  0.00    -0.051 A 
ATOM     10  C   UNL A   1      33.886  24.100  26.273  1.00  0.00     0.004 A 
ATOM     11  C   UNL A   1      31.802  23.093  26.929  1.00  0.00     0.004 A 
ATOM     12  C   UNL A   1      33.214  25.262  25.874  1.00  0.00     0.004 A 
ATOM     13  C   UNL A   1      31.129  24.243  26.512  1.00  0.00     0.004 A 
ENDBRANCH   6   7
ENDBRANCH   5   6
BRANCH   5  14
ATOM     14  C   UNL A   1      31.481  28.475  24.116  1.00  0.00     0.032 C 
ATOM     15  C   UNL A   1      30.459  27.598  23.362  1.00  0.00     0.007 C 
ATOM     16  C   UNL A   1      32.627  28.735  23.102  1.00  0.00     0.118 C 
ATOM     17  C   UNL A   1      31.062  26.280  22.885  1.00  0.00     0.001 C 
ATOM     18  C   UNL A   1      33.300  27.451  22.623  1.00  0.00     0.032 C 
ATOM     19  C   UNL A   1      32.289  26.494  22.002  1.00  0.00     0.003 C 
BRANCH  16  20
ATOM     20  O   UNL A   1      33.584  29.651  23.579  1.00  0.00    -0.393 OA
ATOM     21  H   UNL A   1      34.268  29.174  24.073  1.00  0.00     0.210 HD
ENDBRANCH  16  20
ENDBRANCH   5  14
ENDBRANCH   3   5
ENDBRANCH   2   3
ENDBRANCH   1   2
BRANCH   1  22
ATOM     22  C   UNL A   1      31.864  32.565  27.260  1.00  0.00     0.275 C 
BRANCH  22  23
ATOM     23  O   UNL A   1      32.586  33.804  27.448  1.00  0.00    -0.458 OA
BRANCH  23  24
ATOM     24  C   UNL A   1      33.105  34.232  28.627  1.00  0.00     0.338 C 
ATOM     25  O   UNL A   1      32.553  35.059  29.309  1.00  0.00    -0.246 OA
BRANCH  24  26
ATOM     26  C   UNL A   1      34.412  33.630  28.975  1.00  0.00     0.060 A 
ATOM     27  C   UNL A   1      34.445  32.616  29.938  1.00  0.00     0.016 A 
ATOM     28  C   UNL A   1      35.552  33.969  28.248  1.00  0.00     0.016 A 
ATOM     29  C   UNL A   1      35.585  31.848  30.104  1.00  0.00     0.010 A 
ATOM     30  C   UNL A   1      36.636  33.129  28.304  1.00  0.00     0.010 A 
ATOM     31  C   UNL A   1      36.656  32.097  29.255  1.00  0.00    -0.014 A 
BRANCH  31  32
ATOM     32  C   UNL A   1      37.974  31.572  29.540  1.00  0.00     0.031 A 
ATOM     33  C   UNL A   1      38.322  30.173  29.260  1.00  0.00     0.074 A 
ATOM     34  C   UNL A   1      38.742  32.556  30.057  1.00  0.00     0.049 A 
ATOM     35  N   UNL A   1      39.239  29.520  29.878  1.00  0.00    -0.248 NA
ATOM     36  C   UNL A   1      37.622  29.333  28.286  1.00  0.00     0.031 C 
ATOM     37  C   UNL A   1      40.150  32.666  30.364  1.00  0.00     0.029 A 
ATOM     38  N   UNL A   1      38.187  33.707  30.652  1.00  0.00    -0.354 N 
ATOM     39  C   UNL A   1      39.509  28.397  29.118  1.00  0.00     0.074 A 
ATOM     40  C   UNL A   1      38.371  28.223  28.261  1.00  0.00     0.031 C 
ATOM     41  C   UNL A   1      40.284  33.581  31.352  1.00  0.00     0.029 A 
ATOM     42  C   UNL A   1      38.937  33.956  31.789  1.00  0.00     0.049 A 
ATOM     43  H   UNL A   1      37.420  34.230  30.326  1.00  0.00     0.167 HD
ATOM     44  C   UNL A   1      40.778  27.906  29.130  1.00  0.00     0.031 A 
ATOM     45  C   UNL A   1      38.364  33.626  32.986  1.00  0.00     0.031 A 
ATOM     46  C   UNL A   1      41.575  28.660  30.090  1.00  0.00     0.049 A 
ATOM     47  C   UNL A   1      39.144  32.515  33.645  1.00  0.00     0.074 A 
ATOM     48  C   UNL A   1      42.397  29.765  29.944  1.00  0.00     0.029 A 
ATOM     49  N   UNL A   1      41.195  28.623  31.424  1.00  0.00    -0.354 N 
ATOM     50  N   UNL A   1      39.719  31.518  33.024  1.00  0.00    -0.248 NA
ATOM     51  C   UNL A   1      39.415  32.536  35.071  1.00  0.00     0.031 C 
ATOM     52  C   UNL A   1      42.464  30.424  31.205  1.00  0.00     0.029 A 
ATOM     53  C   UNL A   1      41.676  29.725  32.103  1.00  0.00     0.049 A 
ATOM     54  H   UNL A   1      40.655  27.907  31.832  1.00  0.00     0.167 HD
ATOM     55  C   UNL A   1      40.540  30.854  33.907  1.00  0.00     0.074 A 
ATOM     56  C   UNL A   1      40.275  31.512  35.179  1.00  0.00     0.031 C 
ATOM     57  C   UNL A   1      41.404  29.858  33.529  1.00  0.00     0.031 A 
BRANCH  44  58
ATOM     58  C   UNL A   1      41.366  27.028  28.056  1.00  0.00    -0.014 A 
ATOM     59  C   UNL A   1      41.502  27.555  26.754  1.00  0.00     0.009 A 
ATOM     60  C   UNL A   1      41.779  25.699  28.234  1.00  0.00     0.009 A 
ATOM     61  C   UNL A   1      41.978  26.793  25.681  1.00  0.00     0.001 A 
ATOM     62  C   UNL A   1      42.247  24.924  27.156  1.00  0.00     0.001 A 
ATOM     63  C   UNL A   1      42.343  25.471  25.880  1.00  0.00     0.000 A 
ENDBRANCH  44  58
BRANCH  45  64
ATOM     64  C   UNL A   1      36.873  33.833  33.118  1.00  0.00    -0.014 A 
ATOM     65  C   UNL A   1      36.289  35.012  32.591  1.00  0.00     0.009 A 
ATOM     66  C   UNL A   1      35.994  32.837  33.569  1.00  0.00     0.009 A 
ATOM     67  C   UNL A   1      34.902  35.148  32.428  1.00  0.00     0.001 A 
ATOM     68  C   UNL A   1      34.599  32.986  33.431  1.00  0.00     0.001 A 
ATOM     69  C   UNL A   1      34.056  34.128  32.840  1.00  0.00     0.000 A 
ENDBRANCH  45  64
BRANCH  57  70
ATOM     70  C   UNL A   1      42.137  28.885  34.438  1.00  0.00    -0.014 A 
ATOM     71  C   UNL A   1      43.209  29.201  35.273  1.00  0.00     0.009 A 
ATOM     72  C   UNL A   1      41.664  27.550  34.536  1.00  0.00     0.009 A 
ATOM     73  C   UNL A   1      43.760  28.263  36.156  1.00  0.00     0.001 A 
ATOM     74  C   UNL A   1      42.171  26.625  35.446  1.00  0.00     0.001 A 
ATOM     75  C   UNL A   1      43.229  26.984  36.259  1.00  0.00     0.000 A 
ENDBRANCH  57  70
ENDBRANCH  31  32
ENDBRANCH  24  26
ENDBRANCH  23  24
ENDBRANCH  22  23
ENDBRANCH   1  22
TORSDOF 15
ENDMDL
MODEL 2
REMARK VINA RESULT:     -11.5      4.448      9.907
REMARK SMILES Cc1ccc(C[C@H](C(=O)OCCOC(=O)c2ccc(-c3c4nc(c(-c5ccccc5)c5ccc([nH]5)c(-c5ccccc5)c5nc(c(-c6ccccc6)c6ccc3[nH]6)C=C5)C=C4)cc2)[C@@H]2CCCC[C@@H]2O)cc1
REMARK SMILES IDX 11 1 10 2 8 3 9 4 7 5 6 6 5 7 1 8 2 9 3 10 72 11 4 12 71 13
REMARK SMILES IDX 64 14 65 15 69 16 66 17 68 18 67 19 70 20 12 22 13 23 14 24
REMARK SMILES IDX 15 25 16 26 17 27 63 28 18 29 62 30 19 31 20 32 21 33 56 34
REMARK SMILES IDX 22 35 61 36 55 37 57 38 23 39 60 40 54 41 53 42 24 44 46 45
REMARK SMILES IDX 31 46 45 47 32 48 35 49 44 50 58 51 33 52 34 53 43 55 59 56
REMARK SMILES IDX 36 57 25 58 26 59 30 60 27 61 29 62 28 63 47 64 48 65 52 66
REMARK SMILES IDX 49 67 51 68 50 69 37 70 38 71 42 72 39 73 41 74 40 75
REMARK H PARENT 70 21 57 43 35 54
REMARK Flexibility Score: inf
ROOT
ATOM      1  C   UNL A   1      38.143  21.307  25.372  1.00  0.00     0.274 C 
ENDROOT
BRANCH   1   2
ATOM      2  O   UNL A   1      36.710  21.424  25.500  1.00  0.00    -0.462 OA
BRANCH   2   3
ATOM      3  C   UNL A   1      36.118  22.069  24.444  1.00  0.00     0.309 C 
ATOM      4  O   UNL A   1      36.709  22.816  23.678  1.00  0.00    -0.252 OA
BRANCH   3   5
ATOM      5  C   UNL A   1      34.602  21.943  24.405  1.00  0.00     0.109 C 
BRANCH   5   6
ATOM      6  C   UNL A   1      34.234  20.849  25.481  1.00  0.00     0.051 C 
BRANCH   6   7
ATOM      7  C   UNL A   1      33.879  19.459  24.965  1.00  0.00    -0.047 A 
ATOM      8  C   UNL A   1      32.965  15.259  25.049  1.00  0.00     0.044 C 
ATOM      9  C   UNL A   1      33.242  16.720  24.837  1.00  0.00    -0.051 A 
ATOM     10  C   UNL A   1      34.543  17.164  24.569  1.00  0.00     0.004 A 
ATOM     11  C   UNL A   1      32.231  17.665  25.007  1.00  0.00     0.004 A 
ATOM     12  C   UNL A   1      34.863  18.527  24.628  1.00  0.00     0.004 A 
ATOM     13  C   UNL A   1      32.545  19.025  25.044  1.00  0.00     0.004 A 
ENDBRANCH   6   7
ENDBRANCH   5   6
BRANCH   5  14
ATOM     14  C   UNL A   1      33.935  23.362  24.650  1.00  0.00     0.032 C 
ATOM     15  C   UNL A   1      32.771  23.422  25.662  1.00  0.00     0.007 C 
ATOM     16  C   UNL A   1      33.406  24.069  23.374  1.00  0.00     0.118 C 
ATOM     17  C   UNL A   1      31.514  22.729  25.148  1.00  0.00     0.001 C 
ATOM     18  C   UNL A   1      32.172  23.390  22.785  1.00  0.00     0.032 C 
ATOM     19  C   UNL A   1      31.048  23.300  23.810  1.00  0.00     0.003 C 
BRANCH  16  20
ATOM     20  O   UNL A   1      34.400  24.237  22.390  1.00  0.00    -0.393 OA
ATOM     21  H   UNL A   1      34.201  23.667  21.631  1.00  0.00     0.210 HD
ENDBRANCH  16  20
ENDBRANCH   5  14
ENDBRANCH   3   5
ENDBRANCH   2   3
ENDBRANCH   1   2
BRANCH   1  22
ATOM     22  C   UNL A   1      38.671  19.916  24.994  1.00  0.00     0.275 C 
BRANCH  22  23
ATOM     23  O   UNL A   1      39.734  19.283  25.744  1.00  0.00    -0.458 OA
BRANCH  23  24
ATOM     24  C   UNL A   1      41.015  19.730  25.811  1.00  0.00     0.338 C 
ATOM     25  O   UNL A   1      41.940  19.094  25.373  1.00  0.00    -0.246 OA
BRANCH  24  26
ATOM     26  C   UNL A   1      41.173  21.032  26.498  1.00  0.00     0.060 A 
ATOM     27  C   UNL A   1      41.071  21.067  27.893  1.00  0.00     0.016 A 
ATOM     28  C   UNL A   1      41.560  22.159  25.776  1.00  0.00     0.016 A 
ATOM     29  C   UNL A   1      41.469  22.193  28.594  1.00  0.00     0.010 A 
ATOM     30  C   UNL A   1      42.086  23.225  26.462  1.00  0.00     0.010 A 
ATOM     31  C   UNL A   1      42.005  23.246  27.864  1.00  0.00    -0.014 A 
BRANCH  31  32
ATOM     32  C   UNL A   1      42.163  24.559  28.452  1.00  0.00     0.031 A 
ATOM     33  C   UNL A   1      41.066  25.537  28.457  1.00  0.00     0.074 A 
ATOM     34  C   UNL A   1      43.411  24.674  28.955  1.00  0.00     0.049 A 
ATOM     35  N   UNL A   1      41.234  26.809  28.509  1.00  0.00    -0.248 NA
ATOM     36  C   UNL A   1      39.651  25.181  28.338  1.00  0.00     0.031 C 
ATOM     37  C   UNL A   1      44.067  25.661  29.783  1.00  0.00     0.029 A 
ATOM     38  N   UNL A   1      44.472  23.850  28.527  1.00  0.00    -0.354 N 
ATOM     39  C   UNL A   1      40.012  27.357  28.851  1.00  0.00     0.074 A 
ATOM     40  C   UNL A   1      39.034  26.352  28.549  1.00  0.00     0.031 C 
ATOM     41  C   UNL A   1      45.392  25.604  29.516  1.00  0.00     0.029 A 
ATOM     42  C   UNL A   1      45.576  24.675  28.399  1.00  0.00     0.049 A 
ATOM     43  H   UNL A   1      44.436  22.882  28.354  1.00  0.00     0.167 HD
ATOM     44  C   UNL A   1      40.008  28.500  29.590  1.00  0.00     0.031 A 
ATOM     45  C   UNL A   1      45.941  25.017  27.126  1.00  0.00     0.031 A 
ATOM     46  C   UNL A   1      41.379  28.966  29.760  1.00  0.00     0.049 A 
ATOM     47  C   UNL A   1      45.767  26.501  26.918  1.00  0.00     0.074 A 
ATOM     48  C   UNL A   1      42.309  28.757  30.765  1.00  0.00     0.029 A 
ATOM     49  N   UNL A   1      42.095  29.312  28.624  1.00  0.00    -0.354 N 
ATOM     50  N   UNL A   1      44.807  27.231  27.424  1.00  0.00    -0.248 NA
ATOM     51  C   UNL A   1      46.759  27.277  26.198  1.00  0.00     0.031 C 
ATOM     52  C   UNL A   1      43.604  28.932  30.199  1.00  0.00     0.029 A 
ATOM     53  C   UNL A   1      43.454  29.235  28.856  1.00  0.00     0.049 A 
ATOM     54  H   UNL A   1      41.689  29.577  27.766  1.00  0.00     0.167 HD
ATOM     55  C   UNL A   1      45.108  28.561  27.234  1.00  0.00     0.074 A 
ATOM     56  C   UNL A   1      46.319  28.524  26.427  1.00  0.00     0.031 C 
ATOM     57  C   UNL A   1      44.381  29.584  27.787  1.00  0.00     0.031 A 
BRANCH  44  58
ATOM     58  C   UNL A   1      38.850  28.970  30.432  1.00  0.00    -0.014 A 
ATOM     59  C   UNL A   1      37.632  29.279  29.791  1.00  0.00     0.009 A 
ATOM     60  C   UNL A   1      38.885  29.153  31.823  1.00  0.00     0.009 A 
ATOM     61  C   UNL A   1      36.525  29.784  30.485  1.00  0.00     0.001 A 
ATOM     62  C   UNL A   1      37.778  29.670  32.524  1.00  0.00     0.001 A 
ATOM     63  C   UNL A   1      36.601  29.989  31.854  1.00  0.00     0.000 A 
ENDBRANCH  44  58
BRANCH  45  64
ATOM     64  C   UNL A   1      45.771  23.966  26.053  1.00  0.00    -0.014 A 
ATOM     65  C   UNL A   1      46.060  22.612  26.359  1.00  0.00     0.009 A 
ATOM     66  C   UNL A   1      45.162  24.221  24.816  1.00  0.00     0.009 A 
ATOM     67  C   UNL A   1      45.669  21.559  25.518  1.00  0.00     0.001 A 
ATOM     68  C   UNL A   1      44.795  23.165  23.959  1.00  0.00     0.001 A 
ATOM     69  C   UNL A   1      45.026  21.836  24.320  1.00  0.00     0.000 A 
ENDBRANCH  45  64
BRANCH  57  70
ATOM     70  C   UNL A   1      44.452  31.060  27.426  1.00  0.00    -0.014 A 
ATOM     71  C   UNL A   1      44.228  31.599  26.160  1.00  0.00     0.009 A 
ATOM     72  C   UNL A   1      44.680  32.006  28.459  1.00  0.00     0.009 A 
ATOM     73  C   UNL A   1      44.213  32.982  25.938  1.00  0.00     0.001 A 
ATOM     74  C   UNL A   1      44.617  33.384  28.259  1.00  0.00     0.001 A 
ATOM     75  C   UNL A   1      44.385  33.874  26.989  1.00  0.00     0.000 A 
ENDBRANCH  57  70
ENDBRANCH  31  32
ENDBRANCH  24  26
ENDBRANCH  23  24
ENDBRANCH  22  23
ENDBRANCH   1  22
TORSDOF 15
ENDMDL
MODEL 3
REMARK VINA RESULT:     -11.5      4.272      9.977
REMARK SMILES Cc1ccc(C[C@H](C(=O)OCCOC(=O)c2ccc(-c3c4nc(c(-c5ccccc5)c5ccc([nH]5)c(-c5ccccc5)c5nc(c(-c6ccccc6)c6ccc3[nH]6)C=C5)C=C4)cc2)[C@@H]2CCCC[C@@H]2O)cc1
REMARK SMILES IDX 11 1 10 2 8 3 9 4 7 5 6 6 5 7 1 8 2 9 3 10 72 11 4 12 71 13
REMARK SMILES IDX 64 14 65 15 69 16 66 17 68 18 67 19 70 20 12 22 13 23 14 24
REMARK SMILES IDX 15 25 16 26 17 27 63 28 18 29 62 30 19 31 20 32 21 33 56 34
REMARK SMILES IDX 22 35 61 36 55 37 57 38 23 39 60 40 54 41 53 42 24 44 46 45
REMARK SMILES IDX 31 46 45 47 32 48 35 49 44 50 58 51 33 52 34 53 43 55 59 56
REMARK SMILES IDX 36 57 25 58 26 59 30 60 27 61 29 62 28 63 47 64 48 65 52 66
REMARK SMILES IDX 49 67 51 68 50 69 37 70 38 71 42 72 39 73 41 74 40 75
REMARK H PARENT 70 21 57 43 35 54
REMARK Flexibility Score: inf
ROOT
ATOM      1  C   UNL A   1      37.582  20.380  24.623  1.00  0.00     0.274 C 
ENDROOT
BRANCH   1   2
ATOM      2  O   UNL A   1      36.330  20.965  25.038  1.00  0.00    -0.462 OA
BRANCH   2   3
ATOM      3  C   UNL A   1      35.959  22.052  24.287  1.00  0.00     0.309 C 
ATOM      4  O   UNL A   1      36.657  22.557  23.419  1.00  0.00    -0.252 OA
BRANCH   3   5
ATOM      5  C   UNL A   1      34.674  22.723  24.751  1.00  0.00     0.109 C 
BRANCH   5   6
ATOM      6  C   UNL A   1      34.153  23.554  23.515  1.00  0.00     0.051 C 
BRANCH   6   7
ATOM      7  C   UNL A   1      34.086  25.069  23.676  1.00  0.00    -0.047 A 
ATOM      8  C   UNL A   1      32.413  28.953  24.448  1.00  0.00     0.044 C 
ATOM      9  C   UNL A   1      33.164  27.683  24.170  1.00  0.00    -0.051 A 
ATOM     10  C   UNL A   1      33.292  27.206  22.859  1.00  0.00     0.004 A 
ATOM     11  C   UNL A   1      33.652  26.903  25.219  1.00  0.00     0.004 A 
ATOM     12  C   UNL A   1      33.755  25.907  22.609  1.00  0.00     0.004 A 
ATOM     13  C   UNL A   1      34.134  25.617  24.969  1.00  0.00     0.004 A 
ENDBRANCH   6   7
ENDBRANCH   5   6
BRANCH   5  14
ATOM     14  C   UNL A   1      33.656  21.630  25.288  1.00  0.00     0.032 C 
ATOM     15  C   UNL A   1      32.216  21.684  24.736  1.00  0.00     0.007 C 
ATOM     16  C   UNL A   1      33.503  21.578  26.832  1.00  0.00     0.118 C 
ATOM     17  C   UNL A   1      31.443  22.899  25.239  1.00  0.00     0.001 C 
ATOM     18  C   UNL A   1      32.776  22.795  27.399  1.00  0.00     0.032 C 
ATOM     19  C   UNL A   1      31.400  22.963  26.764  1.00  0.00     0.003 C 
BRANCH  16  20
ATOM     20  O   UNL A   1      34.727  21.374  27.497  1.00  0.00    -0.393 OA
ATOM     21  H   UNL A   1      35.445  21.770  26.980  1.00  0.00     0.210 HD
ENDBRANCH  16  20
ENDBRANCH   5  14
ENDBRANCH   3   5
ENDBRANCH   2   3
ENDBRANCH   1   2
BRANCH   1  22
ATOM     22  C   UNL A   1      38.636  20.201  25.725  1.00  0.00     0.275 C 
BRANCH  22  23
ATOM     23  O   UNL A   1      39.772  19.323  25.547  1.00  0.00    -0.458 OA
BRANCH  23  24
ATOM     24  C   UNL A   1      41.060  19.647  25.832  1.00  0.00     0.338 C 
ATOM     25  O   UNL A   1      41.979  18.911  25.576  1.00  0.00    -0.246 OA
BRANCH  24  26
ATOM     26  C   UNL A   1      41.226  20.951  26.513  1.00  0.00     0.060 A 
ATOM     27  C   UNL A   1      41.156  20.988  27.911  1.00  0.00     0.016 A 
ATOM     28  C   UNL A   1      41.590  22.080  25.782  1.00  0.00     0.016 A 
ATOM     29  C   UNL A   1      41.563  22.117  28.600  1.00  0.00     0.010 A 
ATOM     30  C   UNL A   1      42.125  23.150  26.454  1.00  0.00     0.010 A 
ATOM     31  C   UNL A   1      42.076  23.173  27.857  1.00  0.00    -0.014 A 
BRANCH  31  32
ATOM     32  C   UNL A   1      42.240  24.488  28.439  1.00  0.00     0.031 A 
ATOM     33  C   UNL A   1      41.144  25.466  28.449  1.00  0.00     0.074 A 
ATOM     34  C   UNL A   1      43.492  24.603  28.933  1.00  0.00     0.049 A 
ATOM     35  N   UNL A   1      41.314  26.738  28.495  1.00  0.00    -0.248 NA
ATOM     36  C   UNL A   1      39.728  25.112  28.341  1.00  0.00     0.031 C 
ATOM     37  C   UNL A   1      44.155  25.592  29.753  1.00  0.00     0.029 A 
ATOM     38  N   UNL A   1      44.549  23.776  28.501  1.00  0.00    -0.354 N 
ATOM     39  C   UNL A   1      40.095  27.290  28.844  1.00  0.00     0.074 A 
ATOM     40  C   UNL A   1      39.114  26.284  28.552  1.00  0.00     0.031 C 
ATOM     41  C   UNL A   1      45.478  25.533  29.476  1.00  0.00     0.029 A 
ATOM     42  C   UNL A   1      45.653  24.599  28.362  1.00  0.00     0.049 A 
ATOM     43  H   UNL A   1      44.510  22.808  28.330  1.00  0.00     0.167 HD
ATOM     44  C   UNL A   1      40.097  28.435  29.579  1.00  0.00     0.031 A 
ATOM     45  C   UNL A   1      46.009  24.937  27.085  1.00  0.00     0.031 A 
ATOM     46  C   UNL A   1      41.470  28.900  29.738  1.00  0.00     0.049 A 
ATOM     47  C   UNL A   1      45.835  26.420  26.873  1.00  0.00     0.074 A 
ATOM     48  C   UNL A   1      42.407  28.693  30.736  1.00  0.00     0.029 A 
ATOM     49  N   UNL A   1      42.178  29.241  28.595  1.00  0.00    -0.354 N 
ATOM     50  N   UNL A   1      44.879  27.153  27.383  1.00  0.00    -0.248 NA
ATOM     51  C   UNL A   1      46.823  27.193  26.143  1.00  0.00     0.031 C 
ATOM     52  C   UNL A   1      43.698  28.865  30.161  1.00  0.00     0.029 A 
ATOM     53  C   UNL A   1      43.539  29.163  28.818  1.00  0.00     0.049 A 
ATOM     54  H   UNL A   1      41.766  29.504  27.739  1.00  0.00     0.167 HD
ATOM     55  C   UNL A   1      45.181  28.482  27.187  1.00  0.00     0.074 A 
ATOM     56  C   UNL A   1      46.386  28.441  26.371  1.00  0.00     0.031 C 
ATOM     57  C   UNL A   1      44.459  29.508  27.741  1.00  0.00     0.031 A 
BRANCH  44  58
ATOM     58  C   UNL A   1      38.946  28.909  30.428  1.00  0.00    -0.014 A 
ATOM     59  C   UNL A   1      38.237  30.059  30.021  1.00  0.00     0.009 A 
ATOM     60  C   UNL A   1      38.523  28.308  31.623  1.00  0.00     0.009 A 
ATOM     61  C   UNL A   1      37.197  30.608  30.780  1.00  0.00     0.001 A 
ATOM     62  C   UNL A   1      37.485  28.863  32.396  1.00  0.00     0.001 A 
ATOM     63  C   UNL A   1      36.825  30.014  31.976  1.00  0.00     0.000 A 
ENDBRANCH  44  58
BRANCH  45  64
ATOM     64  C   UNL A   1      45.831  23.882  26.017  1.00  0.00    -0.014 A 
ATOM     65  C   UNL A   1      46.070  22.523  26.339  1.00  0.00     0.009 A 
ATOM     66  C   UNL A   1      45.257  24.146  24.764  1.00  0.00     0.009 A 
ATOM     67  C   UNL A   1      45.665  21.475  25.499  1.00  0.00     0.001 A 
ATOM     68  C   UNL A   1      44.876  23.093  23.907  1.00  0.00     0.001 A 
ATOM     69  C   UNL A   1      45.057  21.761  24.284  1.00  0.00     0.000 A 
ENDBRANCH  45  64
BRANCH  57  70
ATOM     70  C   UNL A   1      44.529  30.982  27.375  1.00  0.00    -0.014 A 
ATOM     71  C   UNL A   1      44.114  31.540  26.166  1.00  0.00     0.009 A 
ATOM     72  C   UNL A   1      44.969  31.910  28.354  1.00  0.00     0.009 A 
ATOM     73  C   UNL A   1      44.119  32.925  25.951  1.00  0.00     0.001 A 
ATOM     74  C   UNL A   1      44.931  33.291  28.169  1.00  0.00     0.001 A 
ATOM     75  C   UNL A   1      44.506  33.801  26.957  1.00  0.00     0.000 A 
ENDBRANCH  57  70
ENDBRANCH  31  32
ENDBRANCH  24  26
ENDBRANCH  23  24
ENDBRANCH  22  23
ENDBRANCH   1  22
TORSDOF 15
ENDMDL
