MODEL 1
REMARK VINA RESULT:     -12.6      0.000      0.000
REMARK SMILES Cc1ccc(S(=O)(=O)N2c3ccc(C(=O)OCCOC(=O)c4ccc(-c5c6nc(c(-c7ccccc7)c7ccc([nH]7)c(-c7ccccc7)c7nc(c(-c8ccccc8)c8ccc5[nH]8)C=C7)C=C6)cc4)cc3C[C@H]2C)cc1
REMARK SMILES IDX 17 1 16 2 14 3 15 4 13 5 9 6 10 7 73 8 11 9 71 10 72 11
REMARK SMILES IDX 74 12 12 13 70 14 6 15 7 16 8 17 5 18 1 19 2 20 3 21 76 22
REMARK SMILES IDX 4 23 75 24 18 25 19 26 20 27 21 28 22 29 23 30 69 31 24 32
REMARK SMILES IDX 68 33 25 34 26 35 27 36 62 37 28 38 67 39 61 40 63 41 29 42
REMARK SMILES IDX 66 43 60 44 59 45 30 47 52 48 37 49 51 50 38 51 41 52 50 53
REMARK SMILES IDX 64 54 39 55 40 56 49 58 65 59 42 60 31 61 32 62 36 63 33 64
REMARK SMILES IDX 35 65 34 66 53 67 54 68 58 69 55 70 57 71 56 72 43 73 44 74
REMARK SMILES IDX 48 75 45 76 47 77 46 78
REMARK H PARENT 63 46 41 57
REMARK Flexibility Score: inf
ROOT
ATOM      1  C   UNL A   1      31.953  30.516  26.853  1.00  0.00     0.275 C 
ENDROOT
BRANCH   1   2
ATOM      2  O   UNL A   1      32.953  29.682  26.249  1.00  0.00    -0.458 OA
BRANCH   2   3
ATOM      3  C   UNL A   1      32.429  28.969  25.216  1.00  0.00     0.338 C 
ATOM      4  O   UNL A   1      31.726  29.429  24.326  1.00  0.00    -0.246 OA
BRANCH   3   5
ATOM      5  C   UNL A   1      32.671  27.514  25.306  1.00  0.00     0.060 A 
ATOM      6  N   UNL A   1      33.046  23.337  25.505  1.00  0.00    -0.263 N 
ATOM      7  C   UNL A   1      32.790  24.756  25.499  1.00  0.00     0.055 A 
ATOM      8  C   UNL A   1      34.348  23.194  24.733  1.00  0.00     0.101 C 
ATOM      9  C   UNL A   1      31.860  25.425  26.267  1.00  0.00     0.028 A 
ATOM     10  C   UNL A   1      33.654  25.438  24.639  1.00  0.00    -0.021 A 
ATOM     11  C   UNL A   1      34.464  24.457  23.849  1.00  0.00     0.063 C 
ATOM     12  C   UNL A   1      35.493  23.145  25.756  1.00  0.00     0.032 C 
ATOM     13  C   UNL A   1      31.786  26.809  26.145  1.00  0.00     0.018 A 
ATOM     14  C   UNL A   1      33.632  26.826  24.551  1.00  0.00     0.021 A 
BRANCH   6  15
ATOM     15  S   UNL A   1      31.706  22.412  24.933  1.00  0.00     0.264 S 
ATOM     16  O   UNL A   1      31.297  22.972  23.653  1.00  0.00    -0.201 OA
ATOM     17  O   UNL A   1      30.760  22.262  26.013  1.00  0.00    -0.201 OA
BRANCH  15  18
ATOM     18  C   UNL A   1      32.300  20.762  24.596  1.00  0.00     0.088 A 
ATOM     19  C   UNL A   1      33.876  16.908  23.491  1.00  0.00     0.044 C 
ATOM     20  C   UNL A   1      33.301  18.236  23.884  1.00  0.00    -0.051 A 
ATOM     21  C   UNL A   1      32.648  19.029  22.934  1.00  0.00     0.005 A 
ATOM     22  C   UNL A   1      33.399  18.696  25.201  1.00  0.00     0.005 A 
ATOM     23  C   UNL A   1      32.152  20.286  23.285  1.00  0.00     0.022 A 
ATOM     24  C   UNL A   1      32.893  19.949  25.558  1.00  0.00     0.022 A 
ENDBRANCH  15  18
ENDBRANCH   6  15
ENDBRANCH   3   5
ENDBRANCH   2   3
ENDBRANCH   1   2
BRANCH   1  25
ATOM     25  C   UNL A   1      32.121  32.017  26.586  1.00  0.00     0.275 C 
BRANCH  25  26
ATOM     26  O   UNL A   1      32.040  32.979  27.676  1.00  0.00    -0.458 OA
BRANCH  26  27
ATOM     27  C   UNL A   1      32.988  33.811  28.164  1.00  0.00     0.338 C 
ATOM     28  O   UNL A   1      32.776  35.001  28.355  1.00  0.00    -0.246 OA
BRANCH  27  29
ATOM     29  C   UNL A   1      34.304  33.239  28.477  1.00  0.00     0.060 A 
ATOM     30  C   UNL A   1      35.453  33.834  27.928  1.00  0.00     0.016 A 
ATOM     31  C   UNL A   1      34.396  32.187  29.379  1.00  0.00     0.016 A 
ATOM     32  C   UNL A   1      36.711  33.464  28.381  1.00  0.00     0.010 A 
ATOM     33  C   UNL A   1      35.623  31.907  29.921  1.00  0.00     0.010 A 
ATOM     34  C   UNL A   1      36.776  32.511  29.388  1.00  0.00    -0.014 A 
BRANCH  34  35
ATOM     35  C   UNL A   1      37.987  31.797  29.736  1.00  0.00     0.031 A 
ATOM     36  C   UNL A   1      38.400  30.561  29.063  1.00  0.00     0.074 A 
ATOM     37  C   UNL A   1      38.747  32.535  30.577  1.00  0.00     0.049 A 
ATOM     38  N   UNL A   1      39.367  29.832  29.491  1.00  0.00    -0.248 NA
ATOM     39  C   UNL A   1      37.761  29.994  27.877  1.00  0.00     0.031 C 
ATOM     40  C   UNL A   1      40.164  32.512  30.877  1.00  0.00     0.029 A 
ATOM     41  N   UNL A   1      38.246  33.492  31.458  1.00  0.00    -0.354 N 
ATOM     42  C   UNL A   1      39.700  28.949  28.486  1.00  0.00     0.074 A 
ATOM     43  C   UNL A   1      38.602  28.999  27.555  1.00  0.00     0.031 C 
ATOM     44  C   UNL A   1      40.371  33.194  32.023  1.00  0.00     0.029 A 
ATOM     45  C   UNL A   1      39.062  33.524  32.579  1.00  0.00     0.049 A 
ATOM     46  H   UNL A   1      37.448  34.049  31.312  1.00  0.00     0.167 HD
ATOM     47  C   UNL A   1      40.955  28.423  28.498  1.00  0.00     0.031 A 
ATOM     48  C   UNL A   1      38.545  33.017  33.740  1.00  0.00     0.031 A 
ATOM     49  C   UNL A   1      41.660  28.863  29.696  1.00  0.00     0.049 A 
ATOM     50  C   UNL A   1      39.272  31.748  34.121  1.00  0.00     0.074 A 
ATOM     51  C   UNL A   1      42.529  29.917  29.922  1.00  0.00     0.029 A 
ATOM     52  N   UNL A   1      41.175  28.467  30.932  1.00  0.00    -0.354 N 
ATOM     53  N   UNL A   1      39.753  30.882  33.268  1.00  0.00    -0.248 NA
ATOM     54  C   UNL A   1      39.604  31.430  35.502  1.00  0.00     0.031 C 
ATOM     55  C   UNL A   1      42.517  30.190  31.316  1.00  0.00     0.029 A 
ATOM     56  C   UNL A   1      41.650  29.298  31.925  1.00  0.00     0.049 A 
ATOM     57  H   UNL A   1      40.575  27.701  31.081  1.00  0.00     0.167 HD
ATOM     58  C   UNL A   1      40.538  29.980  33.942  1.00  0.00     0.074 A 
ATOM     59  C   UNL A   1      40.380  30.344  35.340  1.00  0.00     0.031 C 
ATOM     60  C   UNL A   1      41.305  29.038  33.315  1.00  0.00     0.031 A 
BRANCH  47  61
ATOM     61  C   UNL A   1      41.661  27.753  27.348  1.00  0.00    -0.014 A 
ATOM     62  C   UNL A   1      41.061  26.613  26.769  1.00  0.00     0.009 A 
ATOM     63  C   UNL A   1      42.887  28.154  26.799  1.00  0.00     0.009 A 
ATOM     64  C   UNL A   1      41.659  25.890  25.732  1.00  0.00     0.001 A 
ATOM     65  C   UNL A   1      43.497  27.427  25.760  1.00  0.00     0.001 A 
ATOM     66  C   UNL A   1      42.885  26.294  25.230  1.00  0.00     0.000 A 
ENDBRANCH  47  61
BRANCH  48  67
ATOM     67  C   UNL A   1      37.064  33.252  33.890  1.00  0.00    -0.014 A 
ATOM     68  C   UNL A   1      36.619  34.576  34.122  1.00  0.00     0.009 A 
ATOM     69  C   UNL A   1      36.112  32.310  33.475  1.00  0.00     0.009 A 
ATOM     70  C   UNL A   1      35.307  34.969  33.825  1.00  0.00     0.001 A 
ATOM     71  C   UNL A   1      34.788  32.702  33.208  1.00  0.00     0.001 A 
ATOM     72  C   UNL A   1      34.397  34.035  33.347  1.00  0.00     0.000 A 
ENDBRANCH  48  67
BRANCH  60  73
ATOM     73  C   UNL A   1      41.888  27.791  33.945  1.00  0.00    -0.014 A 
ATOM     74  C   UNL A   1      41.174  26.905  34.754  1.00  0.00     0.009 A 
ATOM     75  C   UNL A   1      43.200  27.391  33.589  1.00  0.00     0.009 A 
ATOM     76  C   UNL A   1      41.747  25.713  35.215  1.00  0.00     0.001 A 
ATOM     77  C   UNL A   1      43.751  26.173  33.986  1.00  0.00     0.001 A 
ATOM     78  C   UNL A   1      43.026  25.338  34.817  1.00  0.00     0.000 A 
ENDBRANCH  60  73
ENDBRANCH  34  35
ENDBRANCH  27  29
ENDBRANCH  26  27
ENDBRANCH  25  26
ENDBRANCH   1  25
TORSDOF 13
ENDMDL
MODEL 2
REMARK VINA RESULT:     -12.5      1.886      3.036
REMARK SMILES Cc1ccc(S(=O)(=O)N2c3ccc(C(=O)OCCOC(=O)c4ccc(-c5c6nc(c(-c7ccccc7)c7ccc([nH]7)c(-c7ccccc7)c7nc(c(-c8ccccc8)c8ccc5[nH]8)C=C7)C=C6)cc4)cc3C[C@H]2C)cc1
REMARK SMILES IDX 17 1 16 2 14 3 15 4 13 5 9 6 10 7 73 8 11 9 71 10 72 11
REMARK SMILES IDX 74 12 12 13 70 14 6 15 7 16 8 17 5 18 1 19 2 20 3 21 76 22
REMARK SMILES IDX 4 23 75 24 18 25 19 26 20 27 21 28 22 29 23 30 69 31 24 32
REMARK SMILES IDX 68 33 25 34 26 35 27 36 62 37 28 38 67 39 61 40 63 41 29 42
REMARK SMILES IDX 66 43 60 44 59 45 30 47 52 48 37 49 51 50 38 51 41 52 50 53
REMARK SMILES IDX 64 54 39 55 40 56 49 58 65 59 42 60 31 61 32 62 36 63 33 64
REMARK SMILES IDX 35 65 34 66 53 67 54 68 58 69 55 70 57 71 56 72 43 73 44 74
REMARK SMILES IDX 48 75 45 76 47 77 46 78
REMARK H PARENT 63 46 41 57
REMARK Flexibility Score: inf
ROOT
ATOM      1  C   UNL A   1      31.652  31.789  27.058  1.00  0.00     0.275 C 
ENDROOT
BRANCH   1   2
ATOM      2  O   UNL A   1      32.219  30.843  26.138  1.00  0.00    -0.458 OA
BRANCH   2   3
ATOM      3  C   UNL A   1      33.197  30.113  26.738  1.00  0.00     0.338 C 
ATOM      4  O   UNL A   1      34.170  30.578  27.318  1.00  0.00    -0.246 OA
BRANCH   3   5
ATOM      5  C   UNL A   1      33.070  28.656  26.534  1.00  0.00     0.060 A 
ATOM      6  N   UNL A   1      32.414  24.568  25.832  1.00  0.00    -0.263 N 
ATOM      7  C   UNL A   1      32.501  25.981  26.105  1.00  0.00     0.055 A 
ATOM      8  C   UNL A   1      33.793  24.210  25.301  1.00  0.00     0.101 C 
ATOM      9  C   UNL A   1      31.594  26.735  26.822  1.00  0.00     0.028 A 
ATOM     10  C   UNL A   1      33.678  26.539  25.600  1.00  0.00    -0.021 A 
ATOM     11  C   UNL A   1      34.403  25.527  24.769  1.00  0.00     0.063 C 
ATOM     12  C   UNL A   1      34.619  23.670  26.478  1.00  0.00     0.032 C 
ATOM     13  C   UNL A   1      31.873  28.085  27.010  1.00  0.00     0.018 A 
ATOM     14  C   UNL A   1      33.997  27.873  25.831  1.00  0.00     0.021 A 
BRANCH   6  15
ATOM     15  S   UNL A   1      31.073  24.162  24.825  1.00  0.00     0.264 S 
ATOM     16  O   UNL A   1      29.954  23.826  25.694  1.00  0.00    -0.201 OA
ATOM     17  O   UNL A   1      31.526  23.240  23.810  1.00  0.00    -0.201 OA
BRANCH  15  18
ATOM     18  C   UNL A   1      30.600  25.640  23.941  1.00  0.00     0.088 A 
ATOM     19  C   UNL A   1      29.363  29.341  22.116  1.00  0.00     0.044 C 
ATOM     20  C   UNL A   1      29.780  28.037  22.728  1.00  0.00    -0.051 A 
ATOM     21  C   UNL A   1      28.965  27.414  23.679  1.00  0.00     0.005 A 
ATOM     22  C   UNL A   1      30.979  27.423  22.354  1.00  0.00     0.005 A 
ATOM     23  C   UNL A   1      29.371  26.223  24.285  1.00  0.00     0.022 A 
ATOM     24  C   UNL A   1      31.383  26.225  22.951  1.00  0.00     0.022 A 
ENDBRANCH  15  18
ENDBRANCH   6  15
ENDBRANCH   3   5
ENDBRANCH   2   3
ENDBRANCH   1   2
BRANCH   1  25
ATOM     25  C   UNL A   1      32.197  33.217  26.931  1.00  0.00     0.275 C 
BRANCH  25  26
ATOM     26  O   UNL A   1      32.281  34.087  28.095  1.00  0.00    -0.458 OA
BRANCH  26  27
ATOM     27  C   UNL A   1      33.348  34.741  28.609  1.00  0.00     0.338 C 
ATOM     28  O   UNL A   1      33.351  35.953  28.776  1.00  0.00    -0.246 OA
BRANCH  27  29
ATOM     29  C   UNL A   1      34.524  33.943  28.979  1.00  0.00     0.060 A 
ATOM     30  C   UNL A   1      34.389  32.947  29.962  1.00  0.00     0.016 A 
ATOM     31  C   UNL A   1      35.717  34.119  28.290  1.00  0.00     0.016 A 
ATOM     32  C   UNL A   1      35.411  32.032  30.170  1.00  0.00     0.010 A 
ATOM     33  C   UNL A   1      36.676  33.147  28.398  1.00  0.00     0.010 A 
ATOM     34  C   UNL A   1      36.540  32.137  29.368  1.00  0.00    -0.014 A 
BRANCH  34  35
ATOM     35  C   UNL A   1      37.797  31.484  29.668  1.00  0.00     0.031 A 
ATOM     36  C   UNL A   1      38.139  30.150  29.163  1.00  0.00     0.074 A 
ATOM     37  C   UNL A   1      38.648  32.348  30.266  1.00  0.00     0.049 A 
ATOM     38  N   UNL A   1      39.165  29.498  29.576  1.00  0.00    -0.248 NA
ATOM     39  C   UNL A   1      37.359  29.396  28.184  1.00  0.00     0.031 C 
ATOM     40  C   UNL A   1      40.093  32.368  30.376  1.00  0.00     0.029 A 
ATOM     41  N   UNL A   1      38.251  33.443  31.033  1.00  0.00    -0.354 N 
ATOM     42  C   UNL A   1      39.377  28.457  28.698  1.00  0.00     0.074 A 
ATOM     43  C   UNL A   1      38.167  28.356  27.925  1.00  0.00     0.031 C 
ATOM     44  C   UNL A   1      40.437  33.232  31.354  1.00  0.00     0.029 A 
ATOM     45  C   UNL A   1      39.206  33.659  32.015  1.00  0.00     0.049 A 
ATOM     46  H   UNL A   1      37.432  33.972  30.902  1.00  0.00     0.167 HD
ATOM     47  C   UNL A   1      40.632  27.932  28.632  1.00  0.00     0.031 A 
ATOM     48  C   UNL A   1      38.854  33.356  33.302  1.00  0.00     0.031 A 
ATOM     49  C   UNL A   1      41.480  28.564  29.636  1.00  0.00     0.049 A 
ATOM     50  C   UNL A   1      39.646  32.166  33.791  1.00  0.00     0.074 A 
ATOM     51  C   UNL A   1      42.354  29.635  29.566  1.00  0.00     0.029 A 
ATOM     52  N   UNL A   1      41.168  28.384  30.975  1.00  0.00    -0.354 N 
ATOM     53  N   UNL A   1      40.025  31.165  33.040  1.00  0.00    -0.248 NA
ATOM     54  C   UNL A   1      40.160  32.082  35.151  1.00  0.00     0.031 C 
ATOM     55  C   UNL A   1      42.521  30.139  30.884  1.00  0.00     0.029 A 
ATOM     56  C   UNL A   1      41.756  29.367  31.743  1.00  0.00     0.049 A 
ATOM     57  H   UNL A   1      40.606  27.657  31.327  1.00  0.00     0.167 HD
ATOM     58  C   UNL A   1      40.906  30.385  33.745  1.00  0.00     0.074 A 
ATOM     59  C   UNL A   1      40.926  30.980  35.071  1.00  0.00     0.031 C 
ATOM     60  C   UNL A   1      41.599  29.346  33.190  1.00  0.00     0.031 A 
BRANCH  47  61
ATOM     61  C   UNL A   1      41.192  27.075  27.528  1.00  0.00    -0.014 A 
ATOM     62  C   UNL A   1      41.432  25.710  27.799  1.00  0.00     0.009 A 
ATOM     63  C   UNL A   1      41.519  27.517  26.238  1.00  0.00     0.009 A 
ATOM     64  C   UNL A   1      41.996  24.841  26.859  1.00  0.00     0.001 A 
ATOM     65  C   UNL A   1      42.094  26.649  25.290  1.00  0.00     0.001 A 
ATOM     66  C   UNL A   1      42.335  25.314  25.603  1.00  0.00     0.000 A 
ENDBRANCH  47  61
BRANCH  48  67
ATOM     67  C   UNL A   1      37.402  33.623  33.604  1.00  0.00    -0.014 A 
ATOM     68  C   UNL A   1      36.900  34.927  33.376  1.00  0.00     0.009 A 
ATOM     69  C   UNL A   1      36.470  32.587  33.764  1.00  0.00     0.009 A 
ATOM     70  C   UNL A   1      35.533  35.162  33.183  1.00  0.00     0.001 A 
ATOM     71  C   UNL A   1      35.094  32.832  33.600  1.00  0.00     0.001 A 
ATOM     72  C   UNL A   1      34.631  34.108  33.274  1.00  0.00     0.000 A 
ENDBRANCH  48  67
BRANCH  60  73
ATOM     73  C   UNL A   1      42.280  28.220  33.937  1.00  0.00    -0.014 A 
ATOM     74  C   UNL A   1      41.609  27.183  34.589  1.00  0.00     0.009 A 
ATOM     75  C   UNL A   1      43.690  28.100  33.864  1.00  0.00     0.009 A 
ATOM     76  C   UNL A   1      42.304  26.113  35.168  1.00  0.00     0.001 A 
ATOM     77  C   UNL A   1      44.382  27.004  34.377  1.00  0.00     0.001 A 
ATOM     78  C   UNL A   1      43.686  26.014  35.047  1.00  0.00     0.000 A 
ENDBRANCH  60  73
ENDBRANCH  34  35
ENDBRANCH  27  29
ENDBRANCH  26  27
ENDBRANCH  25  26
ENDBRANCH   1  25
TORSDOF 13
ENDMDL
MODEL 3
REMARK VINA RESULT:     -12.5      1.252      1.873
REMARK SMILES Cc1ccc(S(=O)(=O)N2c3ccc(C(=O)OCCOC(=O)c4ccc(-c5c6nc(c(-c7ccccc7)c7ccc([nH]7)c(-c7ccccc7)c7nc(c(-c8ccccc8)c8ccc5[nH]8)C=C7)C=C6)cc4)cc3C[C@H]2C)cc1
REMARK SMILES IDX 17 1 16 2 14 3 15 4 13 5 9 6 10 7 73 8 11 9 71 10 72 11
REMARK SMILES IDX 74 12 12 13 70 14 6 15 7 16 8 17 5 18 1 19 2 20 3 21 76 22
REMARK SMILES IDX 4 23 75 24 18 25 19 26 20 27 21 28 22 29 23 30 69 31 24 32
REMARK SMILES IDX 68 33 25 34 26 35 27 36 62 37 28 38 67 39 61 40 63 41 29 42
REMARK SMILES IDX 66 43 60 44 59 45 30 47 52 48 37 49 51 50 38 51 41 52 50 53
REMARK SMILES IDX 64 54 39 55 40 56 49 58 65 59 42 60 31 61 32 62 36 63 33 64
REMARK SMILES IDX 35 65 34 66 53 67 54 68 58 69 55 70 57 71 56 72 43 73 44 74
REMARK SMILES IDX 48 75 45 76 47 77 46 78
REMARK H PARENT 63 46 41 57
REMARK Flexibility Score: inf
ROOT
ATOM      1  C   UNL A   1      32.027  31.345  26.449  1.00  0.00     0.275 C 
ENDROOT
BRANCH   1   2
ATOM      2  O   UNL A   1      31.880  30.087  27.125  1.00  0.00    -0.458 OA
BRANCH   2   3
ATOM      3  C   UNL A   1      33.025  29.359  27.046  1.00  0.00     0.338 C 
ATOM      4  O   UNL A   1      34.152  29.791  27.255  1.00  0.00    -0.246 OA
BRANCH   3   5
ATOM      5  C   UNL A   1      32.829  27.980  26.554  1.00  0.00     0.060 A 
ATOM      6  N   UNL A   1      32.485  23.965  25.375  1.00  0.00    -0.263 N 
ATOM      7  C   UNL A   1      32.741  25.317  25.803  1.00  0.00     0.055 A 
ATOM      8  C   UNL A   1      30.977  23.919  25.181  1.00  0.00     0.101 C 
ATOM      9  C   UNL A   1      33.973  25.934  25.882  1.00  0.00     0.028 A 
ATOM     10  C   UNL A   1      31.560  26.004  26.095  1.00  0.00    -0.021 A 
ATOM     11  C   UNL A   1      30.398  25.062  26.046  1.00  0.00     0.063 C 
ATOM     12  C   UNL A   1      30.692  24.171  23.692  1.00  0.00     0.032 C 
ATOM     13  C   UNL A   1      34.013  27.264  26.286  1.00  0.00     0.018 A 
ATOM     14  C   UNL A   1      31.581  27.351  26.443  1.00  0.00     0.021 A 
BRANCH   6  15
ATOM     15  S   UNL A   1      33.159  22.786  26.439  1.00  0.00     0.264 S 
ATOM     16  O   UNL A   1      32.194  22.545  27.502  1.00  0.00    -0.201 OA
ATOM     17  O   UNL A   1      34.518  23.169  26.744  1.00  0.00    -0.201 OA
BRANCH  15  18
ATOM     18  C   UNL A   1      33.297  21.257  25.526  1.00  0.00     0.088 A 
ATOM     19  C   UNL A   1      33.839  17.454  23.575  1.00  0.00     0.044 C 
ATOM     20  C   UNL A   1      33.654  18.792  24.227  1.00  0.00    -0.051 A 
ATOM     21  C   UNL A   1      34.755  19.479  24.749  1.00  0.00     0.005 A 
ATOM     22  C   UNL A   1      32.385  19.375  24.314  1.00  0.00     0.005 A 
ATOM     23  C   UNL A   1      34.579  20.704  25.398  1.00  0.00     0.022 A 
ATOM     24  C   UNL A   1      32.209  20.606  24.952  1.00  0.00     0.022 A 
ENDBRANCH  15  18
ENDBRANCH   6  15
ENDBRANCH   3   5
ENDBRANCH   2   3
ENDBRANCH   1   2
BRANCH   1  25
ATOM     25  C   UNL A   1      31.467  32.553  27.208  1.00  0.00     0.275 C 
BRANCH  25  26
ATOM     26  O   UNL A   1      32.181  33.822  27.218  1.00  0.00    -0.458 OA
BRANCH  26  27
ATOM     27  C   UNL A   1      32.879  34.412  28.215  1.00  0.00     0.338 C 
ATOM     28  O   UNL A   1      32.486  35.428  28.773  1.00  0.00    -0.246 OA
BRANCH  27  29
ATOM     29  C   UNL A   1      34.141  33.785  28.629  1.00  0.00     0.060 A 
ATOM     30  C   UNL A   1      34.110  32.772  29.603  1.00  0.00     0.016 A 
ATOM     31  C   UNL A   1      35.322  34.134  27.988  1.00  0.00     0.016 A 
ATOM     32  C   UNL A   1      35.242  32.009  29.848  1.00  0.00     0.010 A 
ATOM     33  C   UNL A   1      36.404  33.307  28.132  1.00  0.00     0.010 A 
ATOM     34  C   UNL A   1      36.375  32.279  29.092  1.00  0.00    -0.014 A 
BRANCH  34  35
ATOM     35  C   UNL A   1      37.699  31.808  29.439  1.00  0.00     0.031 A 
ATOM     36  C   UNL A   1      38.234  30.526  28.970  1.00  0.00     0.074 A 
ATOM     37  C   UNL A   1      38.407  32.789  30.044  1.00  0.00     0.049 A 
ATOM     38  N   UNL A   1      39.326  30.025  29.423  1.00  0.00    -0.248 NA
ATOM     39  C   UNL A   1      37.594  29.658  27.984  1.00  0.00     0.031 C 
ATOM     40  C   UNL A   1      39.832  33.006  30.195  1.00  0.00     0.029 A 
ATOM     41  N   UNL A   1      37.842  33.831  30.779  1.00  0.00    -0.354 N 
ATOM     42  C   UNL A   1      39.704  29.009  28.572  1.00  0.00     0.074 A 
ATOM     43  C   UNL A   1      38.542  28.733  27.768  1.00  0.00     0.031 C 
ATOM     44  C   UNL A   1      40.026  33.924  31.166  1.00  0.00     0.029 A 
ATOM     45  C   UNL A   1      38.729  34.189  31.783  1.00  0.00     0.049 A 
ATOM     46  H   UNL A   1      36.964  34.241  30.615  1.00  0.00     0.167 HD
ATOM     47  C   UNL A   1      41.019  28.659  28.551  1.00  0.00     0.031 A 
ATOM     48  C   UNL A   1      38.382  33.861  33.066  1.00  0.00     0.031 A 
ATOM     49  C   UNL A   1      41.744  29.416  29.566  1.00  0.00     0.049 A 
ATOM     50  C   UNL A   1      39.313  32.797  33.599  1.00  0.00     0.074 A 
ATOM     51  C   UNL A   1      42.466  30.595  29.501  1.00  0.00     0.029 A 
ATOM     52  N   UNL A   1      41.418  29.215  30.899  1.00  0.00    -0.354 N 
ATOM     53  N   UNL A   1      39.846  31.846  32.878  1.00  0.00    -0.248 NA
ATOM     54  C   UNL A   1      39.792  32.804  34.974  1.00  0.00     0.031 C 
ATOM     55  C   UNL A   1      42.523  31.136  30.813  1.00  0.00     0.029 A 
ATOM     56  C   UNL A   1      41.844  30.280  31.665  1.00  0.00     0.049 A 
ATOM     57  H   UNL A   1      40.949  28.424  31.249  1.00  0.00     0.167 HD
ATOM     58  C   UNL A   1      40.804  31.203  33.623  1.00  0.00     0.074 A 
ATOM     59  C   UNL A   1      40.703  31.815  34.937  1.00  0.00     0.031 C 
ATOM     60  C   UNL A   1      41.648  30.260  33.106  1.00  0.00     0.031 A 
BRANCH  47  61
ATOM     61  C   UNL A   1      41.724  27.870  27.480  1.00  0.00    -0.014 A 
ATOM     62  C   UNL A   1      41.901  28.472  26.215  1.00  0.00     0.009 A 
ATOM     63  C   UNL A   1      42.215  26.564  27.618  1.00  0.00     0.009 A 
ATOM     64  C   UNL A   1      42.497  27.806  25.139  1.00  0.00     0.001 A 
ATOM     65  C   UNL A   1      42.810  25.886  26.537  1.00  0.00     0.001 A 
ATOM     66  C   UNL A   1      42.947  26.506  25.298  1.00  0.00     0.000 A 
ENDBRANCH  47  61
BRANCH  48  67
ATOM     67  C   UNL A   1      36.899  33.932  33.322  1.00  0.00    -0.014 A 
ATOM     68  C   UNL A   1      36.244  35.170  33.115  1.00  0.00     0.009 A 
ATOM     69  C   UNL A   1      36.101  32.783  33.414  1.00  0.00     0.009 A 
ATOM     70  C   UNL A   1      34.864  35.237  32.880  1.00  0.00     0.001 A 
ATOM     71  C   UNL A   1      34.712  32.858  33.207  1.00  0.00     0.001 A 
ATOM     72  C   UNL A   1      34.101  34.076  32.904  1.00  0.00     0.000 A 
ENDBRANCH  48  67
BRANCH  60  73
ATOM     73  C   UNL A   1      42.452  29.248  33.894  1.00  0.00    -0.014 A 
ATOM     74  C   UNL A   1      41.990  27.983  34.262  1.00  0.00     0.009 A 
ATOM     75  C   UNL A   1      43.818  29.515  34.162  1.00  0.00     0.009 A 
ATOM     76  C   UNL A   1      42.826  27.055  34.896  1.00  0.00     0.001 A 
ATOM     77  C   UNL A   1      44.673  28.571  34.729  1.00  0.00     0.001 A 
ATOM     78  C   UNL A   1      44.170  27.341  35.113  1.00  0.00     0.000 A 
ENDBRANCH  60  73
ENDBRANCH  34  35
ENDBRANCH  27  29
ENDBRANCH  26  27
ENDBRANCH  25  26
ENDBRANCH   1  25
TORSDOF 13
ENDMDL
