MODEL 1
REMARK VINA RESULT:     -10.1      0.000      0.000
REMARK SMILES CC(C)C[C@H](NC(=O)c1cc(Cl)nnc1Cl)C(=O)OCCOC(=O)c1ccc(-c2c3nc(c(-c4ccccc4)c4ccc([nH]4)c(-c4ccccc4)c4nc(c(-c5ccccc5)c5ccc2[nH]5)C=C4)C=C3)cc1
REMARK SMILES IDX 20 1 19 2 17 3 18 4 5 5 4 6 2 7 1 8 3 9 6 10 7 11 8 13 9 14
REMARK SMILES IDX 10 15 15 16 11 17 14 18 16 19 12 20 13 21 21 22 22 23 23 24
REMARK SMILES IDX 24 25 25 26 26 27 72 28 27 29 71 30 28 31 29 32 30 33 65 34
REMARK SMILES IDX 31 35 70 36 64 37 66 38 32 39 69 40 63 41 62 42 33 44 55 45
REMARK SMILES IDX 40 46 54 47 41 48 44 49 53 50 67 51 42 52 43 53 52 55 68 56
REMARK SMILES IDX 45 57 34 58 35 59 39 60 36 61 38 62 37 63 56 64 57 65 61 66
REMARK SMILES IDX 58 67 60 68 59 69 46 70 47 71 51 72 48 73 50 74 49 75
REMARK H PARENT 6 12 66 43 44 54
REMARK Flexibility Score: inf
ROOT
ATOM      1  C   UNL A   1      31.093  31.005  25.853  1.00  0.00     0.274 C 
ENDROOT
BRANCH   1   2
ATOM      2  O   UNL A   1      32.249  30.283  25.384  1.00  0.00    -0.461 OA
BRANCH   2   3
ATOM      3  C   UNL A   1      32.396  29.029  25.898  1.00  0.00     0.328 C 
ATOM      4  O   UNL A   1      33.330  28.688  26.614  1.00  0.00    -0.250 OA
BRANCH   3   5
ATOM      5  C   UNL A   1      31.291  28.056  25.429  1.00  0.00     0.192 C 
BRANCH   5   6
ATOM      6  C   UNL A   1      31.195  26.848  26.377  1.00  0.00     0.040 C 
BRANCH   6   7
ATOM      7  C   UNL A   1      31.577  25.477  25.777  1.00  0.00    -0.015 C 
ATOM      8  C   UNL A   1      32.971  24.999  26.198  1.00  0.00     0.007 C 
ATOM      9  C   UNL A   1      30.541  24.427  26.182  1.00  0.00     0.007 C 
ENDBRANCH   6   7
ENDBRANCH   5   6
BRANCH   5  10
ATOM     10  N   UNL A   1      31.492  27.669  24.019  1.00  0.00    -0.338 N 
ATOM     11  C   UNL A   1      30.806  28.001  22.883  1.00  0.00     0.255 C 
ATOM     12  H   UNL A   1      32.256  27.065  23.870  1.00  0.00     0.164 HD
ATOM     13  O   UNL A   1      31.194  27.655  21.773  1.00  0.00    -0.269 OA
BRANCH  11  14
ATOM     14  C   UNL A   1      29.519  28.684  22.971  1.00  0.00     0.082 A 
ATOM     15  C   UNL A   1      29.493  30.046  22.664  1.00  0.00     0.060 A 
ATOM     16  C   UNL A   1      28.359  28.053  23.373  1.00  0.00     0.164 A 
ATOM     17  C   UNL A   1      28.275  30.681  22.712  1.00  0.00     0.152 A 
ATOM     18  N   UNL A   1      27.181  28.711  23.399  1.00  0.00    -0.136 NA
ATOM     19  Cl  UNL A   1      28.258  26.415  23.865  1.00  0.00    -0.059 Cl
ATOM     20  Cl  UNL A   1      28.106  32.332  22.304  1.00  0.00    -0.060 Cl
ATOM     21  N   UNL A   1      27.137  30.042  23.052  1.00  0.00    -0.137 NA
ENDBRANCH  11  14
ENDBRANCH   5  10
ENDBRANCH   3   5
ENDBRANCH   2   3
ENDBRANCH   1   2
BRANCH   1  22
ATOM     22  C   UNL A   1      31.470  32.272  26.630  1.00  0.00     0.275 C 
BRANCH  22  23
ATOM     23  O   UNL A   1      32.733  32.162  27.315  1.00  0.00    -0.458 OA
BRANCH  23  24
ATOM     24  C   UNL A   1      33.115  33.278  27.979  1.00  0.00     0.338 C 
ATOM     25  O   UNL A   1      32.464  34.297  28.140  1.00  0.00    -0.246 OA
BRANCH  24  26
ATOM     26  C   UNL A   1      34.417  33.071  28.629  1.00  0.00     0.060 A 
ATOM     27  C   UNL A   1      35.565  33.459  27.935  1.00  0.00     0.016 A 
ATOM     28  C   UNL A   1      34.520  32.376  29.835  1.00  0.00     0.016 A 
ATOM     29  C   UNL A   1      36.825  33.125  28.415  1.00  0.00     0.010 A 
ATOM     30  C   UNL A   1      35.788  32.040  30.321  1.00  0.00     0.010 A 
ATOM     31  C   UNL A   1      36.943  32.390  29.599  1.00  0.00    -0.014 A 
BRANCH  31  32
ATOM     32  C   UNL A   1      38.277  31.913  30.026  1.00  0.00     0.031 A 
ATOM     33  C   UNL A   1      38.792  30.599  29.515  1.00  0.00     0.074 A 
ATOM     34  C   UNL A   1      39.044  32.679  30.821  1.00  0.00     0.049 A 
ATOM     35  N   UNL A   1      39.900  29.975  29.821  1.00  0.00    -0.248 NA
ATOM     36  C   UNL A   1      37.958  29.899  28.523  1.00  0.00     0.031 C 
ATOM     37  C   UNL A   1      38.689  34.012  31.309  1.00  0.00     0.029 A 
ATOM     38  N   UNL A   1      40.288  32.446  31.348  1.00  0.00    -0.354 N 
ATOM     39  C   UNL A   1      39.891  28.806  29.071  1.00  0.00     0.074 A 
ATOM     40  C   UNL A   1      38.666  28.799  28.304  1.00  0.00     0.031 C 
ATOM     41  C   UNL A   1      39.699  34.482  32.061  1.00  0.00     0.029 A 
ATOM     42  C   UNL A   1      40.747  33.467  32.142  1.00  0.00     0.049 A 
ATOM     43  H   UNL A   1      40.803  31.626  31.174  1.00  0.00     0.167 HD
ATOM     44  C   UNL A   1      40.827  27.830  29.028  1.00  0.00     0.031 A 
ATOM     45  C   UNL A   1      41.874  33.566  32.873  1.00  0.00     0.031 A 
ATOM     46  C   UNL A   1      42.048  27.841  29.784  1.00  0.00     0.049 A 
ATOM     47  C   UNL A   1      42.851  32.425  32.881  1.00  0.00     0.074 A 
ATOM     48  C   UNL A   1      43.047  26.884  29.814  1.00  0.00     0.029 A 
ATOM     49  N   UNL A   1      42.439  28.860  30.635  1.00  0.00    -0.354 N 
ATOM     50  N   UNL A   1      42.807  31.300  32.209  1.00  0.00    -0.248 NA
ATOM     51  C   UNL A   1      44.025  32.560  33.755  1.00  0.00     0.031 C 
ATOM     52  C   UNL A   1      44.028  27.309  30.714  1.00  0.00     0.029 A 
ATOM     53  C   UNL A   1      43.657  28.548  31.209  1.00  0.00     0.049 A 
ATOM     54  H   UNL A   1      41.926  29.684  30.805  1.00  0.00     0.167 HD
ATOM     55  C   UNL A   1      43.951  30.601  32.567  1.00  0.00     0.074 A 
ATOM     56  C   UNL A   1      44.675  31.428  33.510  1.00  0.00     0.031 C 
ATOM     57  C   UNL A   1      44.363  29.381  32.146  1.00  0.00     0.031 A 
BRANCH  44  58
ATOM     58  C   UNL A   1      40.562  26.646  28.146  1.00  0.00    -0.014 A 
ATOM     59  C   UNL A   1      39.741  25.594  28.577  1.00  0.00     0.009 A 
ATOM     60  C   UNL A   1      41.070  26.627  26.838  1.00  0.00     0.009 A 
ATOM     61  C   UNL A   1      39.438  24.541  27.713  1.00  0.00     0.001 A 
ATOM     62  C   UNL A   1      40.751  25.582  25.971  1.00  0.00     0.001 A 
ATOM     63  C   UNL A   1      39.936  24.539  26.409  1.00  0.00     0.000 A 
ENDBRANCH  44  58
BRANCH  45  64
ATOM     64  C   UNL A   1      42.119  34.788  33.676  1.00  0.00    -0.014 A 
ATOM     65  C   UNL A   1      41.716  34.852  35.016  1.00  0.00     0.009 A 
ATOM     66  C   UNL A   1      42.791  35.885  33.111  1.00  0.00     0.009 A 
ATOM     67  C   UNL A   1      41.978  35.993  35.777  1.00  0.00     0.001 A 
ATOM     68  C   UNL A   1      43.068  37.016  33.881  1.00  0.00     0.001 A 
ATOM     69  C   UNL A   1      42.660  37.070  35.212  1.00  0.00     0.000 A 
ENDBRANCH  45  64
BRANCH  57  70
ATOM     70  C   UNL A   1      45.663  28.858  32.681  1.00  0.00    -0.014 A 
ATOM     71  C   UNL A   1      46.880  29.215  32.084  1.00  0.00     0.009 A 
ATOM     72  C   UNL A   1      45.673  28.097  33.861  1.00  0.00     0.009 A 
ATOM     73  C   UNL A   1      48.088  28.814  32.658  1.00  0.00     0.001 A 
ATOM     74  C   UNL A   1      46.883  27.715  34.442  1.00  0.00     0.001 A 
ATOM     75  C   UNL A   1      48.089  28.073  33.840  1.00  0.00     0.000 A 
ENDBRANCH  57  70
ENDBRANCH  31  32
ENDBRANCH  24  26
ENDBRANCH  23  24
ENDBRANCH  22  23
ENDBRANCH   1  22
TORSDOF 15
ENDMDL
MODEL 2
REMARK VINA RESULT:     -10.1      2.039      3.247
REMARK SMILES CC(C)C[C@H](NC(=O)c1cc(Cl)nnc1Cl)C(=O)OCCOC(=O)c1ccc(-c2c3nc(c(-c4ccccc4)c4ccc([nH]4)c(-c4ccccc4)c4nc(c(-c5ccccc5)c5ccc2[nH]5)C=C4)C=C3)cc1
REMARK SMILES IDX 20 1 19 2 17 3 18 4 5 5 4 6 2 7 1 8 3 9 6 10 7 11 8 13 9 14
REMARK SMILES IDX 10 15 15 16 11 17 14 18 16 19 12 20 13 21 21 22 22 23 23 24
REMARK SMILES IDX 24 25 25 26 26 27 72 28 27 29 71 30 28 31 29 32 30 33 65 34
REMARK SMILES IDX 31 35 70 36 64 37 66 38 32 39 69 40 63 41 62 42 33 44 55 45
REMARK SMILES IDX 40 46 54 47 41 48 44 49 53 50 67 51 42 52 43 53 52 55 68 56
REMARK SMILES IDX 45 57 34 58 35 59 39 60 36 61 38 62 37 63 56 64 57 65 61 66
REMARK SMILES IDX 58 67 60 68 59 69 46 70 47 71 51 72 48 73 50 74 49 75
REMARK H PARENT 6 12 66 43 44 54
REMARK Flexibility Score: inf
ROOT
ATOM      1  C   UNL A   1      32.816  30.289  26.690  1.00  0.00     0.274 C 
ENDROOT
BRANCH   1   2
ATOM      2  O   UNL A   1      31.774  29.450  26.153  1.00  0.00    -0.461 OA
BRANCH   2   3
ATOM      3  C   UNL A   1      31.570  28.280  26.824  1.00  0.00     0.328 C 
ATOM      4  O   UNL A   1      31.324  28.213  28.023  1.00  0.00    -0.250 OA
BRANCH   3   5
ATOM      5  C   UNL A   1      31.747  27.035  25.926  1.00  0.00     0.192 C 
BRANCH   5   6
ATOM      6  C   UNL A   1      31.106  27.266  24.547  1.00  0.00     0.040 C 
BRANCH   6   7
ATOM      7  C   UNL A   1      32.081  27.482  23.368  1.00  0.00    -0.015 C 
ATOM      8  C   UNL A   1      33.533  27.135  23.711  1.00  0.00     0.007 C 
ATOM      9  C   UNL A   1      31.634  26.647  22.167  1.00  0.00     0.007 C 
ENDBRANCH   6   7
ENDBRANCH   5   6
BRANCH   5  10
ATOM     10  N   UNL A   1      31.245  25.822  26.601  1.00  0.00    -0.338 N 
ATOM     11  C   UNL A   1      31.683  24.526  26.575  1.00  0.00     0.255 C 
ATOM     12  H   UNL A   1      30.456  25.973  27.170  1.00  0.00     0.164 HD
ATOM     13  O   UNL A   1      31.188  23.667  27.296  1.00  0.00    -0.269 OA
BRANCH  11  14
ATOM     14  C   UNL A   1      32.681  24.103  25.600  1.00  0.00     0.082 A 
ATOM     15  C   UNL A   1      34.024  24.191  25.975  1.00  0.00     0.060 A 
ATOM     16  C   UNL A   1      32.356  23.663  24.333  1.00  0.00     0.164 A 
ATOM     17  C   UNL A   1      34.963  23.759  25.069  1.00  0.00     0.152 A 
ATOM     18  N   UNL A   1      33.308  23.240  23.475  1.00  0.00    -0.136 NA
ATOM     19  Cl  UNL A   1      30.764  23.589  23.704  1.00  0.00    -0.059 Cl
ATOM     20  Cl  UNL A   1      36.632  23.764  25.434  1.00  0.00    -0.060 Cl
ATOM     21  N   UNL A   1      34.630  23.277  23.854  1.00  0.00    -0.137 NA
ENDBRANCH  11  14
ENDBRANCH   5  10
ENDBRANCH   3   5
ENDBRANCH   2   3
ENDBRANCH   1   2
BRANCH   1  22
ATOM     22  C   UNL A   1      32.270  31.601  27.265  1.00  0.00     0.275 C 
BRANCH  22  23
ATOM     23  O   UNL A   1      33.095  32.743  26.957  1.00  0.00    -0.458 OA
BRANCH  23  24
ATOM     24  C   UNL A   1      33.262  33.613  27.981  1.00  0.00     0.338 C 
ATOM     25  O   UNL A   1      32.455  34.433  28.387  1.00  0.00    -0.246 OA
BRANCH  24  26
ATOM     26  C   UNL A   1      34.535  33.360  28.670  1.00  0.00     0.060 A 
ATOM     27  C   UNL A   1      35.718  33.629  27.978  1.00  0.00     0.016 A 
ATOM     28  C   UNL A   1      34.570  32.734  29.916  1.00  0.00     0.016 A 
ATOM     29  C   UNL A   1      36.945  33.241  28.504  1.00  0.00     0.010 A 
ATOM     30  C   UNL A   1      35.804  32.346  30.448  1.00  0.00     0.010 A 
ATOM     31  C   UNL A   1      36.992  32.573  29.732  1.00  0.00    -0.014 A 
BRANCH  31  32
ATOM     32  C   UNL A   1      38.283  32.037  30.214  1.00  0.00     0.031 A 
ATOM     33  C   UNL A   1      38.791  30.731  29.675  1.00  0.00     0.074 A 
ATOM     34  C   UNL A   1      39.023  32.742  31.088  1.00  0.00     0.049 A 
ATOM     35  N   UNL A   1      39.860  30.060  30.017  1.00  0.00    -0.248 NA
ATOM     36  C   UNL A   1      37.999  30.102  28.604  1.00  0.00     0.031 C 
ATOM     37  C   UNL A   1      38.678  34.063  31.615  1.00  0.00     0.029 A 
ATOM     38  N   UNL A   1      40.225  32.447  31.676  1.00  0.00    -0.354 N 
ATOM     39  C   UNL A   1      39.863  28.926  29.215  1.00  0.00     0.074 A 
ATOM     40  C   UNL A   1      38.687  28.992  28.377  1.00  0.00     0.031 C 
ATOM     41  C   UNL A   1      39.653  34.467  32.446  1.00  0.00     0.029 A 
ATOM     42  C   UNL A   1      40.665  33.417  32.542  1.00  0.00     0.049 A 
ATOM     43  H   UNL A   1      40.726  31.619  31.495  1.00  0.00     0.167 HD
ATOM     44  C   UNL A   1      40.771  27.924  29.182  1.00  0.00     0.031 A 
ATOM     45  C   UNL A   1      41.748  33.448  33.342  1.00  0.00     0.031 A 
ATOM     46  C   UNL A   1      41.943  27.862  30.009  1.00  0.00     0.049 A 
ATOM     47  C   UNL A   1      42.689  32.277  33.356  1.00  0.00     0.074 A 
ATOM     48  C   UNL A   1      42.911  26.874  30.054  1.00  0.00     0.029 A 
ATOM     49  N   UNL A   1      42.311  28.830  30.927  1.00  0.00    -0.354 N 
ATOM     50  N   UNL A   1      42.653  31.185  32.631  1.00  0.00    -0.248 NA
ATOM     51  C   UNL A   1      43.812  32.336  34.303  1.00  0.00     0.031 C 
ATOM     52  C   UNL A   1      43.848  27.227  31.029  1.00  0.00     0.029 A 
ATOM     53  C   UNL A   1      43.483  28.455  31.558  1.00  0.00     0.049 A 
ATOM     54  H   UNL A   1      41.813  29.661  31.105  1.00  0.00     0.167 HD
ATOM     55  C   UNL A   1      43.753  30.435  33.024  1.00  0.00     0.074 A 
ATOM     56  C   UNL A   1      44.442  31.196  34.046  1.00  0.00     0.031 C 
ATOM     57  C   UNL A   1      44.155  29.223  32.573  1.00  0.00     0.031 A 
BRANCH  44  58
ATOM     58  C   UNL A   1      40.526  26.789  28.232  1.00  0.00    -0.014 A 
ATOM     59  C   UNL A   1      39.689  25.720  28.585  1.00  0.00     0.009 A 
ATOM     60  C   UNL A   1      41.071  26.835  26.939  1.00  0.00     0.009 A 
ATOM     61  C   UNL A   1      39.405  24.715  27.659  1.00  0.00     0.001 A 
ATOM     62  C   UNL A   1      40.772  25.838  26.011  1.00  0.00     0.001 A 
ATOM     63  C   UNL A   1      39.940  24.778  26.371  1.00  0.00     0.000 A 
ENDBRANCH  44  58
BRANCH  45  64
ATOM     64  C   UNL A   1      41.979  34.625  34.214  1.00  0.00    -0.014 A 
ATOM     65  C   UNL A   1      42.694  35.732  33.739  1.00  0.00     0.009 A 
ATOM     66  C   UNL A   1      41.454  34.658  35.516  1.00  0.00     0.009 A 
ATOM     67  C   UNL A   1      42.883  36.852  34.552  1.00  0.00     0.001 A 
ATOM     68  C   UNL A   1      41.628  35.787  36.319  1.00  0.00     0.001 A 
ATOM     69  C   UNL A   1      42.344  36.881  35.838  1.00  0.00     0.000 A 
ENDBRANCH  45  64
BRANCH  57  70
ATOM     70  C   UNL A   1      45.404  28.636  33.158  1.00  0.00    -0.014 A 
ATOM     71  C   UNL A   1      46.663  28.952  32.629  1.00  0.00     0.009 A 
ATOM     72  C   UNL A   1      45.326  27.853  34.321  1.00  0.00     0.009 A 
ATOM     73  C   UNL A   1      47.824  28.491  33.252  1.00  0.00     0.001 A 
ATOM     74  C   UNL A   1      46.488  27.410  34.952  1.00  0.00     0.001 A 
ATOM     75  C   UNL A   1      47.736  27.728  34.417  1.00  0.00     0.000 A 
ENDBRANCH  57  70
ENDBRANCH  31  32
ENDBRANCH  24  26
ENDBRANCH  23  24
ENDBRANCH  22  23
ENDBRANCH   1  22
TORSDOF 15
ENDMDL
MODEL 3
REMARK VINA RESULT:     -10.1      2.070      6.826
REMARK SMILES CC(C)C[C@H](NC(=O)c1cc(Cl)nnc1Cl)C(=O)OCCOC(=O)c1ccc(-c2c3nc(c(-c4ccccc4)c4ccc([nH]4)c(-c4ccccc4)c4nc(c(-c5ccccc5)c5ccc2[nH]5)C=C4)C=C3)cc1
REMARK SMILES IDX 20 1 19 2 17 3 18 4 5 5 4 6 2 7 1 8 3 9 6 10 7 11 8 13 9 14
REMARK SMILES IDX 10 15 15 16 11 17 14 18 16 19 12 20 13 21 21 22 22 23 23 24
REMARK SMILES IDX 24 25 25 26 26 27 72 28 27 29 71 30 28 31 29 32 30 33 65 34
REMARK SMILES IDX 31 35 70 36 64 37 66 38 32 39 69 40 63 41 62 42 33 44 55 45
REMARK SMILES IDX 40 46 54 47 41 48 44 49 53 50 67 51 42 52 43 53 52 55 68 56
REMARK SMILES IDX 45 57 34 58 35 59 39 60 36 61 38 62 37 63 56 64 57 65 61 66
REMARK SMILES IDX 58 67 60 68 59 69 46 70 47 71 51 72 48 73 50 74 49 75
REMARK H PARENT 6 12 66 43 44 54
REMARK Flexibility Score: inf
ROOT
ATOM      1  C   UNL A   1      32.035  30.566  26.896  1.00  0.00     0.274 C 
ENDROOT
BRANCH   1   2
ATOM      2  O   UNL A   1      32.604  29.253  26.727  1.00  0.00    -0.461 OA
BRANCH   2   3
ATOM      3  C   UNL A   1      31.795  28.220  27.098  1.00  0.00     0.328 C 
ATOM      4  O   UNL A   1      31.142  28.200  28.135  1.00  0.00    -0.250 OA
BRANCH   3   5
ATOM      5  C   UNL A   1      31.836  27.039  26.102  1.00  0.00     0.192 C 
BRANCH   5   6
ATOM      6  C   UNL A   1      31.105  27.405  24.798  1.00  0.00     0.040 C 
BRANCH   6   7
ATOM      7  C   UNL A   1      31.996  27.623  23.555  1.00  0.00    -0.015 C 
ATOM      8  C   UNL A   1      33.460  27.235  23.782  1.00  0.00     0.007 C 
ATOM      9  C   UNL A   1      31.440  26.826  22.374  1.00  0.00     0.007 C 
ENDBRANCH   6   7
ENDBRANCH   5   6
BRANCH   5  10
ATOM     10  N   UNL A   1      31.320  25.804  26.725  1.00  0.00    -0.338 N 
ATOM     11  C   UNL A   1      31.726  24.502  26.622  1.00  0.00     0.255 C 
ATOM     12  H   UNL A   1      30.549  25.943  27.322  1.00  0.00     0.164 HD
ATOM     13  O   UNL A   1      31.228  23.618  27.309  1.00  0.00    -0.269 OA
BRANCH  11  14
ATOM     14  C   UNL A   1      32.690  24.107  25.601  1.00  0.00     0.082 A 
ATOM     15  C   UNL A   1      34.044  24.188  25.931  1.00  0.00     0.060 A 
ATOM     16  C   UNL A   1      32.321  23.701  24.335  1.00  0.00     0.164 A 
ATOM     17  C   UNL A   1      34.952  23.782  24.981  1.00  0.00     0.152 A 
ATOM     18  N   UNL A   1      33.242  23.303  23.433  1.00  0.00    -0.136 NA
ATOM     19  Cl  UNL A   1      30.707  23.641  23.760  1.00  0.00    -0.059 Cl
ATOM     20  Cl  UNL A   1      36.633  23.781  25.288  1.00  0.00    -0.060 Cl
ATOM     21  N   UNL A   1      34.577  23.333  23.766  1.00  0.00    -0.137 NA
ENDBRANCH  11  14
ENDBRANCH   5  10
ENDBRANCH   3   5
ENDBRANCH   2   3
ENDBRANCH   1   2
BRANCH   1  22
ATOM     22  C   UNL A   1      33.004  31.539  27.579  1.00  0.00     0.275 C 
BRANCH  22  23
ATOM     23  O   UNL A   1      32.786  32.913  27.205  1.00  0.00    -0.458 OA
BRANCH  23  24
ATOM     24  C   UNL A   1      33.117  33.818  28.156  1.00  0.00     0.338 C 
ATOM     25  O   UNL A   1      32.427  34.735  28.570  1.00  0.00    -0.246 OA
BRANCH  24  26
ATOM     26  C   UNL A   1      34.413  33.479  28.762  1.00  0.00     0.060 A 
ATOM     27  C   UNL A   1      35.563  33.667  27.994  1.00  0.00     0.016 A 
ATOM     28  C   UNL A   1      34.486  32.850  30.006  1.00  0.00     0.016 A 
ATOM     29  C   UNL A   1      36.793  33.197  28.441  1.00  0.00     0.010 A 
ATOM     30  C   UNL A   1      35.723  32.379  30.458  1.00  0.00     0.010 A 
ATOM     31  C   UNL A   1      36.875  32.526  29.665  1.00  0.00    -0.014 A 
BRANCH  31  32
ATOM     32  C   UNL A   1      38.155  31.903  30.064  1.00  0.00     0.031 A 
ATOM     33  C   UNL A   1      39.027  32.584  31.079  1.00  0.00     0.074 A 
ATOM     34  C   UNL A   1      38.508  30.706  29.562  1.00  0.00     0.049 A 
ATOM     35  N   UNL A   1      40.212  32.237  31.510  1.00  0.00    -0.248 NA
ATOM     36  C   UNL A   1      38.492  33.808  31.698  1.00  0.00     0.031 C 
ATOM     37  C   UNL A   1      37.703  29.907  28.638  1.00  0.00     0.029 A 
ATOM     38  N   UNL A   1      39.633  29.951  29.770  1.00  0.00    -0.354 N 
ATOM     39  C   UNL A   1      40.570  33.205  32.439  1.00  0.00     0.074 A 
ATOM     40  C   UNL A   1      39.485  34.159  32.503  1.00  0.00     0.031 C 
ATOM     41  C   UNL A   1      38.360  28.767  28.364  1.00  0.00     0.029 A 
ATOM     42  C   UNL A   1      39.647  28.779  29.057  1.00  0.00     0.049 A 
ATOM     43  H   UNL A   1      40.361  30.224  30.374  1.00  0.00     0.167 HD
ATOM     44  C   UNL A   1      41.703  33.286  33.173  1.00  0.00     0.031 A 
ATOM     45  C   UNL A   1      40.599  27.832  28.952  1.00  0.00     0.031 A 
ATOM     46  C   UNL A   1      42.778  32.334  33.115  1.00  0.00     0.049 A 
ATOM     47  C   UNL A   1      41.888  27.995  29.705  1.00  0.00     0.074 A 
ATOM     48  C   UNL A   1      43.974  32.345  33.812  1.00  0.00     0.029 A 
ATOM     49  N   UNL A   1      42.784  31.200  32.321  1.00  0.00    -0.354 N 
ATOM     50  N   UNL A   1      42.238  28.942  30.541  1.00  0.00    -0.248 NA
ATOM     51  C   UNL A   1      42.918  26.966  29.494  1.00  0.00     0.031 C 
ATOM     52  C   UNL A   1      44.720  31.235  33.412  1.00  0.00     0.029 A 
ATOM     53  C   UNL A   1      43.970  30.512  32.498  1.00  0.00     0.049 A 
ATOM     54  H   UNL A   1      42.053  30.925  31.721  1.00  0.00     0.167 HD
ATOM     55  C   UNL A   1      43.520  28.618  30.965  1.00  0.00     0.074 A 
ATOM     56  C   UNL A   1      43.885  27.383  30.301  1.00  0.00     0.031 C 
ATOM     57  C   UNL A   1      44.319  29.286  31.830  1.00  0.00     0.031 A 
BRANCH  44  58
ATOM     58  C   UNL A   1      41.859  34.458  34.096  1.00  0.00    -0.014 A 
ATOM     59  C   UNL A   1      42.389  35.673  33.636  1.00  0.00     0.009 A 
ATOM     60  C   UNL A   1      41.387  34.371  35.415  1.00  0.00     0.009 A 
ATOM     61  C   UNL A   1      42.448  36.779  34.486  1.00  0.00     0.001 A 
ATOM     62  C   UNL A   1      41.433  35.483  36.256  1.00  0.00     0.001 A 
ATOM     63  C   UNL A   1      41.964  36.686  35.791  1.00  0.00     0.000 A 
ENDBRANCH  44  58
BRANCH  45  64
ATOM     64  C   UNL A   1      40.367  26.657  28.077  1.00  0.00    -0.014 A 
ATOM     65  C   UNL A   1      40.878  26.630  26.773  1.00  0.00     0.009 A 
ATOM     66  C   UNL A   1      39.663  25.541  28.559  1.00  0.00     0.009 A 
ATOM     67  C   UNL A   1      40.685  25.509  25.963  1.00  0.00     0.001 A 
ATOM     68  C   UNL A   1      39.490  24.415  27.754  1.00  0.00     0.001 A 
ATOM     69  C   UNL A   1      39.997  24.400  26.456  1.00  0.00     0.000 A 
ENDBRANCH  45  64
BRANCH  57  70
ATOM     70  C   UNL A   1      45.666  28.702  32.134  1.00  0.00    -0.014 A 
ATOM     71  C   UNL A   1      46.800  29.098  31.410  1.00  0.00     0.009 A 
ATOM     72  C   UNL A   1      45.819  27.839  33.230  1.00  0.00     0.009 A 
ATOM     73  C   UNL A   1      48.065  28.634  31.776  1.00  0.00     0.001 A 
ATOM     74  C   UNL A   1      47.086  27.392  33.605  1.00  0.00     0.001 A 
ATOM     75  C   UNL A   1      48.208  27.790  32.878  1.00  0.00     0.000 A 
ENDBRANCH  57  70
ENDBRANCH  31  32
ENDBRANCH  24  26
ENDBRANCH  23  24
ENDBRANCH  22  23
ENDBRANCH   1  22
TORSDOF 15
ENDMDL
