MODEL 1
REMARK VINA RESULT:     -11.1      0.000      0.000
REMARK SMILES CC(C)c1cc2c(cc1Cl)C=C(C(=O)OCCOC(=O)c1ccc(-c3c4nc(c(-c5ccccc5)c5ccc([nH]5)c(-c5ccccc5)c5nc(c(-c6ccccc6)c6ccc3[nH]6)C=C5)C=C4)cc1)[C@@H](C(F)(F)F)O2
REMARK SMILES IDX 17 1 16 2 15 3 13 4 14 5 12 6 4 7 5 8 9 9 6 10 8 11 10 12
REMARK SMILES IDX 7 13 74 14 11 15 69 16 2 17 1 18 3 19 70 20 71 21 72 22
REMARK SMILES IDX 73 23 18 24 19 25 20 26 21 27 22 28 68 29 23 30 67 31 24 32
REMARK SMILES IDX 25 33 26 34 61 35 27 36 66 37 60 38 62 39 28 40 65 41 59 42
REMARK SMILES IDX 58 43 29 45 51 46 36 47 50 48 37 49 40 50 49 51 63 52 38 53
REMARK SMILES IDX 39 54 48 56 64 57 41 58 30 59 31 60 35 61 32 62 34 63 33 64
REMARK SMILES IDX 52 65 53 66 57 67 54 68 56 69 55 70 42 71 43 72 47 73 44 74
REMARK SMILES IDX 46 75 45 76
REMARK H PARENT 62 44 40 55
REMARK Flexibility Score: inf
ROOT
ATOM      1  C   UNL A   1      36.816  20.679  24.681  1.00  0.00     0.275 C 
ENDROOT
BRANCH   1   2
ATOM      2  C   UNL A   1      35.339  20.374  24.938  1.00  0.00     0.275 C 
BRANCH   2   3
ATOM      3  O   UNL A   1      34.480  21.195  24.114  1.00  0.00    -0.459 OA
BRANCH   3   4
ATOM      4  C   UNL A   1      33.219  21.357  24.576  1.00  0.00     0.338 C 
ATOM      5  O   UNL A   1      32.362  20.491  24.672  1.00  0.00    -0.246 OA
BRANCH   4   6
ATOM      6  C   UNL A   1      33.002  22.742  25.031  1.00  0.00     0.087 C 
ATOM      7  C   UNL A   1      33.370  27.771  25.501  1.00  0.00    -0.023 A 
ATOM      8  C   UNL A   1      32.890  26.708  26.322  1.00  0.00     0.052 A 
ATOM      9  C   UNL A   1      33.711  27.434  24.177  1.00  0.00     0.045 A 
ATOM     10  C   UNL A   1      32.859  25.379  25.895  1.00  0.00     0.128 A 
ATOM     11  C   UNL A   1      33.659  26.103  23.746  1.00  0.00     0.032 A 
ATOM     12  Cl  UNL A   1      34.206  28.539  22.944  1.00  0.00    -0.084 Cl
ATOM     13  C   UNL A   1      33.269  25.082  24.610  1.00  0.00     0.019 A 
ATOM     14  O   UNL A   1      32.419  24.435  26.781  1.00  0.00    -0.475 OA
ATOM     15  C   UNL A   1      33.328  23.710  24.169  1.00  0.00     0.027 C 
ATOM     16  C   UNL A   1      32.585  23.020  26.447  1.00  0.00     0.316 C 
BRANCH   7  17
ATOM     17  C   UNL A   1      33.444  29.161  26.152  1.00  0.00     0.014 C 
ATOM     18  C   UNL A   1      32.040  29.660  26.556  1.00  0.00     0.012 C 
ATOM     19  C   UNL A   1      34.342  29.363  27.379  1.00  0.00     0.012 C 
ENDBRANCH   7  17
BRANCH  16  20
ATOM     20  C   UNL A   1      33.569  22.386  27.445  1.00  0.00     0.430 C 
ATOM     21  F   UNL A   1      33.321  22.794  28.712  1.00  0.00    -0.167 F 
ATOM     22  F   UNL A   1      33.474  21.035  27.447  1.00  0.00    -0.167 F 
ATOM     23  F   UNL A   1      34.855  22.699  27.161  1.00  0.00    -0.167 F 
ENDBRANCH  16  20
ENDBRANCH   4   6
ENDBRANCH   3   4
ENDBRANCH   2   3
ENDBRANCH   1   2
BRANCH   1  24
ATOM     24  O   UNL A   1      37.375  21.403  25.792  1.00  0.00    -0.458 OA
BRANCH  24  25
ATOM     25  C   UNL A   1      38.694  21.206  26.017  1.00  0.00     0.338 C 
ATOM     26  O   UNL A   1      39.355  20.217  25.757  1.00  0.00    -0.246 OA
BRANCH  25  27
ATOM     27  C   UNL A   1      39.285  22.430  26.581  1.00  0.00     0.060 A 
ATOM     28  C   UNL A   1      40.437  22.385  27.357  1.00  0.00     0.016 A 
ATOM     29  C   UNL A   1      38.761  23.655  26.195  1.00  0.00     0.016 A 
ATOM     30  C   UNL A   1      41.042  23.587  27.752  1.00  0.00     0.010 A 
ATOM     31  C   UNL A   1      39.458  24.835  26.439  1.00  0.00     0.010 A 
ATOM     32  C   UNL A   1      40.588  24.829  27.263  1.00  0.00    -0.014 A 
BRANCH  32  33
ATOM     33  C   UNL A   1      41.261  26.115  27.626  1.00  0.00     0.031 A 
ATOM     34  C   UNL A   1      42.607  26.484  27.037  1.00  0.00     0.074 A 
ATOM     35  C   UNL A   1      40.688  26.952  28.519  1.00  0.00     0.049 A 
ATOM     36  N   UNL A   1      43.338  27.551  27.253  1.00  0.00    -0.248 NA
ATOM     37  C   UNL A   1      43.241  25.517  26.123  1.00  0.00     0.031 C 
ATOM     38  C   UNL A   1      39.440  26.696  29.242  1.00  0.00     0.029 A 
ATOM     39  N   UNL A   1      41.069  28.199  28.955  1.00  0.00    -0.354 N 
ATOM     40  C   UNL A   1      44.519  27.356  26.543  1.00  0.00     0.074 A 
ATOM     41  C   UNL A   1      44.442  26.044  25.946  1.00  0.00     0.031 C 
ATOM     42  C   UNL A   1      39.116  27.782  29.960  1.00  0.00     0.029 A 
ATOM     43  C   UNL A   1      40.153  28.794  29.793  1.00  0.00     0.049 A 
ATOM     44  H   UNL A   1      41.916  28.626  28.693  1.00  0.00     0.167 HD
ATOM     45  C   UNL A   1      45.557  28.205  26.357  1.00  0.00     0.031 A 
ATOM     46  C   UNL A   1      40.135  30.021  30.352  1.00  0.00     0.031 A 
ATOM     47  C   UNL A   1      45.605  29.544  26.876  1.00  0.00     0.049 A 
ATOM     48  C   UNL A   1      41.259  30.978  30.073  1.00  0.00     0.074 A 
ATOM     49  C   UNL A   1      46.570  30.512  26.659  1.00  0.00     0.029 A 
ATOM     50  N   UNL A   1      44.639  30.109  27.690  1.00  0.00    -0.354 N 
ATOM     51  N   UNL A   1      42.327  30.799  29.335  1.00  0.00    -0.248 NA
ATOM     52  C   UNL A   1      41.174  32.309  30.694  1.00  0.00     0.031 C 
ATOM     53  C   UNL A   1      46.207  31.653  27.376  1.00  0.00     0.029 A 
ATOM     54  C   UNL A   1      44.990  31.413  27.992  1.00  0.00     0.049 A 
ATOM     55  H   UNL A   1      43.826  29.653  28.007  1.00  0.00     0.167 HD
ATOM     56  C   UNL A   1      43.029  31.997  29.385  1.00  0.00     0.074 A 
ATOM     57  C   UNL A   1      42.259  32.903  30.212  1.00  0.00     0.031 C 
ATOM     58  C   UNL A   1      44.209  32.312  28.801  1.00  0.00     0.031 A 
BRANCH  45  59
ATOM     59  C   UNL A   1      46.715  27.740  25.515  1.00  0.00    -0.014 A 
ATOM     60  C   UNL A   1      47.843  27.168  26.126  1.00  0.00     0.009 A 
ATOM     61  C   UNL A   1      46.732  27.953  24.127  1.00  0.00     0.009 A 
ATOM     62  C   UNL A   1      48.963  26.823  25.366  1.00  0.00     0.001 A 
ATOM     63  C   UNL A   1      47.840  27.577  23.365  1.00  0.00     0.001 A 
ATOM     64  C   UNL A   1      48.958  27.022  23.987  1.00  0.00     0.000 A 
ENDBRANCH  45  59
BRANCH  46  65
ATOM     65  C   UNL A   1      38.966  30.431  31.177  1.00  0.00    -0.014 A 
ATOM     66  C   UNL A   1      38.943  30.200  32.562  1.00  0.00     0.009 A 
ATOM     67  C   UNL A   1      37.843  31.015  30.570  1.00  0.00     0.009 A 
ATOM     68  C   UNL A   1      37.812  30.524  33.316  1.00  0.00     0.001 A 
ATOM     69  C   UNL A   1      36.725  31.364  31.331  1.00  0.00     0.001 A 
ATOM     70  C   UNL A   1      36.707  31.110  32.702  1.00  0.00     0.000 A 
ENDBRANCH  46  65
BRANCH  58  71
ATOM     71  C   UNL A   1      44.756  33.696  29.001  1.00  0.00    -0.014 A 
ATOM     72  C   UNL A   1      44.463  34.699  28.063  1.00  0.00     0.009 A 
ATOM     73  C   UNL A   1      45.668  33.968  30.030  1.00  0.00     0.009 A 
ATOM     74  C   UNL A   1      45.091  35.943  28.138  1.00  0.00     0.001 A 
ATOM     75  C   UNL A   1      46.276  35.222  30.117  1.00  0.00     0.001 A 
ATOM     76  C   UNL A   1      45.996  36.203  29.165  1.00  0.00     0.000 A 
ENDBRANCH  58  71
ENDBRANCH  32  33
ENDBRANCH  25  27
ENDBRANCH  24  25
ENDBRANCH   1  24
TORSDOF 13
ENDMDL
MODEL 2
REMARK VINA RESULT:     -11.0      4.109      8.872
REMARK SMILES CC(C)c1cc2c(cc1Cl)C=C(C(=O)OCCOC(=O)c1ccc(-c3c4nc(c(-c5ccccc5)c5ccc([nH]5)c(-c5ccccc5)c5nc(c(-c6ccccc6)c6ccc3[nH]6)C=C5)C=C4)cc1)[C@@H](C(F)(F)F)O2
REMARK SMILES IDX 17 1 16 2 15 3 13 4 14 5 12 6 4 7 5 8 9 9 6 10 8 11 10 12
REMARK SMILES IDX 7 13 74 14 11 15 69 16 2 17 1 18 3 19 70 20 71 21 72 22
REMARK SMILES IDX 73 23 18 24 19 25 20 26 21 27 22 28 68 29 23 30 67 31 24 32
REMARK SMILES IDX 25 33 26 34 61 35 27 36 66 37 60 38 62 39 28 40 65 41 59 42
REMARK SMILES IDX 58 43 29 45 51 46 36 47 50 48 37 49 40 50 49 51 63 52 38 53
REMARK SMILES IDX 39 54 48 56 64 57 41 58 30 59 31 60 35 61 32 62 34 63 33 64
REMARK SMILES IDX 52 65 53 66 57 67 54 68 56 69 55 70 42 71 43 72 47 73 44 74
REMARK SMILES IDX 46 75 45 76
REMARK H PARENT 62 44 40 55
REMARK Flexibility Score: inf
ROOT
ATOM      1  C   UNL A   1      31.546  30.599  26.213  1.00  0.00     0.275 C 
ENDROOT
BRANCH   1   2
ATOM      2  C   UNL A   1      31.126  29.970  24.883  1.00  0.00     0.275 C 
BRANCH   2   3
ATOM      3  O   UNL A   1      30.789  28.574  25.044  1.00  0.00    -0.459 OA
BRANCH   3   4
ATOM      4  C   UNL A   1      30.758  27.852  23.901  1.00  0.00     0.338 C 
ATOM      5  O   UNL A   1      29.992  28.007  22.961  1.00  0.00    -0.246 OA
BRANCH   4   6
ATOM      6  C   UNL A   1      31.840  26.850  23.885  1.00  0.00     0.087 C 
ATOM      7  C   UNL A   1      35.314  23.487  25.391  1.00  0.00    -0.023 A 
ATOM      8  C   UNL A   1      35.105  24.274  24.220  1.00  0.00     0.052 A 
ATOM      9  C   UNL A   1      34.273  23.489  26.340  1.00  0.00     0.045 A 
ATOM     10  C   UNL A   1      33.991  25.100  24.053  1.00  0.00     0.128 A 
ATOM     11  C   UNL A   1      33.148  24.303  26.160  1.00  0.00     0.032 A 
ATOM     12  Cl  UNL A   1      34.214  22.541  27.783  1.00  0.00    -0.084 Cl
ATOM     13  C   UNL A   1      33.027  25.126  25.042  1.00  0.00     0.019 A 
ATOM     14  O   UNL A   1      33.915  25.845  22.909  1.00  0.00    -0.475 OA
ATOM     15  C   UNL A   1      31.908  26.030  24.937  1.00  0.00     0.027 C 
ATOM     16  C   UNL A   1      32.885  26.879  22.806  1.00  0.00     0.316 C 
BRANCH   7  17
ATOM     17  C   UNL A   1      36.641  22.717  25.472  1.00  0.00     0.014 C 
ATOM     18  C   UNL A   1      37.019  22.115  24.102  1.00  0.00     0.012 C 
ATOM     19  C   UNL A   1      37.893  23.441  25.984  1.00  0.00     0.012 C 
ENDBRANCH   7  17
BRANCH  16  20
ATOM     20  C   UNL A   1      33.568  28.255  22.738  1.00  0.00     0.430 C 
ATOM     21  F   UNL A   1      34.639  28.237  21.909  1.00  0.00    -0.167 F 
ATOM     22  F   UNL A   1      32.727  29.205  22.264  1.00  0.00    -0.167 F 
ATOM     23  F   UNL A   1      34.001  28.669  23.952  1.00  0.00    -0.167 F 
ENDBRANCH  16  20
ENDBRANCH   4   6
ENDBRANCH   3   4
ENDBRANCH   2   3
ENDBRANCH   1   2
BRANCH   1  24
ATOM     24  O   UNL A   1      32.968  30.823  26.230  1.00  0.00    -0.458 OA
BRANCH  24  25
ATOM     25  C   UNL A   1      33.408  31.736  27.126  1.00  0.00     0.338 C 
ATOM     26  O   UNL A   1      32.825  32.726  27.529  1.00  0.00    -0.246 OA
BRANCH  25  27
ATOM     27  C   UNL A   1      34.724  31.326  27.641  1.00  0.00     0.060 A 
ATOM     28  C   UNL A   1      35.701  32.262  27.956  1.00  0.00     0.016 A 
ATOM     29  C   UNL A   1      34.922  29.989  27.957  1.00  0.00     0.016 A 
ATOM     30  C   UNL A   1      36.883  31.834  28.576  1.00  0.00     0.010 A 
ATOM     31  C   UNL A   1      36.014  29.596  28.726  1.00  0.00     0.010 A 
ATOM     32  C   UNL A   1      37.040  30.502  29.011  1.00  0.00    -0.014 A 
BRANCH  32  33
ATOM     33  C   UNL A   1      38.270  30.044  29.729  1.00  0.00     0.031 A 
ATOM     34  C   UNL A   1      38.483  30.368  31.194  1.00  0.00     0.074 A 
ATOM     35  C   UNL A   1      39.230  29.364  29.064  1.00  0.00     0.049 A 
ATOM     36  N   UNL A   1      39.497  30.062  31.967  1.00  0.00    -0.248 NA
ATOM     37  C   UNL A   1      37.454  31.174  31.872  1.00  0.00     0.031 C 
ATOM     38  C   UNL A   1      39.214  29.055  27.633  1.00  0.00     0.029 A 
ATOM     39  N   UNL A   1      40.396  28.788  29.510  1.00  0.00    -0.354 N 
ATOM     40  C   UNL A   1      39.243  30.673  33.191  1.00  0.00     0.074 A 
ATOM     41  C   UNL A   1      38.020  31.424  33.042  1.00  0.00     0.031 C 
ATOM     42  C   UNL A   1      40.267  28.278  27.337  1.00  0.00     0.029 A 
ATOM     43  C   UNL A   1      41.063  28.072  28.543  1.00  0.00     0.049 A 
ATOM     44  H   UNL A   1      40.724  28.879  30.434  1.00  0.00     0.167 HD
ATOM     45  C   UNL A   1      39.932  30.584  34.353  1.00  0.00     0.031 A 
ATOM     46  C   UNL A   1      42.178  27.317  28.614  1.00  0.00     0.031 A 
ATOM     47  C   UNL A   1      41.102  29.771  34.535  1.00  0.00     0.049 A 
ATOM     48  C   UNL A   1      42.887  27.167  29.930  1.00  0.00     0.074 A 
ATOM     49  C   UNL A   1      41.812  29.539  35.700  1.00  0.00     0.029 A 
ATOM     50  N   UNL A   1      41.719  29.040  33.533  1.00  0.00    -0.354 N 
ATOM     51  N   UNL A   1      42.584  27.692  31.092  1.00  0.00    -0.248 NA
ATOM     52  C   UNL A   1      44.086  26.315  29.951  1.00  0.00     0.031 C 
ATOM     53  C   UNL A   1      42.883  28.698  35.395  1.00  0.00     0.029 A 
ATOM     54  C   UNL A   1      42.807  28.362  34.054  1.00  0.00     0.049 A 
ATOM     55  H   UNL A   1      41.427  29.007  32.593  1.00  0.00     0.167 HD
ATOM     56  C   UNL A   1      43.538  27.219  31.983  1.00  0.00     0.074 A 
ATOM     57  C   UNL A   1      44.422  26.351  31.234  1.00  0.00     0.031 C 
ATOM     58  C   UNL A   1      43.670  27.488  33.304  1.00  0.00     0.031 A 
BRANCH  45  59
ATOM     59  C   UNL A   1      39.417  31.343  35.547  1.00  0.00    -0.014 A 
ATOM     60  C   UNL A   1      38.406  30.789  36.349  1.00  0.00     0.009 A 
ATOM     61  C   UNL A   1      39.864  32.645  35.823  1.00  0.00     0.009 A 
ATOM     62  C   UNL A   1      37.851  31.524  37.399  1.00  0.00     0.001 A 
ATOM     63  C   UNL A   1      39.331  33.365  36.895  1.00  0.00     0.001 A 
ATOM     64  C   UNL A   1      38.319  32.808  37.676  1.00  0.00     0.000 A 
ENDBRANCH  45  59
BRANCH  46  65
ATOM     65  C   UNL A   1      42.646  26.587  27.404  1.00  0.00    -0.014 A 
ATOM     66  C   UNL A   1      42.190  25.289  27.122  1.00  0.00     0.009 A 
ATOM     67  C   UNL A   1      43.594  27.171  26.550  1.00  0.00     0.009 A 
ATOM     68  C   UNL A   1      42.689  24.585  26.023  1.00  0.00     0.001 A 
ATOM     69  C   UNL A   1      44.071  26.476  25.436  1.00  0.00     0.001 A 
ATOM     70  C   UNL A   1      43.625  25.180  25.179  1.00  0.00     0.000 A 
ENDBRANCH  46  65
BRANCH  58  71
ATOM     71  C   UNL A   1      44.791  26.831  34.056  1.00  0.00    -0.014 A 
ATOM     72  C   UNL A   1      46.057  27.438  34.083  1.00  0.00     0.009 A 
ATOM     73  C   UNL A   1      44.633  25.554  34.613  1.00  0.00     0.009 A 
ATOM     74  C   UNL A   1      47.151  26.769  34.633  1.00  0.00     0.001 A 
ATOM     75  C   UNL A   1      45.725  24.898  35.185  1.00  0.00     0.001 A 
ATOM     76  C   UNL A   1      46.983  25.500  35.184  1.00  0.00     0.000 A 
ENDBRANCH  58  71
ENDBRANCH  32  33
ENDBRANCH  25  27
ENDBRANCH  24  25
ENDBRANCH   1  24
TORSDOF 13
ENDMDL
MODEL 3
REMARK VINA RESULT:     -10.9      2.345      6.105
REMARK SMILES CC(C)c1cc2c(cc1Cl)C=C(C(=O)OCCOC(=O)c1ccc(-c3c4nc(c(-c5ccccc5)c5ccc([nH]5)c(-c5ccccc5)c5nc(c(-c6ccccc6)c6ccc3[nH]6)C=C5)C=C4)cc1)[C@@H](C(F)(F)F)O2
REMARK SMILES IDX 17 1 16 2 15 3 13 4 14 5 12 6 4 7 5 8 9 9 6 10 8 11 10 12
REMARK SMILES IDX 7 13 74 14 11 15 69 16 2 17 1 18 3 19 70 20 71 21 72 22
REMARK SMILES IDX 73 23 18 24 19 25 20 26 21 27 22 28 68 29 23 30 67 31 24 32
REMARK SMILES IDX 25 33 26 34 61 35 27 36 66 37 60 38 62 39 28 40 65 41 59 42
REMARK SMILES IDX 58 43 29 45 51 46 36 47 50 48 37 49 40 50 49 51 63 52 38 53
REMARK SMILES IDX 39 54 48 56 64 57 41 58 30 59 31 60 35 61 32 62 34 63 33 64
REMARK SMILES IDX 52 65 53 66 57 67 54 68 56 69 55 70 42 71 43 72 47 73 44 74
REMARK SMILES IDX 46 75 45 76
REMARK H PARENT 62 44 40 55
REMARK Flexibility Score: inf
ROOT
ATOM      1  C   UNL A   1      37.641  21.382  24.983  1.00  0.00     0.275 C 
ENDROOT
BRANCH   1   2
ATOM      2  C   UNL A   1      36.180  20.975  25.181  1.00  0.00     0.275 C 
BRANCH   2   3
ATOM      3  O   UNL A   1      35.310  21.676  24.264  1.00  0.00    -0.459 OA
BRANCH   3   4
ATOM      4  C   UNL A   1      33.987  21.565  24.524  1.00  0.00     0.338 C 
ATOM      5  O   UNL A   1      33.309  20.553  24.436  1.00  0.00    -0.246 OA
BRANCH   4   6
ATOM      6  C   UNL A   1      33.441  22.846  25.010  1.00  0.00     0.087 C 
ATOM      7  C   UNL A   1      32.800  27.797  25.859  1.00  0.00    -0.023 A 
ATOM      8  C   UNL A   1      32.369  26.595  26.494  1.00  0.00     0.052 A 
ATOM      9  C   UNL A   1      33.445  27.651  24.615  1.00  0.00     0.045 A 
ATOM     10  C   UNL A   1      32.661  25.326  25.988  1.00  0.00     0.128 A 
ATOM     11  C   UNL A   1      33.718  26.378  24.101  1.00  0.00     0.032 A 
ATOM     12  Cl  UNL A   1      33.962  28.937  23.583  1.00  0.00    -0.084 Cl
ATOM     13  C   UNL A   1      33.359  25.227  24.800  1.00  0.00     0.019 A 
ATOM     14  O   UNL A   1      32.235  24.241  26.704  1.00  0.00    -0.475 OA
ATOM     15  C   UNL A   1      33.747  23.933  24.296  1.00  0.00     0.027 C 
ATOM     16  C   UNL A   1      32.715  22.912  26.324  1.00  0.00     0.316 C 
BRANCH   7  17
ATOM     17  C   UNL A   1      32.495  29.110  26.596  1.00  0.00     0.014 C 
ATOM     18  C   UNL A   1      33.788  29.755  27.140  1.00  0.00     0.012 C 
ATOM     19  C   UNL A   1      31.739  30.222  25.858  1.00  0.00     0.012 C 
ENDBRANCH   7  17
BRANCH  16  20
ATOM     20  C   UNL A   1      33.585  22.354  27.462  1.00  0.00     0.430 C 
ATOM     21  F   UNL A   1      33.042  22.614  28.675  1.00  0.00    -0.167 F 
ATOM     22  F   UNL A   1      33.713  21.008  27.376  1.00  0.00    -0.167 F 
ATOM     23  F   UNL A   1      34.833  22.879  27.454  1.00  0.00    -0.167 F 
ENDBRANCH  16  20
ENDBRANCH   4   6
ENDBRANCH   3   4
ENDBRANCH   2   3
ENDBRANCH   1   2
BRANCH   1  24
ATOM     24  O   UNL A   1      37.927  22.586  25.718  1.00  0.00    -0.458 OA
BRANCH  24  25
ATOM     25  C   UNL A   1      39.166  22.668  26.253  1.00  0.00     0.338 C 
ATOM     26  O   UNL A   1      40.036  21.816  26.252  1.00  0.00    -0.246 OA
BRANCH  25  27
ATOM     27  C   UNL A   1      39.376  24.016  26.804  1.00  0.00     0.060 A 
ATOM     28  C   UNL A   1      39.112  24.301  28.138  1.00  0.00     0.016 A 
ATOM     29  C   UNL A   1      39.995  24.968  26.006  1.00  0.00     0.016 A 
ATOM     30  C   UNL A   1      39.462  25.558  28.652  1.00  0.00     0.010 A 
ATOM     31  C   UNL A   1      40.497  26.142  26.560  1.00  0.00     0.010 A 
ATOM     32  C   UNL A   1      40.200  26.482  27.883  1.00  0.00    -0.014 A 
BRANCH  32  33
ATOM     33  C   UNL A   1      40.634  27.802  28.437  1.00  0.00     0.031 A 
ATOM     34  C   UNL A   1      39.634  28.915  28.674  1.00  0.00     0.074 A 
ATOM     35  C   UNL A   1      41.939  28.031  28.699  1.00  0.00     0.049 A 
ATOM     36  N   UNL A   1      39.840  30.126  29.134  1.00  0.00    -0.248 NA
ATOM     37  C   UNL A   1      38.229  28.660  28.308  1.00  0.00     0.031 C 
ATOM     38  C   UNL A   1      43.034  27.093  28.439  1.00  0.00     0.029 A 
ATOM     39  N   UNL A   1      42.566  29.116  29.265  1.00  0.00    -0.354 N 
ATOM     40  C   UNL A   1      38.611  30.774  29.068  1.00  0.00     0.074 A 
ATOM     41  C   UNL A   1      37.679  29.855  28.461  1.00  0.00     0.031 C 
ATOM     42  C   UNL A   1      44.177  27.605  28.920  1.00  0.00     0.029 A 
ATOM     43  C   UNL A   1      43.912  28.927  29.478  1.00  0.00     0.049 A 
ATOM     44  H   UNL A   1      42.097  29.950  29.496  1.00  0.00     0.167 HD
ATOM     45  C   UNL A   1      38.266  32.005  29.514  1.00  0.00     0.031 A 
ATOM     46  C   UNL A   1      44.832  29.715  30.071  1.00  0.00     0.031 A 
ATOM     47  C   UNL A   1      39.165  32.895  30.196  1.00  0.00     0.049 A 
ATOM     48  C   UNL A   1      44.416  31.047  30.629  1.00  0.00     0.074 A 
ATOM     49  C   UNL A   1      38.884  34.122  30.772  1.00  0.00     0.029 A 
ATOM     50  N   UNL A   1      40.509  32.644  30.415  1.00  0.00    -0.354 N 
ATOM     51  N   UNL A   1      43.231  31.606  30.624  1.00  0.00    -0.248 NA
ATOM     52  C   UNL A   1      45.458  31.854  31.283  1.00  0.00     0.031 C 
ATOM     53  C   UNL A   1      40.067  34.632  31.306  1.00  0.00     0.029 A 
ATOM     54  C   UNL A   1      41.072  33.698  31.112  1.00  0.00     0.049 A 
ATOM     55  H   UNL A   1      40.991  31.837  30.121  1.00  0.00     0.167 HD
ATOM     56  C   UNL A   1      43.379  32.817  31.289  1.00  0.00     0.074 A 
ATOM     57  C   UNL A   1      44.764  32.906  31.700  1.00  0.00     0.031 C 
ATOM     58  C   UNL A   1      42.447  33.769  31.531  1.00  0.00     0.031 A 
BRANCH  45  59
ATOM     59  C   UNL A   1      36.842  32.457  29.330  1.00  0.00    -0.014 A 
ATOM     60  C   UNL A   1      35.878  32.155  30.306  1.00  0.00     0.009 A 
ATOM     61  C   UNL A   1      36.434  33.099  28.150  1.00  0.00     0.009 A 
ATOM     62  C   UNL A   1      34.535  32.482  30.101  1.00  0.00     0.001 A 
ATOM     63  C   UNL A   1      35.097  33.455  27.963  1.00  0.00     0.001 A 
ATOM     64  C   UNL A   1      34.147  33.138  28.934  1.00  0.00     0.000 A 
ENDBRANCH  45  59
BRANCH  46  65
ATOM     65  C   UNL A   1      46.227  29.222  30.227  1.00  0.00    -0.014 A 
ATOM     66  C   UNL A   1      47.170  29.387  29.200  1.00  0.00     0.009 A 
ATOM     67  C   UNL A   1      46.608  28.536  31.391  1.00  0.00     0.009 A 
ATOM     68  C   UNL A   1      48.457  28.857  29.327  1.00  0.00     0.001 A 
ATOM     69  C   UNL A   1      47.904  28.033  31.527  1.00  0.00     0.001 A 
ATOM     70  C   UNL A   1      48.824  28.186  30.491  1.00  0.00     0.000 A 
ENDBRANCH  46  65
BRANCH  58  71
ATOM     71  C   UNL A   1      42.863  34.995  32.292  1.00  0.00    -0.014 A 
ATOM     72  C   UNL A   1      43.525  36.037  31.622  1.00  0.00     0.009 A 
ATOM     73  C   UNL A   1      42.728  35.056  33.686  1.00  0.00     0.009 A 
ATOM     74  C   UNL A   1      44.065  37.107  32.336  1.00  0.00     0.001 A 
ATOM     75  C   UNL A   1      43.247  36.141  34.396  1.00  0.00     0.001 A 
ATOM     76  C   UNL A   1      43.924  37.158  33.722  1.00  0.00     0.000 A 
ENDBRANCH  58  71
ENDBRANCH  32  33
ENDBRANCH  25  27
ENDBRANCH  24  25
ENDBRANCH   1  24
TORSDOF 13
ENDMDL
