MODEL 1
REMARK VINA RESULT:     -12.8      0.000      0.000
REMARK SMILES O=C(OCCOC(=O)[C@@H]1[C@@H](C(=O)N2CCN(c3cccc(Cl)c3)CC2)[C@H]2CC[C@@H]1O2)c1ccc(-c2c3nc(c(-c4ccccc4)c4ccc([nH]4)c(-c4ccccc4)c4nc(c(-c5ccccc5)c5ccc2[nH]5)C=C4)C=C3)cc1
REMARK SMILES IDX 4 1 3 2 2 3 1 4 31 5 32 6 78 7 33 8 77 9 34 10 35 11 36 12
REMARK SMILES IDX 71 13 37 14 76 15 70 16 72 17 38 18 75 19 69 20 68 21 39 23
REMARK SMILES IDX 61 24 46 25 60 26 47 27 50 28 59 29 73 30 48 31 49 32 58 34
REMARK SMILES IDX 74 35 51 36 40 37 41 38 45 39 42 40 44 41 43 42 62 43 63 44
REMARK SMILES IDX 67 45 64 46 66 47 65 48 52 49 53 50 57 51 54 52 56 53 55 54
REMARK SMILES IDX 5 55 6 56 7 57 8 58 9 59 10 60 29 61 26 62 28 63 30 64 27 65
REMARK SMILES IDX 11 66 12 67 13 68 14 69 25 70 15 71 24 72 16 73 17 74 18 75
REMARK SMILES IDX 23 76 19 77 21 78 20 79 22 80
REMARK H PARENT 72 22 50 33
REMARK Flexibility Score: inf
ROOT
ATOM      1  C   UNL A   1      38.158  21.540  25.356  1.00  0.00     0.275 C 
ENDROOT
BRANCH   1   2
ATOM      2  O   UNL A   1      38.549  22.653  26.212  1.00  0.00    -0.458 OA
BRANCH   2   3
ATOM      3  C   UNL A   1      39.865  23.045  26.337  1.00  0.00     0.338 C 
ATOM      4  O   UNL A   1      40.797  22.257  26.318  1.00  0.00    -0.246 OA
BRANCH   3   5
ATOM      5  C   UNL A   1      40.013  24.451  26.886  1.00  0.00     0.060 A 
ATOM      6  C   UNL A   1      39.275  24.851  27.973  1.00  0.00     0.016 A 
ATOM      7  C   UNL A   1      40.967  25.387  26.430  1.00  0.00     0.016 A 
ATOM      8  C   UNL A   1      39.679  25.987  28.716  1.00  0.00     0.010 A 
ATOM      9  C   UNL A   1      41.419  26.496  27.269  1.00  0.00     0.010 A 
ATOM     10  C   UNL A   1      40.864  26.744  28.534  1.00  0.00    -0.014 A 
BRANCH  10  11
ATOM     11  C   UNL A   1      41.146  27.920  29.558  1.00  0.00     0.031 A 
ATOM     12  C   UNL A   1      40.112  28.994  29.483  1.00  0.00     0.074 A 
ATOM     13  C   UNL A   1      41.966  28.045  30.662  1.00  0.00     0.049 A 
ATOM     14  N   UNL A   1      39.622  29.748  30.430  1.00  0.00    -0.248 NA
ATOM     15  C   UNL A   1      39.519  29.181  28.155  1.00  0.00     0.031 C 
ATOM     16  C   UNL A   1      43.125  27.251  30.995  1.00  0.00     0.029 A 
ATOM     17  N   UNL A   1      41.809  28.776  31.870  1.00  0.00    -0.354 N 
ATOM     18  C   UNL A   1      38.599  30.446  29.823  1.00  0.00     0.074 A 
ATOM     19  C   UNL A   1      38.540  30.020  28.439  1.00  0.00     0.031 C 
ATOM     20  C   UNL A   1      43.364  27.257  32.320  1.00  0.00     0.029 A 
ATOM     21  C   UNL A   1      42.515  28.237  32.967  1.00  0.00     0.049 A 
ATOM     22  H   UNL A   1      41.255  29.587  31.937  1.00  0.00     0.167 HD
ATOM     23  C   UNL A   1      37.794  31.397  30.341  1.00  0.00     0.031 A 
ATOM     24  C   UNL A   1      42.515  28.459  34.316  1.00  0.00     0.031 A 
ATOM     25  C   UNL A   1      37.972  32.034  31.608  1.00  0.00     0.049 A 
ATOM     26  C   UNL A   1      41.742  29.653  34.815  1.00  0.00     0.074 A 
ATOM     27  C   UNL A   1      37.364  33.188  32.071  1.00  0.00     0.029 A 
ATOM     28  N   UNL A   1      38.855  31.625  32.590  1.00  0.00    -0.354 N 
ATOM     29  N   UNL A   1      40.774  30.303  34.224  1.00  0.00    -0.248 NA
ATOM     30  C   UNL A   1      42.120  30.205  36.132  1.00  0.00     0.031 C 
ATOM     31  C   UNL A   1      37.933  33.518  33.304  1.00  0.00     0.029 A 
ATOM     32  C   UNL A   1      38.837  32.526  33.643  1.00  0.00     0.049 A 
ATOM     33  H   UNL A   1      39.413  30.815  32.547  1.00  0.00     0.167 HD
ATOM     34  C   UNL A   1      40.470  31.364  35.066  1.00  0.00     0.074 A 
ATOM     35  C   UNL A   1      41.272  31.214  36.260  1.00  0.00     0.031 C 
ATOM     36  C   UNL A   1      39.637  32.403  34.829  1.00  0.00     0.031 A 
BRANCH  23  37
ATOM     37  C   UNL A   1      36.731  31.878  29.415  1.00  0.00    -0.014 A 
ATOM     38  C   UNL A   1      36.921  33.055  28.678  1.00  0.00     0.009 A 
ATOM     39  C   UNL A   1      35.494  31.220  29.378  1.00  0.00     0.009 A 
ATOM     40  C   UNL A   1      35.873  33.581  27.927  1.00  0.00     0.001 A 
ATOM     41  C   UNL A   1      34.453  31.743  28.617  1.00  0.00     0.001 A 
ATOM     42  C   UNL A   1      34.641  32.924  27.898  1.00  0.00     0.000 A 
ENDBRANCH  23  37
BRANCH  24  43
ATOM     43  C   UNL A   1      43.325  27.675  35.351  1.00  0.00    -0.014 A 
ATOM     44  C   UNL A   1      42.718  26.717  36.203  1.00  0.00     0.009 A 
ATOM     45  C   UNL A   1      44.673  27.968  35.614  1.00  0.00     0.009 A 
ATOM     46  C   UNL A   1      43.416  26.119  37.270  1.00  0.00     0.001 A 
ATOM     47  C   UNL A   1      45.390  27.324  36.638  1.00  0.00     0.001 A 
ATOM     48  C   UNL A   1      44.758  26.413  37.477  1.00  0.00     0.000 A 
ENDBRANCH  24  43
BRANCH  36  49
ATOM     49  C   UNL A   1      39.559  33.477  35.873  1.00  0.00    -0.014 A 
ATOM     50  C   UNL A   1      40.318  34.654  35.763  1.00  0.00     0.009 A 
ATOM     51  C   UNL A   1      38.694  33.326  36.966  1.00  0.00     0.009 A 
ATOM     52  C   UNL A   1      40.241  35.640  36.748  1.00  0.00     0.001 A 
ATOM     53  C   UNL A   1      38.594  34.328  37.932  1.00  0.00     0.001 A 
ATOM     54  C   UNL A   1      39.376  35.478  37.828  1.00  0.00     0.000 A 
ENDBRANCH  36  49
ENDBRANCH  10  11
ENDBRANCH   3   5
ENDBRANCH   2   3
ENDBRANCH   1   2
BRANCH   1  55
ATOM     55  C   UNL A   1      37.019  21.912  24.357  1.00  0.00     0.274 C 
BRANCH  55  56
ATOM     56  O   UNL A   1      35.809  22.242  25.053  1.00  0.00    -0.462 OA
BRANCH  56  57
ATOM     57  C   UNL A   1      34.739  21.419  24.833  1.00  0.00     0.312 C 
ATOM     58  O   UNL A   1      34.798  20.217  24.767  1.00  0.00    -0.252 OA
BRANCH  57  59
ATOM     59  C   UNL A   1      33.481  22.260  24.693  1.00  0.00     0.143 C 
ATOM     60  C   UNL A   1      33.806  23.724  25.091  1.00  0.00     0.124 C 
ATOM     61  C   UNL A   1      32.490  21.790  25.777  1.00  0.00     0.133 C 
ATOM     62  C   UNL A   1      32.913  23.806  26.366  1.00  0.00     0.132 C 
ATOM     63  C   UNL A   1      31.114  22.460  25.701  1.00  0.00     0.036 C 
ATOM     64  O   UNL A   1      33.050  22.466  26.917  1.00  0.00    -0.373 OA
ATOM     65  C   UNL A   1      31.409  23.827  26.271  1.00  0.00     0.035 C 
BRANCH  60  66
ATOM     66  C   UNL A   1      33.641  24.680  23.888  1.00  0.00     0.229 C 
ATOM     67  O   UNL A   1      34.377  24.446  22.929  1.00  0.00    -0.274 OA
ATOM     68  N   UNL A   1      32.751  25.789  23.845  1.00  0.00    -0.339 N 
ATOM     69  C   UNL A   1      32.387  26.331  22.523  1.00  0.00     0.141 C 
ATOM     70  C   UNL A   1      32.635  26.863  24.838  1.00  0.00     0.141 C 
ATOM     71  C   UNL A   1      30.979  26.945  22.388  1.00  0.00     0.138 C 
ATOM     72  C   UNL A   1      31.300  27.692  24.828  1.00  0.00     0.138 C 
ATOM     73  N   UNL A   1      30.556  27.707  23.563  1.00  0.00    -0.368 N 
BRANCH  73  74
ATOM     74  C   UNL A   1      29.583  28.669  23.296  1.00  0.00     0.038 A 
ATOM     75  C   UNL A   1      28.252  28.265  23.114  1.00  0.00     0.026 A 
ATOM     76  C   UNL A   1      29.847  30.044  23.379  1.00  0.00     0.046 A 
ATOM     77  C   UNL A   1      27.206  29.190  23.057  1.00  0.00     0.004 A 
ATOM     78  C   UNL A   1      28.797  30.973  23.310  1.00  0.00     0.043 A 
ATOM     79  C   UNL A   1      27.478  30.550  23.161  1.00  0.00     0.020 A 
ATOM     80  Cl  UNL A   1      29.124  32.661  23.453  1.00  0.00    -0.084 Cl
ENDBRANCH  73  74
ENDBRANCH  60  66
ENDBRANCH  57  59
ENDBRANCH  56  57
ENDBRANCH  55  56
ENDBRANCH   1  55
TORSDOF 13
ENDMDL
MODEL 2
REMARK VINA RESULT:     -12.7      4.967      9.760
REMARK SMILES O=C(OCCOC(=O)[C@@H]1[C@@H](C(=O)N2CCN(c3cccc(Cl)c3)CC2)[C@H]2CC[C@@H]1O2)c1ccc(-c2c3nc(c(-c4ccccc4)c4ccc([nH]4)c(-c4ccccc4)c4nc(c(-c5ccccc5)c5ccc2[nH]5)C=C4)C=C3)cc1
REMARK SMILES IDX 4 1 3 2 2 3 1 4 31 5 32 6 78 7 33 8 77 9 34 10 35 11 36 12
REMARK SMILES IDX 71 13 37 14 76 15 70 16 72 17 38 18 75 19 69 20 68 21 39 23
REMARK SMILES IDX 61 24 46 25 60 26 47 27 50 28 59 29 73 30 48 31 49 32 58 34
REMARK SMILES IDX 74 35 51 36 40 37 41 38 45 39 42 40 44 41 43 42 62 43 63 44
REMARK SMILES IDX 67 45 64 46 66 47 65 48 52 49 53 50 57 51 54 52 56 53 55 54
REMARK SMILES IDX 5 55 6 56 7 57 8 58 9 59 10 60 29 61 26 62 28 63 30 64 27 65
REMARK SMILES IDX 11 66 12 67 13 68 14 69 25 70 15 71 24 72 16 73 17 74 18 75
REMARK SMILES IDX 23 76 19 77 21 78 20 79 22 80
REMARK H PARENT 72 22 50 33
REMARK Flexibility Score: inf
ROOT
ATOM      1  C   UNL A   1      32.830  30.643  27.138  1.00  0.00     0.275 C 
ENDROOT
BRANCH   1   2
ATOM      2  O   UNL A   1      34.260  30.387  27.259  1.00  0.00    -0.458 OA
BRANCH   2   3
ATOM      3  C   UNL A   1      35.010  30.924  28.283  1.00  0.00     0.338 C 
ATOM      4  O   UNL A   1      34.850  32.062  28.696  1.00  0.00    -0.246 OA
BRANCH   3   5
ATOM      5  C   UNL A   1      36.275  30.136  28.566  1.00  0.00     0.060 A 
ATOM      6  C   UNL A   1      37.208  29.949  27.577  1.00  0.00     0.016 A 
ATOM      7  C   UNL A   1      36.645  29.658  29.842  1.00  0.00     0.016 A 
ATOM      8  C   UNL A   1      38.530  29.572  27.922  1.00  0.00     0.010 A 
ATOM      9  C   UNL A   1      38.037  29.366  30.180  1.00  0.00     0.010 A 
ATOM     10  C   UNL A   1      39.066  29.456  29.230  1.00  0.00    -0.014 A 
BRANCH  10  11
ATOM     11  C   UNL A   1      40.607  29.113  29.361  1.00  0.00     0.031 A 
ATOM     12  C   UNL A   1      40.903  27.697  28.992  1.00  0.00     0.074 A 
ATOM     13  C   UNL A   1      41.747  29.882  29.482  1.00  0.00     0.049 A 
ATOM     14  N   UNL A   1      41.954  27.190  28.406  1.00  0.00    -0.248 NA
ATOM     15  C   UNL A   1      39.820  26.751  29.277  1.00  0.00     0.031 C 
ATOM     16  C   UNL A   1      41.844  31.254  29.920  1.00  0.00     0.029 A 
ATOM     17  N   UNL A   1      43.073  29.676  29.013  1.00  0.00    -0.354 N 
ATOM     18  C   UNL A   1      41.622  25.871  28.178  1.00  0.00     0.074 A 
ATOM     19  C   UNL A   1      40.278  25.666  28.680  1.00  0.00     0.031 C 
ATOM     20  C   UNL A   1      42.947  31.853  29.433  1.00  0.00     0.029 A 
ATOM     21  C   UNL A   1      43.803  30.866  28.804  1.00  0.00     0.049 A 
ATOM     22  H   UNL A   1      43.450  28.781  28.848  1.00  0.00     0.167 HD
ATOM     23  C   UNL A   1      42.371  24.886  27.639  1.00  0.00     0.031 A 
ATOM     24  C   UNL A   1      44.990  31.175  28.199  1.00  0.00     0.031 A 
ATOM     25  C   UNL A   1      43.772  24.964  27.366  1.00  0.00     0.049 A 
ATOM     26  C   UNL A   1      45.869  30.023  27.784  1.00  0.00     0.074 A 
ATOM     27  C   UNL A   1      44.640  23.924  27.083  1.00  0.00     0.029 A 
ATOM     28  N   UNL A   1      44.528  26.121  27.401  1.00  0.00    -0.354 N 
ATOM     29  N   UNL A   1      45.535  28.777  27.572  1.00  0.00    -0.248 NA
ATOM     30  C   UNL A   1      47.310  30.297  27.610  1.00  0.00     0.031 C 
ATOM     31  C   UNL A   1      45.936  24.442  27.019  1.00  0.00     0.029 A 
ATOM     32  C   UNL A   1      45.863  25.815  27.183  1.00  0.00     0.049 A 
ATOM     33  H   UNL A   1      44.173  27.025  27.558  1.00  0.00     0.167 HD
ATOM     34  C   UNL A   1      46.724  28.114  27.299  1.00  0.00     0.074 A 
ATOM     35  C   UNL A   1      47.775  29.107  27.258  1.00  0.00     0.031 C 
ATOM     36  C   UNL A   1      46.922  26.784  27.155  1.00  0.00     0.031 A 
BRANCH  23  37
ATOM     37  C   UNL A   1      41.654  23.592  27.462  1.00  0.00    -0.014 A 
ATOM     38  C   UNL A   1      41.791  22.577  28.420  1.00  0.00     0.009 A 
ATOM     39  C   UNL A   1      40.947  23.348  26.277  1.00  0.00     0.009 A 
ATOM     40  C   UNL A   1      41.240  21.320  28.181  1.00  0.00     0.001 A 
ATOM     41  C   UNL A   1      40.389  22.094  26.049  1.00  0.00     0.001 A 
ATOM     42  C   UNL A   1      40.541  21.080  26.996  1.00  0.00     0.000 A 
ENDBRANCH  23  37
BRANCH  24  43
ATOM     43  C   UNL A   1      45.557  32.584  28.012  1.00  0.00    -0.014 A 
ATOM     44  C   UNL A   1      46.134  33.304  29.089  1.00  0.00     0.009 A 
ATOM     45  C   UNL A   1      45.403  33.292  26.809  1.00  0.00     0.009 A 
ATOM     46  C   UNL A   1      46.500  34.659  28.970  1.00  0.00     0.001 A 
ATOM     47  C   UNL A   1      45.827  34.625  26.669  1.00  0.00     0.001 A 
ATOM     48  C   UNL A   1      46.359  35.315  27.753  1.00  0.00     0.000 A 
ENDBRANCH  24  43
BRANCH  36  49
ATOM     49  C   UNL A   1      48.333  26.314  26.958  1.00  0.00    -0.014 A 
ATOM     50  C   UNL A   1      49.086  25.807  28.031  1.00  0.00     0.009 A 
ATOM     51  C   UNL A   1      48.908  26.349  25.681  1.00  0.00     0.009 A 
ATOM     52  C   UNL A   1      50.400  25.382  27.833  1.00  0.00     0.001 A 
ATOM     53  C   UNL A   1      50.211  25.893  25.479  1.00  0.00     0.001 A 
ATOM     54  C   UNL A   1      50.959  25.420  26.557  1.00  0.00     0.000 A 
ENDBRANCH  36  49
ENDBRANCH  10  11
ENDBRANCH   3   5
ENDBRANCH   2   3
ENDBRANCH   1   2
BRANCH   1  55
ATOM     55  C   UNL A   1      31.974  29.339  27.159  1.00  0.00     0.274 C 
BRANCH  55  56
ATOM     56  O   UNL A   1      32.317  28.479  26.063  1.00  0.00    -0.462 OA
BRANCH  56  57
ATOM     57  C   UNL A   1      31.472  28.500  24.988  1.00  0.00     0.312 C 
ATOM     58  O   UNL A   1      30.844  29.464  24.626  1.00  0.00    -0.252 OA
BRANCH  57  59
ATOM     59  C   UNL A   1      31.460  27.129  24.333  1.00  0.00     0.143 C 
ATOM     60  C   UNL A   1      32.681  26.317  24.841  1.00  0.00     0.124 C 
ATOM     61  C   UNL A   1      31.747  27.335  22.831  1.00  0.00     0.133 C 
ATOM     62  C   UNL A   1      33.453  26.217  23.490  1.00  0.00     0.132 C 
ATOM     63  C   UNL A   1      31.656  26.053  21.995  1.00  0.00     0.036 C 
ATOM     64  O   UNL A   1      33.175  27.512  22.887  1.00  0.00    -0.373 OA
ATOM     65  C   UNL A   1      32.947  25.359  22.359  1.00  0.00     0.035 C 
BRANCH  60  66
ATOM     66  C   UNL A   1      32.231  25.076  25.643  1.00  0.00     0.229 C 
ATOM     67  O   UNL A   1      31.509  25.313  26.612  1.00  0.00    -0.274 OA
ATOM     68  N   UNL A   1      32.618  23.737  25.359  1.00  0.00    -0.339 N 
ATOM     69  C   UNL A   1      31.794  22.647  25.914  1.00  0.00     0.141 C 
ATOM     70  C   UNL A   1      33.985  23.238  25.170  1.00  0.00     0.141 C 
ATOM     71  C   UNL A   1      31.710  21.350  25.083  1.00  0.00     0.138 C 
ATOM     72  C   UNL A   1      34.138  21.869  24.415  1.00  0.00     0.138 C 
ATOM     73  N   UNL A   1      32.973  20.976  24.449  1.00  0.00    -0.368 N 
BRANCH  73  74
ATOM     74  C   UNL A   1      33.081  19.618  24.155  1.00  0.00     0.038 A 
ATOM     75  C   UNL A   1      32.395  19.100  23.046  1.00  0.00     0.026 A 
ATOM     76  C   UNL A   1      33.992  18.780  24.815  1.00  0.00     0.046 A 
ATOM     77  C   UNL A   1      32.630  17.804  22.578  1.00  0.00     0.004 A 
ATOM     78  C   UNL A   1      34.218  17.474  24.350  1.00  0.00     0.043 A 
ATOM     79  C   UNL A   1      33.550  16.989  23.228  1.00  0.00     0.020 A 
ATOM     80  Cl  UNL A   1      35.369  16.462  25.142  1.00  0.00    -0.084 Cl
ENDBRANCH  73  74
ENDBRANCH  60  66
ENDBRANCH  57  59
ENDBRANCH  56  57
ENDBRANCH  55  56
ENDBRANCH   1  55
TORSDOF 13
ENDMDL
MODEL 3
REMARK VINA RESULT:     -12.2      1.717      6.073
REMARK SMILES O=C(OCCOC(=O)[C@@H]1[C@@H](C(=O)N2CCN(c3cccc(Cl)c3)CC2)[C@H]2CC[C@@H]1O2)c1ccc(-c2c3nc(c(-c4ccccc4)c4ccc([nH]4)c(-c4ccccc4)c4nc(c(-c5ccccc5)c5ccc2[nH]5)C=C4)C=C3)cc1
REMARK SMILES IDX 4 1 3 2 2 3 1 4 31 5 32 6 78 7 33 8 77 9 34 10 35 11 36 12
REMARK SMILES IDX 71 13 37 14 76 15 70 16 72 17 38 18 75 19 69 20 68 21 39 23
REMARK SMILES IDX 61 24 46 25 60 26 47 27 50 28 59 29 73 30 48 31 49 32 58 34
REMARK SMILES IDX 74 35 51 36 40 37 41 38 45 39 42 40 44 41 43 42 62 43 63 44
REMARK SMILES IDX 67 45 64 46 66 47 65 48 52 49 53 50 57 51 54 52 56 53 55 54
REMARK SMILES IDX 5 55 6 56 7 57 8 58 9 59 10 60 29 61 26 62 28 63 30 64 27 65
REMARK SMILES IDX 11 66 12 67 13 68 14 69 25 70 15 71 24 72 16 73 17 74 18 75
REMARK SMILES IDX 23 76 19 77 21 78 20 79 22 80
REMARK H PARENT 72 22 50 33
REMARK Flexibility Score: inf
ROOT
ATOM      1  C   UNL A   1      40.836  22.700  26.079  1.00  0.00     0.275 C 
ENDROOT
BRANCH   1   2
ATOM      2  O   UNL A   1      41.301  23.924  26.719  1.00  0.00    -0.458 OA
BRANCH   2   3
ATOM      3  C   UNL A   1      41.107  25.162  26.146  1.00  0.00     0.338 C 
ATOM      4  O   UNL A   1      41.719  25.539  25.158  1.00  0.00    -0.246 OA
BRANCH   3   5
ATOM      5  C   UNL A   1      40.384  26.131  27.062  1.00  0.00     0.060 A 
ATOM      6  C   UNL A   1      39.644  25.662  28.118  1.00  0.00     0.016 A 
ATOM      7  C   UNL A   1      40.506  27.536  26.988  1.00  0.00     0.016 A 
ATOM      8  C   UNL A   1      39.302  26.537  29.179  1.00  0.00     0.010 A 
ATOM      9  C   UNL A   1      40.226  28.394  28.139  1.00  0.00     0.010 A 
ATOM     10  C   UNL A   1      39.735  27.877  29.348  1.00  0.00    -0.014 A 
BRANCH  10  11
ATOM     11  C   UNL A   1      39.296  28.626  30.673  1.00  0.00     0.031 A 
ATOM     12  C   UNL A   1      40.422  28.761  31.644  1.00  0.00     0.074 A 
ATOM     13  C   UNL A   1      38.202  29.396  31.014  1.00  0.00     0.049 A 
ATOM     14  N   UNL A   1      40.688  29.725  32.483  1.00  0.00    -0.248 NA
ATOM     15  C   UNL A   1      41.404  27.674  31.598  1.00  0.00     0.031 C 
ATOM     16  C   UNL A   1      36.913  29.434  30.366  1.00  0.00     0.029 A 
ATOM     17  N   UNL A   1      38.072  30.505  31.893  1.00  0.00    -0.354 N 
ATOM     18  C   UNL A   1      41.921  29.397  33.010  1.00  0.00     0.074 A 
ATOM     19  C   UNL A   1      42.343  28.157  32.390  1.00  0.00     0.031 C 
ATOM     20  C   UNL A   1      36.288  30.608  30.575  1.00  0.00     0.029 A 
ATOM     21  C   UNL A   1      37.011  31.378  31.569  1.00  0.00     0.049 A 
ATOM     22  H   UNL A   1      38.671  30.653  32.661  1.00  0.00     0.167 HD
ATOM     23  C   UNL A   1      42.637  30.034  33.959  1.00  0.00     0.031 A 
ATOM     24  C   UNL A   1      36.631  32.627  31.977  1.00  0.00     0.031 A 
ATOM     25  C   UNL A   1      42.162  31.104  34.779  1.00  0.00     0.049 A 
ATOM     26  C   UNL A   1      37.351  33.208  33.166  1.00  0.00     0.074 A 
ATOM     27  C   UNL A   1      42.732  31.605  35.936  1.00  0.00     0.029 A 
ATOM     28  N   UNL A   1      40.983  31.798  34.580  1.00  0.00    -0.354 N 
ATOM     29  N   UNL A   1      38.521  32.883  33.651  1.00  0.00    -0.248 NA
ATOM     30  C   UNL A   1      36.661  34.272  33.924  1.00  0.00     0.031 C 
ATOM     31  C   UNL A   1      41.861  32.553  36.478  1.00  0.00     0.029 A 
ATOM     32  C   UNL A   1      40.788  32.698  35.616  1.00  0.00     0.049 A 
ATOM     33  H   UNL A   1      40.373  31.672  33.817  1.00  0.00     0.167 HD
ATOM     34  C   UNL A   1      38.679  33.656  34.793  1.00  0.00     0.074 A 
ATOM     35  C   UNL A   1      37.543  34.548  34.874  1.00  0.00     0.031 C 
ATOM     36  C   UNL A   1      39.659  33.580  35.722  1.00  0.00     0.031 A 
BRANCH  23  37
ATOM     37  C   UNL A   1      43.978  29.441  34.223  1.00  0.00    -0.014 A 
ATOM     38  C   UNL A   1      44.122  28.429  35.183  1.00  0.00     0.009 A 
ATOM     39  C   UNL A   1      45.110  29.983  33.599  1.00  0.00     0.009 A 
ATOM     40  C   UNL A   1      45.394  27.980  35.531  1.00  0.00     0.001 A 
ATOM     41  C   UNL A   1      46.377  29.522  33.943  1.00  0.00     0.001 A 
ATOM     42  C   UNL A   1      46.518  28.527  34.912  1.00  0.00     0.000 A 
ENDBRANCH  23  37
BRANCH  24  43
ATOM     43  C   UNL A   1      35.462  33.435  31.410  1.00  0.00    -0.014 A 
ATOM     44  C   UNL A   1      35.393  33.783  30.036  1.00  0.00     0.009 A 
ATOM     45  C   UNL A   1      34.479  33.999  32.240  1.00  0.00     0.009 A 
ATOM     46  C   UNL A   1      34.417  34.668  29.539  1.00  0.00     0.001 A 
ATOM     47  C   UNL A   1      33.465  34.831  31.734  1.00  0.00     0.001 A 
ATOM     48  C   UNL A   1      33.443  35.181  30.388  1.00  0.00     0.000 A 
ENDBRANCH  24  43
BRANCH  36  49
ATOM     49  C   UNL A   1      39.544  34.472  36.922  1.00  0.00    -0.014 A 
ATOM     50  C   UNL A   1      38.941  34.020  38.108  1.00  0.00     0.009 A 
ATOM     51  C   UNL A   1      40.070  35.771  36.879  1.00  0.00     0.009 A 
ATOM     52  C   UNL A   1      38.833  34.865  39.213  1.00  0.00     0.001 A 
ATOM     53  C   UNL A   1      39.990  36.603  37.996  1.00  0.00     0.001 A 
ATOM     54  C   UNL A   1      39.362  36.153  39.158  1.00  0.00     0.000 A 
ENDBRANCH  36  49
ENDBRANCH  10  11
ENDBRANCH   3   5
ENDBRANCH   2   3
ENDBRANCH   1   2
BRANCH   1  55
ATOM     55  C   UNL A   1      39.456  22.216  26.622  1.00  0.00     0.274 C 
BRANCH  55  56
ATOM     56  O   UNL A   1      38.518  22.028  25.553  1.00  0.00    -0.462 OA
BRANCH  56  57
ATOM     57  C   UNL A   1      37.542  22.977  25.429  1.00  0.00     0.312 C 
ATOM     58  O   UNL A   1      37.633  24.113  25.821  1.00  0.00    -0.252 OA
BRANCH  57  59
ATOM     59  C   UNL A   1      36.341  22.370  24.721  1.00  0.00     0.143 C 
ATOM     60  C   UNL A   1      35.104  23.275  24.960  1.00  0.00     0.124 C 
ATOM     61  C   UNL A   1      35.991  21.058  25.452  1.00  0.00     0.133 C 
ATOM     62  C   UNL A   1      34.264  22.275  25.810  1.00  0.00     0.132 C 
ATOM     63  C   UNL A   1      34.866  20.253  24.790  1.00  0.00     0.036 C 
ATOM     64  O   UNL A   1      35.293  21.601  26.587  1.00  0.00    -0.373 OA
ATOM     65  C   UNL A   1      33.646  21.046  25.193  1.00  0.00     0.035 C 
BRANCH  60  66
ATOM     66  C   UNL A   1      34.594  23.885  23.635  1.00  0.00     0.229 C 
ATOM     67  O   UNL A   1      35.009  23.337  22.613  1.00  0.00    -0.274 OA
ATOM     68  N   UNL A   1      33.740  25.018  23.535  1.00  0.00    -0.339 N 
ATOM     69  C   UNL A   1      33.002  25.218  22.274  1.00  0.00     0.141 C 
ATOM     70  C   UNL A   1      33.933  26.325  24.174  1.00  0.00     0.141 C 
ATOM     71  C   UNL A   1      31.622  25.898  22.378  1.00  0.00     0.138 C 
ATOM     72  C   UNL A   1      32.662  27.238  24.310  1.00  0.00     0.138 C 
ATOM     73  N   UNL A   1      31.574  26.982  23.359  1.00  0.00    -0.368 N 
BRANCH  73  74
ATOM     74  C   UNL A   1      30.573  27.922  23.119  1.00  0.00     0.038 A 
ATOM     75  C   UNL A   1      30.865  29.050  22.337  1.00  0.00     0.026 A 
ATOM     76  C   UNL A   1      29.235  27.697  23.474  1.00  0.00     0.046 A 
ATOM     77  C   UNL A   1      29.860  29.910  21.886  1.00  0.00     0.004 A 
ATOM     78  C   UNL A   1      28.228  28.568  23.031  1.00  0.00     0.043 A 
ATOM     79  C   UNL A   1      28.535  29.666  22.229  1.00  0.00     0.020 A 
ATOM     80  Cl  UNL A   1      26.580  28.265  23.439  1.00  0.00    -0.084 Cl
ENDBRANCH  73  74
ENDBRANCH  60  66
ENDBRANCH  57  59
ENDBRANCH  56  57
ENDBRANCH  55  56
ENDBRANCH   1  55
TORSDOF 13
ENDMDL
