MODEL 1
REMARK VINA RESULT:     -11.7      0.000      0.000
REMARK SMILES C[N@H+]1[C@H](C(=O)OCCOC(=O)c2ccc(-c3c4nc(c(-c5ccccc5)c5ccc([nH]5)c(-c5ccccc5)c5nc(c(-c6ccccc6)c6ccc3[nH]6)C=C5)C=C4)cc2)C[C@H](C(=O)NCC2(CO)CCCC2)[C@@H]1c1ccccc1F
REMARK SMILES IDX 6 1 4 2 5 3 3 4 1 5 2 6 73 7 60 9 61 10 74 11 75 12 79 13
REMARK SMILES IDX 76 14 78 15 80 16 77 17 62 18 63 19 64 20 65 22 66 23 69 24
REMARK SMILES IDX 72 25 70 26 71 27 67 28 68 29 7 31 8 32 9 33 10 34 11 35
REMARK SMILES IDX 12 36 13 37 59 38 14 39 58 40 15 41 16 42 17 43 52 44 18 45
REMARK SMILES IDX 57 46 51 47 53 48 19 49 56 50 50 51 49 52 20 54 42 55 27 56
REMARK SMILES IDX 41 57 28 58 31 59 40 60 54 61 29 62 30 63 39 65 55 66 32 67
REMARK SMILES IDX 21 68 22 69 26 70 23 71 25 72 24 73 43 74 44 75 48 76 45 77
REMARK SMILES IDX 47 78 46 79 33 80 34 81 38 82 35 83 37 84 36 85
REMARK H PARENT 2 8 64 21 68 30 53 53 31 64
REMARK Flexibility Score: inf
ROOT
ATOM      1  O   UNL A   1      31.006  27.556  26.090  1.00  0.00    -0.458 OA
ENDROOT
BRANCH   1   2
ATOM      2  C   UNL A   1      30.802  26.236  25.862  1.00  0.00     0.365 C 
ATOM      3  O   UNL A   1      29.997  25.539  26.481  1.00  0.00    -0.245 OA
BRANCH   2   4
ATOM      4  C   UNL A   1      31.676  25.623  24.775  1.00  0.00     0.296 C 
ATOM      5  C   UNL A   1      33.940  26.464  24.907  1.00  0.00     0.333 C 
ATOM      6  N   UNL A   1      33.073  25.309  25.144  1.00  0.00    -0.319 N 
ATOM      7  C   UNL A   1      33.421  24.131  24.321  1.00  0.00     0.231 C 
ATOM      8  H   UNL A   1      33.192  25.097  26.135  1.00  0.00     0.349 HD
ATOM      9  C   UNL A   1      31.039  24.310  24.354  1.00  0.00     0.097 C 
ATOM     10  C   UNL A   1      32.149  23.262  24.385  1.00  0.00     0.148 C 
BRANCH   7  11
ATOM     11  C   UNL A   1      34.718  23.387  24.553  1.00  0.00     0.046 A 
ATOM     12  C   UNL A   1      35.439  22.953  23.419  1.00  0.00     0.013 A 
ATOM     13  C   UNL A   1      35.246  23.075  25.810  1.00  0.00     0.132 A 
ATOM     14  C   UNL A   1      36.633  22.237  23.546  1.00  0.00     0.001 A 
ATOM     15  C   UNL A   1      36.443  22.369  25.940  1.00  0.00     0.040 A 
ATOM     16  F   UNL A   1      34.627  23.449  26.938  1.00  0.00    -0.206 F 
ATOM     17  C   UNL A   1      37.136  21.946  24.809  1.00  0.00     0.003 A 
ENDBRANCH   7  11
BRANCH  10  18
ATOM     18  C   UNL A   1      31.986  22.325  25.588  1.00  0.00     0.229 C 
ATOM     19  O   UNL A   1      31.739  22.699  26.731  1.00  0.00    -0.275 OA
ATOM     20  N   UNL A   1      32.199  20.984  25.394  1.00  0.00    -0.355 N 
ATOM     21  H   UNL A   1      32.159  20.433  26.208  1.00  0.00     0.163 HD
BRANCH  20  22
ATOM     22  C   UNL A   1      32.475  20.255  24.170  1.00  0.00     0.125 C 
BRANCH  22  23
ATOM     23  C   UNL A   1      33.026  18.840  24.391  1.00  0.00     0.011 C 
ATOM     24  C   UNL A   1      32.874  18.024  23.091  1.00  0.00     0.011 C 
ATOM     25  C   UNL A   1      34.552  18.849  24.570  1.00  0.00     0.011 C 
ATOM     26  C   UNL A   1      33.941  16.940  23.171  1.00  0.00     0.001 C 
ATOM     27  C   UNL A   1      35.017  17.470  24.116  1.00  0.00     0.001 C 
BRANCH  23  28
ATOM     28  C   UNL A   1      32.291  18.143  25.553  1.00  0.00     0.164 C 
BRANCH  28  29
ATOM     29  O   UNL A   1      32.831  18.513  26.816  1.00  0.00    -0.396 OA
ATOM     30  H   UNL A   1      33.179  19.417  26.766  1.00  0.00     0.210 HD
ENDBRANCH  28  29
ENDBRANCH  23  28
ENDBRANCH  22  23
ENDBRANCH  20  22
ENDBRANCH  10  18
ENDBRANCH   2   4
ENDBRANCH   1   2
BRANCH   1  31
ATOM     31  C   UNL A   1      31.690  27.857  27.317  1.00  0.00     0.274 C 
BRANCH  31  32
ATOM     32  C   UNL A   1      32.312  29.251  27.266  1.00  0.00     0.275 C 
BRANCH  32  33
ATOM     33  O   UNL A   1      33.739  29.169  27.442  1.00  0.00    -0.458 OA
BRANCH  33  34
ATOM     34  C   UNL A   1      34.357  30.332  27.744  1.00  0.00     0.338 C 
ATOM     35  O   UNL A   1      33.895  31.459  27.693  1.00  0.00    -0.246 OA
BRANCH  34  36
ATOM     36  C   UNL A   1      35.748  30.074  28.156  1.00  0.00     0.060 A 
ATOM     37  C   UNL A   1      36.787  30.134  27.227  1.00  0.00     0.016 A 
ATOM     38  C   UNL A   1      35.998  29.638  29.455  1.00  0.00     0.016 A 
ATOM     39  C   UNL A   1      38.065  29.699  27.569  1.00  0.00     0.010 A 
ATOM     40  C   UNL A   1      37.294  29.270  29.821  1.00  0.00     0.010 A 
ATOM     41  C   UNL A   1      38.333  29.266  28.872  1.00  0.00    -0.014 A 
BRANCH  41  42
ATOM     42  C   UNL A   1      39.679  28.764  29.247  1.00  0.00     0.031 A 
ATOM     43  C   UNL A   1      40.608  29.640  30.041  1.00  0.00     0.074 A 
ATOM     44  C   UNL A   1      40.079  27.536  28.867  1.00  0.00     0.049 A 
ATOM     45  N   UNL A   1      41.880  29.477  30.301  1.00  0.00    -0.248 NA
ATOM     46  C   UNL A   1      40.029  30.869  30.611  1.00  0.00     0.031 C 
ATOM     47  C   UNL A   1      39.261  26.561  28.143  1.00  0.00     0.029 A 
ATOM     48  N   UNL A   1      41.286  26.904  29.030  1.00  0.00    -0.354 N 
ATOM     49  C   UNL A   1      42.265  30.603  31.017  1.00  0.00     0.074 A 
ATOM     50  C   UNL A   1      41.093  31.441  31.155  1.00  0.00     0.031 C 
ATOM     51  C   UNL A   1      39.987  25.449  27.937  1.00  0.00     0.029 A 
ATOM     52  C   UNL A   1      41.338  25.663  28.447  1.00  0.00     0.049 A 
ATOM     53  H   UNL A   1      42.043  27.303  29.519  1.00  0.00     0.167 HD
ATOM     54  C   UNL A   1      43.489  30.914  31.508  1.00  0.00     0.031 A 
ATOM     55  C   UNL A   1      42.367  24.810  28.295  1.00  0.00     0.031 A 
ATOM     56  C   UNL A   1      44.648  30.070  31.392  1.00  0.00     0.049 A 
ATOM     57  C   UNL A   1      43.725  25.197  28.804  1.00  0.00     0.074 A 
ATOM     58  C   UNL A   1      45.931  30.295  31.860  1.00  0.00     0.029 A 
ATOM     59  N   UNL A   1      44.659  28.832  30.770  1.00  0.00    -0.354 N 
ATOM     60  N   UNL A   1      44.089  26.285  29.436  1.00  0.00    -0.248 NA
ATOM     61  C   UNL A   1      44.816  24.243  28.563  1.00  0.00     0.031 C 
ATOM     62  C   UNL A   1      46.728  29.205  31.492  1.00  0.00     0.029 A 
ATOM     63  C   UNL A   1      45.930  28.285  30.831  1.00  0.00     0.049 A 
ATOM     64  H   UNL A   1      43.880  28.405  30.347  1.00  0.00     0.167 HD
ATOM     65  C   UNL A   1      45.449  26.144  29.679  1.00  0.00     0.074 A 
ATOM     66  C   UNL A   1      45.840  24.856  29.143  1.00  0.00     0.031 C 
ATOM     67  C   UNL A   1      46.298  27.005  30.289  1.00  0.00     0.031 A 
BRANCH  54  68
ATOM     68  C   UNL A   1      43.643  32.248  32.178  1.00  0.00    -0.014 A 
ATOM     69  C   UNL A   1      43.534  32.386  33.570  1.00  0.00     0.009 A 
ATOM     70  C   UNL A   1      43.928  33.383  31.401  1.00  0.00     0.009 A 
ATOM     71  C   UNL A   1      43.678  33.641  34.167  1.00  0.00     0.001 A 
ATOM     72  C   UNL A   1      44.094  34.631  32.004  1.00  0.00     0.001 A 
ATOM     73  C   UNL A   1      43.961  34.760  33.384  1.00  0.00     0.000 A 
ENDBRANCH  54  68
BRANCH  55  74
ATOM     74  C   UNL A   1      42.161  23.521  27.587  1.00  0.00    -0.014 A 
ATOM     75  C   UNL A   1      42.404  23.418  26.210  1.00  0.00     0.009 A 
ATOM     76  C   UNL A   1      41.725  22.385  28.288  1.00  0.00     0.009 A 
ATOM     77  C   UNL A   1      42.202  22.206  25.546  1.00  0.00     0.001 A 
ATOM     78  C   UNL A   1      41.549  21.168  27.627  1.00  0.00     0.001 A 
ATOM     79  C   UNL A   1      41.781  21.082  26.256  1.00  0.00     0.000 A 
ENDBRANCH  55  74
BRANCH  67  80
ATOM     80  C   UNL A   1      47.726  26.564  30.433  1.00  0.00    -0.014 A 
ATOM     81  C   UNL A   1      48.150  25.846  31.561  1.00  0.00     0.009 A 
ATOM     82  C   UNL A   1      48.647  26.848  29.414  1.00  0.00     0.009 A 
ATOM     83  C   UNL A   1      49.483  25.446  31.678  1.00  0.00     0.001 A 
ATOM     84  C   UNL A   1      49.973  26.428  29.525  1.00  0.00     0.001 A 
ATOM     85  C   UNL A   1      50.391  25.734  30.660  1.00  0.00     0.000 A 
ENDBRANCH  67  80
ENDBRANCH  41  42
ENDBRANCH  34  36
ENDBRANCH  33  34
ENDBRANCH  32  33
ENDBRANCH  31  32
ENDBRANCH   1  31
TORSDOF 17
ENDMDL
MODEL 2
REMARK VINA RESULT:     -11.5      3.284      7.449
REMARK SMILES C[N@H+]1[C@H](C(=O)OCCOC(=O)c2ccc(-c3c4nc(c(-c5ccccc5)c5ccc([nH]5)c(-c5ccccc5)c5nc(c(-c6ccccc6)c6ccc3[nH]6)C=C5)C=C4)cc2)C[C@H](C(=O)NCC2(CO)CCCC2)[C@@H]1c1ccccc1F
REMARK SMILES IDX 6 1 4 2 5 3 3 4 1 5 2 6 73 7 60 9 61 10 74 11 75 12 79 13
REMARK SMILES IDX 76 14 78 15 80 16 77 17 62 18 63 19 64 20 65 22 66 23 69 24
REMARK SMILES IDX 72 25 70 26 71 27 67 28 68 29 7 31 8 32 9 33 10 34 11 35
REMARK SMILES IDX 12 36 13 37 59 38 14 39 58 40 15 41 16 42 17 43 52 44 18 45
REMARK SMILES IDX 57 46 51 47 53 48 19 49 56 50 50 51 49 52 20 54 42 55 27 56
REMARK SMILES IDX 41 57 28 58 31 59 40 60 54 61 29 62 30 63 39 65 55 66 32 67
REMARK SMILES IDX 21 68 22 69 26 70 23 71 25 72 24 73 43 74 44 75 48 76 45 77
REMARK SMILES IDX 47 78 46 79 33 80 34 81 38 82 35 83 37 84 36 85
REMARK H PARENT 2 8 64 21 68 30 53 53 31 64
REMARK Flexibility Score: inf
ROOT
ATOM      1  O   UNL A   1      34.598  22.136  23.790  1.00  0.00    -0.458 OA
ENDROOT
BRANCH   1   2
ATOM      2  C   UNL A   1      33.735  23.041  23.267  1.00  0.00     0.365 C 
ATOM      3  O   UNL A   1      33.666  23.326  22.070  1.00  0.00    -0.245 OA
BRANCH   2   4
ATOM      4  C   UNL A   1      32.834  23.739  24.277  1.00  0.00     0.296 C 
ATOM      5  C   UNL A   1      34.125  24.621  26.123  1.00  0.00     0.333 C 
ATOM      6  N   UNL A   1      33.372  24.960  24.914  1.00  0.00    -0.319 N 
ATOM      7  C   UNL A   1      32.184  25.801  25.175  1.00  0.00     0.231 C 
ATOM      8  H   UNL A   1      34.040  25.462  24.329  1.00  0.00     0.349 HD
ATOM      9  C   UNL A   1      31.564  24.157  23.556  1.00  0.00     0.097 C 
ATOM     10  C   UNL A   1      31.336  25.627  23.899  1.00  0.00     0.148 C 
BRANCH   7  11
ATOM     11  C   UNL A   1      32.341  27.227  25.652  1.00  0.00     0.046 A 
ATOM     12  C   UNL A   1      31.474  27.680  26.670  1.00  0.00     0.013 A 
ATOM     13  C   UNL A   1      33.267  28.142  25.142  1.00  0.00     0.132 A 
ATOM     14  C   UNL A   1      31.536  28.992  27.150  1.00  0.00     0.001 A 
ATOM     15  C   UNL A   1      33.339  29.450  25.625  1.00  0.00     0.040 A 
ATOM     16  F   UNL A   1      34.128  27.797  24.175  1.00  0.00    -0.206 F 
ATOM     17  C   UNL A   1      32.471  29.878  26.626  1.00  0.00     0.003 A 
ENDBRANCH   7  11
BRANCH  10  18
ATOM     18  C   UNL A   1      31.662  26.527  22.701  1.00  0.00     0.229 C 
ATOM     19  O   UNL A   1      32.651  26.400  21.985  1.00  0.00    -0.275 OA
ATOM     20  N   UNL A   1      30.833  27.591  22.450  1.00  0.00    -0.355 N 
ATOM     21  H   UNL A   1      31.123  28.184  21.720  1.00  0.00     0.163 HD
BRANCH  20  22
ATOM     22  C   UNL A   1      29.593  27.975  23.098  1.00  0.00     0.125 C 
BRANCH  22  23
ATOM     23  C   UNL A   1      29.207  29.446  22.896  1.00  0.00     0.011 C 
ATOM     24  C   UNL A   1      27.706  29.627  23.200  1.00  0.00     0.011 C 
ATOM     25  C   UNL A   1      29.845  30.350  23.962  1.00  0.00     0.011 C 
ATOM     26  C   UNL A   1      27.547  31.093  23.583  1.00  0.00     0.001 C 
ATOM     27  C   UNL A   1      28.917  31.555  24.075  1.00  0.00     0.001 C 
BRANCH  23  28
ATOM     28  C   UNL A   1      29.524  29.902  21.458  1.00  0.00     0.164 C 
BRANCH  28  29
ATOM     29  O   UNL A   1      30.922  30.064  21.252  1.00  0.00    -0.396 OA
ATOM     30  H   UNL A   1      31.408  29.550  21.915  1.00  0.00     0.210 HD
ENDBRANCH  28  29
ENDBRANCH  23  28
ENDBRANCH  22  23
ENDBRANCH  20  22
ENDBRANCH  10  18
ENDBRANCH   2   4
ENDBRANCH   1   2
BRANCH   1  31
ATOM     31  C   UNL A   1      35.972  22.553  23.804  1.00  0.00     0.274 C 
BRANCH  31  32
ATOM     32  C   UNL A   1      36.884  21.407  24.236  1.00  0.00     0.275 C 
BRANCH  32  33
ATOM     33  O   UNL A   1      37.260  21.560  25.618  1.00  0.00    -0.458 OA
BRANCH  33  34
ATOM     34  C   UNL A   1      38.565  21.342  25.895  1.00  0.00     0.338 C 
ATOM     35  O   UNL A   1      39.201  20.314  25.737  1.00  0.00    -0.246 OA
BRANCH  34  36
ATOM     36  C   UNL A   1      39.172  22.559  26.460  1.00  0.00     0.060 A 
ATOM     37  C   UNL A   1      38.679  23.821  26.124  1.00  0.00     0.016 A 
ATOM     38  C   UNL A   1      40.328  22.444  27.229  1.00  0.00     0.016 A 
ATOM     39  C   UNL A   1      39.372  24.971  26.497  1.00  0.00     0.010 A 
ATOM     40  C   UNL A   1      40.983  23.597  27.666  1.00  0.00     0.010 A 
ATOM     41  C   UNL A   1      40.530  24.870  27.277  1.00  0.00    -0.014 A 
BRANCH  41  42
ATOM     42  C   UNL A   1      41.302  26.080  27.654  1.00  0.00     0.031 A 
ATOM     43  C   UNL A   1      40.689  27.100  28.573  1.00  0.00     0.074 A 
ATOM     44  C   UNL A   1      42.541  26.279  27.165  1.00  0.00     0.049 A 
ATOM     45  N   UNL A   1      41.106  28.305  28.868  1.00  0.00    -0.248 NA
ATOM     46  C   UNL A   1      39.436  26.715  29.243  1.00  0.00     0.031 C 
ATOM     47  C   UNL A   1      43.278  25.347  26.309  1.00  0.00     0.029 A 
ATOM     48  N   UNL A   1      43.395  27.343  27.312  1.00  0.00    -0.354 N 
ATOM     49  C   UNL A   1      40.142  28.841  29.713  1.00  0.00     0.074 A 
ATOM     50  C   UNL A   1      39.122  27.829  29.888  1.00  0.00     0.031 C 
ATOM     51  C   UNL A   1      44.478  25.875  26.019  1.00  0.00     0.029 A 
ATOM     52  C   UNL A   1      44.563  27.209  26.605  1.00  0.00     0.049 A 
ATOM     53  H   UNL A   1      43.189  28.127  27.872  1.00  0.00     0.167 HD
ATOM     54  C   UNL A   1      40.107  30.068  30.285  1.00  0.00     0.031 A 
ATOM     55  C   UNL A   1      45.572  28.077  26.409  1.00  0.00     0.031 A 
ATOM     56  C   UNL A   1      41.134  31.064  30.131  1.00  0.00     0.049 A 
ATOM     57  C   UNL A   1      45.489  29.450  27.013  1.00  0.00     0.074 A 
ATOM     58  C   UNL A   1      41.192  32.335  30.674  1.00  0.00     0.029 A 
ATOM     59  N   UNL A   1      42.289  30.893  29.384  1.00  0.00    -0.354 N 
ATOM     60  N   UNL A   1      44.550  29.962  27.769  1.00  0.00    -0.248 NA
ATOM     61  C   UNL A   1      46.599  30.367  26.720  1.00  0.00     0.031 C 
ATOM     62  C   UNL A   1      42.369  32.947  30.228  1.00  0.00     0.029 A 
ATOM     63  C   UNL A   1      43.062  32.040  29.441  1.00  0.00     0.049 A 
ATOM     64  H   UNL A   1      42.524  30.077  28.886  1.00  0.00     0.167 HD
ATOM     65  C   UNL A   1      44.960  31.258  28.053  1.00  0.00     0.074 A 
ATOM     66  C   UNL A   1      46.241  31.446  27.403  1.00  0.00     0.031 C 
ATOM     67  C   UNL A   1      44.330  32.208  28.785  1.00  0.00     0.031 A 
BRANCH  54  68
ATOM     68  C   UNL A   1      38.894  30.416  31.096  1.00  0.00    -0.014 A 
ATOM     69  C   UNL A   1      37.726  30.908  30.495  1.00  0.00     0.009 A 
ATOM     70  C   UNL A   1      38.914  30.221  32.487  1.00  0.00     0.009 A 
ATOM     71  C   UNL A   1      36.612  31.228  31.276  1.00  0.00     0.001 A 
ATOM     72  C   UNL A   1      37.791  30.521  33.261  1.00  0.00     0.001 A 
ATOM     73  C   UNL A   1      36.645  31.031  32.656  1.00  0.00     0.000 A 
ENDBRANCH  54  68
BRANCH  55  74
ATOM     74  C   UNL A   1      46.728  27.690  25.563  1.00  0.00    -0.014 A 
ATOM     75  C   UNL A   1      46.720  27.948  24.185  1.00  0.00     0.009 A 
ATOM     76  C   UNL A   1      47.850  27.064  26.132  1.00  0.00     0.009 A 
ATOM     77  C   UNL A   1      47.807  27.575  23.390  1.00  0.00     0.001 A 
ATOM     78  C   UNL A   1      48.945  26.715  25.340  1.00  0.00     0.001 A 
ATOM     79  C   UNL A   1      48.920  26.964  23.969  1.00  0.00     0.000 A 
ENDBRANCH  55  74
BRANCH  67  80
ATOM     80  C   UNL A   1      45.036  33.523  28.943  1.00  0.00    -0.014 A 
ATOM     81  C   UNL A   1      45.948  33.734  29.988  1.00  0.00     0.009 A 
ATOM     82  C   UNL A   1      44.803  34.552  28.018  1.00  0.00     0.009 A 
ATOM     83  C   UNL A   1      46.594  34.965  30.119  1.00  0.00     0.001 A 
ATOM     84  C   UNL A   1      45.467  35.773  28.140  1.00  0.00     0.001 A 
ATOM     85  C   UNL A   1      46.355  35.982  29.194  1.00  0.00     0.000 A 
ENDBRANCH  67  80
ENDBRANCH  41  42
ENDBRANCH  34  36
ENDBRANCH  33  34
ENDBRANCH  32  33
ENDBRANCH  31  32
ENDBRANCH   1  31
TORSDOF 17
ENDMDL
MODEL 3
REMARK VINA RESULT:     -11.5      2.591      6.060
REMARK SMILES C[N@H+]1[C@H](C(=O)OCCOC(=O)c2ccc(-c3c4nc(c(-c5ccccc5)c5ccc([nH]5)c(-c5ccccc5)c5nc(c(-c6ccccc6)c6ccc3[nH]6)C=C5)C=C4)cc2)C[C@H](C(=O)NCC2(CO)CCCC2)[C@@H]1c1ccccc1F
REMARK SMILES IDX 6 1 4 2 5 3 3 4 1 5 2 6 73 7 60 9 61 10 74 11 75 12 79 13
REMARK SMILES IDX 76 14 78 15 80 16 77 17 62 18 63 19 64 20 65 22 66 23 69 24
REMARK SMILES IDX 72 25 70 26 71 27 67 28 68 29 7 31 8 32 9 33 10 34 11 35
REMARK SMILES IDX 12 36 13 37 59 38 14 39 58 40 15 41 16 42 17 43 52 44 18 45
REMARK SMILES IDX 57 46 51 47 53 48 19 49 56 50 50 51 49 52 20 54 42 55 27 56
REMARK SMILES IDX 41 57 28 58 31 59 40 60 54 61 29 62 30 63 39 65 55 66 32 67
REMARK SMILES IDX 21 68 22 69 26 70 23 71 25 72 24 73 43 74 44 75 48 76 45 77
REMARK SMILES IDX 47 78 46 79 33 80 34 81 38 82 35 83 37 84 36 85
REMARK H PARENT 2 8 64 21 68 30 53 53 31 64
REMARK Flexibility Score: inf
ROOT
ATOM      1  O   UNL A   1      30.275  27.615  24.894  1.00  0.00    -0.458 OA
ENDROOT
BRANCH   1   2
ATOM      2  C   UNL A   1      30.805  26.448  25.334  1.00  0.00     0.365 C 
ATOM      3  O   UNL A   1      30.578  25.954  26.440  1.00  0.00    -0.245 OA
BRANCH   2   4
ATOM      4  C   UNL A   1      31.758  25.760  24.365  1.00  0.00     0.296 C 
ATOM      5  C   UNL A   1      34.030  26.517  24.703  1.00  0.00     0.333 C 
ATOM      6  N   UNL A   1      33.095  25.406  24.887  1.00  0.00    -0.319 N 
ATOM      7  C   UNL A   1      33.475  24.185  24.145  1.00  0.00     0.231 C 
ATOM      8  H   UNL A   1      33.104  25.228  25.892  1.00  0.00     0.349 HD
ATOM      9  C   UNL A   1      31.112  24.458  23.924  1.00  0.00     0.097 C 
ATOM     10  C   UNL A   1      32.167  23.370  24.105  1.00  0.00     0.148 C 
BRANCH   7  11
ATOM     11  C   UNL A   1      34.708  23.401  24.535  1.00  0.00     0.046 A 
ATOM     12  C   UNL A   1      35.515  22.885  23.497  1.00  0.00     0.013 A 
ATOM     13  C   UNL A   1      35.098  23.126  25.849  1.00  0.00     0.132 A 
ATOM     14  C   UNL A   1      36.658  22.128  23.771  1.00  0.00     0.001 A 
ATOM     15  C   UNL A   1      36.244  22.379  26.128  1.00  0.00     0.040 A 
ATOM     16  F   UNL A   1      34.390  23.577  26.894  1.00  0.00    -0.206 F 
ATOM     17  C   UNL A   1      37.022  21.876  25.089  1.00  0.00     0.003 A 
ENDBRANCH   7  11
BRANCH  10  18
ATOM     18  C   UNL A   1      31.842  22.486  25.316  1.00  0.00     0.229 C 
ATOM     19  O   UNL A   1      31.446  22.909  26.398  1.00  0.00    -0.275 OA
ATOM     20  N   UNL A   1      32.075  21.138  25.211  1.00  0.00    -0.355 N 
ATOM     21  H   UNL A   1      31.925  20.623  26.037  1.00  0.00     0.163 HD
BRANCH  20  22
ATOM     22  C   UNL A   1      32.510  20.357  24.069  1.00  0.00     0.125 C 
BRANCH  22  23
ATOM     23  C   UNL A   1      33.084  18.980  24.429  1.00  0.00     0.011 C 
ATOM     24  C   UNL A   1      32.966  18.043  23.211  1.00  0.00     0.011 C 
ATOM     25  C   UNL A   1      34.607  19.036  24.626  1.00  0.00     0.011 C 
ATOM     26  C   UNL A   1      34.051  16.991  23.407  1.00  0.00     0.001 C 
ATOM     27  C   UNL A   1      35.103  17.629  24.311  1.00  0.00     0.001 C 
BRANCH  23  28
ATOM     28  C   UNL A   1      32.345  18.381  25.643  1.00  0.00     0.164 C 
BRANCH  28  29
ATOM     29  O   UNL A   1      32.903  18.827  26.873  1.00  0.00    -0.396 OA
ATOM     30  H   UNL A   1      32.220  19.282  27.391  1.00  0.00     0.210 HD
ENDBRANCH  28  29
ENDBRANCH  23  28
ENDBRANCH  22  23
ENDBRANCH  20  22
ENDBRANCH  10  18
ENDBRANCH   2   4
ENDBRANCH   1   2
BRANCH   1  31
ATOM     31  C   UNL A   1      31.239  28.589  24.462  1.00  0.00     0.274 C 
BRANCH  31  32
ATOM     32  C   UNL A   1      31.388  29.702  25.495  1.00  0.00     0.275 C 
BRANCH  32  33
ATOM     33  O   UNL A   1      32.780  29.986  25.730  1.00  0.00    -0.458 OA
BRANCH  33  34
ATOM     34  C   UNL A   1      33.036  30.882  26.708  1.00  0.00     0.338 C 
ATOM     35  O   UNL A   1      32.325  31.796  27.090  1.00  0.00    -0.246 OA
BRANCH  34  36
ATOM     36  C   UNL A   1      34.364  30.628  27.292  1.00  0.00     0.060 A 
ATOM     37  C   UNL A   1      34.768  29.328  27.599  1.00  0.00     0.016 A 
ATOM     38  C   UNL A   1      35.160  31.711  27.660  1.00  0.00     0.016 A 
ATOM     39  C   UNL A   1      35.934  29.105  28.330  1.00  0.00     0.010 A 
ATOM     40  C   UNL A   1      36.365  31.485  28.328  1.00  0.00     0.010 A 
ATOM     41  C   UNL A   1      36.747  30.183  28.698  1.00  0.00    -0.014 A 
BRANCH  41  42
ATOM     42  C   UNL A   1      37.973  29.971  29.507  1.00  0.00     0.031 A 
ATOM     43  C   UNL A   1      39.102  29.148  28.950  1.00  0.00     0.074 A 
ATOM     44  C   UNL A   1      38.074  30.496  30.743  1.00  0.00     0.049 A 
ATOM     45  N   UNL A   1      40.163  28.680  29.556  1.00  0.00    -0.248 NA
ATOM     46  C   UNL A   1      39.020  28.797  27.522  1.00  0.00     0.031 C 
ATOM     47  C   UNL A   1      37.081  31.360  31.384  1.00  0.00     0.029 A 
ATOM     48  N   UNL A   1      39.064  30.368  31.685  1.00  0.00    -0.354 N 
ATOM     49  C   UNL A   1      40.846  27.938  28.601  1.00  0.00     0.074 A 
ATOM     50  C   UNL A   1      40.083  28.020  27.374  1.00  0.00     0.031 C 
ATOM     51  C   UNL A   1      37.519  31.693  32.609  1.00  0.00     0.029 A 
ATOM     52  C   UNL A   1      38.782  31.009  32.865  1.00  0.00     0.049 A 
ATOM     53  H   UNL A   1      39.896  29.863  31.529  1.00  0.00     0.167 HD
ATOM     54  C   UNL A   1      42.002  27.245  28.738  1.00  0.00     0.031 A 
ATOM     55  C   UNL A   1      39.441  31.012  34.038  1.00  0.00     0.031 A 
ATOM     56  C   UNL A   1      42.773  27.184  29.950  1.00  0.00     0.049 A 
ATOM     57  C   UNL A   1      40.693  30.196  34.181  1.00  0.00     0.074 A 
ATOM     58  C   UNL A   1      43.959  26.512  30.187  1.00  0.00     0.029 A 
ATOM     59  N   UNL A   1      42.436  27.830  31.129  1.00  0.00    -0.354 N 
ATOM     60  N   UNL A   1      41.303  29.460  33.286  1.00  0.00    -0.248 NA
ATOM     61  C   UNL A   1      41.337  30.202  35.502  1.00  0.00     0.031 C 
ATOM     62  C   UNL A   1      44.324  26.725  31.521  1.00  0.00     0.029 A 
ATOM     63  C   UNL A   1      43.385  27.563  32.102  1.00  0.00     0.049 A 
ATOM     64  H   UNL A   1      41.639  28.395  31.257  1.00  0.00     0.167 HD
ATOM     65  C   UNL A   1      42.409  28.922  33.930  1.00  0.00     0.074 A 
ATOM     66  C   UNL A   1      42.395  29.432  35.286  1.00  0.00     0.031 C 
ATOM     67  C   UNL A   1      43.351  28.078  33.444  1.00  0.00     0.031 A 
BRANCH  54  68
ATOM     68  C   UNL A   1      42.477  26.458  27.551  1.00  0.00    -0.014 A 
ATOM     69  C   UNL A   1      43.332  27.022  26.593  1.00  0.00     0.009 A 
ATOM     70  C   UNL A   1      42.079  25.119  27.406  1.00  0.00     0.009 A 
ATOM     71  C   UNL A   1      43.756  26.268  25.495  1.00  0.00     0.001 A 
ATOM     72  C   UNL A   1      42.523  24.362  26.320  1.00  0.00     0.001 A 
ATOM     73  C   UNL A   1      43.354  24.939  25.362  1.00  0.00     0.000 A 
ENDBRANCH  54  68
BRANCH  55  74
ATOM     74  C   UNL A   1      38.899  31.778  35.189  1.00  0.00    -0.014 A 
ATOM     75  C   UNL A   1      39.118  33.159  35.291  1.00  0.00     0.009 A 
ATOM     76  C   UNL A   1      38.154  31.131  36.189  1.00  0.00     0.009 A 
ATOM     77  C   UNL A   1      38.613  33.876  36.379  1.00  0.00     0.001 A 
ATOM     78  C   UNL A   1      37.629  31.854  37.261  1.00  0.00     0.001 A 
ATOM     79  C   UNL A   1      37.865  33.224  37.359  1.00  0.00     0.000 A 
ENDBRANCH  55  74
BRANCH  67  80
ATOM     80  C   UNL A   1      44.457  27.682  34.378  1.00  0.00    -0.014 A 
ATOM     81  C   UNL A   1      44.379  26.500  35.131  1.00  0.00     0.009 A 
ATOM     82  C   UNL A   1      45.600  28.488  34.483  1.00  0.00     0.009 A 
ATOM     83  C   UNL A   1      45.418  26.150  35.996  1.00  0.00     0.001 A 
ATOM     84  C   UNL A   1      46.644  28.123  35.333  1.00  0.00     0.001 A 
ATOM     85  C   UNL A   1      46.549  26.959  36.094  1.00  0.00     0.000 A 
ENDBRANCH  67  80
ENDBRANCH  41  42
ENDBRANCH  34  36
ENDBRANCH  33  34
ENDBRANCH  32  33
ENDBRANCH  31  32
ENDBRANCH   1  31
TORSDOF 17
ENDMDL
