MODEL 1
REMARK VINA RESULT:      -9.5      0.000      0.000
REMARK SMILES C[C@@H](C(=O)OCCOC(=O)c1ccc(-c2c3nc(c(-c4ccccc4)c4ccc([nH]4)c(-c4ccccc4)c4nc(c(-c5ccccc5)c5ccc2[nH]5)C=C4)C=C3)cc1)c1ccc(=O)n(C(F)F)c1
REMARK SMILES IDX 6 1 5 2 3 3 4 4 2 5 1 6 59 7 60 8 68 9 61 10 64 11 62 12
REMARK SMILES IDX 63 13 65 14 66 15 67 16 7 17 8 18 9 19 10 20 11 21 12 22
REMARK SMILES IDX 58 23 13 24 57 25 14 26 15 27 16 28 51 29 17 30 56 31 50 32
REMARK SMILES IDX 52 33 18 34 55 35 49 36 48 37 19 39 41 40 26 41 40 42 27 43
REMARK SMILES IDX 30 44 39 45 53 46 28 47 29 48 38 50 54 51 31 52 20 53 21 54
REMARK SMILES IDX 25 55 22 56 24 57 23 58 42 59 43 60 47 61 44 62 46 63 45 64
REMARK SMILES IDX 32 65 33 66 37 67 34 68 36 69 35 70
REMARK H PARENT 52 38 30 49
REMARK Flexibility Score: inf
ROOT
ATOM      1  C   UNL A   1      46.293  24.092  25.338  1.00  0.00     0.274 C 
ENDROOT
BRANCH   1   2
ATOM      2  O   UNL A   1      46.118  23.541  24.018  1.00  0.00    -0.462 OA
BRANCH   2   3
ATOM      3  C   UNL A   1      45.261  22.491  23.897  1.00  0.00     0.313 C 
ATOM      4  O   UNL A   1      44.404  22.399  23.024  1.00  0.00    -0.252 OA
BRANCH   3   5
ATOM      5  C   UNL A   1      45.449  21.452  25.012  1.00  0.00     0.127 C 
ATOM      6  C   UNL A   1      46.398  20.309  24.636  1.00  0.00     0.025 C 
BRANCH   5   7
ATOM      7  C   UNL A   1      44.082  20.963  25.481  1.00  0.00    -0.017 A 
ATOM      8  C   UNL A   1      43.813  19.537  25.374  1.00  0.00     0.012 A 
ATOM      9  C   UNL A   1      43.113  21.755  25.974  1.00  0.00     0.099 A 
ATOM     10  C   UNL A   1      42.629  19.026  25.734  1.00  0.00     0.072 A 
ATOM     11  N   UNL A   1      41.889  21.246  26.375  1.00  0.00    -0.258 N 
ATOM     12  C   UNL A   1      41.552  19.909  26.256  1.00  0.00     0.254 A 
ATOM     13  O   UNL A   1      40.475  19.406  26.552  1.00  0.00    -0.269 OA
BRANCH  11  14
ATOM     14  C   UNL A   1      40.873  22.125  26.903  1.00  0.00     0.451 C 
ATOM     15  F   UNL A   1      41.187  22.529  28.153  1.00  0.00    -0.185 F 
ATOM     16  F   UNL A   1      40.719  23.225  26.129  1.00  0.00    -0.185 F 
ENDBRANCH  11  14
ENDBRANCH   5   7
ENDBRANCH   3   5
ENDBRANCH   2   3
ENDBRANCH   1   2
BRANCH   1  17
ATOM     17  C   UNL A   1      45.434  25.342  25.522  1.00  0.00     0.275 C 
BRANCH  17  18
ATOM     18  O   UNL A   1      44.218  25.018  26.220  1.00  0.00    -0.458 OA
BRANCH  18  19
ATOM     19  C   UNL A   1      43.091  25.565  25.723  1.00  0.00     0.338 C 
ATOM     20  O   UNL A   1      42.582  25.382  24.628  1.00  0.00    -0.246 OA
BRANCH  19  21
ATOM     21  C   UNL A   1      42.472  26.423  26.742  1.00  0.00     0.060 A 
ATOM     22  C   UNL A   1      42.745  27.789  26.717  1.00  0.00     0.016 A 
ATOM     23  C   UNL A   1      41.760  25.860  27.803  1.00  0.00     0.016 A 
ATOM     24  C   UNL A   1      42.386  28.583  27.802  1.00  0.00     0.010 A 
ATOM     25  C   UNL A   1      41.331  26.679  28.854  1.00  0.00     0.010 A 
ATOM     26  C   UNL A   1      41.679  28.040  28.887  1.00  0.00    -0.014 A 
BRANCH  26  27
ATOM     27  C   UNL A   1      41.367  28.897  30.063  1.00  0.00     0.031 A 
ATOM     28  C   UNL A   1      40.174  29.818  30.049  1.00  0.00     0.074 A 
ATOM     29  C   UNL A   1      42.106  28.796  31.186  1.00  0.00     0.049 A 
ATOM     30  N   UNL A   1      39.770  30.664  30.966  1.00  0.00    -0.248 NA
ATOM     31  C   UNL A   1      39.327  29.794  28.845  1.00  0.00     0.031 C 
ATOM     32  C   UNL A   1      43.259  27.912  31.368  1.00  0.00     0.029 A 
ATOM     33  N   UNL A   1      41.969  29.417  32.403  1.00  0.00    -0.354 N 
ATOM     34  C   UNL A   1      38.631  31.269  30.450  1.00  0.00     0.074 A 
ATOM     35  C   UNL A   1      38.420  30.717  29.128  1.00  0.00     0.031 C 
ATOM     36  C   UNL A   1      43.677  27.994  32.641  1.00  0.00     0.029 A 
ATOM     37  C   UNL A   1      42.866  28.981  33.345  1.00  0.00     0.049 A 
ATOM     38  H   UNL A   1      41.292  30.109  32.581  1.00  0.00     0.167 HD
ATOM     39  C   UNL A   1      37.823  32.192  31.022  1.00  0.00     0.031 A 
ATOM     40  C   UNL A   1      43.030  29.340  34.631  1.00  0.00     0.031 A 
ATOM     41  C   UNL A   1      38.001  32.735  32.340  1.00  0.00     0.049 A 
ATOM     42  C   UNL A   1      42.166  30.416  35.220  1.00  0.00     0.074 A 
ATOM     43  C   UNL A   1      37.255  33.709  32.983  1.00  0.00     0.029 A 
ATOM     44  N   UNL A   1      38.984  32.331  33.227  1.00  0.00    -0.354 N 
ATOM     45  N   UNL A   1      41.154  31.047  34.680  1.00  0.00    -0.248 NA
ATOM     46  C   UNL A   1      42.492  30.849  36.586  1.00  0.00     0.031 C 
ATOM     47  C   UNL A   1      37.803  33.911  34.255  1.00  0.00     0.029 A 
ATOM     48  C   UNL A   1      38.873  33.046  34.408  1.00  0.00     0.049 A 
ATOM     49  H   UNL A   1      39.660  31.640  33.046  1.00  0.00     0.167 HD
ATOM     50  C   UNL A   1      40.731  31.962  35.632  1.00  0.00     0.074 A 
ATOM     51  C   UNL A   1      41.578  31.787  36.795  1.00  0.00     0.031 C 
ATOM     52  C   UNL A   1      39.737  32.879  35.544  1.00  0.00     0.031 A 
BRANCH  39  53
ATOM     53  C   UNL A   1      36.674  32.695  30.201  1.00  0.00    -0.014 A 
ATOM     54  C   UNL A   1      35.412  32.089  30.280  1.00  0.00     0.009 A 
ATOM     55  C   UNL A   1      36.850  33.804  29.358  1.00  0.00     0.009 A 
ATOM     56  C   UNL A   1      34.350  32.573  29.514  1.00  0.00     0.001 A 
ATOM     57  C   UNL A   1      35.783  34.293  28.604  1.00  0.00     0.001 A 
ATOM     58  C   UNL A   1      34.536  33.674  28.679  1.00  0.00     0.000 A 
ENDBRANCH  39  53
BRANCH  40  59
ATOM     59  C   UNL A   1      44.090  28.697  35.445  1.00  0.00    -0.014 A 
ATOM     60  C   UNL A   1      43.814  27.530  36.172  1.00  0.00     0.009 A 
ATOM     61  C   UNL A   1      45.382  29.242  35.488  1.00  0.00     0.009 A 
ATOM     62  C   UNL A   1      44.815  26.924  36.935  1.00  0.00     0.001 A 
ATOM     63  C   UNL A   1      46.384  28.624  36.237  1.00  0.00     0.001 A 
ATOM     64  C   UNL A   1      46.098  27.468  36.963  1.00  0.00     0.000 A 
ENDBRANCH  40  59
BRANCH  52  65
ATOM     65  C   UNL A   1      39.535  33.775  36.725  1.00  0.00    -0.014 A 
ATOM     66  C   UNL A   1      40.124  35.049  36.758  1.00  0.00     0.009 A 
ATOM     67  C   UNL A   1      38.732  33.362  37.799  1.00  0.00     0.009 A 
ATOM     68  C   UNL A   1      39.928  35.886  37.856  1.00  0.00     0.001 A 
ATOM     69  C   UNL A   1      38.528  34.208  38.890  1.00  0.00     0.001 A 
ATOM     70  C   UNL A   1      39.130  35.466  38.921  1.00  0.00     0.000 A 
ENDBRANCH  52  65
ENDBRANCH  26  27
ENDBRANCH  19  21
ENDBRANCH  18  19
ENDBRANCH  17  18
ENDBRANCH   1  17
TORSDOF 13
ENDMDL
MODEL 2
REMARK VINA RESULT:      -9.4      4.780      7.201
REMARK SMILES C[C@@H](C(=O)OCCOC(=O)c1ccc(-c2c3nc(c(-c4ccccc4)c4ccc([nH]4)c(-c4ccccc4)c4nc(c(-c5ccccc5)c5ccc2[nH]5)C=C4)C=C3)cc1)c1ccc(=O)n(C(F)F)c1
REMARK SMILES IDX 6 1 5 2 3 3 4 4 2 5 1 6 59 7 60 8 68 9 61 10 64 11 62 12
REMARK SMILES IDX 63 13 65 14 66 15 67 16 7 17 8 18 9 19 10 20 11 21 12 22
REMARK SMILES IDX 58 23 13 24 57 25 14 26 15 27 16 28 51 29 17 30 56 31 50 32
REMARK SMILES IDX 52 33 18 34 55 35 49 36 48 37 19 39 41 40 26 41 40 42 27 43
REMARK SMILES IDX 30 44 39 45 53 46 28 47 29 48 38 50 54 51 31 52 20 53 21 54
REMARK SMILES IDX 25 55 22 56 24 57 23 58 42 59 43 60 47 61 44 62 46 63 45 64
REMARK SMILES IDX 32 65 33 66 37 67 34 68 36 69 35 70
REMARK H PARENT 52 38 30 49
REMARK Flexibility Score: inf
ROOT
ATOM      1  C   UNL A   1      38.399  20.368  25.007  1.00  0.00     0.274 C 
ENDROOT
BRANCH   1   2
ATOM      2  O   UNL A   1      38.297  21.582  25.777  1.00  0.00    -0.462 OA
BRANCH   2   3
ATOM      3  C   UNL A   1      37.215  22.371  25.542  1.00  0.00     0.313 C 
ATOM      4  O   UNL A   1      36.836  23.262  26.295  1.00  0.00    -0.252 OA
BRANCH   3   5
ATOM      5  C   UNL A   1      36.481  21.988  24.248  1.00  0.00     0.127 C 
ATOM      6  C   UNL A   1      36.683  22.988  23.106  1.00  0.00     0.025 C 
BRANCH   5   7
ATOM      7  C   UNL A   1      35.011  21.726  24.561  1.00  0.00    -0.017 A 
ATOM      8  C   UNL A   1      34.141  22.886  24.682  1.00  0.00     0.012 A 
ATOM      9  C   UNL A   1      34.471  20.507  24.740  1.00  0.00     0.099 A 
ATOM     10  C   UNL A   1      32.843  22.750  24.985  1.00  0.00     0.072 A 
ATOM     11  N   UNL A   1      33.127  20.341  25.030  1.00  0.00    -0.258 N 
ATOM     12  C   UNL A   1      32.256  21.402  25.206  1.00  0.00     0.254 A 
ATOM     13  O   UNL A   1      31.070  21.322  25.504  1.00  0.00    -0.269 OA
BRANCH  11  14
ATOM     14  C   UNL A   1      32.580  19.018  25.212  1.00  0.00     0.451 C 
ATOM     15  F   UNL A   1      33.039  18.172  24.265  1.00  0.00    -0.185 F 
ATOM     16  F   UNL A   1      32.904  18.511  26.425  1.00  0.00    -0.185 F 
ENDBRANCH  11  14
ENDBRANCH   5   7
ENDBRANCH   3   5
ENDBRANCH   2   3
ENDBRANCH   1   2
BRANCH   1  17
ATOM     17  C   UNL A   1      39.282  19.346  25.721  1.00  0.00     0.275 C 
BRANCH  17  18
ATOM     18  O   UNL A   1      40.625  19.394  25.204  1.00  0.00    -0.458 OA
BRANCH  18  19
ATOM     19  C   UNL A   1      41.606  19.489  26.123  1.00  0.00     0.338 C 
ATOM     20  O   UNL A   1      42.388  18.623  26.485  1.00  0.00    -0.246 OA
BRANCH  19  21
ATOM     21  C   UNL A   1      41.666  20.864  26.635  1.00  0.00     0.060 A 
ATOM     22  C   UNL A   1      41.951  21.895  25.742  1.00  0.00     0.016 A 
ATOM     23  C   UNL A   1      41.599  21.111  28.007  1.00  0.00     0.016 A 
ATOM     24  C   UNL A   1      42.262  23.161  26.229  1.00  0.00     0.010 A 
ATOM     25  C   UNL A   1      41.834  22.406  28.485  1.00  0.00     0.010 A 
ATOM     26  C   UNL A   1      42.213  23.433  27.605  1.00  0.00    -0.014 A 
BRANCH  26  27
ATOM     27  C   UNL A   1      42.615  24.778  28.102  1.00  0.00     0.031 A 
ATOM     28  C   UNL A   1      41.584  25.852  28.334  1.00  0.00     0.074 A 
ATOM     29  C   UNL A   1      43.900  25.019  28.428  1.00  0.00     0.049 A 
ATOM     30  N   UNL A   1      41.754  27.091  28.727  1.00  0.00    -0.248 NA
ATOM     31  C   UNL A   1      40.178  25.493  28.084  1.00  0.00     0.031 C 
ATOM     32  C   UNL A   1      45.002  24.062  28.306  1.00  0.00     0.029 A 
ATOM     33  N   UNL A   1      44.490  26.137  28.965  1.00  0.00    -0.354 N 
ATOM     34  C   UNL A   1      40.485  27.654  28.769  1.00  0.00     0.074 A 
ATOM     35  C   UNL A   1      39.554  26.635  28.335  1.00  0.00     0.031 C 
ATOM     36  C   UNL A   1      46.114  24.607  28.823  1.00  0.00     0.029 A 
ATOM     37  C   UNL A   1      45.821  25.971  29.251  1.00  0.00     0.049 A 
ATOM     38  H   UNL A   1      44.002  26.976  29.130  1.00  0.00     0.167 HD
ATOM     39  C   UNL A   1      40.118  28.903  29.143  1.00  0.00     0.031 A 
ATOM     40  C   UNL A   1      46.715  26.821  29.787  1.00  0.00     0.031 A 
ATOM     41  C   UNL A   1      41.022  29.922  29.598  1.00  0.00     0.049 A 
ATOM     42  C   UNL A   1      46.299  28.222  30.128  1.00  0.00     0.074 A 
ATOM     43  C   UNL A   1      40.742  31.231  29.956  1.00  0.00     0.029 A 
ATOM     44  N   UNL A   1      42.381  29.738  29.783  1.00  0.00    -0.354 N 
ATOM     45  N   UNL A   1      45.110  28.765  30.066  1.00  0.00    -0.248 NA
ATOM     46  C   UNL A   1      47.359  29.132  30.582  1.00  0.00     0.031 C 
ATOM     47  C   UNL A   1      41.940  31.846  30.336  1.00  0.00     0.029 A 
ATOM     48  C   UNL A   1      42.958  30.913  30.236  1.00  0.00     0.049 A 
ATOM     49  H   UNL A   1      42.866  28.898  29.617  1.00  0.00     0.167 HD
ATOM     50  C   UNL A   1      45.279  30.085  30.458  1.00  0.00     0.074 A 
ATOM     51  C   UNL A   1      46.682  30.255  30.782  1.00  0.00     0.031 C 
ATOM     52  C   UNL A   1      44.355  31.073  30.528  1.00  0.00     0.031 A 
BRANCH  39  53
ATOM     53  C   UNL A   1      38.661  29.243  29.049  1.00  0.00    -0.014 A 
ATOM     54  C   UNL A   1      37.815  29.099  30.158  1.00  0.00     0.009 A 
ATOM     55  C   UNL A   1      38.135  29.736  27.845  1.00  0.00     0.009 A 
ATOM     56  C   UNL A   1      36.461  29.427  30.057  1.00  0.00     0.001 A 
ATOM     57  C   UNL A   1      36.784  30.074  27.751  1.00  0.00     0.001 A 
ATOM     58  C   UNL A   1      35.948  29.915  28.855  1.00  0.00     0.000 A 
ENDBRANCH  39  53
BRANCH  40  59
ATOM     59  C   UNL A   1      48.115  26.379  29.999  1.00  0.00    -0.014 A 
ATOM     60  C   UNL A   1      49.071  26.545  28.988  1.00  0.00     0.009 A 
ATOM     61  C   UNL A   1      48.500  25.800  31.218  1.00  0.00     0.009 A 
ATOM     62  C   UNL A   1      50.389  26.131  29.191  1.00  0.00     0.001 A 
ATOM     63  C   UNL A   1      49.822  25.404  31.425  1.00  0.00     0.001 A 
ATOM     64  C   UNL A   1      50.764  25.567  30.410  1.00  0.00     0.000 A 
ENDBRANCH  40  59
BRANCH  52  65
ATOM     65  C   UNL A   1      44.841  32.426  30.944  1.00  0.00    -0.014 A 
ATOM     66  C   UNL A   1      44.884  32.777  32.303  1.00  0.00     0.009 A 
ATOM     67  C   UNL A   1      45.282  33.347  29.983  1.00  0.00     0.009 A 
ATOM     68  C   UNL A   1      45.344  34.036  32.690  1.00  0.00     0.001 A 
ATOM     69  C   UNL A   1      45.754  34.601  30.376  1.00  0.00     0.001 A 
ATOM     70  C   UNL A   1      45.779  34.946  31.727  1.00  0.00     0.000 A 
ENDBRANCH  52  65
ENDBRANCH  26  27
ENDBRANCH  19  21
ENDBRANCH  18  19
ENDBRANCH  17  18
ENDBRANCH   1  17
TORSDOF 13
ENDMDL
MODEL 3
REMARK VINA RESULT:      -9.3      4.899      9.497
REMARK SMILES C[C@@H](C(=O)OCCOC(=O)c1ccc(-c2c3nc(c(-c4ccccc4)c4ccc([nH]4)c(-c4ccccc4)c4nc(c(-c5ccccc5)c5ccc2[nH]5)C=C4)C=C3)cc1)c1ccc(=O)n(C(F)F)c1
REMARK SMILES IDX 6 1 5 2 3 3 4 4 2 5 1 6 59 7 60 8 68 9 61 10 64 11 62 12
REMARK SMILES IDX 63 13 65 14 66 15 67 16 7 17 8 18 9 19 10 20 11 21 12 22
REMARK SMILES IDX 58 23 13 24 57 25 14 26 15 27 16 28 51 29 17 30 56 31 50 32
REMARK SMILES IDX 52 33 18 34 55 35 49 36 48 37 19 39 41 40 26 41 40 42 27 43
REMARK SMILES IDX 30 44 39 45 53 46 28 47 29 48 38 50 54 51 31 52 20 53 21 54
REMARK SMILES IDX 25 55 22 56 24 57 23 58 42 59 43 60 47 61 44 62 46 63 45 64
REMARK SMILES IDX 32 65 33 66 37 67 34 68 36 69 35 70
REMARK H PARENT 52 38 30 49
REMARK Flexibility Score: inf
ROOT
ATOM      1  C   UNL A   1      32.012  30.680  26.907  1.00  0.00     0.274 C 
ENDROOT
BRANCH   1   2
ATOM      2  O   UNL A   1      33.220  30.430  26.161  1.00  0.00    -0.462 OA
BRANCH   2   3
ATOM      3  C   UNL A   1      33.857  29.251  26.397  1.00  0.00     0.313 C 
ATOM      4  O   UNL A   1      34.479  28.998  27.423  1.00  0.00    -0.252 OA
BRANCH   3   5
ATOM      5  C   UNL A   1      33.758  28.285  25.207  1.00  0.00     0.127 C 
ATOM      6  C   UNL A   1      33.274  28.948  23.913  1.00  0.00     0.025 C 
BRANCH   5   7
ATOM      7  C   UNL A   1      32.919  27.076  25.608  1.00  0.00    -0.017 A 
ATOM      8  C   UNL A   1      31.479  27.265  25.693  1.00  0.00     0.012 A 
ATOM      9  C   UNL A   1      33.416  25.859  25.895  1.00  0.00     0.099 A 
ATOM     10  C   UNL A   1      30.669  26.266  26.068  1.00  0.00     0.072 A 
ATOM     11  N   UNL A   1      32.597  24.804  26.261  1.00  0.00    -0.258 N 
ATOM     12  C   UNL A   1      31.227  24.929  26.407  1.00  0.00     0.254 A 
ATOM     13  O   UNL A   1      30.455  24.048  26.768  1.00  0.00    -0.269 OA
BRANCH  11  14
ATOM     14  C   UNL A   1      33.164  23.511  26.558  1.00  0.00     0.451 C 
ATOM     15  F   UNL A   1      33.044  22.677  25.502  1.00  0.00    -0.185 F 
ATOM     16  F   UNL A   1      34.477  23.608  26.873  1.00  0.00    -0.185 F 
ENDBRANCH  11  14
ENDBRANCH   5   7
ENDBRANCH   3   5
ENDBRANCH   2   3
ENDBRANCH   1   2
BRANCH   1  17
ATOM     17  C   UNL A   1      31.753  32.180  27.031  1.00  0.00     0.275 C 
BRANCH  17  18
ATOM     18  O   UNL A   1      32.997  32.905  27.050  1.00  0.00    -0.458 OA
BRANCH  18  19
ATOM     19  C   UNL A   1      33.167  33.754  28.083  1.00  0.00     0.338 C 
ATOM     20  O   UNL A   1      32.403  34.620  28.482  1.00  0.00    -0.246 OA
BRANCH  19  21
ATOM     21  C   UNL A   1      34.441  33.462  28.753  1.00  0.00     0.060 A 
ATOM     22  C   UNL A   1      35.625  33.850  28.129  1.00  0.00     0.016 A 
ATOM     23  C   UNL A   1      34.470  32.674  29.905  1.00  0.00     0.016 A 
ATOM     24  C   UNL A   1      36.842  33.371  28.605  1.00  0.00     0.010 A 
ATOM     25  C   UNL A   1      35.702  32.262  30.425  1.00  0.00     0.010 A 
ATOM     26  C   UNL A   1      36.898  32.568  29.755  1.00  0.00    -0.014 A 
BRANCH  26  27
ATOM     27  C   UNL A   1      38.206  32.015  30.202  1.00  0.00     0.031 A 
ATOM     28  C   UNL A   1      38.718  30.709  29.650  1.00  0.00     0.074 A 
ATOM     29  C   UNL A   1      38.983  32.722  31.046  1.00  0.00     0.049 A 
ATOM     30  N   UNL A   1      39.815  30.057  29.951  1.00  0.00    -0.248 NA
ATOM     31  C   UNL A   1      37.888  30.043  28.634  1.00  0.00     0.031 C 
ATOM     32  C   UNL A   1      38.644  34.024  31.624  1.00  0.00     0.029 A 
ATOM     33  N   UNL A   1      40.239  32.458  31.535  1.00  0.00    -0.354 N 
ATOM     34  C   UNL A   1      39.803  28.911  29.166  1.00  0.00     0.074 A 
ATOM     35  C   UNL A   1      38.579  28.937  28.395  1.00  0.00     0.031 C 
ATOM     36  C   UNL A   1      39.694  34.477  32.327  1.00  0.00     0.029 A 
ATOM     37  C   UNL A   1      40.752  33.472  32.304  1.00  0.00     0.049 A 
ATOM     38  H   UNL A   1      40.724  31.622  31.350  1.00  0.00     0.167 HD
ATOM     39  C   UNL A   1      40.728  27.926  29.082  1.00  0.00     0.031 A 
ATOM     40  C   UNL A   1      41.936  33.582  32.933  1.00  0.00     0.031 A 
ATOM     41  C   UNL A   1      41.960  27.892  29.821  1.00  0.00     0.049 A 
ATOM     42  C   UNL A   1      42.915  32.447  32.881  1.00  0.00     0.074 A 
ATOM     43  C   UNL A   1      42.936  26.909  29.830  1.00  0.00     0.029 A 
ATOM     44  N   UNL A   1      42.396  28.899  30.664  1.00  0.00    -0.354 N 
ATOM     45  N   UNL A   1      42.840  31.325  32.209  1.00  0.00    -0.248 NA
ATOM     46  C   UNL A   1      44.127  32.582  33.701  1.00  0.00     0.031 C 
ATOM     47  C   UNL A   1      43.956  27.314  30.700  1.00  0.00     0.029 A 
ATOM     48  C   UNL A   1      43.622  28.557  31.211  1.00  0.00     0.049 A 
ATOM     49  H   UNL A   1      41.909  29.734  30.847  1.00  0.00     0.167 HD
ATOM     50  C   UNL A   1      43.985  30.614  32.537  1.00  0.00     0.074 A 
ATOM     51  C   UNL A   1      44.753  31.441  33.446  1.00  0.00     0.031 C 
ATOM     52  C   UNL A   1      44.359  29.377  32.131  1.00  0.00     0.031 A 
BRANCH  39  53
ATOM     53  C   UNL A   1      40.423  26.780  28.165  1.00  0.00    -0.014 A 
ATOM     54  C   UNL A   1      40.936  26.747  26.859  1.00  0.00     0.009 A 
ATOM     55  C   UNL A   1      39.636  25.711  28.620  1.00  0.00     0.009 A 
ATOM     56  C   UNL A   1      40.648  25.670  26.019  1.00  0.00     0.001 A 
ATOM     57  C   UNL A   1      39.362  24.630  27.781  1.00  0.00     0.001 A 
ATOM     58  C   UNL A   1      39.864  24.613  26.481  1.00  0.00     0.000 A 
ENDBRANCH  39  53
BRANCH  40  59
ATOM     59  C   UNL A   1      42.248  34.809  33.705  1.00  0.00    -0.014 A 
ATOM     60  C   UNL A   1      41.913  34.894  35.064  1.00  0.00     0.009 A 
ATOM     61  C   UNL A   1      42.889  35.894  33.088  1.00  0.00     0.009 A 
ATOM     62  C   UNL A   1      42.210  36.049  35.790  1.00  0.00     0.001 A 
ATOM     63  C   UNL A   1      43.201  37.039  33.821  1.00  0.00     0.001 A 
ATOM     64  C   UNL A   1      42.858  37.117  35.170  1.00  0.00     0.000 A 
ENDBRANCH  40  59
BRANCH  52  65
ATOM     65  C   UNL A   1      45.639  28.838  32.690  1.00  0.00    -0.014 A 
ATOM     66  C   UNL A   1      45.632  28.076  33.869  1.00  0.00     0.009 A 
ATOM     67  C   UNL A   1      46.853  29.067  32.028  1.00  0.00     0.009 A 
ATOM     68  C   UNL A   1      46.825  27.569  34.385  1.00  0.00     0.001 A 
ATOM     69  C   UNL A   1      48.042  28.546  32.540  1.00  0.00     0.001 A 
ATOM     70  C   UNL A   1      48.029  27.803  33.720  1.00  0.00     0.000 A 
ENDBRANCH  52  65
ENDBRANCH  26  27
ENDBRANCH  19  21
ENDBRANCH  18  19
ENDBRANCH  17  18
ENDBRANCH   1  17
TORSDOF 13
ENDMDL
