MODEL 1
REMARK VINA RESULT:      -9.8      0.000      0.000
REMARK SMILES CCc1ccc(Nc2nc(OCC(=O)OCCOC(=O)c3ccc(-c4c5nc(c(-c6ccccc6)c6ccc([nH]6)c(-c6ccccc6)c6nc(c(-c7ccccc7)c7ccc4[nH]7)C=C6)C=C5)cc3)cc(-c3cccnc3)n2)cc1
REMARK SMILES IDX 15 1 13 2 14 3 12 4 11 5 10 6 8 7 9 8 77 9 70 10 69 11 7 12
REMARK SMILES IDX 6 14 3 15 4 16 79 17 5 18 78 19 2 20 1 21 71 22 72 23 76 24
REMARK SMILES IDX 73 25 75 26 74 27 16 28 17 29 18 30 19 31 20 32 21 33 22 34
REMARK SMILES IDX 68 35 23 36 67 37 24 38 25 39 26 40 61 41 27 42 66 43 60 44
REMARK SMILES IDX 62 45 28 46 65 47 59 48 58 49 29 51 51 52 36 53 50 54 37 55
REMARK SMILES IDX 40 56 49 57 63 58 38 59 39 60 48 62 64 63 41 64 30 65 31 66
REMARK SMILES IDX 35 67 32 68 34 69 33 70 52 71 53 72 57 73 54 74 56 75 55 76
REMARK SMILES IDX 42 77 43 78 47 79 44 80 46 81 45 82
REMARK H PARENT 7 13 62 50 40 61
REMARK Flexibility Score: inf
ROOT
ATOM      1  O   UNL A   1      33.163  36.108  32.084  1.00  0.00    -0.460 OA
ENDROOT
BRANCH   1   2
ATOM      2  C   UNL A   1      34.060  36.325  33.081  1.00  0.00     0.344 C 
ATOM      3  O   UNL A   1      33.953  37.198  33.938  1.00  0.00    -0.248 OA
BRANCH   2   4
ATOM      4  C   UNL A   1      35.237  35.350  33.076  1.00  0.00     0.353 C 
BRANCH   4   5
ATOM      5  O   UNL A   1      35.052  34.062  33.619  1.00  0.00    -0.466 OA
BRANCH   5   6
ATOM      6  C   UNL A   1      36.129  33.330  34.017  1.00  0.00     0.219 A 
ATOM      7  C   UNL A   1      38.114  33.508  35.137  1.00  0.00     0.231 A 
ATOM      8  N   UNL A   1      36.932  34.041  34.823  1.00  0.00    -0.177 NA
ATOM      9  N   UNL A   1      38.488  32.271  34.795  1.00  0.00    -0.212 NA
ATOM     10  C   UNL A   1      37.668  31.566  34.009  1.00  0.00     0.081 A 
ATOM     11  C   UNL A   1      36.449  32.063  33.589  1.00  0.00     0.097 A 
BRANCH   7  12
ATOM     12  N   UNL A   1      39.061  34.363  35.694  1.00  0.00    -0.324 N 
ATOM     13  H   UNL A   1      39.777  34.691  35.104  1.00  0.00     0.170 HD
BRANCH  12  14
ATOM     14  C   UNL A   1      39.076  34.796  37.033  1.00  0.00     0.041 A 
ATOM     15  C   UNL A   1      39.194  35.672  39.723  1.00  0.00    -0.048 A 
ATOM     16  C   UNL A   1      38.676  34.415  39.409  1.00  0.00     0.006 A 
ATOM     17  C   UNL A   1      39.643  36.492  38.678  1.00  0.00     0.006 A 
ATOM     18  C   UNL A   1      38.610  33.991  38.083  1.00  0.00     0.026 A 
ATOM     19  C   UNL A   1      39.578  36.060  37.347  1.00  0.00     0.026 A 
BRANCH  15  20
ATOM     20  C   UNL A   1      39.311  36.083  41.168  1.00  0.00     0.032 C 
ATOM     21  C   UNL A   1      40.687  35.844  41.767  1.00  0.00     0.009 C 
ENDBRANCH  15  20
ENDBRANCH  12  14
ENDBRANCH   7  12
BRANCH  10  22
ATOM     22  C   UNL A   1      38.248  30.318  33.522  1.00  0.00     0.019 A 
ATOM     23  C   UNL A   1      37.477  29.385  32.819  1.00  0.00     0.013 A 
ATOM     24  C   UNL A   1      39.600  30.028  33.644  1.00  0.00     0.121 A 
ATOM     25  C   UNL A   1      38.042  28.201  32.351  1.00  0.00     0.021 A 
ATOM     26  N   UNL A   1      40.185  28.882  33.207  1.00  0.00    -0.264 NA
ATOM     27  C   UNL A   1      39.389  27.993  32.575  1.00  0.00     0.111 A 
ENDBRANCH  10  22
ENDBRANCH   5   6
ENDBRANCH   4   5
ENDBRANCH   2   4
ENDBRANCH   1   2
BRANCH   1  28
ATOM     28  C   UNL A   1      33.272  36.996  30.951  1.00  0.00     0.274 C 
BRANCH  28  29
ATOM     29  C   UNL A   1      32.954  36.305  29.625  1.00  0.00     0.275 C 
BRANCH  29  30
ATOM     30  O   UNL A   1      32.744  34.891  29.803  1.00  0.00    -0.458 OA
BRANCH  30  31
ATOM     31  C   UNL A   1      33.177  34.150  28.764  1.00  0.00     0.338 C 
ATOM     32  O   UNL A   1      32.631  34.052  27.671  1.00  0.00    -0.246 OA
BRANCH  31  33
ATOM     33  C   UNL A   1      34.445  33.462  29.040  1.00  0.00     0.060 A 
ATOM     34  C   UNL A   1      34.578  32.647  30.167  1.00  0.00     0.016 A 
ATOM     35  C   UNL A   1      35.565  33.801  28.279  1.00  0.00     0.016 A 
ATOM     36  C   UNL A   1      35.845  32.210  30.560  1.00  0.00     0.010 A 
ATOM     37  C   UNL A   1      36.823  33.316  28.641  1.00  0.00     0.010 A 
ATOM     38  C   UNL A   1      36.976  32.530  29.793  1.00  0.00    -0.014 A 
BRANCH  38  39
ATOM     39  C   UNL A   1      38.306  31.966  30.132  1.00  0.00     0.031 A 
ATOM     40  C   UNL A   1      39.325  32.751  30.907  1.00  0.00     0.074 A 
ATOM     41  C   UNL A   1      38.616  30.741  29.672  1.00  0.00     0.049 A 
ATOM     42  N   UNL A   1      40.577  32.465  31.161  1.00  0.00    -0.248 NA
ATOM     43  C   UNL A   1      38.877  34.029  31.468  1.00  0.00     0.031 C 
ATOM     44  C   UNL A   1      37.717  29.874  28.908  1.00  0.00     0.029 A 
ATOM     45  N   UNL A   1      39.782  30.026  29.761  1.00  0.00    -0.354 N 
ATOM     46  C   UNL A   1      41.072  33.543  31.886  1.00  0.00     0.074 A 
ATOM     47  C   UNL A   1      39.987  34.488  32.031  1.00  0.00     0.031 C 
ATOM     48  C   UNL A   1      38.370  28.749  28.583  1.00  0.00     0.029 A 
ATOM     49  C   UNL A   1      39.741  28.840  29.074  1.00  0.00     0.049 A 
ATOM     50  H   UNL A   1      40.569  30.334  30.265  1.00  0.00     0.167 HD
ATOM     51  C   UNL A   1      42.320  33.726  32.381  1.00  0.00     0.031 A 
ATOM     52  C   UNL A   1      40.709  27.942  28.827  1.00  0.00     0.031 A 
ATOM     53  C   UNL A   1      43.395  32.779  32.246  1.00  0.00     0.049 A 
ATOM     54  C   UNL A   1      42.087  28.175  29.361  1.00  0.00     0.074 A 
ATOM     55  C   UNL A   1      44.682  32.855  32.752  1.00  0.00     0.029 A 
ATOM     56  N   UNL A   1      43.308  31.584  31.551  1.00  0.00    -0.354 N 
ATOM     57  N   UNL A   1      42.538  29.189  30.058  1.00  0.00    -0.248 NA
ATOM     58  C   UNL A   1      43.089  27.141  29.075  1.00  0.00     0.031 C 
ATOM     59  C   UNL A   1      45.384  31.717  32.336  1.00  0.00     0.029 A 
ATOM     60  C   UNL A   1      44.523  30.922  31.598  1.00  0.00     0.049 A 
ATOM     61  H   UNL A   1      42.502  31.255  31.092  1.00  0.00     0.167 HD
ATOM     62  C   UNL A   1      43.875  28.912  30.301  1.00  0.00     0.074 A 
ATOM     63  C   UNL A   1      44.158  27.630  29.689  1.00  0.00     0.031 C 
ATOM     64  C   UNL A   1      44.787  29.654  30.974  1.00  0.00     0.031 A 
BRANCH  51  65
ATOM     65  C   UNL A   1      42.611  35.009  33.105  1.00  0.00    -0.014 A 
ATOM     66  C   UNL A   1      43.215  36.091  32.448  1.00  0.00     0.009 A 
ATOM     67  C   UNL A   1      42.192  35.167  34.436  1.00  0.00     0.009 A 
ATOM     68  C   UNL A   1      43.403  37.305  33.115  1.00  0.00     0.001 A 
ATOM     69  C   UNL A   1      42.369  36.386  35.095  1.00  0.00     0.001 A 
ATOM     70  C   UNL A   1      42.975  37.452  34.434  1.00  0.00     0.000 A 
ENDBRANCH  51  65
BRANCH  52  71
ATOM     71  C   UNL A   1      40.397  26.759  27.992  1.00  0.00    -0.014 A 
ATOM     72  C   UNL A   1      40.845  26.683  26.667  1.00  0.00     0.009 A 
ATOM     73  C   UNL A   1      39.697  25.674  28.544  1.00  0.00     0.009 A 
ATOM     74  C   UNL A   1      40.589  25.542  25.905  1.00  0.00     0.001 A 
ATOM     75  C   UNL A   1      39.461  24.528  27.786  1.00  0.00     0.001 A 
ATOM     76  C   UNL A   1      39.903  24.465  26.466  1.00  0.00     0.000 A 
ENDBRANCH  52  71
BRANCH  64  77
ATOM     77  C   UNL A   1      46.166  29.083  31.090  1.00  0.00    -0.014 A 
ATOM     78  C   UNL A   1      46.530  28.305  32.198  1.00  0.00     0.009 A 
ATOM     79  C   UNL A   1      47.105  29.316  30.074  1.00  0.00     0.009 A 
ATOM     80  C   UNL A   1      47.825  27.792  32.300  1.00  0.00     0.001 A 
ATOM     81  C   UNL A   1      48.393  28.790  30.173  1.00  0.00     0.001 A 
ATOM     82  C   UNL A   1      48.754  28.035  31.288  1.00  0.00     0.000 A 
ENDBRANCH  64  77
ENDBRANCH  38  39
ENDBRANCH  31  33
ENDBRANCH  30  31
ENDBRANCH  29  30
ENDBRANCH  28  29
ENDBRANCH   1  28
TORSDOF 17
ENDMDL
MODEL 2
REMARK VINA RESULT:      -9.6      1.292      5.955
REMARK SMILES CCc1ccc(Nc2nc(OCC(=O)OCCOC(=O)c3ccc(-c4c5nc(c(-c6ccccc6)c6ccc([nH]6)c(-c6ccccc6)c6nc(c(-c7ccccc7)c7ccc4[nH]7)C=C6)C=C5)cc3)cc(-c3cccnc3)n2)cc1
REMARK SMILES IDX 15 1 13 2 14 3 12 4 11 5 10 6 8 7 9 8 77 9 70 10 69 11 7 12
REMARK SMILES IDX 6 14 3 15 4 16 79 17 5 18 78 19 2 20 1 21 71 22 72 23 76 24
REMARK SMILES IDX 73 25 75 26 74 27 16 28 17 29 18 30 19 31 20 32 21 33 22 34
REMARK SMILES IDX 68 35 23 36 67 37 24 38 25 39 26 40 61 41 27 42 66 43 60 44
REMARK SMILES IDX 62 45 28 46 65 47 59 48 58 49 29 51 51 52 36 53 50 54 37 55
REMARK SMILES IDX 40 56 49 57 63 58 38 59 39 60 48 62 64 63 41 64 30 65 31 66
REMARK SMILES IDX 35 67 32 68 34 69 33 70 52 71 53 72 57 73 54 74 56 75 55 76
REMARK SMILES IDX 42 77 43 78 47 79 44 80 46 81 45 82
REMARK H PARENT 7 13 62 50 40 61
REMARK Flexibility Score: inf
ROOT
ATOM      1  O   UNL A   1      33.085  35.805  32.197  1.00  0.00    -0.460 OA
ENDROOT
BRANCH   1   2
ATOM      2  C   UNL A   1      33.823  36.376  33.186  1.00  0.00     0.344 C 
ATOM      3  O   UNL A   1      33.732  37.550  33.532  1.00  0.00    -0.248 OA
BRANCH   2   4
ATOM      4  C   UNL A   1      34.783  35.410  33.877  1.00  0.00     0.353 C 
BRANCH   4   5
ATOM      5  O   UNL A   1      35.066  34.175  33.257  1.00  0.00    -0.466 OA
BRANCH   5   6
ATOM      6  C   UNL A   1      35.885  33.277  33.870  1.00  0.00     0.219 A 
ATOM      7  C   UNL A   1      37.237  33.025  35.696  1.00  0.00     0.231 A 
ATOM      8  N   UNL A   1      36.286  33.721  35.070  1.00  0.00    -0.177 NA
ATOM      9  N   UNL A   1      37.719  31.859  35.255  1.00  0.00    -0.212 NA
ATOM     10  C   UNL A   1      37.294  31.418  34.066  1.00  0.00     0.081 A 
ATOM     11  C   UNL A   1      36.355  32.106  33.323  1.00  0.00     0.097 A 
BRANCH   7  12
ATOM     12  N   UNL A   1      37.870  33.648  36.768  1.00  0.00    -0.324 N 
ATOM     13  H   UNL A   1      38.387  34.463  36.575  1.00  0.00     0.170 HD
BRANCH  12  14
ATOM     14  C   UNL A   1      37.831  33.208  38.104  1.00  0.00     0.041 A 
ATOM     15  C   UNL A   1      37.814  32.265  40.773  1.00  0.00    -0.048 A 
ATOM     16  C   UNL A   1      36.687  32.121  39.964  1.00  0.00     0.006 A 
ATOM     17  C   UNL A   1      38.947  32.896  40.239  1.00  0.00     0.006 A 
ATOM     18  C   UNL A   1      36.695  32.594  38.653  1.00  0.00     0.026 A 
ATOM     19  C   UNL A   1      38.951  33.367  38.920  1.00  0.00     0.026 A 
BRANCH  15  20
ATOM     20  C   UNL A   1      37.802  31.691  42.166  1.00  0.00     0.032 C 
ATOM     21  C   UNL A   1      37.179  32.609  43.206  1.00  0.00     0.009 C 
ENDBRANCH  15  20
ENDBRANCH  12  14
ENDBRANCH   7  12
BRANCH  10  22
ATOM     22  C   UNL A   1      38.025  30.253  33.575  1.00  0.00     0.019 A 
ATOM     23  C   UNL A   1      37.422  29.326  32.718  1.00  0.00     0.013 A 
ATOM     24  C   UNL A   1      39.370  30.047  33.852  1.00  0.00     0.121 A 
ATOM     25  C   UNL A   1      38.129  28.223  32.248  1.00  0.00     0.021 A 
ATOM     26  N   UNL A   1      40.091  28.980  33.418  1.00  0.00    -0.264 NA
ATOM     27  C   UNL A   1      39.451  28.090  32.630  1.00  0.00     0.111 A 
ENDBRANCH  10  22
ENDBRANCH   5   6
ENDBRANCH   4   5
ENDBRANCH   2   4
ENDBRANCH   1   2
BRANCH   1  28
ATOM     28  C   UNL A   1      33.212  36.421  30.897  1.00  0.00     0.274 C 
BRANCH  28  29
ATOM     29  C   UNL A   1      33.675  35.439  29.821  1.00  0.00     0.275 C 
BRANCH  29  30
ATOM     30  O   UNL A   1      32.563  34.906  29.076  1.00  0.00    -0.458 OA
BRANCH  30  31
ATOM     31  C   UNL A   1      32.912  33.927  28.220  1.00  0.00     0.338 C 
ATOM     32  O   UNL A   1      32.269  33.561  27.242  1.00  0.00    -0.246 OA
BRANCH  31  33
ATOM     33  C   UNL A   1      34.213  33.324  28.537  1.00  0.00     0.060 A 
ATOM     34  C   UNL A   1      34.326  32.377  29.558  1.00  0.00     0.016 A 
ATOM     35  C   UNL A   1      35.358  33.864  27.947  1.00  0.00     0.016 A 
ATOM     36  C   UNL A   1      35.589  32.007  30.024  1.00  0.00     0.010 A 
ATOM     37  C   UNL A   1      36.621  33.449  28.375  1.00  0.00     0.010 A 
ATOM     38  C   UNL A   1      36.748  32.529  29.426  1.00  0.00    -0.014 A 
BRANCH  38  39
ATOM     39  C   UNL A   1      38.092  32.046  29.828  1.00  0.00     0.031 A 
ATOM     40  C   UNL A   1      38.636  30.732  29.347  1.00  0.00     0.074 A 
ATOM     41  C   UNL A   1      38.803  32.787  30.696  1.00  0.00     0.049 A 
ATOM     42  N   UNL A   1      39.722  30.099  29.714  1.00  0.00    -0.248 NA
ATOM     43  C   UNL A   1      37.856  30.036  28.321  1.00  0.00     0.031 C 
ATOM     44  C   UNL A   1      38.388  34.082  31.239  1.00  0.00     0.029 A 
ATOM     45  N   UNL A   1      40.013  32.542  31.291  1.00  0.00    -0.354 N 
ATOM     46  C   UNL A   1      39.737  28.917  28.982  1.00  0.00     0.074 A 
ATOM     47  C   UNL A   1      38.553  28.920  28.152  1.00  0.00     0.031 C 
ATOM     48  C   UNL A   1      39.321  34.511  32.101  1.00  0.00     0.029 A 
ATOM     49  C   UNL A   1      40.369  33.502  32.204  1.00  0.00     0.049 A 
ATOM     50  H   UNL A   1      40.568  31.756  31.085  1.00  0.00     0.167 HD
ATOM     51  C   UNL A   1      40.653  27.920  29.006  1.00  0.00     0.031 A 
ATOM     52  C   UNL A   1      41.402  33.548  33.061  1.00  0.00     0.031 A 
ATOM     53  C   UNL A   1      41.838  27.923  29.824  1.00  0.00     0.049 A 
ATOM     54  C   UNL A   1      42.390  32.424  33.091  1.00  0.00     0.074 A 
ATOM     55  C   UNL A   1      42.849  26.980  29.884  1.00  0.00     0.029 A 
ATOM     56  N   UNL A   1      42.166  28.921  30.728  1.00  0.00    -0.354 N 
ATOM     57  N   UNL A   1      42.400  31.321  32.384  1.00  0.00    -0.248 NA
ATOM     58  C   UNL A   1      43.506  32.552  34.035  1.00  0.00     0.031 C 
ATOM     59  C   UNL A   1      43.776  27.393  30.849  1.00  0.00     0.029 A 
ATOM     60  C   UNL A   1      43.355  28.607  31.364  1.00  0.00     0.049 A 
ATOM     61  H   UNL A   1      41.633  29.732  30.892  1.00  0.00     0.167 HD
ATOM     62  C   UNL A   1      43.529  30.626  32.792  1.00  0.00     0.074 A 
ATOM     63  C   UNL A   1      44.184  31.437  33.798  1.00  0.00     0.031 C 
ATOM     64  C   UNL A   1      43.983  29.422  32.368  1.00  0.00     0.031 A 
BRANCH  51  65
ATOM     65  C   UNL A   1      40.414  26.719  28.136  1.00  0.00    -0.014 A 
ATOM     66  C   UNL A   1      39.578  25.675  28.556  1.00  0.00     0.009 A 
ATOM     67  C   UNL A   1      40.961  26.678  26.843  1.00  0.00     0.009 A 
ATOM     68  C   UNL A   1      39.302  24.606  27.699  1.00  0.00     0.001 A 
ATOM     69  C   UNL A   1      40.672  25.615  25.985  1.00  0.00     0.001 A 
ATOM     70  C   UNL A   1      39.844  24.580  26.415  1.00  0.00     0.000 A 
ENDBRANCH  51  65
BRANCH  52  71
ATOM     71  C   UNL A   1      41.513  34.695  33.993  1.00  0.00    -0.014 A 
ATOM     72  C   UNL A   1      42.330  35.789  33.683  1.00  0.00     0.009 A 
ATOM     73  C   UNL A   1      40.749  34.719  35.171  1.00  0.00     0.009 A 
ATOM     74  C   UNL A   1      42.389  36.886  34.543  1.00  0.00     0.001 A 
ATOM     75  C   UNL A   1      40.794  35.826  36.018  1.00  0.00     0.001 A 
ATOM     76  C   UNL A   1      41.617  36.906  35.705  1.00  0.00     0.000 A 
ENDBRANCH  52  71
BRANCH  64  77
ATOM     77  C   UNL A   1      45.254  28.927  32.986  1.00  0.00    -0.014 A 
ATOM     78  C   UNL A   1      46.498  29.251  32.428  1.00  0.00     0.009 A 
ATOM     79  C   UNL A   1      45.205  28.139  34.146  1.00  0.00     0.009 A 
ATOM     80  C   UNL A   1      47.674  28.769  33.005  1.00  0.00     0.001 A 
ATOM     81  C   UNL A   1      46.382  27.671  34.728  1.00  0.00     0.001 A 
ATOM     82  C   UNL A   1      47.614  27.980  34.155  1.00  0.00     0.000 A 
ENDBRANCH  64  77
ENDBRANCH  38  39
ENDBRANCH  31  33
ENDBRANCH  30  31
ENDBRANCH  29  30
ENDBRANCH  28  29
ENDBRANCH   1  28
TORSDOF 17
ENDMDL
MODEL 3
REMARK VINA RESULT:      -9.4      5.372     10.412
REMARK SMILES CCc1ccc(Nc2nc(OCC(=O)OCCOC(=O)c3ccc(-c4c5nc(c(-c6ccccc6)c6ccc([nH]6)c(-c6ccccc6)c6nc(c(-c7ccccc7)c7ccc4[nH]7)C=C6)C=C5)cc3)cc(-c3cccnc3)n2)cc1
REMARK SMILES IDX 15 1 13 2 14 3 12 4 11 5 10 6 8 7 9 8 77 9 70 10 69 11 7 12
REMARK SMILES IDX 6 14 3 15 4 16 79 17 5 18 78 19 2 20 1 21 71 22 72 23 76 24
REMARK SMILES IDX 73 25 75 26 74 27 16 28 17 29 18 30 19 31 20 32 21 33 22 34
REMARK SMILES IDX 68 35 23 36 67 37 24 38 25 39 26 40 61 41 27 42 66 43 60 44
REMARK SMILES IDX 62 45 28 46 65 47 59 48 58 49 29 51 51 52 36 53 50 54 37 55
REMARK SMILES IDX 40 56 49 57 63 58 38 59 39 60 48 62 64 63 41 64 30 65 31 66
REMARK SMILES IDX 35 67 32 68 34 69 33 70 52 71 53 72 57 73 54 74 56 75 55 76
REMARK SMILES IDX 42 77 43 78 47 79 44 80 46 81 45 82
REMARK H PARENT 7 13 62 50 40 61
REMARK Flexibility Score: inf
ROOT
ATOM      1  O   UNL A   1      31.460  27.349  27.272  1.00  0.00    -0.460 OA
ENDROOT
BRANCH   1   2
ATOM      2  C   UNL A   1      31.094  26.437  26.333  1.00  0.00     0.344 C 
ATOM      3  O   UNL A   1      30.142  25.669  26.442  1.00  0.00    -0.248 OA
BRANCH   2   4
ATOM      4  C   UNL A   1      31.963  26.459  25.077  1.00  0.00     0.353 C 
BRANCH   4   5
ATOM      5  O   UNL A   1      31.738  25.489  24.080  1.00  0.00    -0.466 OA
BRANCH   5   6
ATOM      6  C   UNL A   1      32.631  24.477  23.899  1.00  0.00     0.219 A 
ATOM      7  C   UNL A   1      32.768  22.291  23.243  1.00  0.00     0.231 A 
ATOM      8  N   UNL A   1      32.055  23.418  23.312  1.00  0.00    -0.177 NA
ATOM      9  N   UNL A   1      34.049  22.196  23.615  1.00  0.00    -0.212 NA
ATOM     10  C   UNL A   1      34.615  23.268  24.180  1.00  0.00     0.081 A 
ATOM     11  C   UNL A   1      33.932  24.457  24.343  1.00  0.00     0.097 A 
BRANCH   7  12
ATOM     12  N   UNL A   1      32.073  21.126  22.934  1.00  0.00    -0.324 N 
ATOM     13  H   UNL A   1      31.315  21.204  22.312  1.00  0.00     0.170 HD
BRANCH  12  14
ATOM     14  C   UNL A   1      32.368  19.845  23.438  1.00  0.00     0.041 A 
ATOM     15  C   UNL A   1      33.037  17.300  24.482  1.00  0.00    -0.048 A 
ATOM     16  C   UNL A   1      32.874  17.482  23.108  1.00  0.00     0.006 A 
ATOM     17  C   UNL A   1      32.851  18.401  25.330  1.00  0.00     0.006 A 
ATOM     18  C   UNL A   1      32.536  18.734  22.598  1.00  0.00     0.026 A 
ATOM     19  C   UNL A   1      32.515  19.658  24.813  1.00  0.00     0.026 A 
BRANCH  15  20
ATOM     20  C   UNL A   1      33.462  15.952  25.004  1.00  0.00     0.032 C 
ATOM     21  C   UNL A   1      34.955  15.837  25.270  1.00  0.00     0.009 C 
ENDBRANCH  15  20
ENDBRANCH  12  14
ENDBRANCH   7  12
BRANCH  10  22
ATOM     22  C   UNL A   1      35.939  23.007  24.738  1.00  0.00     0.019 A 
ATOM     23  C   UNL A   1      36.571  23.938  25.571  1.00  0.00     0.013 A 
ATOM     24  C   UNL A   1      36.600  21.801  24.555  1.00  0.00     0.121 A 
ATOM     25  C   UNL A   1      37.830  23.677  26.106  1.00  0.00     0.021 A 
ATOM     26  N   UNL A   1      37.832  21.513  25.053  1.00  0.00    -0.264 NA
ATOM     27  C   UNL A   1      38.419  22.462  25.814  1.00  0.00     0.111 A 
ENDBRANCH  10  22
ENDBRANCH   5   6
ENDBRANCH   4   5
ENDBRANCH   2   4
ENDBRANCH   1   2
BRANCH   1  28
ATOM     28  C   UNL A   1      32.109  28.534  26.762  1.00  0.00     0.274 C 
BRANCH  28  29
ATOM     29  C   UNL A   1      33.522  28.719  27.317  1.00  0.00     0.275 C 
BRANCH  29  30
ATOM     30  O   UNL A   1      34.067  30.003  26.958  1.00  0.00    -0.458 OA
BRANCH  30  31
ATOM     31  C   UNL A   1      34.701  30.618  27.974  1.00  0.00     0.338 C 
ATOM     32  O   UNL A   1      34.271  31.564  28.625  1.00  0.00    -0.246 OA
BRANCH  31  33
ATOM     33  C   UNL A   1      36.003  30.014  28.289  1.00  0.00     0.060 A 
ATOM     34  C   UNL A   1      36.285  29.574  29.584  1.00  0.00     0.016 A 
ATOM     35  C   UNL A   1      37.016  30.079  27.329  1.00  0.00     0.016 A 
ATOM     36  C   UNL A   1      37.597  29.245  29.934  1.00  0.00     0.010 A 
ATOM     37  C   UNL A   1      38.315  29.695  27.666  1.00  0.00     0.010 A 
ATOM     38  C   UNL A   1      38.620  29.290  28.974  1.00  0.00    -0.014 A 
BRANCH  38  39
ATOM     39  C   UNL A   1      39.989  28.822  29.303  1.00  0.00     0.031 A 
ATOM     40  C   UNL A   1      41.003  29.726  29.942  1.00  0.00     0.074 A 
ATOM     41  C   UNL A   1      40.335  27.569  28.956  1.00  0.00     0.049 A 
ATOM     42  N   UNL A   1      42.277  29.521  30.162  1.00  0.00    -0.248 NA
ATOM     43  C   UNL A   1      40.521  31.035  30.390  1.00  0.00     0.031 C 
ATOM     44  C   UNL A   1      39.446  26.589  28.330  1.00  0.00     0.029 A 
ATOM     45  N   UNL A   1      41.537  26.918  29.060  1.00  0.00    -0.354 N 
ATOM     46  C   UNL A   1      42.752  30.690  30.748  1.00  0.00     0.074 A 
ATOM     47  C   UNL A   1      41.632  31.598  30.849  1.00  0.00     0.031 C 
ATOM     48  C   UNL A   1      40.137  25.466  28.090  1.00  0.00     0.029 A 
ATOM     49  C   UNL A   1      41.522  25.666  28.501  1.00  0.00     0.049 A 
ATOM     50  H   UNL A   1      42.330  27.310  29.491  1.00  0.00     0.167 HD
ATOM     51  C   UNL A   1      44.011  30.977  31.159  1.00  0.00     0.031 A 
ATOM     52  C   UNL A   1      42.519  24.789  28.301  1.00  0.00     0.031 A 
ATOM     53  C   UNL A   1      45.123  30.068  31.069  1.00  0.00     0.049 A 
ATOM     54  C   UNL A   1      43.908  25.135  28.739  1.00  0.00     0.074 A 
ATOM     55  C   UNL A   1      46.426  30.251  31.501  1.00  0.00     0.029 A 
ATOM     56  N   UNL A   1      45.061  28.804  30.505  1.00  0.00    -0.354 N 
ATOM     57  N   UNL A   1      44.340  26.235  29.306  1.00  0.00    -0.248 NA
ATOM     58  C   UNL A   1      44.944  24.120  28.511  1.00  0.00     0.031 C 
ATOM     59  C   UNL A   1      47.161  29.106  31.169  1.00  0.00     0.029 A 
ATOM     60  C   UNL A   1      46.307  28.202  30.560  1.00  0.00     0.049 A 
ATOM     61  H   UNL A   1      44.252  28.395  30.123  1.00  0.00     0.167 HD
ATOM     62  C   UNL A   1      45.699  26.042  29.510  1.00  0.00     0.074 A 
ATOM     63  C   UNL A   1      46.015  24.716  29.019  1.00  0.00     0.031 C 
ATOM     64  C   UNL A   1      46.603  26.889  30.057  1.00  0.00     0.031 A 
BRANCH  51  65
ATOM     65  C   UNL A   1      44.272  32.340  31.732  1.00  0.00    -0.014 A 
ATOM     66  C   UNL A   1      44.513  33.442  30.899  1.00  0.00     0.009 A 
ATOM     67  C   UNL A   1      44.186  32.539  33.119  1.00  0.00     0.009 A 
ATOM     68  C   UNL A   1      44.673  34.718  31.447  1.00  0.00     0.001 A 
ATOM     69  C   UNL A   1      44.333  33.817  33.663  1.00  0.00     0.001 A 
ATOM     70  C   UNL A   1      44.578  34.904  32.826  1.00  0.00     0.000 A 
ENDBRANCH  51  65
BRANCH  52  71
ATOM     71  C   UNL A   1      42.227  23.513  27.608  1.00  0.00    -0.014 A 
ATOM     72  C   UNL A   1      42.493  23.367  26.241  1.00  0.00     0.009 A 
ATOM     73  C   UNL A   1      41.734  22.416  28.333  1.00  0.00     0.009 A 
ATOM     74  C   UNL A   1      42.260  22.145  25.608  1.00  0.00     0.001 A 
ATOM     75  C   UNL A   1      41.523  21.191  27.703  1.00  0.00     0.001 A 
ATOM     76  C   UNL A   1      41.783  21.057  26.340  1.00  0.00     0.000 A 
ENDBRANCH  52  71
BRANCH  64  77
ATOM     77  C   UNL A   1      48.012  26.392  30.163  1.00  0.00    -0.014 A 
ATOM     78  C   UNL A   1      48.461  25.749  31.325  1.00  0.00     0.009 A 
ATOM     79  C   UNL A   1      48.893  26.558  29.084  1.00  0.00     0.009 A 
ATOM     80  C   UNL A   1      49.781  25.305  31.416  1.00  0.00     0.001 A 
ATOM     81  C   UNL A   1      50.207  26.101  29.173  1.00  0.00     0.001 A 
ATOM     82  C   UNL A   1      50.652  25.482  30.340  1.00  0.00     0.000 A 
ENDBRANCH  64  77
ENDBRANCH  38  39
ENDBRANCH  31  33
ENDBRANCH  30  31
ENDBRANCH  29  30
ENDBRANCH  28  29
ENDBRANCH   1  28
TORSDOF 17
ENDMDL
