MODEL 1
REMARK VINA RESULT:     -10.2      0.000      0.000
REMARK SMILES Cc1ccc2c(c1)c(-c1ccnc3c(C)cccc13)c(C)n2CC(=O)OCCOC(=O)c1ccc(-c2c3nc(c(-c4ccccc4)c4ccc([nH]4)c(-c4ccccc4)c4nc(c(-c5ccccc5)c5ccc2[nH]5)C=C4)C=C3)cc1
REMARK SMILES IDX 27 1 26 2 24 3 25 4 23 5 22 6 1 7 2 8 3 9 7 10 4 11 6 12
REMARK SMILES IDX 5 13 8 14 20 15 21 16 9 17 10 18 19 19 11 20 13 21 18 22
REMARK SMILES IDX 12 23 14 24 17 25 15 26 16 27 28 28 29 29 30 30 31 31 32 32
REMARK SMILES IDX 33 33 79 34 34 35 78 36 35 37 36 38 37 39 72 40 38 41 77 42
REMARK SMILES IDX 71 43 73 44 39 45 76 46 70 47 69 48 40 50 62 51 47 52 61 53
REMARK SMILES IDX 48 54 51 55 60 56 74 57 49 58 50 59 59 61 75 62 52 63 41 64
REMARK SMILES IDX 42 65 46 66 43 67 45 68 44 69 63 70 64 71 68 72 65 73 67 74
REMARK SMILES IDX 66 75 53 76 54 77 58 78 55 79 57 80 56 81
REMARK H PARENT 73 49 51 60
REMARK Flexibility Score: inf
ROOT
ATOM      1  C   UNL A   1      34.301  34.812  29.333  1.00  0.00     0.274 C 
ENDROOT
BRANCH   1   2
ATOM      2  O   UNL A   1      33.686  34.024  30.389  1.00  0.00    -0.461 OA
BRANCH   2   3
ATOM      3  C   UNL A   1      34.525  33.572  31.352  1.00  0.00     0.326 C 
ATOM      4  O   UNL A   1      34.433  32.455  31.863  1.00  0.00    -0.250 OA
BRANCH   3   5
ATOM      5  C   UNL A   1      35.615  34.510  31.804  1.00  0.00     0.244 C 
BRANCH   5   6
ATOM      6  N   UNL A   1      36.927  34.004  32.194  1.00  0.00    -0.333 N 
ATOM      7  C   UNL A   1      41.911  34.317  29.561  1.00  0.00     0.044 C 
ATOM      8  C   UNL A   1      40.563  34.297  30.214  1.00  0.00    -0.050 A 
ATOM      9  C   UNL A   1      39.487  34.962  29.627  1.00  0.00     0.005 A 
ATOM     10  C   UNL A   1      40.380  33.583  31.408  1.00  0.00     0.014 A 
ATOM     11  C   UNL A   1      38.218  34.923  30.201  1.00  0.00     0.027 A 
ATOM     12  C   UNL A   1      39.117  33.572  32.029  1.00  0.00     0.008 A 
ATOM     13  C   UNL A   1      38.051  34.214  31.401  1.00  0.00     0.049 A 
ATOM     14  C   UNL A   1      38.634  33.066  33.263  1.00  0.00     0.011 A 
ATOM     15  C   UNL A   1      37.361  33.582  33.442  1.00  0.00     0.024 A 
ATOM     16  C   UNL A   1      36.632  33.685  34.730  1.00  0.00     0.065 C 
BRANCH  14  17
ATOM     17  C   UNL A   1      39.335  32.364  34.327  1.00  0.00    -0.005 A 
ATOM     18  C   UNL A   1      39.164  30.987  34.440  1.00  0.00     0.029 A 
ATOM     19  C   UNL A   1      40.216  33.053  35.202  1.00  0.00     0.008 A 
ATOM     20  C   UNL A   1      39.847  30.339  35.441  1.00  0.00     0.112 A 
ATOM     21  C   UNL A   1      40.836  32.300  36.223  1.00  0.00     0.074 A 
ATOM     22  C   UNL A   1      40.496  34.440  35.095  1.00  0.00     0.011 A 
ATOM     23  N   UNL A   1      40.647  30.966  36.329  1.00  0.00    -0.256 NA
ATOM     24  C   UNL A   1      41.664  32.968  37.137  1.00  0.00    -0.025 A 
ATOM     25  C   UNL A   1      41.349  35.077  35.986  1.00  0.00     0.001 A 
ATOM     26  C   UNL A   1      42.282  32.247  38.307  1.00  0.00     0.047 C 
ATOM     27  C   UNL A   1      41.919  34.346  37.016  1.00  0.00     0.005 A 
ENDBRANCH  14  17
ENDBRANCH   5   6
ENDBRANCH   3   5
ENDBRANCH   2   3
ENDBRANCH   1   2
BRANCH   1  28
ATOM     28  C   UNL A   1      34.229  34.101  27.977  1.00  0.00     0.275 C 
BRANCH  28  29
ATOM     29  O   UNL A   1      35.293  33.137  27.897  1.00  0.00    -0.458 OA
BRANCH  29  30
ATOM     30  C   UNL A   1      34.936  31.847  28.093  1.00  0.00     0.338 C 
ATOM     31  O   UNL A   1      33.955  31.272  27.652  1.00  0.00    -0.246 OA
BRANCH  30  32
ATOM     32  C   UNL A   1      36.165  31.165  28.528  1.00  0.00     0.060 A 
ATOM     33  C   UNL A   1      37.180  31.763  29.262  1.00  0.00     0.016 A 
ATOM     34  C   UNL A   1      36.363  29.913  27.958  1.00  0.00     0.016 A 
ATOM     35  C   UNL A   1      38.429  31.141  29.300  1.00  0.00     0.010 A 
ATOM     36  C   UNL A   1      37.605  29.313  27.951  1.00  0.00     0.010 A 
ATOM     37  C   UNL A   1      38.659  29.961  28.569  1.00  0.00    -0.014 A 
BRANCH  37  38
ATOM     38  C   UNL A   1      39.922  29.254  28.683  1.00  0.00     0.031 A 
ATOM     39  C   UNL A   1      40.186  28.792  30.059  1.00  0.00     0.074 A 
ATOM     40  C   UNL A   1      40.777  28.867  27.718  1.00  0.00     0.049 A 
ATOM     41  N   UNL A   1      40.951  29.380  30.911  1.00  0.00    -0.248 NA
ATOM     42  C   UNL A   1      39.434  27.649  30.592  1.00  0.00     0.031 C 
ATOM     43  C   UNL A   1      40.622  28.851  26.266  1.00  0.00     0.029 A 
ATOM     44  N   UNL A   1      42.018  28.328  27.905  1.00  0.00    -0.354 N 
ATOM     45  C   UNL A   1      40.914  28.600  32.053  1.00  0.00     0.074 A 
ATOM     46  C   UNL A   1      39.849  27.645  31.859  1.00  0.00     0.031 C 
ATOM     47  C   UNL A   1      41.655  28.162  25.717  1.00  0.00     0.029 A 
ATOM     48  C   UNL A   1      42.614  27.827  26.761  1.00  0.00     0.049 A 
ATOM     49  H   UNL A   1      42.455  28.297  28.787  1.00  0.00     0.167 HD
ATOM     50  C   UNL A   1      41.902  28.678  32.983  1.00  0.00     0.031 A 
ATOM     51  C   UNL A   1      43.802  27.173  26.705  1.00  0.00     0.031 A 
ATOM     52  C   UNL A   1      42.753  29.824  32.767  1.00  0.00     0.049 A 
ATOM     53  C   UNL A   1      44.589  27.552  27.905  1.00  0.00     0.074 A 
ATOM     54  C   UNL A   1      42.528  31.184  32.656  1.00  0.00     0.029 A 
ATOM     55  N   UNL A   1      43.990  29.606  32.205  1.00  0.00    -0.354 N 
ATOM     56  N   UNL A   1      45.107  28.731  28.085  1.00  0.00    -0.248 NA
ATOM     57  C   UNL A   1      44.504  26.724  29.097  1.00  0.00     0.031 C 
ATOM     58  C   UNL A   1      43.395  31.618  31.608  1.00  0.00     0.029 A 
ATOM     59  C   UNL A   1      44.139  30.515  31.187  1.00  0.00     0.049 A 
ATOM     60  H   UNL A   1      44.646  28.926  32.483  1.00  0.00     0.167 HD
ATOM     61  C   UNL A   1      44.984  28.967  29.445  1.00  0.00     0.074 A 
ATOM     62  C   UNL A   1      44.736  27.652  30.030  1.00  0.00     0.031 C 
ATOM     63  C   UNL A   1      44.807  30.231  29.933  1.00  0.00     0.031 A 
BRANCH  50  64
ATOM     64  C   UNL A   1      42.300  27.529  33.864  1.00  0.00    -0.014 A 
ATOM     65  C   UNL A   1      41.547  27.109  34.977  1.00  0.00     0.009 A 
ATOM     66  C   UNL A   1      43.332  26.679  33.437  1.00  0.00     0.009 A 
ATOM     67  C   UNL A   1      41.806  25.903  35.631  1.00  0.00     0.001 A 
ATOM     68  C   UNL A   1      43.563  25.448  34.060  1.00  0.00     0.001 A 
ATOM     69  C   UNL A   1      42.799  25.060  35.155  1.00  0.00     0.000 A 
ENDBRANCH  50  64
BRANCH  51  70
ATOM     70  C   UNL A   1      44.261  26.096  25.804  1.00  0.00    -0.014 A 
ATOM     71  C   UNL A   1      43.391  25.049  25.458  1.00  0.00     0.009 A 
ATOM     72  C   UNL A   1      45.631  25.926  25.533  1.00  0.00     0.009 A 
ATOM     73  C   UNL A   1      43.877  23.853  24.916  1.00  0.00     0.001 A 
ATOM     74  C   UNL A   1      46.118  24.727  24.996  1.00  0.00     0.001 A 
ATOM     75  C   UNL A   1      45.242  23.685  24.706  1.00  0.00     0.000 A 
ENDBRANCH  51  70
BRANCH  63  76
ATOM     76  C   UNL A   1      45.035  31.407  29.001  1.00  0.00    -0.014 A 
ATOM     77  C   UNL A   1      44.062  31.688  28.027  1.00  0.00     0.009 A 
ATOM     78  C   UNL A   1      46.231  32.146  28.961  1.00  0.00     0.009 A 
ATOM     79  C   UNL A   1      44.272  32.672  27.057  1.00  0.00     0.001 A 
ATOM     80  C   UNL A   1      46.429  33.155  28.012  1.00  0.00     0.001 A 
ATOM     81  C   UNL A   1      45.451  33.412  27.056  1.00  0.00     0.000 A 
ENDBRANCH  63  76
ENDBRANCH  37  38
ENDBRANCH  30  32
ENDBRANCH  29  30
ENDBRANCH  28  29
ENDBRANCH   1  28
TORSDOF 13
ENDMDL
MODEL 2
REMARK VINA RESULT:     -10.1      5.562     10.434
REMARK SMILES Cc1ccc2c(c1)c(-c1ccnc3c(C)cccc13)c(C)n2CC(=O)OCCOC(=O)c1ccc(-c2c3nc(c(-c4ccccc4)c4ccc([nH]4)c(-c4ccccc4)c4nc(c(-c5ccccc5)c5ccc2[nH]5)C=C4)C=C3)cc1
REMARK SMILES IDX 27 1 26 2 24 3 25 4 23 5 22 6 1 7 2 8 3 9 7 10 4 11 6 12
REMARK SMILES IDX 5 13 8 14 20 15 21 16 9 17 10 18 19 19 11 20 13 21 18 22
REMARK SMILES IDX 12 23 14 24 17 25 15 26 16 27 28 28 29 29 30 30 31 31 32 32
REMARK SMILES IDX 33 33 79 34 34 35 78 36 35 37 36 38 37 39 72 40 38 41 77 42
REMARK SMILES IDX 71 43 73 44 39 45 76 46 70 47 69 48 40 50 62 51 47 52 61 53
REMARK SMILES IDX 48 54 51 55 60 56 74 57 49 58 50 59 59 61 75 62 52 63 41 64
REMARK SMILES IDX 42 65 46 66 43 67 45 68 44 69 63 70 64 71 68 72 65 73 67 74
REMARK SMILES IDX 66 75 53 76 54 77 58 78 55 79 57 80 56 81
REMARK H PARENT 73 49 51 60
REMARK Flexibility Score: inf
ROOT
ATOM      1  C   UNL A   1      35.039  21.159  24.854  1.00  0.00     0.274 C 
ENDROOT
BRANCH   1   2
ATOM      2  O   UNL A   1      35.463  22.515  24.545  1.00  0.00    -0.461 OA
BRANCH   2   3
ATOM      3  C   UNL A   1      35.342  22.890  23.248  1.00  0.00     0.326 C 
ATOM      4  O   UNL A   1      36.305  23.078  22.503  1.00  0.00    -0.250 OA
BRANCH   3   5
ATOM      5  C   UNL A   1      33.944  23.084  22.721  1.00  0.00     0.244 C 
BRANCH   5   6
ATOM      6  N   UNL A   1      32.999  23.962  23.404  1.00  0.00    -0.333 N 
ATOM      7  C   UNL A   1      29.221  22.854  27.450  1.00  0.00     0.044 C 
ATOM      8  C   UNL A   1      30.263  23.078  26.398  1.00  0.00    -0.050 A 
ATOM      9  C   UNL A   1      31.099  22.036  25.999  1.00  0.00     0.005 A 
ATOM     10  C   UNL A   1      30.378  24.340  25.793  1.00  0.00     0.014 A 
ATOM     11  C   UNL A   1      32.048  22.217  24.996  1.00  0.00     0.027 A 
ATOM     12  C   UNL A   1      31.363  24.557  24.811  1.00  0.00     0.008 A 
ATOM     13  C   UNL A   1      32.159  23.487  24.406  1.00  0.00     0.049 A 
ATOM     14  C   UNL A   1      31.813  25.704  24.108  1.00  0.00     0.011 A 
ATOM     15  C   UNL A   1      32.984  25.348  23.460  1.00  0.00     0.024 A 
ATOM     16  C   UNL A   1      34.023  26.279  22.956  1.00  0.00     0.065 C 
BRANCH  14  17
ATOM     17  C   UNL A   1      31.371  27.088  24.191  1.00  0.00    -0.005 A 
ATOM     18  C   UNL A   1      30.473  27.556  23.237  1.00  0.00     0.029 A 
ATOM     19  C   UNL A   1      31.801  27.931  25.250  1.00  0.00     0.008 A 
ATOM     20  C   UNL A   1      30.054  28.861  23.341  1.00  0.00     0.112 A 
ATOM     21  C   UNL A   1      31.343  29.267  25.240  1.00  0.00     0.074 A 
ATOM     22  C   UNL A   1      32.652  27.497  26.298  1.00  0.00     0.011 A 
ATOM     23  N   UNL A   1      30.484  29.712  24.297  1.00  0.00    -0.256 NA
ATOM     24  C   UNL A   1      31.801  30.137  26.240  1.00  0.00    -0.025 A 
ATOM     25  C   UNL A   1      33.065  28.362  27.302  1.00  0.00     0.001 A 
ATOM     26  C   UNL A   1      31.431  31.598  26.239  1.00  0.00     0.047 C 
ATOM     27  C   UNL A   1      32.653  29.685  27.264  1.00  0.00     0.005 A 
ENDBRANCH  14  17
ENDBRANCH   5   6
ENDBRANCH   3   5
ENDBRANCH   2   3
ENDBRANCH   1   2
BRANCH   1  28
ATOM     28  C   UNL A   1      36.226  20.191  24.911  1.00  0.00     0.275 C 
BRANCH  28  29
ATOM     29  O   UNL A   1      37.433  20.942  25.119  1.00  0.00    -0.458 OA
BRANCH  29  30
ATOM     30  C   UNL A   1      38.522  20.223  25.473  1.00  0.00     0.338 C 
ATOM     31  O   UNL A   1      38.821  19.097  25.109  1.00  0.00    -0.246 OA
BRANCH  30  32
ATOM     32  C   UNL A   1      39.489  21.205  25.987  1.00  0.00     0.060 A 
ATOM     33  C   UNL A   1      40.710  20.882  26.560  1.00  0.00     0.016 A 
ATOM     34  C   UNL A   1      39.001  22.504  26.074  1.00  0.00     0.016 A 
ATOM     35  C   UNL A   1      41.364  21.851  27.325  1.00  0.00     0.010 A 
ATOM     36  C   UNL A   1      39.615  23.453  26.865  1.00  0.00     0.010 A 
ATOM     37  C   UNL A   1      40.767  23.105  27.546  1.00  0.00    -0.014 A 
BRANCH  37  38
ATOM     38  C   UNL A   1      41.482  24.151  28.255  1.00  0.00     0.031 A 
ATOM     39  C   UNL A   1      40.729  25.419  28.297  1.00  0.00     0.074 A 
ATOM     40  C   UNL A   1      42.626  24.079  28.960  1.00  0.00     0.049 A 
ATOM     41  N   UNL A   1      40.923  26.430  27.524  1.00  0.00    -0.248 NA
ATOM     42  C   UNL A   1      39.564  25.536  29.183  1.00  0.00     0.031 C 
ATOM     43  C   UNL A   1      43.394  22.919  29.402  1.00  0.00     0.029 A 
ATOM     44  N   UNL A   1      43.319  25.132  29.487  1.00  0.00    -0.354 N 
ATOM     45  C   UNL A   1      40.011  27.390  27.923  1.00  0.00     0.074 A 
ATOM     46  C   UNL A   1      39.100  26.735  28.830  1.00  0.00     0.031 C 
ATOM     47  C   UNL A   1      44.346  23.325  30.281  1.00  0.00     0.029 A 
ATOM     48  C   UNL A   1      44.351  24.781  30.341  1.00  0.00     0.049 A 
ATOM     49  H   UNL A   1      43.102  26.069  29.276  1.00  0.00     0.167 HD
ATOM     50  C   UNL A   1      40.205  28.703  27.624  1.00  0.00     0.031 A 
ATOM     51  C   UNL A   1      45.126  25.643  31.047  1.00  0.00     0.031 A 
ATOM     52  C   UNL A   1      41.250  28.881  26.645  1.00  0.00     0.049 A 
ATOM     53  C   UNL A   1      45.074  26.962  30.370  1.00  0.00     0.074 A 
ATOM     54  C   UNL A   1      41.472  28.392  25.370  1.00  0.00     0.029 A 
ATOM     55  N   UNL A   1      42.476  29.322  27.091  1.00  0.00    -0.354 N 
ATOM     56  N   UNL A   1      45.635  27.207  29.222  1.00  0.00    -0.248 NA
ATOM     57  C   UNL A   1      44.084  27.938  30.796  1.00  0.00     0.031 C 
ATOM     58  C   UNL A   1      42.870  28.109  25.320  1.00  0.00     0.029 A 
ATOM     59  C   UNL A   1      43.428  28.500  26.539  1.00  0.00     0.049 A 
ATOM     60  H   UNL A   1      42.639  30.084  27.691  1.00  0.00     0.167 HD
ATOM     61  C   UNL A   1      44.764  28.076  28.582  1.00  0.00     0.074 A 
ATOM     62  C   UNL A   1      43.907  28.594  29.646  1.00  0.00     0.031 C 
ATOM     63  C   UNL A   1      44.632  28.074  27.222  1.00  0.00     0.031 A 
BRANCH  50  64
ATOM     64  C   UNL A   1      39.693  29.828  28.476  1.00  0.00    -0.014 A 
ATOM     65  C   UNL A   1      38.377  30.322  28.398  1.00  0.00     0.009 A 
ATOM     66  C   UNL A   1      40.469  30.255  29.565  1.00  0.00     0.009 A 
ATOM     67  C   UNL A   1      37.858  31.197  29.355  1.00  0.00     0.001 A 
ATOM     68  C   UNL A   1      39.938  31.092  30.551  1.00  0.00     0.001 A 
ATOM     69  C   UNL A   1      38.632  31.561  30.446  1.00  0.00     0.000 A 
ENDBRANCH  50  64
BRANCH  51  70
ATOM     70  C   UNL A   1      45.768  25.491  32.369  1.00  0.00    -0.014 A 
ATOM     71  C   UNL A   1      47.156  25.666  32.501  1.00  0.00     0.009 A 
ATOM     72  C   UNL A   1      45.081  24.878  33.431  1.00  0.00     0.009 A 
ATOM     73  C   UNL A   1      47.840  25.192  33.627  1.00  0.00     0.001 A 
ATOM     74  C   UNL A   1      45.766  24.399  34.554  1.00  0.00     0.001 A 
ATOM     75  C   UNL A   1      47.148  24.540  34.643  1.00  0.00     0.000 A 
ENDBRANCH  51  70
BRANCH  63  76
ATOM     76  C   UNL A   1      45.653  27.317  26.395  1.00  0.00    -0.014 A 
ATOM     77  C   UNL A   1      45.514  25.924  26.272  1.00  0.00     0.009 A 
ATOM     78  C   UNL A   1      46.813  27.907  25.861  1.00  0.00     0.009 A 
ATOM     79  C   UNL A   1      46.491  25.152  25.635  1.00  0.00     0.001 A 
ATOM     80  C   UNL A   1      47.775  27.141  25.193  1.00  0.00     0.001 A 
ATOM     81  C   UNL A   1      47.616  25.763  25.087  1.00  0.00     0.000 A 
ENDBRANCH  63  76
ENDBRANCH  37  38
ENDBRANCH  30  32
ENDBRANCH  29  30
ENDBRANCH  28  29
ENDBRANCH   1  28
TORSDOF 13
ENDMDL
MODEL 3
REMARK VINA RESULT:      -9.7      4.535     10.353
REMARK SMILES Cc1ccc2c(c1)c(-c1ccnc3c(C)cccc13)c(C)n2CC(=O)OCCOC(=O)c1ccc(-c2c3nc(c(-c4ccccc4)c4ccc([nH]4)c(-c4ccccc4)c4nc(c(-c5ccccc5)c5ccc2[nH]5)C=C4)C=C3)cc1
REMARK SMILES IDX 27 1 26 2 24 3 25 4 23 5 22 6 1 7 2 8 3 9 7 10 4 11 6 12
REMARK SMILES IDX 5 13 8 14 20 15 21 16 9 17 10 18 19 19 11 20 13 21 18 22
REMARK SMILES IDX 12 23 14 24 17 25 15 26 16 27 28 28 29 29 30 30 31 31 32 32
REMARK SMILES IDX 33 33 79 34 34 35 78 36 35 37 36 38 37 39 72 40 38 41 77 42
REMARK SMILES IDX 71 43 73 44 39 45 76 46 70 47 69 48 40 50 62 51 47 52 61 53
REMARK SMILES IDX 48 54 51 55 60 56 74 57 49 58 50 59 59 61 75 62 52 63 41 64
REMARK SMILES IDX 42 65 46 66 43 67 45 68 44 69 63 70 64 71 68 72 65 73 67 74
REMARK SMILES IDX 66 75 53 76 54 77 58 78 55 79 57 80 56 81
REMARK H PARENT 73 49 51 60
REMARK Flexibility Score: inf
ROOT
ATOM      1  C   UNL A   1      44.635  21.129  25.709  1.00  0.00     0.274 C 
ENDROOT
BRANCH   1   2
ATOM      2  O   UNL A   1      43.508  20.531  25.013  1.00  0.00    -0.461 OA
BRANCH   2   3
ATOM      3  C   UNL A   1      42.978  19.425  25.589  1.00  0.00     0.326 C 
ATOM      4  O   UNL A   1      43.350  18.280  25.332  1.00  0.00    -0.250 OA
BRANCH   3   5
ATOM      5  C   UNL A   1      41.871  19.641  26.590  1.00  0.00     0.244 C 
BRANCH   5   6
ATOM      6  N   UNL A   1      41.030  20.832  26.535  1.00  0.00    -0.333 N 
ATOM      7  C   UNL A   1      35.826  21.559  24.471  1.00  0.00     0.044 C 
ATOM      8  C   UNL A   1      37.191  21.285  25.023  1.00  0.00    -0.050 A 
ATOM      9  C   UNL A   1      37.709  19.990  25.012  1.00  0.00     0.005 A 
ATOM     10  C   UNL A   1      37.961  22.344  25.527  1.00  0.00     0.014 A 
ATOM     11  C   UNL A   1      38.991  19.724  25.488  1.00  0.00     0.027 A 
ATOM     12  C   UNL A   1      39.241  22.089  26.056  1.00  0.00     0.008 A 
ATOM     13  C   UNL A   1      39.747  20.791  25.999  1.00  0.00     0.049 A 
ATOM     14  C   UNL A   1      40.202  22.883  26.732  1.00  0.00     0.011 A 
ATOM     15  C   UNL A   1      41.158  22.020  27.239  1.00  0.00     0.024 A 
ATOM     16  C   UNL A   1      42.106  22.315  28.341  1.00  0.00     0.065 C 
BRANCH  14  17
ATOM     17  C   UNL A   1      40.157  24.289  27.108  1.00  0.00    -0.005 A 
ATOM     18  C   UNL A   1      39.292  24.676  28.128  1.00  0.00     0.029 A 
ATOM     19  C   UNL A   1      41.011  25.239  26.489  1.00  0.00     0.008 A 
ATOM     20  C   UNL A   1      39.277  26.005  28.480  1.00  0.00     0.112 A 
ATOM     21  C   UNL A   1      40.885  26.585  26.897  1.00  0.00     0.074 A 
ATOM     22  C   UNL A   1      41.970  24.901  25.500  1.00  0.00     0.011 A 
ATOM     23  N   UNL A   1      40.029  26.949  27.877  1.00  0.00    -0.256 NA
ATOM     24  C   UNL A   1      41.675  27.553  26.259  1.00  0.00    -0.025 A 
ATOM     25  C   UNL A   1      42.771  25.867  24.906  1.00  0.00     0.001 A 
ATOM     26  C   UNL A   1      41.526  29.019  26.574  1.00  0.00     0.047 C 
ATOM     27  C   UNL A   1      42.612  27.194  25.273  1.00  0.00     0.005 A 
ENDBRANCH  14  17
ENDBRANCH   5   6
ENDBRANCH   3   5
ENDBRANCH   2   3
ENDBRANCH   1   2
BRANCH   1  28
ATOM     28  C   UNL A   1      44.763  22.626  25.403  1.00  0.00     0.275 C 
BRANCH  28  29
ATOM     29  O   UNL A   1      44.558  23.371  26.614  1.00  0.00    -0.458 OA
BRANCH  29  30
ATOM     30  C   UNL A   1      45.651  23.987  27.120  1.00  0.00     0.338 C 
ATOM     31  O   UNL A   1      46.819  23.655  26.991  1.00  0.00    -0.246 OA
BRANCH  30  32
ATOM     32  C   UNL A   1      45.214  25.354  27.443  1.00  0.00     0.060 A 
ATOM     33  C   UNL A   1      45.856  26.507  27.015  1.00  0.00     0.016 A 
ATOM     34  C   UNL A   1      44.223  25.428  28.415  1.00  0.00     0.016 A 
ATOM     35  C   UNL A   1      45.573  27.708  27.670  1.00  0.00     0.010 A 
ATOM     36  C   UNL A   1      43.971  26.600  29.099  1.00  0.00     0.010 A 
ATOM     37  C   UNL A   1      44.696  27.730  28.769  1.00  0.00    -0.014 A 
BRANCH  37  38
ATOM     38  C   UNL A   1      44.320  28.987  29.392  1.00  0.00     0.031 A 
ATOM     39  C   UNL A   1      44.410  28.935  30.863  1.00  0.00     0.074 A 
ATOM     40  C   UNL A   1      44.045  30.175  28.823  1.00  0.00     0.049 A 
ATOM     41  N   UNL A   1      43.421  28.757  31.667  1.00  0.00    -0.248 NA
ATOM     42  C   UNL A   1      45.731  28.946  31.505  1.00  0.00     0.031 C 
ATOM     43  C   UNL A   1      44.226  30.632  27.448  1.00  0.00     0.029 A 
ATOM     44  N   UNL A   1      43.562  31.284  29.459  1.00  0.00    -0.354 N 
ATOM     45  C   UNL A   1      43.958  28.791  32.941  1.00  0.00     0.074 A 
ATOM     46  C   UNL A   1      45.391  28.748  32.780  1.00  0.00     0.031 C 
ATOM     47  C   UNL A   1      44.027  31.974  27.396  1.00  0.00     0.029 A 
ATOM     48  C   UNL A   1      43.556  32.438  28.694  1.00  0.00     0.049 A 
ATOM     49  H   UNL A   1      43.243  31.264  30.390  1.00  0.00     0.167 HD
ATOM     50  C   UNL A   1      43.176  29.057  34.021  1.00  0.00     0.031 A 
ATOM     51  C   UNL A   1      43.203  33.675  29.126  1.00  0.00     0.031 A 
ATOM     52  C   UNL A   1      41.771  28.990  33.695  1.00  0.00     0.049 A 
ATOM     53  C   UNL A   1      42.334  33.512  30.317  1.00  0.00     0.074 A 
ATOM     54  C   UNL A   1      40.955  28.021  33.139  1.00  0.00     0.029 A 
ATOM     55  N   UNL A   1      41.092  30.177  33.544  1.00  0.00    -0.354 N 
ATOM     56  N   UNL A   1      41.118  33.049  30.266  1.00  0.00    -0.248 NA
ATOM     57  C   UNL A   1      42.936  33.525  31.640  1.00  0.00     0.031 C 
ATOM     58  C   UNL A   1      40.086  28.731  32.257  1.00  0.00     0.029 A 
ATOM     59  C   UNL A   1      40.379  30.091  32.373  1.00  0.00     0.049 A 
ATOM     60  H   UNL A   1      41.112  30.945  34.160  1.00  0.00     0.167 HD
ATOM     61  C   UNL A   1      40.977  32.300  31.423  1.00  0.00     0.074 A 
ATOM     62  C   UNL A   1      42.069  32.742  32.288  1.00  0.00     0.031 C 
ATOM     63  C   UNL A   1      40.171  31.197  31.461  1.00  0.00     0.031 A 
BRANCH  50  64
ATOM     64  C   UNL A   1      43.687  29.716  35.269  1.00  0.00    -0.014 A 
ATOM     65  C   UNL A   1      44.077  29.004  36.418  1.00  0.00     0.009 A 
ATOM     66  C   UNL A   1      44.021  31.079  35.221  1.00  0.00     0.009 A 
ATOM     67  C   UNL A   1      44.767  29.614  37.467  1.00  0.00     0.001 A 
ATOM     68  C   UNL A   1      44.754  31.682  36.248  1.00  0.00     0.001 A 
ATOM     69  C   UNL A   1      45.128  30.949  37.369  1.00  0.00     0.000 A 
ENDBRANCH  50  64
BRANCH  51  70
ATOM     70  C   UNL A   1      43.696  35.008  28.721  1.00  0.00    -0.014 A 
ATOM     71  C   UNL A   1      42.807  36.092  28.637  1.00  0.00     0.009 A 
ATOM     72  C   UNL A   1      44.960  35.150  28.123  1.00  0.00     0.009 A 
ATOM     73  C   UNL A   1      43.145  37.253  27.932  1.00  0.00     0.001 A 
ATOM     74  C   UNL A   1      45.297  36.309  27.412  1.00  0.00     0.001 A 
ATOM     75  C   UNL A   1      44.382  37.352  27.301  1.00  0.00     0.000 A 
ENDBRANCH  51  70
BRANCH  63  76
ATOM     76  C   UNL A   1      39.209  30.963  30.312  1.00  0.00    -0.014 A 
ATOM     77  C   UNL A   1      37.898  31.458  30.425  1.00  0.00     0.009 A 
ATOM     78  C   UNL A   1      39.508  30.156  29.200  1.00  0.00     0.009 A 
ATOM     79  C   UNL A   1      36.928  31.164  29.462  1.00  0.00     0.001 A 
ATOM     80  C   UNL A   1      38.548  29.889  28.218  1.00  0.00     0.001 A 
ATOM     81  C   UNL A   1      37.256  30.387  28.355  1.00  0.00     0.000 A 
ENDBRANCH  63  76
ENDBRANCH  37  38
ENDBRANCH  30  32
ENDBRANCH  29  30
ENDBRANCH  28  29
ENDBRANCH   1  28
TORSDOF 13
ENDMDL
