MODEL 1
REMARK VINA RESULT:     -10.5      0.000      0.000
REMARK SMILES CC[C@@H]1CCC[C@@](Cc2ccccn2)(C(=O)OCCOC(=O)c2ccc(-c3c4nc(c(-c5ccccc5)c5ccc([nH]5)c(-c5ccccc5)c5nc(c(-c6ccccc6)c6ccc3[nH]6)C=C5)C=C4)cc2)C1
REMARK SMILES IDX 18 1 17 2 15 3 16 4 7 5 3 6 4 7 71 8 5 9 6 10 2 11 1 12 8 13
REMARK SMILES IDX 9 14 10 15 14 16 11 17 13 18 12 19 19 20 20 21 21 22 22 23
REMARK SMILES IDX 23 24 24 25 70 26 25 27 69 28 26 29 27 30 28 31 63 32 29 33
REMARK SMILES IDX 68 34 62 35 64 36 30 37 67 38 61 39 60 40 31 42 53 43 38 44
REMARK SMILES IDX 52 45 39 46 42 47 51 48 65 49 40 50 41 51 50 53 66 54 43 55
REMARK SMILES IDX 32 56 33 57 37 58 34 59 36 60 35 61 54 62 55 63 59 64 56 65
REMARK SMILES IDX 58 66 57 67 44 68 45 69 49 70 46 71 48 72 47 73
REMARK H PARENT 64 41 42 52
REMARK Flexibility Score: inf
ROOT
ATOM      1  C   UNL A   1      31.953  30.433  26.026  1.00  0.00     0.274 C 
ENDROOT
BRANCH   1   2
ATOM      2  O   UNL A   1      32.392  29.071  25.830  1.00  0.00    -0.462 OA
BRANCH   2   3
ATOM      3  C   UNL A   1      32.657  28.673  24.556  1.00  0.00     0.312 C 
ATOM      4  O   UNL A   1      33.315  29.329  23.755  1.00  0.00    -0.252 OA
BRANCH   3   5
ATOM      5  C   UNL A   1      31.914  27.382  24.170  1.00  0.00     0.074 C 
ATOM      6  C   UNL A   1      33.658  25.660  25.047  1.00  0.00    -0.010 C 
ATOM      7  C   UNL A   1      32.657  25.210  26.119  1.00  0.00     0.003 C 
ATOM      8  C   UNL A   1      32.939  26.259  23.829  1.00  0.00     0.022 C 
ATOM      9  C   UNL A   1      31.686  26.320  26.492  1.00  0.00     0.001 C 
ATOM     10  C   UNL A   1      30.955  26.867  25.266  1.00  0.00     0.019 C 
BRANCH   6  11
ATOM     11  C   UNL A   1      34.603  24.486  24.704  1.00  0.00     0.000 C 
ATOM     12  C   UNL A   1      35.581  24.084  25.799  1.00  0.00     0.004 C 
ENDBRANCH   6  11
BRANCH   5  13
ATOM     13  C   UNL A   1      31.161  27.719  22.849  1.00  0.00     0.075 C 
BRANCH  13  14
ATOM     14  C   UNL A   1      29.898  28.528  23.002  1.00  0.00     0.041 A 
ATOM     15  C   UNL A   1      28.654  27.912  23.126  1.00  0.00     0.024 A 
ATOM     16  N   UNL A   1      30.043  29.874  23.003  1.00  0.00    -0.261 NA
ATOM     17  C   UNL A   1      27.517  28.708  23.230  1.00  0.00     0.003 A 
ATOM     18  C   UNL A   1      28.926  30.621  23.128  1.00  0.00     0.111 A 
ATOM     19  C   UNL A   1      27.653  30.090  23.235  1.00  0.00     0.020 A 
ENDBRANCH  13  14
ENDBRANCH   5  13
ENDBRANCH   3   5
ENDBRANCH   2   3
ENDBRANCH   1   2
BRANCH   1  20
ATOM     20  C   UNL A   1      32.632  31.048  27.246  1.00  0.00     0.275 C 
BRANCH  20  21
ATOM     21  O   UNL A   1      33.906  30.411  27.414  1.00  0.00    -0.458 OA
BRANCH  21  22
ATOM     22  C   UNL A   1      34.719  30.920  28.364  1.00  0.00     0.338 C 
ATOM     23  O   UNL A   1      34.462  31.838  29.132  1.00  0.00    -0.246 OA
BRANCH  22  24
ATOM     24  C   UNL A   1      35.990  30.157  28.385  1.00  0.00     0.060 A 
ATOM     25  C   UNL A   1      36.443  29.561  29.560  1.00  0.00     0.016 A 
ATOM     26  C   UNL A   1      36.798  30.112  27.245  1.00  0.00     0.016 A 
ATOM     27  C   UNL A   1      37.727  29.025  29.626  1.00  0.00     0.010 A 
ATOM     28  C   UNL A   1      38.051  29.483  27.294  1.00  0.00     0.010 A 
ATOM     29  C   UNL A   1      38.557  28.967  28.500  1.00  0.00    -0.014 A 
BRANCH  29  30
ATOM     30  C   UNL A   1      39.954  28.436  28.601  1.00  0.00     0.031 A 
ATOM     31  C   UNL A   1      41.072  29.324  29.093  1.00  0.00     0.074 A 
ATOM     32  C   UNL A   1      40.250  27.152  28.305  1.00  0.00     0.049 A 
ATOM     33  N   UNL A   1      42.368  29.155  28.992  1.00  0.00    -0.248 NA
ATOM     34  C   UNL A   1      40.686  30.571  29.774  1.00  0.00     0.031 C 
ATOM     35  C   UNL A   1      39.295  26.118  27.899  1.00  0.00     0.029 A 
ATOM     36  N   UNL A   1      41.455  26.487  28.327  1.00  0.00    -0.354 N 
ATOM     37  C   UNL A   1      42.944  30.313  29.501  1.00  0.00     0.074 A 
ATOM     38  C   UNL A   1      41.860  31.164  29.942  1.00  0.00     0.031 C 
ATOM     39  C   UNL A   1      39.931  24.943  27.795  1.00  0.00     0.029 A 
ATOM     40  C   UNL A   1      41.359  25.158  27.989  1.00  0.00     0.049 A 
ATOM     41  H   UNL A   1      42.306  26.923  28.562  1.00  0.00     0.167 HD
ATOM     42  C   UNL A   1      44.255  30.644  29.575  1.00  0.00     0.031 A 
ATOM     43  C   UNL A   1      42.307  24.222  27.791  1.00  0.00     0.031 A 
ATOM     44  C   UNL A   1      45.341  29.768  29.218  1.00  0.00     0.049 A 
ATOM     45  C   UNL A   1      43.755  24.611  27.859  1.00  0.00     0.074 A 
ATOM     46  C   UNL A   1      46.701  30.026  29.236  1.00  0.00     0.029 A 
ATOM     47  N   UNL A   1      45.189  28.451  28.820  1.00  0.00    -0.354 N 
ATOM     48  N   UNL A   1      44.286  25.765  28.178  1.00  0.00    -0.248 NA
ATOM     49  C   UNL A   1      44.734  23.577  27.488  1.00  0.00     0.031 C 
ATOM     50  C   UNL A   1      47.374  28.869  28.827  1.00  0.00     0.029 A 
ATOM     51  C   UNL A   1      46.432  27.882  28.592  1.00  0.00     0.049 A 
ATOM     52  H   UNL A   1      44.328  27.987  28.716  1.00  0.00     0.167 HD
ATOM     53  C   UNL A   1      45.656  25.604  28.029  1.00  0.00     0.074 A 
ATOM     54  C   UNL A   1      45.879  24.230  27.631  1.00  0.00     0.031 C 
ATOM     55  C   UNL A   1      46.641  26.520  28.186  1.00  0.00     0.031 A 
BRANCH  42  56
ATOM     56  C   UNL A   1      44.600  32.040  30.007  1.00  0.00    -0.014 A 
ATOM     57  C   UNL A   1      44.648  33.106  29.099  1.00  0.00     0.009 A 
ATOM     58  C   UNL A   1      44.821  32.295  31.371  1.00  0.00     0.009 A 
ATOM     59  C   UNL A   1      44.928  34.400  29.548  1.00  0.00     0.001 A 
ATOM     60  C   UNL A   1      45.076  33.591  31.820  1.00  0.00     0.001 A 
ATOM     61  C   UNL A   1      45.136  34.642  30.907  1.00  0.00     0.000 A 
ENDBRANCH  42  56
BRANCH  43  62
ATOM     62  C   UNL A   1      41.918  22.840  27.404  1.00  0.00    -0.014 A 
ATOM     63  C   UNL A   1      41.515  21.914  28.377  1.00  0.00     0.009 A 
ATOM     64  C   UNL A   1      41.948  22.441  26.058  1.00  0.00     0.009 A 
ATOM     65  C   UNL A   1      41.156  20.615  28.010  1.00  0.00     0.001 A 
ATOM     66  C   UNL A   1      41.558  21.154  25.690  1.00  0.00     0.001 A 
ATOM     67  C   UNL A   1      41.168  20.239  26.667  1.00  0.00     0.000 A 
ENDBRANCH  43  62
BRANCH  55  68
ATOM     68  C   UNL A   1      48.045  26.061  27.931  1.00  0.00    -0.014 A 
ATOM     69  C   UNL A   1      48.842  25.577  28.978  1.00  0.00     0.009 A 
ATOM     70  C   UNL A   1      48.569  26.095  26.630  1.00  0.00     0.009 A 
ATOM     71  C   UNL A   1      50.153  25.162  28.732  1.00  0.00     0.001 A 
ATOM     72  C   UNL A   1      49.872  25.661  26.384  1.00  0.00     0.001 A 
ATOM     73  C   UNL A   1      50.665  25.203  27.436  1.00  0.00     0.000 A 
ENDBRANCH  55  68
ENDBRANCH  29  30
ENDBRANCH  22  24
ENDBRANCH  21  22
ENDBRANCH  20  21
ENDBRANCH   1  20
TORSDOF 14
ENDMDL
MODEL 2
REMARK VINA RESULT:     -10.5      3.777      8.139
REMARK SMILES CC[C@@H]1CCC[C@@](Cc2ccccn2)(C(=O)OCCOC(=O)c2ccc(-c3c4nc(c(-c5ccccc5)c5ccc([nH]5)c(-c5ccccc5)c5nc(c(-c6ccccc6)c6ccc3[nH]6)C=C5)C=C4)cc2)C1
REMARK SMILES IDX 18 1 17 2 15 3 16 4 7 5 3 6 4 7 71 8 5 9 6 10 2 11 1 12 8 13
REMARK SMILES IDX 9 14 10 15 14 16 11 17 13 18 12 19 19 20 20 21 21 22 22 23
REMARK SMILES IDX 23 24 24 25 70 26 25 27 69 28 26 29 27 30 28 31 63 32 29 33
REMARK SMILES IDX 68 34 62 35 64 36 30 37 67 38 61 39 60 40 31 42 53 43 38 44
REMARK SMILES IDX 52 45 39 46 42 47 51 48 65 49 40 50 41 51 50 53 66 54 43 55
REMARK SMILES IDX 32 56 33 57 37 58 34 59 36 60 35 61 54 62 55 63 59 64 56 65
REMARK SMILES IDX 58 66 57 67 44 68 45 69 49 70 46 71 48 72 47 73
REMARK H PARENT 64 41 42 52
REMARK Flexibility Score: inf
ROOT
ATOM      1  C   UNL A   1      36.032  19.851  24.984  1.00  0.00     0.274 C 
ENDROOT
BRANCH   1   2
ATOM      2  O   UNL A   1      35.594  21.223  24.873  1.00  0.00    -0.462 OA
BRANCH   2   3
ATOM      3  C   UNL A   1      34.634  21.648  25.738  1.00  0.00     0.312 C 
ATOM      4  O   UNL A   1      34.665  21.453  26.949  1.00  0.00    -0.252 OA
BRANCH   3   5
ATOM      5  C   UNL A   1      33.421  22.268  25.022  1.00  0.00     0.074 C 
ATOM      6  C   UNL A   1      33.982  24.778  25.421  1.00  0.00    -0.010 C 
ATOM      7  C   UNL A   1      34.212  24.955  23.916  1.00  0.00     0.003 C 
ATOM      8  C   UNL A   1      33.026  23.611  25.707  1.00  0.00     0.022 C 
ATOM      9  C   UNL A   1      34.647  23.658  23.250  1.00  0.00     0.001 C 
ATOM     10  C   UNL A   1      33.655  22.526  23.516  1.00  0.00     0.019 C 
BRANCH   6  11
ATOM     11  C   UNL A   1      33.530  26.125  26.032  1.00  0.00     0.000 C 
ATOM     12  C   UNL A   1      32.289  26.748  25.410  1.00  0.00     0.004 C 
ENDBRANCH   6  11
BRANCH   5  13
ATOM     13  C   UNL A   1      32.246  21.276  25.266  1.00  0.00     0.075 C 
BRANCH  13  14
ATOM     14  C   UNL A   1      32.476  19.860  24.803  1.00  0.00     0.041 A 
ATOM     15  C   UNL A   1      32.538  19.542  23.447  1.00  0.00     0.024 A 
ATOM     16  N   UNL A   1      32.607  18.925  25.773  1.00  0.00    -0.261 NA
ATOM     17  C   UNL A   1      32.718  18.213  23.076  1.00  0.00     0.003 A 
ATOM     18  C   UNL A   1      32.803  17.647  25.385  1.00  0.00     0.111 A 
ATOM     19  C   UNL A   1      32.857  17.244  24.062  1.00  0.00     0.020 A 
ENDBRANCH  13  14
ENDBRANCH   5  13
ENDBRANCH   3   5
ENDBRANCH   2   3
ENDBRANCH   1   2
BRANCH   1  20
ATOM     20  C   UNL A   1      37.550  19.757  24.865  1.00  0.00     0.275 C 
BRANCH  20  21
ATOM     21  O   UNL A   1      38.111  20.977  25.370  1.00  0.00    -0.458 OA
BRANCH  21  22
ATOM     22  C   UNL A   1      39.278  20.877  26.041  1.00  0.00     0.338 C 
ATOM     23  O   UNL A   1      39.938  19.860  26.213  1.00  0.00    -0.246 OA
BRANCH  22  24
ATOM     24  C   UNL A   1      39.690  22.220  26.515  1.00  0.00     0.060 A 
ATOM     25  C   UNL A   1      38.986  23.358  26.129  1.00  0.00     0.016 A 
ATOM     26  C   UNL A   1      40.852  22.366  27.278  1.00  0.00     0.016 A 
ATOM     27  C   UNL A   1      39.493  24.625  26.405  1.00  0.00     0.010 A 
ATOM     28  C   UNL A   1      41.303  23.645  27.636  1.00  0.00     0.010 A 
ATOM     29  C   UNL A   1      40.655  24.801  27.167  1.00  0.00    -0.014 A 
BRANCH  29  30
ATOM     30  C   UNL A   1      41.215  26.169  27.410  1.00  0.00     0.031 A 
ATOM     31  C   UNL A   1      42.504  26.592  26.745  1.00  0.00     0.074 A 
ATOM     32  C   UNL A   1      40.575  27.073  28.183  1.00  0.00     0.049 A 
ATOM     33  N   UNL A   1      43.290  27.600  27.034  1.00  0.00    -0.248 NA
ATOM     34  C   UNL A   1      42.979  25.769  25.620  1.00  0.00     0.031 C 
ATOM     35  C   UNL A   1      39.279  26.883  28.838  1.00  0.00     0.029 A 
ATOM     36  N   UNL A   1      40.927  28.358  28.528  1.00  0.00    -0.354 N 
ATOM     37  C   UNL A   1      44.395  27.472  26.199  1.00  0.00     0.074 A 
ATOM     38  C   UNL A   1      44.164  26.310  25.369  1.00  0.00     0.031 C 
ATOM     39  C   UNL A   1      38.908  28.029  29.427  1.00  0.00     0.029 A 
ATOM     40  C   UNL A   1      39.996  28.992  29.316  1.00  0.00     0.049 A 
ATOM     41  H   UNL A   1      41.767  28.782  28.239  1.00  0.00     0.167 HD
ATOM     42  C   UNL A   1      45.508  28.242  26.144  1.00  0.00     0.031 A 
ATOM     43  C   UNL A   1      40.026  30.187  29.938  1.00  0.00     0.031 A 
ATOM     44  C   UNL A   1      45.705  29.448  26.905  1.00  0.00     0.049 A 
ATOM     45  C   UNL A   1      41.274  31.018  29.881  1.00  0.00     0.074 A 
ATOM     46  C   UNL A   1      46.812  30.280  26.934  1.00  0.00     0.029 A 
ATOM     47  N   UNL A   1      44.757  30.017  27.738  1.00  0.00    -0.354 N 
ATOM     48  N   UNL A   1      42.383  30.799  29.220  1.00  0.00    -0.248 NA
ATOM     49  C   UNL A   1      41.291  32.239  30.702  1.00  0.00     0.031 C 
ATOM     50  C   UNL A   1      46.541  31.343  27.803  1.00  0.00     0.029 A 
ATOM     51  C   UNL A   1      45.252  31.189  28.284  1.00  0.00     0.049 A 
ATOM     52  H   UNL A   1      43.864  29.643  27.915  1.00  0.00     0.167 HD
ATOM     53  C   UNL A   1      43.235  31.841  29.557  1.00  0.00     0.074 A 
ATOM     54  C   UNL A   1      42.503  32.715  30.449  1.00  0.00     0.031 C 
ATOM     55  C   UNL A   1      44.519  32.043  29.178  1.00  0.00     0.031 A 
BRANCH  42  56
ATOM     56  C   UNL A   1      46.636  27.777  25.270  1.00  0.00    -0.014 A 
ATOM     57  C   UNL A   1      46.769  28.204  23.942  1.00  0.00     0.009 A 
ATOM     58  C   UNL A   1      47.622  26.939  25.820  1.00  0.00     0.009 A 
ATOM     59  C   UNL A   1      47.861  27.785  23.175  1.00  0.00     0.001 A 
ATOM     60  C   UNL A   1      48.722  26.542  25.059  1.00  0.00     0.001 A 
ATOM     61  C   UNL A   1      48.837  26.960  23.735  1.00  0.00     0.000 A 
ENDBRANCH  42  56
BRANCH  43  62
ATOM     62  C   UNL A   1      38.867  30.626  30.760  1.00  0.00    -0.014 A 
ATOM     63  C   UNL A   1      38.773  30.260  32.110  1.00  0.00     0.009 A 
ATOM     64  C   UNL A   1      37.850  31.413  30.197  1.00  0.00     0.009 A 
ATOM     65  C   UNL A   1      37.680  30.670  32.878  1.00  0.00     0.001 A 
ATOM     66  C   UNL A   1      36.776  31.848  30.973  1.00  0.00     0.001 A 
ATOM     67  C   UNL A   1      36.689  31.471  32.312  1.00  0.00     0.000 A 
ENDBRANCH  43  62
BRANCH  55  68
ATOM     68  C   UNL A   1      45.207  33.258  29.726  1.00  0.00    -0.014 A 
ATOM     69  C   UNL A   1      45.939  33.189  30.921  1.00  0.00     0.009 A 
ATOM     70  C   UNL A   1      45.138  34.475  29.033  1.00  0.00     0.009 A 
ATOM     71  C   UNL A   1      46.566  34.329  31.429  1.00  0.00     0.001 A 
ATOM     72  C   UNL A   1      45.783  35.607  29.533  1.00  0.00     0.001 A 
ATOM     73  C   UNL A   1      46.488  35.535  30.733  1.00  0.00     0.000 A 
ENDBRANCH  55  68
ENDBRANCH  29  30
ENDBRANCH  22  24
ENDBRANCH  21  22
ENDBRANCH  20  21
ENDBRANCH   1  20
TORSDOF 14
ENDMDL
MODEL 3
REMARK VINA RESULT:     -10.4      3.857      6.928
REMARK SMILES CC[C@@H]1CCC[C@@](Cc2ccccn2)(C(=O)OCCOC(=O)c2ccc(-c3c4nc(c(-c5ccccc5)c5ccc([nH]5)c(-c5ccccc5)c5nc(c(-c6ccccc6)c6ccc3[nH]6)C=C5)C=C4)cc2)C1
REMARK SMILES IDX 18 1 17 2 15 3 16 4 7 5 3 6 4 7 71 8 5 9 6 10 2 11 1 12 8 13
REMARK SMILES IDX 9 14 10 15 14 16 11 17 13 18 12 19 19 20 20 21 21 22 22 23
REMARK SMILES IDX 23 24 24 25 70 26 25 27 69 28 26 29 27 30 28 31 63 32 29 33
REMARK SMILES IDX 68 34 62 35 64 36 30 37 67 38 61 39 60 40 31 42 53 43 38 44
REMARK SMILES IDX 52 45 39 46 42 47 51 48 65 49 40 50 41 51 50 53 66 54 43 55
REMARK SMILES IDX 32 56 33 57 37 58 34 59 36 60 35 61 54 62 55 63 59 64 56 65
REMARK SMILES IDX 58 66 57 67 44 68 45 69 49 70 46 71 48 72 47 73
REMARK H PARENT 64 41 42 52
REMARK Flexibility Score: inf
ROOT
ATOM      1  C   UNL A   1      33.079  29.232  24.776  1.00  0.00     0.274 C 
ENDROOT
BRANCH   1   2
ATOM      2  O   UNL A   1      32.717  27.841  24.914  1.00  0.00    -0.462 OA
BRANCH   2   3
ATOM      3  C   UNL A   1      32.621  27.100  23.777  1.00  0.00     0.312 C 
ATOM      4  O   UNL A   1      33.537  26.955  22.973  1.00  0.00    -0.252 OA
BRANCH   3   5
ATOM      5  C   UNL A   1      31.194  26.584  23.521  1.00  0.00     0.074 C 
ATOM      6  C   UNL A   1      31.586  24.074  24.084  1.00  0.00    -0.010 C 
ATOM      7  C   UNL A   1      30.677  24.218  25.310  1.00  0.00     0.003 C 
ATOM      8  C   UNL A   1      31.242  25.114  23.008  1.00  0.00     0.022 C 
ATOM      9  C   UNL A   1      30.667  25.642  25.846  1.00  0.00     0.001 C 
ATOM     10  C   UNL A   1      30.279  26.650  24.764  1.00  0.00     0.019 C 
BRANCH   6  11
ATOM     11  C   UNL A   1      31.541  22.612  23.583  1.00  0.00     0.000 C 
ATOM     12  C   UNL A   1      32.792  21.786  23.840  1.00  0.00     0.004 C 
ENDBRANCH   6  11
BRANCH   5  13
ATOM     13  C   UNL A   1      30.646  27.451  22.349  1.00  0.00     0.075 C 
BRANCH  13  14
ATOM     14  C   UNL A   1      29.567  28.440  22.713  1.00  0.00     0.041 A 
ATOM     15  C   UNL A   1      28.240  28.040  22.863  1.00  0.00     0.024 A 
ATOM     16  N   UNL A   1      29.959  29.725  22.874  1.00  0.00    -0.261 NA
ATOM     17  C   UNL A   1      27.279  29.000  23.166  1.00  0.00     0.003 A 
ATOM     18  C   UNL A   1      29.010  30.631  23.190  1.00  0.00     0.111 A 
ATOM     19  C   UNL A   1      27.669  30.322  23.337  1.00  0.00     0.020 A 
ENDBRANCH  13  14
ENDBRANCH   5  13
ENDBRANCH   3   5
ENDBRANCH   2   3
ENDBRANCH   1   2
BRANCH   1  20
ATOM     20  C   UNL A   1      32.020  30.130  25.408  1.00  0.00     0.275 C 
BRANCH  20  21
ATOM     21  O   UNL A   1      32.334  30.275  26.800  1.00  0.00    -0.458 OA
BRANCH  21  22
ATOM     22  C   UNL A   1      32.947  31.420  27.169  1.00  0.00     0.338 C 
ATOM     23  O   UNL A   1      32.479  32.551  27.114  1.00  0.00    -0.246 OA
BRANCH  22  24
ATOM     24  C   UNL A   1      34.289  31.107  27.714  1.00  0.00     0.060 A 
ATOM     25  C   UNL A   1      34.655  29.791  27.992  1.00  0.00     0.016 A 
ATOM     26  C   UNL A   1      35.168  32.141  28.048  1.00  0.00     0.016 A 
ATOM     27  C   UNL A   1      35.829  29.522  28.691  1.00  0.00     0.010 A 
ATOM     28  C   UNL A   1      36.395  31.852  28.664  1.00  0.00     0.010 A 
ATOM     29  C   UNL A   1      36.727  30.539  29.037  1.00  0.00    -0.014 A 
BRANCH  29  30
ATOM     30  C   UNL A   1      37.959  30.238  29.835  1.00  0.00     0.031 A 
ATOM     31  C   UNL A   1      39.110  29.490  29.204  1.00  0.00     0.074 A 
ATOM     32  C   UNL A   1      38.102  30.658  31.110  1.00  0.00     0.049 A 
ATOM     33  N   UNL A   1      40.124  28.894  29.782  1.00  0.00    -0.248 NA
ATOM     34  C   UNL A   1      39.115  29.384  27.735  1.00  0.00     0.031 C 
ATOM     35  C   UNL A   1      37.141  31.467  31.864  1.00  0.00     0.029 A 
ATOM     36  N   UNL A   1      39.138  30.478  31.998  1.00  0.00    -0.354 N 
ATOM     37  C   UNL A   1      40.826  28.262  28.761  1.00  0.00     0.074 A 
ATOM     38  C   UNL A   1      40.143  28.573  27.524  1.00  0.00     0.031 C 
ATOM     39  C   UNL A   1      37.666  31.784  33.056  1.00  0.00     0.029 A 
ATOM     40  C   UNL A   1      38.937  31.088  33.213  1.00  0.00     0.049 A 
ATOM     41  H   UNL A   1      39.947  29.960  31.783  1.00  0.00     0.167 HD
ATOM     42  C   UNL A   1      41.927  27.478  28.851  1.00  0.00     0.031 A 
ATOM     43  C   UNL A   1      39.652  31.050  34.354  1.00  0.00     0.031 A 
ATOM     44  C   UNL A   1      42.661  27.235  30.066  1.00  0.00     0.049 A 
ATOM     45  C   UNL A   1      40.858  30.161  34.441  1.00  0.00     0.074 A 
ATOM     46  C   UNL A   1      43.774  26.434  30.257  1.00  0.00     0.029 A 
ATOM     47  N   UNL A   1      42.380  27.827  31.286  1.00  0.00    -0.354 N 
ATOM     48  N   UNL A   1      41.414  29.431  33.508  1.00  0.00    -0.248 NA
ATOM     49  C   UNL A   1      41.505  30.055  35.758  1.00  0.00     0.031 C 
ATOM     50  C   UNL A   1      44.154  26.523  31.601  1.00  0.00     0.029 A 
ATOM     51  C   UNL A   1      43.299  27.410  32.234  1.00  0.00     0.049 A 
ATOM     52  H   UNL A   1      41.638  28.451  31.453  1.00  0.00     0.167 HD
ATOM     53  C   UNL A   1      42.463  28.764  34.126  1.00  0.00     0.074 A 
ATOM     54  C   UNL A   1      42.492  29.207  35.504  1.00  0.00     0.031 C 
ATOM     55  C   UNL A   1      43.311  27.848  33.603  1.00  0.00     0.031 A 
BRANCH  42  56
ATOM     56  C   UNL A   1      42.382  26.768  27.609  1.00  0.00    -0.014 A 
ATOM     57  C   UNL A   1      41.910  25.493  27.269  1.00  0.00     0.009 A 
ATOM     58  C   UNL A   1      43.260  27.427  26.732  1.00  0.00     0.009 A 
ATOM     59  C   UNL A   1      42.323  24.885  26.079  1.00  0.00     0.001 A 
ATOM     60  C   UNL A   1      43.652  26.828  25.534  1.00  0.00     0.001 A 
ATOM     61  C   UNL A   1      43.188  25.554  25.212  1.00  0.00     0.000 A 
ENDBRANCH  42  56
BRANCH  43  62
ATOM     62  C   UNL A   1      39.185  31.802  35.549  1.00  0.00    -0.014 A 
ATOM     63  C   UNL A   1      39.688  33.080  35.828  1.00  0.00     0.009 A 
ATOM     64  C   UNL A   1      38.232  31.243  36.416  1.00  0.00     0.009 A 
ATOM     65  C   UNL A   1      39.251  33.782  36.955  1.00  0.00     0.001 A 
ATOM     66  C   UNL A   1      37.773  31.958  37.523  1.00  0.00     0.001 A 
ATOM     67  C   UNL A   1      38.288  33.224  37.795  1.00  0.00     0.000 A 
ENDBRANCH  43  62
BRANCH  55  68
ATOM     68  C   UNL A   1      44.343  27.271  34.525  1.00  0.00    -0.014 A 
ATOM     69  C   UNL A   1      44.084  26.094  35.244  1.00  0.00     0.009 A 
ATOM     70  C   UNL A   1      45.590  27.897  34.664  1.00  0.00     0.009 A 
ATOM     71  C   UNL A   1      45.046  25.571  36.110  1.00  0.00     0.001 A 
ATOM     72  C   UNL A   1      46.557  27.361  35.514  1.00  0.00     0.001 A 
ATOM     73  C   UNL A   1      46.282  26.205  36.242  1.00  0.00     0.000 A 
ENDBRANCH  55  68
ENDBRANCH  29  30
ENDBRANCH  22  24
ENDBRANCH  21  22
ENDBRANCH  20  21
ENDBRANCH   1  20
TORSDOF 14
ENDMDL
