MODEL 1
REMARK VINA RESULT:     -12.2      0.000      0.000
REMARK SMILES Cc1c(C[NH2+]Cc2cccc(F)c2)c(C(=O)OCCOC(=O)c2ccc(-c3c4nc(c(-c5ccccc5)c5ccc([nH]5)c(-c5ccccc5)c5nc(c(-c6ccccc6)c6ccc3[nH]6)C=C5)C=C4)cc2)c(C)n1Cc1c(F)cccc1Cl
REMARK SMILES IDX 18 1 17 2 15 3 16 4 14 5 1 6 2 7 3 8 73 9 71 10 72 11 4 12
REMARK SMILES IDX 5 13 6 16 7 17 8 18 13 19 9 20 11 21 10 22 12 23 74 24 75 25
REMARK SMILES IDX 76 26 81 27 77 28 78 29 80 30 82 31 79 32 19 33 20 34 21 35
REMARK SMILES IDX 22 36 23 37 24 38 70 39 25 40 69 41 26 42 27 43 28 44 63 45
REMARK SMILES IDX 29 46 68 47 62 48 64 49 30 50 67 51 61 52 60 53 31 55 53 56
REMARK SMILES IDX 38 57 52 58 39 59 42 60 51 61 65 62 40 63 41 64 50 66 66 67
REMARK SMILES IDX 43 68 32 69 33 70 37 71 34 72 36 73 35 74 54 75 55 76 59 77
REMARK SMILES IDX 56 78 58 79 57 80 44 81 45 82 49 83 46 84 48 85 47 86
REMARK H PARENT 5 14 5 15 64 54 42 65
REMARK Flexibility Score: inf
ROOT
ATOM      1  C   UNL A   1      32.253  29.455  27.260  1.00  0.00     0.275 C 
ENDROOT
BRANCH   1   2
ATOM      2  O   UNL A   1      32.317  28.615  26.077  1.00  0.00    -0.458 OA
BRANCH   2   3
ATOM      3  C   UNL A   1      33.402  27.789  25.967  1.00  0.00     0.340 C 
ATOM      4  O   UNL A   1      34.390  27.845  26.698  1.00  0.00    -0.246 OA
BRANCH   3   5
ATOM      5  C   UNL A   1      33.279  26.843  24.851  1.00  0.00     0.089 A 
ATOM      6  C   UNL A   1      32.941  25.856  21.262  1.00  0.00     0.065 C 
ATOM      7  C   UNL A   1      33.089  25.993  22.743  1.00  0.00     0.025 A 
ATOM      8  C   UNL A   1      33.337  27.163  23.460  1.00  0.00     0.042 A 
ATOM      9  N   UNL A   1      32.983  24.948  23.657  1.00  0.00    -0.343 N 
ATOM     10  C   UNL A   1      32.914  25.501  24.934  1.00  0.00     0.030 A 
ATOM     11  C   UNL A   1      32.499  24.767  26.162  1.00  0.00     0.065 C 
BRANCH   8  12
ATOM     12  C   UNL A   1      33.530  28.553  22.920  1.00  0.00     0.300 C 
BRANCH  12  13
ATOM     13  N   UNL A   1      32.296  29.282  23.190  1.00  0.00    -0.339 N 
ATOM     14  H   UNL A   1      32.318  30.154  22.662  1.00  0.00     0.346 HD
ATOM     15  H   UNL A   1      32.259  29.429  24.199  1.00  0.00     0.346 HD
BRANCH  13  16
ATOM     16  C   UNL A   1      31.083  28.562  22.829  1.00  0.00     0.297 C 
BRANCH  16  17
ATOM     17  C   UNL A   1      29.776  29.289  23.066  1.00  0.00     0.009 A 
ATOM     18  C   UNL A   1      29.695  30.668  23.319  1.00  0.00     0.010 A 
ATOM     19  C   UNL A   1      28.580  28.559  22.987  1.00  0.00     0.048 A 
ATOM     20  C   UNL A   1      28.465  31.285  23.567  1.00  0.00     0.004 A 
ATOM     21  C   UNL A   1      27.359  29.184  23.218  1.00  0.00     0.123 A 
ATOM     22  C   UNL A   1      27.293  30.537  23.522  1.00  0.00     0.039 A 
ATOM     23  F   UNL A   1      26.229  28.467  23.148  1.00  0.00    -0.207 F 
ENDBRANCH  16  17
ENDBRANCH  13  16
ENDBRANCH  12  13
ENDBRANCH   8  12
BRANCH   9  24
ATOM     24  C   UNL A   1      32.788  23.523  23.321  1.00  0.00     0.162 C 
BRANCH  24  25
ATOM     25  C   UNL A   1      33.825  22.592  23.911  1.00  0.00     0.026 A 
ATOM     26  C   UNL A   1      35.187  22.863  23.714  1.00  0.00     0.129 A 
ATOM     27  C   UNL A   1      33.522  21.480  24.713  1.00  0.00     0.048 A 
ATOM     28  F   UNL A   1      35.564  23.983  23.089  1.00  0.00    -0.207 F 
ATOM     29  C   UNL A   1      36.201  22.045  24.210  1.00  0.00     0.040 A 
ATOM     30  C   UNL A   1      34.539  20.663  25.241  1.00  0.00     0.021 A 
ATOM     31  Cl  UNL A   1      31.907  21.081  25.174  1.00  0.00    -0.084 Cl
ATOM     32  C   UNL A   1      35.879  20.934  24.973  1.00  0.00     0.005 A 
ENDBRANCH  24  25
ENDBRANCH   9  24
ENDBRANCH   3   5
ENDBRANCH   2   3
ENDBRANCH   1   2
BRANCH   1  33
ATOM     33  C   UNL A   1      32.911  30.829  26.977  1.00  0.00     0.275 C 
BRANCH  33  34
ATOM     34  O   UNL A   1      34.382  30.861  27.037  1.00  0.00    -0.458 OA
BRANCH  34  35
ATOM     35  C   UNL A   1      34.933  31.268  28.231  1.00  0.00     0.338 C 
ATOM     36  O   UNL A   1      34.367  31.962  29.043  1.00  0.00    -0.246 OA
BRANCH  35  37
ATOM     37  C   UNL A   1      36.358  30.789  28.474  1.00  0.00     0.060 A 
ATOM     38  C   UNL A   1      37.095  30.271  27.421  1.00  0.00     0.016 A 
ATOM     39  C   UNL A   1      36.878  30.548  29.765  1.00  0.00     0.016 A 
ATOM     40  C   UNL A   1      38.309  29.557  27.663  1.00  0.00     0.010 A 
ATOM     41  C   UNL A   1      38.088  29.768  30.008  1.00  0.00     0.010 A 
ATOM     42  C   UNL A   1      38.840  29.214  28.959  1.00  0.00    -0.014 A 
BRANCH  42  43
ATOM     43  C   UNL A   1      39.839  27.971  29.022  1.00  0.00     0.031 A 
ATOM     44  C   UNL A   1      40.847  28.360  30.045  1.00  0.00     0.074 A 
ATOM     45  C   UNL A   1      40.172  26.761  28.421  1.00  0.00     0.049 A 
ATOM     46  N   UNL A   1      41.535  29.455  29.915  1.00  0.00    -0.248 NA
ATOM     47  C   UNL A   1      40.899  27.742  31.370  1.00  0.00     0.031 C 
ATOM     48  C   UNL A   1      39.545  26.098  27.269  1.00  0.00     0.029 A 
ATOM     49  N   UNL A   1      41.187  25.802  28.734  1.00  0.00    -0.354 N 
ATOM     50  C   UNL A   1      42.331  29.524  31.029  1.00  0.00     0.074 A 
ATOM     51  C   UNL A   1      41.750  28.579  31.969  1.00  0.00     0.031 C 
ATOM     52  C   UNL A   1      40.066  24.853  27.065  1.00  0.00     0.029 A 
ATOM     53  C   UNL A   1      41.139  24.568  28.016  1.00  0.00     0.049 A 
ATOM     54  H   UNL A   1      41.882  25.983  29.408  1.00  0.00     0.167 HD
ATOM     55  C   UNL A   1      43.637  29.860  30.852  1.00  0.00     0.031 A 
ATOM     56  C   UNL A   1      41.918  23.426  28.114  1.00  0.00     0.031 A 
ATOM     57  C   UNL A   1      44.526  28.764  31.120  1.00  0.00     0.049 A 
ATOM     58  C   UNL A   1      43.200  23.779  28.746  1.00  0.00     0.074 A 
ATOM     59  C   UNL A   1      44.629  27.830  32.131  1.00  0.00     0.029 A 
ATOM     60  N   UNL A   1      45.199  28.244  30.035  1.00  0.00    -0.354 N 
ATOM     61  N   UNL A   1      44.151  24.325  28.053  1.00  0.00    -0.248 NA
ATOM     62  C   UNL A   1      43.576  23.371  30.096  1.00  0.00     0.031 C 
ATOM     63  C   UNL A   1      44.933  26.608  31.479  1.00  0.00     0.029 A 
ATOM     64  C   UNL A   1      45.243  26.869  30.148  1.00  0.00     0.049 A 
ATOM     65  H   UNL A   1      45.586  28.768  29.296  1.00  0.00     0.167 HD
ATOM     66  C   UNL A   1      45.010  24.788  29.002  1.00  0.00     0.074 A 
ATOM     67  C   UNL A   1      44.782  23.943  30.157  1.00  0.00     0.031 C 
ATOM     68  C   UNL A   1      45.357  26.097  28.931  1.00  0.00     0.031 A 
BRANCH  55  69
ATOM     69  C   UNL A   1      43.889  30.895  29.789  1.00  0.00    -0.014 A 
ATOM     70  C   UNL A   1      43.868  32.249  30.135  1.00  0.00     0.009 A 
ATOM     71  C   UNL A   1      44.018  30.552  28.427  1.00  0.00     0.009 A 
ATOM     72  C   UNL A   1      43.908  33.231  29.139  1.00  0.00     0.001 A 
ATOM     73  C   UNL A   1      44.025  31.529  27.434  1.00  0.00     0.001 A 
ATOM     74  C   UNL A   1      43.960  32.871  27.791  1.00  0.00     0.000 A 
ENDBRANCH  55  69
BRANCH  56  75
ATOM     75  C   UNL A   1      42.004  21.974  27.619  1.00  0.00    -0.014 A 
ATOM     76  C   UNL A   1      40.826  21.157  27.640  1.00  0.00     0.009 A 
ATOM     77  C   UNL A   1      43.030  21.508  26.793  1.00  0.00     0.009 A 
ATOM     78  C   UNL A   1      40.633  20.041  26.808  1.00  0.00     0.001 A 
ATOM     79  C   UNL A   1      42.854  20.355  25.983  1.00  0.00     0.001 A 
ATOM     80  C   UNL A   1      41.649  19.646  25.961  1.00  0.00     0.000 A 
ENDBRANCH  56  75
BRANCH  68  81
ATOM     81  C   UNL A   1      45.516  26.703  27.535  1.00  0.00    -0.014 A 
ATOM     82  C   UNL A   1      44.474  27.284  26.776  1.00  0.00     0.009 A 
ATOM     83  C   UNL A   1      46.778  26.654  26.929  1.00  0.00     0.009 A 
ATOM     84  C   UNL A   1      44.657  27.709  25.455  1.00  0.00     0.001 A 
ATOM     85  C   UNL A   1      46.981  27.134  25.627  1.00  0.00     0.001 A 
ATOM     86  C   UNL A   1      45.917  27.637  24.882  1.00  0.00     0.000 A 
ENDBRANCH  68  81
ENDBRANCH  42  43
ENDBRANCH  35  37
ENDBRANCH  34  35
ENDBRANCH  33  34
ENDBRANCH   1  33
TORSDOF 17
ENDMDL
MODEL 2
REMARK VINA RESULT:     -12.1      3.382      9.026
REMARK SMILES Cc1c(C[NH2+]Cc2cccc(F)c2)c(C(=O)OCCOC(=O)c2ccc(-c3c4nc(c(-c5ccccc5)c5ccc([nH]5)c(-c5ccccc5)c5nc(c(-c6ccccc6)c6ccc3[nH]6)C=C5)C=C4)cc2)c(C)n1Cc1c(F)cccc1Cl
REMARK SMILES IDX 18 1 17 2 15 3 16 4 14 5 1 6 2 7 3 8 73 9 71 10 72 11 4 12
REMARK SMILES IDX 5 13 6 16 7 17 8 18 13 19 9 20 11 21 10 22 12 23 74 24 75 25
REMARK SMILES IDX 76 26 81 27 77 28 78 29 80 30 82 31 79 32 19 33 20 34 21 35
REMARK SMILES IDX 22 36 23 37 24 38 70 39 25 40 69 41 26 42 27 43 28 44 63 45
REMARK SMILES IDX 29 46 68 47 62 48 64 49 30 50 67 51 61 52 60 53 31 55 53 56
REMARK SMILES IDX 38 57 52 58 39 59 42 60 51 61 65 62 40 63 41 64 50 66 66 67
REMARK SMILES IDX 43 68 32 69 33 70 37 71 34 72 36 73 35 74 54 75 55 76 59 77
REMARK SMILES IDX 56 78 58 79 57 80 44 81 45 82 49 83 46 84 48 85 47 86
REMARK H PARENT 5 14 5 15 64 54 42 65
REMARK Flexibility Score: inf
ROOT
ATOM      1  C   UNL A   1      36.208  21.609  25.043  1.00  0.00     0.275 C 
ENDROOT
BRANCH   1   2
ATOM      2  O   UNL A   1      35.625  22.936  24.951  1.00  0.00    -0.458 OA
BRANCH   2   3
ATOM      3  C   UNL A   1      34.686  23.129  23.975  1.00  0.00     0.340 C 
ATOM      4  O   UNL A   1      34.901  22.988  22.772  1.00  0.00    -0.246 OA
BRANCH   3   5
ATOM      5  C   UNL A   1      33.392  23.562  24.516  1.00  0.00     0.089 A 
ATOM      6  C   UNL A   1      30.292  23.221  26.577  1.00  0.00     0.065 C 
ATOM      7  C   UNL A   1      31.441  23.596  25.696  1.00  0.00     0.025 A 
ATOM      8  C   UNL A   1      32.646  22.910  25.546  1.00  0.00     0.042 A 
ATOM      9  N   UNL A   1      31.475  24.707  24.858  1.00  0.00    -0.343 N 
ATOM     10  C   UNL A   1      32.577  24.574  24.016  1.00  0.00     0.030 A 
ATOM     11  C   UNL A   1      32.813  25.378  22.783  1.00  0.00     0.065 C 
BRANCH   8  12
ATOM     12  C   UNL A   1      33.083  21.651  26.239  1.00  0.00     0.300 C 
BRANCH  12  13
ATOM     13  N   UNL A   1      32.219  20.583  25.750  1.00  0.00    -0.339 N 
ATOM     14  H   UNL A   1      31.275  20.957  25.647  1.00  0.00     0.346 HD
ATOM     15  H   UNL A   1      32.275  19.826  26.432  1.00  0.00     0.346 HD
BRANCH  13  16
ATOM     16  C   UNL A   1      32.626  20.021  24.470  1.00  0.00     0.297 C 
BRANCH  16  17
ATOM     17  C   UNL A   1      32.952  18.543  24.460  1.00  0.00     0.009 A 
ATOM     18  C   UNL A   1      33.741  17.934  23.469  1.00  0.00     0.010 A 
ATOM     19  C   UNL A   1      32.481  17.744  25.513  1.00  0.00     0.048 A 
ATOM     20  C   UNL A   1      33.983  16.557  23.485  1.00  0.00     0.004 A 
ATOM     21  C   UNL A   1      32.741  16.378  25.531  1.00  0.00     0.123 A 
ATOM     22  C   UNL A   1      33.475  15.775  24.518  1.00  0.00     0.039 A 
ATOM     23  F   UNL A   1      32.273  15.632  26.541  1.00  0.00    -0.207 F 
ENDBRANCH  16  17
ENDBRANCH  13  16
ENDBRANCH  12  13
ENDBRANCH   8  12
BRANCH   9  24
ATOM     24  C   UNL A   1      30.428  25.744  24.753  1.00  0.00     0.162 C 
BRANCH  24  25
ATOM     25  C   UNL A   1      30.893  27.143  25.095  1.00  0.00     0.026 A 
ATOM     26  C   UNL A   1      31.454  27.395  26.355  1.00  0.00     0.129 A 
ATOM     27  C   UNL A   1      30.862  28.224  24.199  1.00  0.00     0.048 A 
ATOM     28  F   UNL A   1      31.659  26.389  27.211  1.00  0.00    -0.207 F 
ATOM     29  C   UNL A   1      31.891  28.659  26.749  1.00  0.00     0.040 A 
ATOM     30  C   UNL A   1      31.324  29.498  24.580  1.00  0.00     0.021 A 
ATOM     31  Cl  UNL A   1      30.336  28.061  22.563  1.00  0.00    -0.084 Cl
ATOM     32  C   UNL A   1      31.821  29.721  25.862  1.00  0.00     0.005 A 
ENDBRANCH  24  25
ENDBRANCH   9  24
ENDBRANCH   3   5
ENDBRANCH   2   3
ENDBRANCH   1   2
BRANCH   1  33
ATOM     33  C   UNL A   1      37.749  21.709  25.170  1.00  0.00     0.275 C 
BRANCH  33  34
ATOM     34  O   UNL A   1      38.268  22.966  25.735  1.00  0.00    -0.458 OA
BRANCH  34  35
ATOM     35  C   UNL A   1      39.368  22.855  26.554  1.00  0.00     0.338 C 
ATOM     36  O   UNL A   1      39.941  21.818  26.793  1.00  0.00    -0.246 OA
BRANCH  35  37
ATOM     37  C   UNL A   1      39.832  24.163  27.182  1.00  0.00     0.060 A 
ATOM     38  C   UNL A   1      39.236  24.610  28.351  1.00  0.00     0.016 A 
ATOM     39  C   UNL A   1      40.616  25.112  26.490  1.00  0.00     0.016 A 
ATOM     40  C   UNL A   1      39.438  25.950  28.805  1.00  0.00     0.010 A 
ATOM     41  C   UNL A   1      40.771  26.496  26.930  1.00  0.00     0.010 A 
ATOM     42  C   UNL A   1      40.159  26.979  28.097  1.00  0.00    -0.014 A 
BRANCH  42  43
ATOM     43  C   UNL A   1      39.795  28.490  28.459  1.00  0.00     0.031 A 
ATOM     44  C   UNL A   1      41.109  29.125  28.752  1.00  0.00     0.074 A 
ATOM     45  C   UNL A   1      38.745  29.370  28.702  1.00  0.00     0.049 A 
ATOM     46  N   UNL A   1      41.887  28.642  29.675  1.00  0.00    -0.248 NA
ATOM     47  C   UNL A   1      41.735  30.090  27.848  1.00  0.00     0.031 C 
ATOM     48  C   UNL A   1      37.299  29.107  28.691  1.00  0.00     0.029 A 
ATOM     49  N   UNL A   1      38.738  30.767  29.014  1.00  0.00    -0.354 N 
ATOM     50  C   UNL A   1      43.007  29.431  29.660  1.00  0.00     0.074 A 
ATOM     51  C   UNL A   1      42.950  30.150  28.399  1.00  0.00     0.031 C 
ATOM     52  C   UNL A   1      36.581  30.259  28.840  1.00  0.00     0.029 A 
ATOM     53  C   UNL A   1      37.462  31.409  29.027  1.00  0.00     0.049 A 
ATOM     54  H   UNL A   1      39.569  31.258  29.209  1.00  0.00     0.167 HD
ATOM     55  C   UNL A   1      43.503  29.844  30.858  1.00  0.00     0.031 A 
ATOM     56  C   UNL A   1      37.112  32.735  29.229  1.00  0.00     0.031 A 
ATOM     57  C   UNL A   1      43.341  31.257  31.060  1.00  0.00     0.049 A 
ATOM     58  C   UNL A   1      38.206  33.410  29.947  1.00  0.00     0.074 A 
ATOM     59  C   UNL A   1      43.566  32.374  30.282  1.00  0.00     0.029 A 
ATOM     60  N   UNL A   1      42.454  31.636  32.045  1.00  0.00    -0.354 N 
ATOM     61  N   UNL A   1      38.331  33.285  31.233  1.00  0.00    -0.248 NA
ATOM     62  C   UNL A   1      39.082  34.406  29.337  1.00  0.00     0.031 C 
ATOM     63  C   UNL A   1      42.461  33.228  30.530  1.00  0.00     0.029 A 
ATOM     64  C   UNL A   1      41.737  32.731  31.609  1.00  0.00     0.049 A 
ATOM     65  H   UNL A   1      42.348  31.196  32.919  1.00  0.00     0.167 HD
ATOM     66  C   UNL A   1      39.584  33.755  31.479  1.00  0.00     0.074 A 
ATOM     67  C   UNL A   1      39.859  34.672  30.391  1.00  0.00     0.031 C 
ATOM     68  C   UNL A   1      40.421  32.941  32.169  1.00  0.00     0.031 A 
BRANCH  55  69
ATOM     69  C   UNL A   1      43.416  28.830  31.967  1.00  0.00    -0.014 A 
ATOM     70  C   UNL A   1      44.323  27.766  31.993  1.00  0.00     0.009 A 
ATOM     71  C   UNL A   1      42.369  28.843  32.911  1.00  0.00     0.009 A 
ATOM     72  C   UNL A   1      44.146  26.712  32.896  1.00  0.00     0.001 A 
ATOM     73  C   UNL A   1      42.174  27.777  33.788  1.00  0.00     0.001 A 
ATOM     74  C   UNL A   1      43.059  26.705  33.772  1.00  0.00     0.000 A 
ENDBRANCH  55  69
BRANCH  56  75
ATOM     75  C   UNL A   1      35.916  33.696  29.153  1.00  0.00    -0.014 A 
ATOM     76  C   UNL A   1      35.118  33.725  27.961  1.00  0.00     0.009 A 
ATOM     77  C   UNL A   1      35.311  34.254  30.282  1.00  0.00     0.009 A 
ATOM     78  C   UNL A   1      33.781  34.154  27.926  1.00  0.00     0.001 A 
ATOM     79  C   UNL A   1      33.973  34.728  30.238  1.00  0.00     0.001 A 
ATOM     80  C   UNL A   1      33.198  34.645  29.078  1.00  0.00     0.000 A 
ENDBRANCH  56  75
BRANCH  68  81
ATOM     81  C   UNL A   1      39.804  32.078  33.272  1.00  0.00    -0.014 A 
ATOM     82  C   UNL A   1      39.185  30.822  33.074  1.00  0.00     0.009 A 
ATOM     83  C   UNL A   1      39.811  32.572  34.583  1.00  0.00     0.009 A 
ATOM     84  C   UNL A   1      38.530  30.139  34.105  1.00  0.00     0.001 A 
ATOM     85  C   UNL A   1      39.208  31.862  35.632  1.00  0.00     0.001 A 
ATOM     86  C   UNL A   1      38.546  30.661  35.389  1.00  0.00     0.000 A 
ENDBRANCH  68  81
ENDBRANCH  42  43
ENDBRANCH  35  37
ENDBRANCH  34  35
ENDBRANCH  33  34
ENDBRANCH   1  33
TORSDOF 17
ENDMDL
MODEL 3
REMARK VINA RESULT:     -11.4      5.939     11.236
REMARK SMILES Cc1c(C[NH2+]Cc2cccc(F)c2)c(C(=O)OCCOC(=O)c2ccc(-c3c4nc(c(-c5ccccc5)c5ccc([nH]5)c(-c5ccccc5)c5nc(c(-c6ccccc6)c6ccc3[nH]6)C=C5)C=C4)cc2)c(C)n1Cc1c(F)cccc1Cl
REMARK SMILES IDX 18 1 17 2 15 3 16 4 14 5 1 6 2 7 3 8 73 9 71 10 72 11 4 12
REMARK SMILES IDX 5 13 6 16 7 17 8 18 13 19 9 20 11 21 10 22 12 23 74 24 75 25
REMARK SMILES IDX 76 26 81 27 77 28 78 29 80 30 82 31 79 32 19 33 20 34 21 35
REMARK SMILES IDX 22 36 23 37 24 38 70 39 25 40 69 41 26 42 27 43 28 44 63 45
REMARK SMILES IDX 29 46 68 47 62 48 64 49 30 50 67 51 61 52 60 53 31 55 53 56
REMARK SMILES IDX 38 57 52 58 39 59 42 60 51 61 65 62 40 63 41 64 50 66 66 67
REMARK SMILES IDX 43 68 32 69 33 70 37 71 34 72 36 73 35 74 54 75 55 76 59 77
REMARK SMILES IDX 56 78 58 79 57 80 44 81 45 82 49 83 46 84 48 85 47 86
REMARK H PARENT 5 14 5 15 64 54 42 65
REMARK Flexibility Score: inf
ROOT
ATOM      1  C   UNL A   1      46.734  26.403  25.007  1.00  0.00     0.275 C 
ENDROOT
BRANCH   1   2
ATOM      2  O   UNL A   1      45.666  25.674  25.668  1.00  0.00    -0.458 OA
BRANCH   2   3
ATOM      3  C   UNL A   1      45.917  24.366  25.982  1.00  0.00     0.340 C 
ATOM      4  O   UNL A   1      46.804  23.689  25.463  1.00  0.00    -0.246 OA
BRANCH   3   5
ATOM      5  C   UNL A   1      44.985  23.840  26.987  1.00  0.00     0.089 A 
ATOM      6  C   UNL A   1      43.660  23.324  30.443  1.00  0.00     0.065 C 
ATOM      7  C   UNL A   1      43.978  23.396  28.984  1.00  0.00     0.025 A 
ATOM      8  C   UNL A   1      44.954  24.183  28.374  1.00  0.00     0.042 A 
ATOM      9  N   UNL A   1      43.343  22.656  27.991  1.00  0.00    -0.343 N 
ATOM     10  C   UNL A   1      44.082  22.794  26.817  1.00  0.00     0.030 A 
ATOM     11  C   UNL A   1      43.927  21.941  25.605  1.00  0.00     0.065 C 
BRANCH   8  12
ATOM     12  C   UNL A   1      45.900  25.152  29.026  1.00  0.00     0.300 C 
BRANCH  12  13
ATOM     13  N   UNL A   1      45.451  26.489  28.655  1.00  0.00    -0.339 N 
ATOM     14  H   UNL A   1      45.558  26.593  27.646  1.00  0.00     0.346 HD
ATOM     15  H   UNL A   1      46.022  27.146  29.185  1.00  0.00     0.346 HD
BRANCH  13  16
ATOM     16  C   UNL A   1      44.064  26.772  28.996  1.00  0.00     0.297 C 
BRANCH  16  17
ATOM     17  C   UNL A   1      43.183  27.267  27.870  1.00  0.00     0.009 A 
ATOM     18  C   UNL A   1      42.980  28.629  27.591  1.00  0.00     0.010 A 
ATOM     19  C   UNL A   1      42.571  26.322  27.032  1.00  0.00     0.048 A 
ATOM     20  C   UNL A   1      42.127  29.035  26.560  1.00  0.00     0.004 A 
ATOM     21  C   UNL A   1      41.738  26.734  25.998  1.00  0.00     0.123 A 
ATOM     22  C   UNL A   1      41.498  28.082  25.764  1.00  0.00     0.039 A 
ATOM     23  F   UNL A   1      41.155  25.815  25.216  1.00  0.00    -0.207 F 
ENDBRANCH  16  17
ENDBRANCH  13  16
ENDBRANCH  12  13
ENDBRANCH   8  12
BRANCH   9  24
ATOM     24  C   UNL A   1      42.201  21.741  28.191  1.00  0.00     0.162 C 
BRANCH  24  25
ATOM     25  C   UNL A   1      40.923  22.174  27.506  1.00  0.00     0.026 A 
ATOM     26  C   UNL A   1      40.400  23.450  27.764  1.00  0.00     0.129 A 
ATOM     27  C   UNL A   1      40.233  21.398  26.560  1.00  0.00     0.048 A 
ATOM     28  F   UNL A   1      41.075  24.308  28.536  1.00  0.00    -0.207 F 
ATOM     29  C   UNL A   1      39.220  23.915  27.185  1.00  0.00     0.040 A 
ATOM     30  C   UNL A   1      39.055  21.870  25.951  1.00  0.00     0.021 A 
ATOM     31  Cl  UNL A   1      40.810  19.864  26.019  1.00  0.00    -0.084 Cl
ATOM     32  C   UNL A   1      38.537  23.121  26.279  1.00  0.00     0.005 A 
ENDBRANCH  24  25
ENDBRANCH   9  24
ENDBRANCH   3   5
ENDBRANCH   2   3
ENDBRANCH   1   2
BRANCH   1  33
ATOM     33  C   UNL A   1      47.250  27.543  25.920  1.00  0.00     0.275 C 
BRANCH  33  34
ATOM     34  O   UNL A   1      46.215  28.369  26.564  1.00  0.00    -0.458 OA
BRANCH  34  35
ATOM     35  C   UNL A   1      46.140  29.680  26.150  1.00  0.00     0.338 C 
ATOM     36  O   UNL A   1      46.375  30.056  25.026  1.00  0.00    -0.246 OA
BRANCH  35  37
ATOM     37  C   UNL A   1      45.744  30.672  27.236  1.00  0.00     0.060 A 
ATOM     38  C   UNL A   1      46.313  30.570  28.496  1.00  0.00     0.016 A 
ATOM     39  C   UNL A   1      44.604  31.500  27.141  1.00  0.00     0.016 A 
ATOM     40  C   UNL A   1      45.763  31.287  29.603  1.00  0.00     0.010 A 
ATOM     41  C   UNL A   1      44.013  32.184  28.288  1.00  0.00     0.010 A 
ATOM     42  C   UNL A   1      44.557  32.080  29.578  1.00  0.00    -0.014 A 
BRANCH  42  43
ATOM     43  C   UNL A   1      43.818  32.307  30.974  1.00  0.00     0.031 A 
ATOM     44  C   UNL A   1      43.465  30.936  31.431  1.00  0.00     0.074 A 
ATOM     45  C   UNL A   1      43.301  33.273  31.832  1.00  0.00     0.049 A 
ATOM     46  N   UNL A   1      42.740  30.155  30.687  1.00  0.00    -0.248 NA
ATOM     47  C   UNL A   1      44.147  30.280  32.547  1.00  0.00     0.031 C 
ATOM     48  C   UNL A   1      43.281  34.734  31.672  1.00  0.00     0.029 A 
ATOM     49  N   UNL A   1      42.660  33.156  33.106  1.00  0.00    -0.354 N 
ATOM     50  C   UNL A   1      42.635  28.979  31.381  1.00  0.00     0.074 A 
ATOM     51  C   UNL A   1      43.678  29.039  32.392  1.00  0.00     0.031 C 
ATOM     52  C   UNL A   1      42.811  35.352  32.796  1.00  0.00     0.029 A 
ATOM     53  C   UNL A   1      42.408  34.376  33.806  1.00  0.00     0.049 A 
ATOM     54  H   UNL A   1      42.405  32.282  33.479  1.00  0.00     0.167 HD
ATOM     55  C   UNL A   1      41.407  28.396  31.454  1.00  0.00     0.031 A 
ATOM     56  C   UNL A   1      41.869  34.612  35.060  1.00  0.00     0.031 A 
ATOM     57  C   UNL A   1      40.859  28.437  32.781  1.00  0.00     0.049 A 
ATOM     58  C   UNL A   1      41.081  33.436  35.466  1.00  0.00     0.074 A 
ATOM     59  C   UNL A   1      41.355  28.164  34.039  1.00  0.00     0.029 A 
ATOM     60  N   UNL A   1      39.756  29.245  32.962  1.00  0.00    -0.354 N 
ATOM     61  N   UNL A   1      39.875  33.261  35.020  1.00  0.00    -0.248 NA
ATOM     62  C   UNL A   1      41.486  32.515  36.524  1.00  0.00     0.031 C 
ATOM     63  C   UNL A   1      40.837  29.186  34.874  1.00  0.00     0.029 A 
ATOM     64  C   UNL A   1      39.866  29.894  34.174  1.00  0.00     0.049 A 
ATOM     65  H   UNL A   1      39.009  29.344  32.327  1.00  0.00     0.167 HD
ATOM     66  C   UNL A   1      39.604  31.965  35.334  1.00  0.00     0.074 A 
ATOM     67  C   UNL A   1      40.453  31.670  36.471  1.00  0.00     0.031 C 
ATOM     68  C   UNL A   1      39.187  31.163  34.323  1.00  0.00     0.031 A 
BRANCH  55  69
ATOM     69  C   UNL A   1      40.574  28.509  30.205  1.00  0.00    -0.014 A 
ATOM     70  C   UNL A   1      40.165  29.773  29.769  1.00  0.00     0.009 A 
ATOM     71  C   UNL A   1      40.084  27.374  29.529  1.00  0.00     0.009 A 
ATOM     72  C   UNL A   1      39.237  29.892  28.728  1.00  0.00     0.001 A 
ATOM     73  C   UNL A   1      39.136  27.491  28.514  1.00  0.00     0.001 A 
ATOM     74  C   UNL A   1      38.705  28.753  28.121  1.00  0.00     0.000 A 
ENDBRANCH  55  69
BRANCH  56  75
ATOM     75  C   UNL A   1      41.633  35.732  36.085  1.00  0.00    -0.014 A 
ATOM     76  C   UNL A   1      40.307  35.955  36.583  1.00  0.00     0.009 A 
ATOM     77  C   UNL A   1      42.655  36.287  36.859  1.00  0.00     0.009 A 
ATOM     78  C   UNL A   1      40.027  36.566  37.817  1.00  0.00     0.001 A 
ATOM     79  C   UNL A   1      42.372  36.944  38.086  1.00  0.00     0.001 A 
ATOM     80  C   UNL A   1      41.069  37.050  38.583  1.00  0.00     0.000 A 
ENDBRANCH  56  75
BRANCH  68  81
ATOM     81  C   UNL A   1      38.289  31.792  33.256  1.00  0.00    -0.014 A 
ATOM     82  C   UNL A   1      38.745  32.410  32.069  1.00  0.00     0.009 A 
ATOM     83  C   UNL A   1      36.905  31.798  33.473  1.00  0.00     0.009 A 
ATOM     84  C   UNL A   1      37.880  33.077  31.193  1.00  0.00     0.001 A 
ATOM     85  C   UNL A   1      36.028  32.413  32.567  1.00  0.00     0.001 A 
ATOM     86  C   UNL A   1      36.517  33.074  31.443  1.00  0.00     0.000 A 
ENDBRANCH  68  81
ENDBRANCH  42  43
ENDBRANCH  35  37
ENDBRANCH  34  35
ENDBRANCH  33  34
ENDBRANCH   1  33
TORSDOF 17
ENDMDL
