MODEL 1
REMARK VINA RESULT:     -10.4      0.000      0.000
REMARK SMILES O=C(OCCOC(=O)c1cc(-c2cccc(Cl)c2)oc1C(F)(F)F)c1ccc(-c2c3nc(c(-c4ccccc4)c4ccc([nH]4)c(-c4ccccc4)c4nc(c(-c5ccccc5)c5ccc2[nH]5)C=C4)C=C3)cc1
REMARK SMILES IDX 4 1 3 2 2 3 1 4 25 5 26 6 72 7 27 8 71 9 28 10 29 11 30 12
REMARK SMILES IDX 65 13 31 14 70 15 64 16 66 17 32 18 69 19 63 20 62 21 33 23
REMARK SMILES IDX 55 24 40 25 54 26 41 27 44 28 53 29 67 30 42 31 43 32 52 34
REMARK SMILES IDX 68 35 45 36 34 37 35 38 39 39 36 40 38 41 37 42 56 43 57 44
REMARK SMILES IDX 61 45 58 46 60 47 59 48 46 49 47 50 51 51 48 52 50 53 49 54
REMARK SMILES IDX 5 55 6 56 7 57 8 58 9 59 10 60 20 61 11 62 19 63 21 64 22 65
REMARK SMILES IDX 23 66 24 67 12 68 13 69 18 70 14 71 16 72 15 73 17 74
REMARK H PARENT 66 22 44 33
REMARK Flexibility Score: inf
ROOT
ATOM      1  C   UNL A   1      32.947  32.895  27.675  1.00  0.00     0.275 C 
ENDROOT
BRANCH   1   2
ATOM      2  O   UNL A   1      34.117  32.127  28.024  1.00  0.00    -0.458 OA
BRANCH   2   3
ATOM      3  C   UNL A   1      34.430  30.840  27.743  1.00  0.00     0.338 C 
ATOM      4  O   UNL A   1      33.606  30.106  27.207  1.00  0.00    -0.246 OA
BRANCH   3   5
ATOM      5  C   UNL A   1      35.713  30.230  28.184  1.00  0.00     0.060 A 
ATOM      6  C   UNL A   1      35.936  29.720  29.463  1.00  0.00     0.016 A 
ATOM      7  C   UNL A   1      36.787  30.273  27.279  1.00  0.00     0.016 A 
ATOM      8  C   UNL A   1      37.174  29.164  29.799  1.00  0.00     0.010 A 
ATOM      9  C   UNL A   1      38.031  29.728  27.613  1.00  0.00     0.010 A 
ATOM     10  C   UNL A   1      38.228  29.163  28.879  1.00  0.00    -0.014 A 
BRANCH  10  11
ATOM     11  C   UNL A   1      39.566  28.693  29.306  1.00  0.00     0.031 A 
ATOM     12  C   UNL A   1      40.377  29.553  30.230  1.00  0.00     0.074 A 
ATOM     13  C   UNL A   1      40.021  27.483  28.930  1.00  0.00     0.049 A 
ATOM     14  N   UNL A   1      41.518  29.284  30.809  1.00  0.00    -0.248 NA
ATOM     15  C   UNL A   1      39.814  30.866  30.582  1.00  0.00     0.031 C 
ATOM     16  C   UNL A   1      39.289  26.525  28.106  1.00  0.00     0.029 A 
ATOM     17  N   UNL A   1      41.212  26.853  29.188  1.00  0.00    -0.354 N 
ATOM     18  C   UNL A   1      41.781  30.368  31.635  1.00  0.00     0.074 A 
ATOM     19  C   UNL A   1      40.719  31.328  31.434  1.00  0.00     0.031 C 
ATOM     20  C   UNL A   1      40.064  25.451  27.877  1.00  0.00     0.029 A 
ATOM     21  C   UNL A   1      41.341  25.639  28.556  1.00  0.00     0.049 A 
ATOM     22  H   UNL A   1      41.907  27.234  29.771  1.00  0.00     0.167 HD
ATOM     23  C   UNL A   1      42.798  30.529  32.514  1.00  0.00     0.031 A 
ATOM     24  C   UNL A   1      42.381  24.782  28.526  1.00  0.00     0.031 A 
ATOM     25  C   UNL A   1      43.873  29.591  32.681  1.00  0.00     0.049 A 
ATOM     26  C   UNL A   1      43.603  25.103  29.339  1.00  0.00     0.074 A 
ATOM     27  C   UNL A   1      44.935  29.642  33.566  1.00  0.00     0.029 A 
ATOM     28  N   UNL A   1      44.036  28.444  31.921  1.00  0.00    -0.354 N 
ATOM     29  N   UNL A   1      43.798  26.089  30.180  1.00  0.00    -0.248 NA
ATOM     30  C   UNL A   1      44.742  24.182  29.214  1.00  0.00     0.031 C 
ATOM     31  C   UNL A   1      45.772  28.552  33.302  1.00  0.00     0.029 A 
ATOM     32  C   UNL A   1      45.205  27.801  32.284  1.00  0.00     0.049 A 
ATOM     33  H   UNL A   1      43.412  28.133  31.226  1.00  0.00     0.167 HD
ATOM     34  C   UNL A   1      45.056  25.878  30.725  1.00  0.00     0.074 A 
ATOM     35  C   UNL A   1      45.583  24.677  30.110  1.00  0.00     0.031 C 
ATOM     36  C   UNL A   1      45.707  26.602  31.667  1.00  0.00     0.031 A 
BRANCH  23  37
ATOM     37  C   UNL A   1      42.783  31.768  33.357  1.00  0.00    -0.014 A 
ATOM     38  C   UNL A   1      43.417  32.941  32.916  1.00  0.00     0.009 A 
ATOM     39  C   UNL A   1      42.117  31.774  34.590  1.00  0.00     0.009 A 
ATOM     40  C   UNL A   1      43.405  34.091  33.709  1.00  0.00     0.001 A 
ATOM     41  C   UNL A   1      42.090  32.930  35.372  1.00  0.00     0.001 A 
ATOM     42  C   UNL A   1      42.739  34.085  34.933  1.00  0.00     0.000 A 
ENDBRANCH  23  37
BRANCH  24  43
ATOM     43  C   UNL A   1      42.348  23.566  27.671  1.00  0.00    -0.014 A 
ATOM     44  C   UNL A   1      41.967  22.315  28.175  1.00  0.00     0.009 A 
ATOM     45  C   UNL A   1      42.786  23.648  26.343  1.00  0.00     0.009 A 
ATOM     46  C   UNL A   1      42.058  21.173  27.371  1.00  0.00     0.001 A 
ATOM     47  C   UNL A   1      42.853  22.514  25.532  1.00  0.00     0.001 A 
ATOM     48  C   UNL A   1      42.500  21.272  26.052  1.00  0.00     0.000 A 
ENDBRANCH  24  43
BRANCH  36  49
ATOM     49  C   UNL A   1      47.032  26.075  32.132  1.00  0.00    -0.014 A 
ATOM     50  C   UNL A   1      48.223  26.412  31.472  1.00  0.00     0.009 A 
ATOM     51  C   UNL A   1      47.084  25.248  33.264  1.00  0.00     0.009 A 
ATOM     52  C   UNL A   1      49.442  25.906  31.926  1.00  0.00     0.001 A 
ATOM     53  C   UNL A   1      48.307  24.767  33.731  1.00  0.00     0.001 A 
ATOM     54  C   UNL A   1      49.484  25.090  33.056  1.00  0.00     0.000 A 
ENDBRANCH  36  49
ENDBRANCH  10  11
ENDBRANCH   3   5
ENDBRANCH   2   3
ENDBRANCH   1   2
BRANCH   1  55
ATOM     55  C   UNL A   1      33.003  34.362  28.097  1.00  0.00     0.275 C 
BRANCH  55  56
ATOM     56  O   UNL A   1      32.589  34.576  29.454  1.00  0.00    -0.458 OA
BRANCH  56  57
ATOM     57  C   UNL A   1      33.239  35.587  30.103  1.00  0.00     0.342 C 
ATOM     58  O   UNL A   1      33.051  36.776  29.907  1.00  0.00    -0.246 OA
BRANCH  57  59
ATOM     59  C   UNL A   1      34.158  35.100  31.111  1.00  0.00     0.111 A 
ATOM     60  C   UNL A   1      35.060  33.998  31.087  1.00  0.00     0.067 A 
ATOM     61  C   UNL A   1      34.305  35.683  32.360  1.00  0.00     0.223 A 
ATOM     62  C   UNL A   1      35.643  33.936  32.335  1.00  0.00     0.135 A 
ATOM     63  O   UNL A   1      35.180  34.954  33.112  1.00  0.00    -0.451 OA
BRANCH  61  64
ATOM     64  C   UNL A   1      33.675  36.866  33.001  1.00  0.00     0.450 C 
ATOM     65  F   UNL A   1      33.962  36.945  34.327  1.00  0.00    -0.163 F 
ATOM     66  F   UNL A   1      34.091  38.028  32.440  1.00  0.00    -0.163 F 
ATOM     67  F   UNL A   1      32.323  36.826  32.907  1.00  0.00    -0.163 F 
ENDBRANCH  61  64
BRANCH  62  68
ATOM     68  C   UNL A   1      36.633  33.095  32.977  1.00  0.00     0.019 A 
ATOM     69  C   UNL A   1      37.532  33.642  33.900  1.00  0.00     0.012 A 
ATOM     70  C   UNL A   1      36.651  31.715  32.736  1.00  0.00     0.032 A 
ATOM     71  C   UNL A   1      38.407  32.815  34.607  1.00  0.00     0.002 A 
ATOM     72  C   UNL A   1      37.546  30.898  33.421  1.00  0.00     0.041 A 
ATOM     73  C   UNL A   1      38.411  31.439  34.370  1.00  0.00     0.020 A 
ATOM     74  Cl  UNL A   1      37.577  29.207  33.106  1.00  0.00    -0.084 Cl
ENDBRANCH  62  68
ENDBRANCH  57  59
ENDBRANCH  56  57
ENDBRANCH  55  56
ENDBRANCH   1  55
TORSDOF 13
ENDMDL
MODEL 2
REMARK VINA RESULT:     -10.4      5.411     10.725
REMARK SMILES O=C(OCCOC(=O)c1cc(-c2cccc(Cl)c2)oc1C(F)(F)F)c1ccc(-c2c3nc(c(-c4ccccc4)c4ccc([nH]4)c(-c4ccccc4)c4nc(c(-c5ccccc5)c5ccc2[nH]5)C=C4)C=C3)cc1
REMARK SMILES IDX 4 1 3 2 2 3 1 4 25 5 26 6 72 7 27 8 71 9 28 10 29 11 30 12
REMARK SMILES IDX 65 13 31 14 70 15 64 16 66 17 32 18 69 19 63 20 62 21 33 23
REMARK SMILES IDX 55 24 40 25 54 26 41 27 44 28 53 29 67 30 42 31 43 32 52 34
REMARK SMILES IDX 68 35 45 36 34 37 35 38 39 39 36 40 38 41 37 42 56 43 57 44
REMARK SMILES IDX 61 45 58 46 60 47 59 48 46 49 47 50 51 51 48 52 50 53 49 54
REMARK SMILES IDX 5 55 6 56 7 57 8 58 9 59 10 60 20 61 11 62 19 63 21 64 22 65
REMARK SMILES IDX 23 66 24 67 12 68 13 69 18 70 14 71 16 72 15 73 17 74
REMARK H PARENT 66 22 44 33
REMARK Flexibility Score: inf
ROOT
ATOM      1  C   UNL A   1      43.928  21.495  25.253  1.00  0.00     0.275 C 
ENDROOT
BRANCH   1   2
ATOM      2  O   UNL A   1      43.790  22.827  24.717  1.00  0.00    -0.458 OA
BRANCH   2   3
ATOM      3  C   UNL A   1      44.370  23.987  25.107  1.00  0.00     0.338 C 
ATOM      4  O   UNL A   1      45.405  24.372  24.572  1.00  0.00    -0.246 OA
BRANCH   3   5
ATOM      5  C   UNL A   1      43.865  24.764  26.270  1.00  0.00     0.060 A 
ATOM      6  C   UNL A   1      43.356  24.187  27.433  1.00  0.00     0.016 A 
ATOM      7  C   UNL A   1      43.808  26.161  26.130  1.00  0.00     0.016 A 
ATOM      8  C   UNL A   1      42.898  24.990  28.482  1.00  0.00     0.010 A 
ATOM      9  C   UNL A   1      43.341  26.969  27.172  1.00  0.00     0.010 A 
ATOM     10  C   UNL A   1      42.888  26.385  28.361  1.00  0.00    -0.014 A 
BRANCH  10  11
ATOM     11  C   UNL A   1      42.272  27.203  29.430  1.00  0.00     0.031 A 
ATOM     12  C   UNL A   1      42.910  27.226  30.787  1.00  0.00     0.074 A 
ATOM     13  C   UNL A   1      41.197  27.972  29.172  1.00  0.00     0.049 A 
ATOM     14  N   UNL A   1      42.599  27.955  31.827  1.00  0.00    -0.248 NA
ATOM     15  C   UNL A   1      44.073  26.347  30.990  1.00  0.00     0.031 C 
ATOM     16  C   UNL A   1      40.543  28.099  27.872  1.00  0.00     0.029 A 
ATOM     17  N   UNL A   1      40.462  28.789  29.992  1.00  0.00    -0.354 N 
ATOM     18  C   UNL A   1      43.560  27.664  32.786  1.00  0.00     0.074 A 
ATOM     19  C   UNL A   1      44.423  26.645  32.233  1.00  0.00     0.031 C 
ATOM     20  C   UNL A   1      39.469  28.900  27.991  1.00  0.00     0.029 A 
ATOM     21  C   UNL A   1      39.373  29.356  29.373  1.00  0.00     0.049 A 
ATOM     22  H   UNL A   1      40.692  28.955  30.935  1.00  0.00     0.167 HD
ATOM     23  C   UNL A   1      43.729  28.228  34.004  1.00  0.00     0.031 A 
ATOM     24  C   UNL A   1      38.405  30.150  29.873  1.00  0.00     0.031 A 
ATOM     25  C   UNL A   1      42.845  29.211  34.566  1.00  0.00     0.049 A 
ATOM     26  C   UNL A   1      38.496  30.579  31.310  1.00  0.00     0.074 A 
ATOM     27  C   UNL A   1      42.943  29.870  35.778  1.00  0.00     0.029 A 
ATOM     28  N   UNL A   1      41.678  29.652  33.961  1.00  0.00    -0.354 N 
ATOM     29  N   UNL A   1      39.457  30.363  32.175  1.00  0.00    -0.248 NA
ATOM     30  C   UNL A   1      37.378  31.376  31.834  1.00  0.00     0.031 C 
ATOM     31  C   UNL A   1      41.804  30.670  35.930  1.00  0.00     0.029 A 
ATOM     32  C   UNL A   1      41.023  30.541  34.793  1.00  0.00     0.049 A 
ATOM     33  H   UNL A   1      41.364  29.374  33.071  1.00  0.00     0.167 HD
ATOM     34  C   UNL A   1      39.087  31.043  33.326  1.00  0.00     0.074 A 
ATOM     35  C   UNL A   1      37.809  31.668  33.053  1.00  0.00     0.031 C 
ATOM     36  C   UNL A   1      39.758  31.158  34.498  1.00  0.00     0.031 A 
BRANCH  23  37
ATOM     37  C   UNL A   1      44.919  27.789  34.802  1.00  0.00    -0.014 A 
ATOM     38  C   UNL A   1      46.149  28.457  34.680  1.00  0.00     0.009 A 
ATOM     39  C   UNL A   1      44.811  26.715  35.696  1.00  0.00     0.009 A 
ATOM     40  C   UNL A   1      47.255  28.039  35.422  1.00  0.00     0.001 A 
ATOM     41  C   UNL A   1      45.914  26.311  36.450  1.00  0.00     0.001 A 
ATOM     42  C   UNL A   1      47.137  26.970  36.308  1.00  0.00     0.000 A 
ENDBRANCH  23  37
BRANCH  24  43
ATOM     43  C   UNL A   1      37.242  30.557  29.041  1.00  0.00    -0.014 A 
ATOM     44  C   UNL A   1      37.050  31.884  28.632  1.00  0.00     0.009 A 
ATOM     45  C   UNL A   1      36.261  29.610  28.721  1.00  0.00     0.009 A 
ATOM     46  C   UNL A   1      35.886  32.250  27.948  1.00  0.00     0.001 A 
ATOM     47  C   UNL A   1      35.111  29.969  28.017  1.00  0.00     0.001 A 
ATOM     48  C   UNL A   1      34.918  31.294  27.641  1.00  0.00     0.000 A 
ENDBRANCH  24  43
BRANCH  36  49
ATOM     49  C   UNL A   1      39.148  32.044  35.544  1.00  0.00    -0.014 A 
ATOM     50  C   UNL A   1      39.388  33.426  35.560  1.00  0.00     0.009 A 
ATOM     51  C   UNL A   1      38.298  31.483  36.510  1.00  0.00     0.009 A 
ATOM     52  C   UNL A   1      38.808  34.225  36.545  1.00  0.00     0.001 A 
ATOM     53  C   UNL A   1      37.698  32.290  37.477  1.00  0.00     0.001 A 
ATOM     54  C   UNL A   1      37.961  33.660  37.498  1.00  0.00     0.000 A 
ENDBRANCH  36  49
ENDBRANCH  10  11
ENDBRANCH   3   5
ENDBRANCH   2   3
ENDBRANCH   1   2
BRANCH   1  55
ATOM     55  C   UNL A   1      42.659  20.935  25.893  1.00  0.00     0.275 C 
BRANCH  55  56
ATOM     56  O   UNL A   1      41.509  21.770  25.692  1.00  0.00    -0.458 OA
BRANCH  56  57
ATOM     57  C   UNL A   1      40.561  21.691  26.672  1.00  0.00     0.342 C 
ATOM     58  O   UNL A   1      40.769  21.319  27.816  1.00  0.00    -0.246 OA
BRANCH  57  59
ATOM     59  C   UNL A   1      39.263  22.154  26.229  1.00  0.00     0.111 A 
ATOM     60  C   UNL A   1      38.205  21.459  25.576  1.00  0.00     0.067 A 
ATOM     61  C   UNL A   1      38.819  23.458  26.385  1.00  0.00     0.223 A 
ATOM     62  C   UNL A   1      37.222  22.390  25.314  1.00  0.00     0.135 A 
ATOM     63  O   UNL A   1      37.596  23.606  25.797  1.00  0.00    -0.451 OA
BRANCH  61  64
ATOM     64  C   UNL A   1      39.431  24.664  27.001  1.00  0.00     0.450 C 
ATOM     65  F   UNL A   1      39.972  24.400  28.220  1.00  0.00    -0.163 F 
ATOM     66  F   UNL A   1      40.424  25.177  26.234  1.00  0.00    -0.163 F 
ATOM     67  F   UNL A   1      38.515  25.645  27.196  1.00  0.00    -0.163 F 
ENDBRANCH  61  64
BRANCH  62  68
ATOM     68  C   UNL A   1      35.909  22.367  24.702  1.00  0.00     0.019 A 
ATOM     69  C   UNL A   1      35.569  23.310  23.725  1.00  0.00     0.012 A 
ATOM     70  C   UNL A   1      34.994  21.358  25.031  1.00  0.00     0.032 A 
ATOM     71  C   UNL A   1      34.349  23.218  23.051  1.00  0.00     0.002 A 
ATOM     72  C   UNL A   1      33.766  21.288  24.378  1.00  0.00     0.041 A 
ATOM     73  C   UNL A   1      33.448  22.202  23.375  1.00  0.00     0.020 A 
ATOM     74  Cl  UNL A   1      32.640  20.058  24.798  1.00  0.00    -0.084 Cl
ENDBRANCH  62  68
ENDBRANCH  57  59
ENDBRANCH  56  57
ENDBRANCH  55  56
ENDBRANCH   1  55
TORSDOF 13
ENDMDL
MODEL 3
REMARK VINA RESULT:     -10.3      5.423     11.023
REMARK SMILES O=C(OCCOC(=O)c1cc(-c2cccc(Cl)c2)oc1C(F)(F)F)c1ccc(-c2c3nc(c(-c4ccccc4)c4ccc([nH]4)c(-c4ccccc4)c4nc(c(-c5ccccc5)c5ccc2[nH]5)C=C4)C=C3)cc1
REMARK SMILES IDX 4 1 3 2 2 3 1 4 25 5 26 6 72 7 27 8 71 9 28 10 29 11 30 12
REMARK SMILES IDX 65 13 31 14 70 15 64 16 66 17 32 18 69 19 63 20 62 21 33 23
REMARK SMILES IDX 55 24 40 25 54 26 41 27 44 28 53 29 67 30 42 31 43 32 52 34
REMARK SMILES IDX 68 35 45 36 34 37 35 38 39 39 36 40 38 41 37 42 56 43 57 44
REMARK SMILES IDX 61 45 58 46 60 47 59 48 46 49 47 50 51 51 48 52 50 53 49 54
REMARK SMILES IDX 5 55 6 56 7 57 8 58 9 59 10 60 20 61 11 62 19 63 21 64 22 65
REMARK SMILES IDX 23 66 24 67 12 68 13 69 18 70 14 71 16 72 15 73 17 74
REMARK H PARENT 66 22 44 33
REMARK Flexibility Score: inf
ROOT
ATOM      1  C   UNL A   1      43.758  21.681  25.274  1.00  0.00     0.275 C 
ENDROOT
BRANCH   1   2
ATOM      2  O   UNL A   1      43.566  23.004  24.732  1.00  0.00    -0.458 OA
BRANCH   2   3
ATOM      3  C   UNL A   1      44.140  24.180  25.080  1.00  0.00     0.338 C 
ATOM      4  O   UNL A   1      45.237  24.491  24.627  1.00  0.00    -0.246 OA
BRANCH   3   5
ATOM      5  C   UNL A   1      43.543  25.069  26.112  1.00  0.00     0.060 A 
ATOM      6  C   UNL A   1      43.472  26.457  26.000  1.00  0.00     0.016 A 
ATOM      7  C   UNL A   1      43.122  24.467  27.310  1.00  0.00     0.016 A 
ATOM      8  C   UNL A   1      42.895  27.223  27.018  1.00  0.00     0.010 A 
ATOM      9  C   UNL A   1      42.555  25.229  28.336  1.00  0.00     0.010 A 
ATOM     10  C   UNL A   1      42.432  26.616  28.191  1.00  0.00    -0.014 A 
BRANCH  10  11
ATOM     11  C   UNL A   1      41.952  27.463  29.307  1.00  0.00     0.031 A 
ATOM     12  C   UNL A   1      40.694  28.260  29.126  1.00  0.00     0.074 A 
ATOM     13  C   UNL A   1      42.593  27.465  30.491  1.00  0.00     0.049 A 
ATOM     14  N   UNL A   1      40.044  28.976  30.006  1.00  0.00    -0.248 NA
ATOM     15  C   UNL A   1      40.063  28.214  27.797  1.00  0.00     0.031 C 
ATOM     16  C   UNL A   1      43.773  26.666  30.813  1.00  0.00     0.029 A 
ATOM     17  N   UNL A   1      42.344  28.165  31.644  1.00  0.00    -0.354 N 
ATOM     18  C   UNL A   1      38.901  29.418  29.355  1.00  0.00     0.074 A 
ATOM     19  C   UNL A   1      38.977  28.950  27.989  1.00  0.00     0.031 C 
ATOM     20  C   UNL A   1      44.182  26.961  32.060  1.00  0.00     0.029 A 
ATOM     21  C   UNL A   1      43.280  27.955  32.629  1.00  0.00     0.049 A 
ATOM     22  H   UNL A   1      41.569  28.761  31.756  1.00  0.00     0.167 HD
ATOM     23  C   UNL A   1      37.862  30.119  29.863  1.00  0.00     0.031 A 
ATOM     24  C   UNL A   1      43.394  28.511  33.852  1.00  0.00     0.031 A 
ATOM     25  C   UNL A   1      37.808  30.618  31.209  1.00  0.00     0.049 A 
ATOM     26  C   UNL A   1      42.335  29.475  34.307  1.00  0.00     0.074 A 
ATOM     27  C   UNL A   1      36.789  31.312  31.835  1.00  0.00     0.029 A 
ATOM     28  N   UNL A   1      38.839  30.501  32.128  1.00  0.00    -0.354 N 
ATOM     29  N   UNL A   1      41.218  29.814  33.710  1.00  0.00    -0.248 NA
ATOM     30  C   UNL A   1      42.542  30.119  35.611  1.00  0.00     0.031 C 
ATOM     31  C   UNL A   1      37.226  31.663  33.117  1.00  0.00     0.029 A 
ATOM     32  C   UNL A   1      38.500  31.148  33.302  1.00  0.00     0.049 A 
ATOM     33  H   UNL A   1      39.687  30.027  31.969  1.00  0.00     0.167 HD
ATOM     34  C   UNL A   1      40.564  30.665  34.588  1.00  0.00     0.074 A 
ATOM     35  C   UNL A   1      41.414  30.800  35.753  1.00  0.00     0.031 C 
ATOM     36  C   UNL A   1      39.356  31.263  34.452  1.00  0.00     0.031 A 
BRANCH  23  37
ATOM     37  C   UNL A   1      36.701  30.380  28.951  1.00  0.00    -0.014 A 
ATOM     38  C   UNL A   1      35.868  29.329  28.534  1.00  0.00     0.009 A 
ATOM     39  C   UNL A   1      36.422  31.684  28.520  1.00  0.00     0.009 A 
ATOM     40  C   UNL A   1      34.792  29.578  27.680  1.00  0.00     0.001 A 
ATOM     41  C   UNL A   1      35.335  31.933  27.681  1.00  0.00     0.001 A 
ATOM     42  C   UNL A   1      34.525  30.879  27.257  1.00  0.00     0.000 A 
ENDBRANCH  23  37
BRANCH  24  43
ATOM     43  C   UNL A   1      44.567  28.222  34.719  1.00  0.00    -0.014 A 
ATOM     44  C   UNL A   1      45.767  28.937  34.607  1.00  0.00     0.009 A 
ATOM     45  C   UNL A   1      44.506  27.152  35.622  1.00  0.00     0.009 A 
ATOM     46  C   UNL A   1      46.885  28.562  35.360  1.00  0.00     0.001 A 
ATOM     47  C   UNL A   1      45.613  26.793  36.392  1.00  0.00     0.001 A 
ATOM     48  C   UNL A   1      46.808  27.491  36.251  1.00  0.00     0.000 A 
ENDBRANCH  24  43
BRANCH  36  49
ATOM     49  C   UNL A   1      38.860  32.064  35.620  1.00  0.00    -0.014 A 
ATOM     50  C   UNL A   1      39.053  33.452  35.686  1.00  0.00     0.009 A 
ATOM     51  C   UNL A   1      38.167  31.416  36.654  1.00  0.00     0.009 A 
ATOM     52  C   UNL A   1      38.582  34.172  36.784  1.00  0.00     0.001 A 
ATOM     53  C   UNL A   1      37.674  32.144  37.737  1.00  0.00     0.001 A 
ATOM     54  C   UNL A   1      37.890  33.520  37.805  1.00  0.00     0.000 A 
ENDBRANCH  36  49
ENDBRANCH  10  11
ENDBRANCH   3   5
ENDBRANCH   2   3
ENDBRANCH   1   2
BRANCH   1  55
ATOM     55  C   UNL A   1      42.491  21.036  25.833  1.00  0.00     0.275 C 
BRANCH  55  56
ATOM     56  O   UNL A   1      41.322  21.852  25.668  1.00  0.00    -0.458 OA
BRANCH  56  57
ATOM     57  C   UNL A   1      40.330  21.627  26.580  1.00  0.00     0.342 C 
ATOM     58  O   UNL A   1      40.494  21.125  27.680  1.00  0.00    -0.246 OA
BRANCH  57  59
ATOM     59  C   UNL A   1      39.040  22.105  26.128  1.00  0.00     0.111 A 
ATOM     60  C   UNL A   1      37.984  21.425  25.455  1.00  0.00     0.067 A 
ATOM     61  C   UNL A   1      38.605  23.410  26.293  1.00  0.00     0.223 A 
ATOM     62  C   UNL A   1      37.012  22.366  25.192  1.00  0.00     0.135 A 
ATOM     63  O   UNL A   1      37.389  23.573  25.693  1.00  0.00    -0.451 OA
BRANCH  61  64
ATOM     64  C   UNL A   1      39.217  24.605  26.929  1.00  0.00     0.450 C 
ATOM     65  F   UNL A   1      39.815  24.307  28.113  1.00  0.00    -0.163 F 
ATOM     66  F   UNL A   1      40.167  25.167  26.141  1.00  0.00    -0.163 F 
ATOM     67  F   UNL A   1      38.292  25.558  27.200  1.00  0.00    -0.163 F 
ENDBRANCH  61  64
BRANCH  62  68
ATOM     68  C   UNL A   1      35.705  22.360  24.566  1.00  0.00     0.019 A 
ATOM     69  C   UNL A   1      35.390  23.302  23.580  1.00  0.00     0.012 A 
ATOM     70  C   UNL A   1      34.772  21.365  24.888  1.00  0.00     0.032 A 
ATOM     71  C   UNL A   1      34.177  23.225  22.893  1.00  0.00     0.002 A 
ATOM     72  C   UNL A   1      33.551  21.311  24.221  1.00  0.00     0.041 A 
ATOM     73  C   UNL A   1      33.257  22.224  23.211  1.00  0.00     0.020 A 
ATOM     74  Cl  UNL A   1      32.402  20.099  24.635  1.00  0.00    -0.084 Cl
ENDBRANCH  62  68
ENDBRANCH  57  59
ENDBRANCH  56  57
ENDBRANCH  55  56
ENDBRANCH   1  55
TORSDOF 13
ENDMDL
