MODEL 1
REMARK VINA RESULT:     -10.2      0.000      0.000
REMARK SMILES Cc1ncccc1Oc1ccc(C(=O)OCCOC(=O)c2ccc(-c3c4nc(c(-c5ccccc5)c5ccc([nH]5)c(-c5ccccc5)c5nc(c(-c6ccccc6)c6ccc3[nH]6)C=C5)C=C4)cc2)cc1Cl
REMARK SMILES IDX 16 1 15 2 13 3 14 4 12 5 9 6 10 7 70 8 11 9 69 10 71 11 8 12
REMARK SMILES IDX 7 13 1 14 2 15 3 16 4 17 6 18 5 19 17 20 18 21 19 22 20 23
REMARK SMILES IDX 21 24 22 25 68 26 23 27 67 28 24 29 25 30 26 31 61 32 27 33
REMARK SMILES IDX 66 34 60 35 62 36 28 37 65 38 59 39 58 40 29 42 51 43 36 44
REMARK SMILES IDX 50 45 37 46 40 47 49 48 63 49 38 50 39 51 48 53 64 54 41 55
REMARK SMILES IDX 30 56 31 57 35 58 32 59 34 60 33 61 52 62 53 63 57 64 54 65
REMARK SMILES IDX 56 66 55 67 42 68 43 69 47 70 44 71 46 72 45 73
REMARK H PARENT 62 41 40 52
REMARK Flexibility Score: inf
ROOT
ATOM      1  C   UNL A   1      42.237  18.900  26.730  1.00  0.00     0.275 C 
ENDROOT
BRANCH   1   2
ATOM      2  O   UNL A   1      41.414  19.911  26.117  1.00  0.00    -0.458 OA
BRANCH   2   3
ATOM      3  C   UNL A   1      41.510  21.146  26.660  1.00  0.00     0.338 C 
ATOM      4  O   UNL A   1      42.511  21.651  27.146  1.00  0.00    -0.246 OA
BRANCH   3   5
ATOM      5  C   UNL A   1      40.227  21.882  26.561  1.00  0.00     0.061 A 
ATOM      6  C   UNL A   1      37.927  23.337  25.995  1.00  0.00     0.146 A 
ATOM      7  C   UNL A   1      38.039  22.034  25.517  1.00  0.00     0.049 A 
ATOM      8  C   UNL A   1      38.883  23.860  26.875  1.00  0.00     0.084 A 
ATOM      9  C   UNL A   1      39.211  21.329  25.763  1.00  0.00     0.019 A 
ATOM     10  C   UNL A   1      40.039  23.132  27.161  1.00  0.00     0.040 A 
ATOM     11  Cl  UNL A   1      38.713  25.442  27.543  1.00  0.00    -0.080 Cl
BRANCH   6  12
ATOM     12  O   UNL A   1      36.864  24.081  25.571  1.00  0.00    -0.454 OA
BRANCH  12  13
ATOM     13  C   UNL A   1      35.713  23.446  25.148  1.00  0.00     0.148 A 
ATOM     14  C   UNL A   1      34.663  22.566  27.348  1.00  0.00     0.071 C 
ATOM     15  C   UNL A   1      34.723  22.750  25.863  1.00  0.00     0.080 A 
ATOM     16  N   UNL A   1      33.667  22.156  25.234  1.00  0.00    -0.258 NA
ATOM     17  C   UNL A   1      33.574  22.247  23.894  1.00  0.00     0.111 A 
ATOM     18  C   UNL A   1      35.561  23.531  23.757  1.00  0.00     0.050 A 
ATOM     19  C   UNL A   1      34.484  22.927  23.117  1.00  0.00     0.024 A 
ENDBRANCH  12  13
ENDBRANCH   6  12
ENDBRANCH   3   5
ENDBRANCH   2   3
ENDBRANCH   1   2
BRANCH   1  20
ATOM     20  C   UNL A   1      43.290  18.383  25.750  1.00  0.00     0.275 C 
BRANCH  20  21
ATOM     21  O   UNL A   1      43.462  19.293  24.648  1.00  0.00    -0.458 OA
BRANCH  21  22
ATOM     22  C   UNL A   1      44.743  19.574  24.322  1.00  0.00     0.338 C 
ATOM     23  O   UNL A   1      45.577  18.823  23.849  1.00  0.00    -0.246 OA
BRANCH  22  24
ATOM     24  C   UNL A   1      45.013  20.995  24.576  1.00  0.00     0.060 A 
ATOM     25  C   UNL A   1      45.633  21.357  25.770  1.00  0.00     0.016 A 
ATOM     26  C   UNL A   1      44.538  21.973  23.707  1.00  0.00     0.016 A 
ATOM     27  C   UNL A   1      45.716  22.692  26.146  1.00  0.00     0.010 A 
ATOM     28  C   UNL A   1      44.702  23.320  24.044  1.00  0.00     0.010 A 
ATOM     29  C   UNL A   1      45.267  23.694  25.278  1.00  0.00    -0.014 A 
BRANCH  29  30
ATOM     30  C   UNL A   1      45.364  25.130  25.656  1.00  0.00     0.031 A 
ATOM     31  C   UNL A   1      46.682  25.844  25.550  1.00  0.00     0.074 A 
ATOM     32  C   UNL A   1      44.288  25.787  26.129  1.00  0.00     0.049 A 
ATOM     33  N   UNL A   1      47.046  26.992  26.062  1.00  0.00    -0.248 NA
ATOM     34  C   UNL A   1      47.737  25.165  24.781  1.00  0.00     0.031 C 
ATOM     35  C   UNL A   1      42.933  25.242  26.234  1.00  0.00     0.029 A 
ATOM     36  N   UNL A   1      44.173  27.060  26.634  1.00  0.00    -0.354 N 
ATOM     37  C   UNL A   1      48.389  27.138  25.741  1.00  0.00     0.074 A 
ATOM     38  C   UNL A   1      48.773  25.967  24.981  1.00  0.00     0.031 C 
ATOM     39  C   UNL A   1      42.125  26.172  26.764  1.00  0.00     0.029 A 
ATOM     40  C   UNL A   1      42.920  27.341  27.119  1.00  0.00     0.049 A 
ATOM     41  H   UNL A   1      44.916  27.706  26.644  1.00  0.00     0.167 HD
ATOM     42  C   UNL A   1      49.229  28.150  26.067  1.00  0.00     0.031 A 
ATOM     43  C   UNL A   1      42.468  28.390  27.832  1.00  0.00     0.031 A 
ATOM     44  C   UNL A   1      48.831  29.329  26.790  1.00  0.00     0.049 A 
ATOM     45  C   UNL A   1      43.418  29.486  28.212  1.00  0.00     0.074 A 
ATOM     46  C   UNL A   1      49.598  30.427  27.140  1.00  0.00     0.029 A 
ATOM     47  N   UNL A   1      47.550  29.567  27.264  1.00  0.00    -0.354 N 
ATOM     48  N   UNL A   1      44.696  29.596  27.944  1.00  0.00    -0.248 NA
ATOM     49  C   UNL A   1      42.868  30.594  29.006  1.00  0.00     0.031 C 
ATOM     50  C   UNL A   1      48.791  31.308  27.866  1.00  0.00     0.029 A 
ATOM     51  C   UNL A   1      47.509  30.784  27.923  1.00  0.00     0.049 A 
ATOM     52  H   UNL A   1      46.783  28.961  27.149  1.00  0.00     0.167 HD
ATOM     53  C   UNL A   1      45.103  30.790  28.524  1.00  0.00     0.074 A 
ATOM     54  C   UNL A   1      43.933  31.373  29.147  1.00  0.00     0.031 C 
ATOM     55  C   UNL A   1      46.337  31.349  28.540  1.00  0.00     0.031 A 
BRANCH  42  56
ATOM     56  C   UNL A   1      50.677  27.991  25.697  1.00  0.00    -0.014 A 
ATOM     57  C   UNL A   1      51.634  27.539  26.618  1.00  0.00     0.009 A 
ATOM     58  C   UNL A   1      51.086  28.293  24.387  1.00  0.00     0.009 A 
ATOM     59  C   UNL A   1      52.977  27.436  26.246  1.00  0.00     0.001 A 
ATOM     60  C   UNL A   1      52.423  28.161  24.011  1.00  0.00     0.001 A 
ATOM     61  C   UNL A   1      53.370  27.744  24.944  1.00  0.00     0.000 A 
ENDBRANCH  42  56
BRANCH  43  62
ATOM     62  C   UNL A   1      41.054  28.402  28.287  1.00  0.00    -0.014 A 
ATOM     63  C   UNL A   1      40.700  27.878  29.538  1.00  0.00     0.009 A 
ATOM     64  C   UNL A   1      40.058  28.991  27.489  1.00  0.00     0.009 A 
ATOM     65  C   UNL A   1      39.376  27.943  29.980  1.00  0.00     0.001 A 
ATOM     66  C   UNL A   1      38.742  29.079  27.946  1.00  0.00     0.001 A 
ATOM     67  C   UNL A   1      38.402  28.551  29.189  1.00  0.00     0.000 A 
ENDBRANCH  43  62
BRANCH  55  68
ATOM     68  C   UNL A   1      46.479  32.677  29.224  1.00  0.00    -0.014 A 
ATOM     69  C   UNL A   1      46.282  33.877  28.528  1.00  0.00     0.009 A 
ATOM     70  C   UNL A   1      46.760  32.721  30.599  1.00  0.00     0.009 A 
ATOM     71  C   UNL A   1      46.382  35.101  29.193  1.00  0.00     0.001 A 
ATOM     72  C   UNL A   1      46.838  33.945  31.265  1.00  0.00     0.001 A 
ATOM     73  C   UNL A   1      46.655  35.133  30.560  1.00  0.00     0.000 A 
ENDBRANCH  55  68
ENDBRANCH  29  30
ENDBRANCH  22  24
ENDBRANCH  21  22
ENDBRANCH  20  21
ENDBRANCH   1  20
TORSDOF 13
ENDMDL
MODEL 2
REMARK VINA RESULT:     -10.1      4.202      9.417
REMARK SMILES Cc1ncccc1Oc1ccc(C(=O)OCCOC(=O)c2ccc(-c3c4nc(c(-c5ccccc5)c5ccc([nH]5)c(-c5ccccc5)c5nc(c(-c6ccccc6)c6ccc3[nH]6)C=C5)C=C4)cc2)cc1Cl
REMARK SMILES IDX 16 1 15 2 13 3 14 4 12 5 9 6 10 7 70 8 11 9 69 10 71 11 8 12
REMARK SMILES IDX 7 13 1 14 2 15 3 16 4 17 6 18 5 19 17 20 18 21 19 22 20 23
REMARK SMILES IDX 21 24 22 25 68 26 23 27 67 28 24 29 25 30 26 31 61 32 27 33
REMARK SMILES IDX 66 34 60 35 62 36 28 37 65 38 59 39 58 40 29 42 51 43 36 44
REMARK SMILES IDX 50 45 37 46 40 47 49 48 63 49 38 50 39 51 48 53 64 54 41 55
REMARK SMILES IDX 30 56 31 57 35 58 32 59 34 60 33 61 52 62 53 63 57 64 54 65
REMARK SMILES IDX 56 66 55 67 42 68 43 69 47 70 44 71 46 72 45 73
REMARK H PARENT 62 41 40 52
REMARK Flexibility Score: inf
ROOT
ATOM      1  C   UNL A   1      34.088  33.788  28.571  1.00  0.00     0.275 C 
ENDROOT
BRANCH   1   2
ATOM      2  O   UNL A   1      33.746  32.480  28.074  1.00  0.00    -0.458 OA
BRANCH   2   3
ATOM      3  C   UNL A   1      32.584  32.407  27.384  1.00  0.00     0.338 C 
ATOM      4  O   UNL A   1      31.781  33.311  27.214  1.00  0.00    -0.246 OA
BRANCH   3   5
ATOM      5  C   UNL A   1      32.395  31.064  26.786  1.00  0.00     0.061 A 
ATOM      6  C   UNL A   1      32.388  28.612  25.475  1.00  0.00     0.146 A 
ATOM      7  C   UNL A   1      33.224  28.790  26.575  1.00  0.00     0.049 A 
ATOM      8  C   UNL A   1      31.452  29.593  25.123  1.00  0.00     0.084 A 
ATOM      9  C   UNL A   1      33.258  30.033  27.196  1.00  0.00     0.019 A 
ATOM     10  C   UNL A   1      31.454  30.825  25.779  1.00  0.00     0.040 A 
ATOM     11  Cl  UNL A   1      30.353  29.350  23.816  1.00  0.00    -0.080 Cl
BRANCH   6  12
ATOM     12  O   UNL A   1      32.520  27.460  24.757  1.00  0.00    -0.454 OA
BRANCH  12  13
ATOM     13  C   UNL A   1      32.194  26.251  25.340  1.00  0.00     0.148 A 
ATOM     14  C   UNL A   1      34.476  25.038  25.537  1.00  0.00     0.071 C 
ATOM     15  C   UNL A   1      32.990  25.146  25.687  1.00  0.00     0.080 A 
ATOM     16  N   UNL A   1      32.451  24.016  26.232  1.00  0.00    -0.258 NA
ATOM     17  C   UNL A   1      31.123  23.966  26.444  1.00  0.00     0.111 A 
ATOM     18  C   UNL A   1      30.819  26.160  25.600  1.00  0.00     0.050 A 
ATOM     19  C   UNL A   1      30.271  25.009  26.155  1.00  0.00     0.024 A 
ENDBRANCH  12  13
ENDBRANCH   6  12
ENDBRANCH   3   5
ENDBRANCH   2   3
ENDBRANCH   1   2
BRANCH   1  20
ATOM     20  C   UNL A   1      34.321  33.757  30.081  1.00  0.00     0.275 C 
BRANCH  20  21
ATOM     21  O   UNL A   1      34.390  32.403  30.566  1.00  0.00    -0.458 OA
BRANCH  21  22
ATOM     22  C   UNL A   1      35.254  32.195  31.583  1.00  0.00     0.338 C 
ATOM     23  O   UNL A   1      35.117  32.496  32.756  1.00  0.00    -0.246 OA
BRANCH  22  24
ATOM     24  C   UNL A   1      36.433  31.473  31.086  1.00  0.00     0.060 A 
ATOM     25  C   UNL A   1      37.301  30.892  32.007  1.00  0.00     0.016 A 
ATOM     26  C   UNL A   1      36.751  31.484  29.731  1.00  0.00     0.016 A 
ATOM     27  C   UNL A   1      38.530  30.387  31.599  1.00  0.00     0.010 A 
ATOM     28  C   UNL A   1      37.947  30.895  29.308  1.00  0.00     0.010 A 
ATOM     29  C   UNL A   1      38.862  30.365  30.239  1.00  0.00    -0.014 A 
BRANCH  29  30
ATOM     30  C   UNL A   1      40.164  29.812  29.781  1.00  0.00     0.031 A 
ATOM     31  C   UNL A   1      41.363  30.712  29.672  1.00  0.00     0.074 A 
ATOM     32  C   UNL A   1      40.270  28.518  29.423  1.00  0.00     0.049 A 
ATOM     33  N   UNL A   1      42.500  30.506  29.060  1.00  0.00    -0.248 NA
ATOM     34  C   UNL A   1      41.259  32.026  30.327  1.00  0.00     0.031 C 
ATOM     35  C   UNL A   1      39.209  27.514  29.528  1.00  0.00     0.029 A 
ATOM     36  N   UNL A   1      41.325  27.829  28.875  1.00  0.00    -0.354 N 
ATOM     37  C   UNL A   1      43.217  31.689  29.190  1.00  0.00     0.074 A 
ATOM     38  C   UNL A   1      42.391  32.603  29.949  1.00  0.00     0.031 C 
ATOM     39  C   UNL A   1      39.667  26.341  29.066  1.00  0.00     0.029 A 
ATOM     40  C   UNL A   1      41.017  26.532  28.549  1.00  0.00     0.049 A 
ATOM     41  H   UNL A   1      42.215  28.227  28.733  1.00  0.00     0.167 HD
ATOM     42  C   UNL A   1      44.446  31.989  28.704  1.00  0.00     0.031 A 
ATOM     43  C   UNL A   1      41.709  25.611  27.852  1.00  0.00     0.031 A 
ATOM     44  C   UNL A   1      45.277  31.062  27.983  1.00  0.00     0.049 A 
ATOM     45  C   UNL A   1      43.054  25.969  27.294  1.00  0.00     0.074 A 
ATOM     46  C   UNL A   1      46.551  31.257  27.478  1.00  0.00     0.029 A 
ATOM     47  N   UNL A   1      44.920  29.758  27.673  1.00  0.00    -0.354 N 
ATOM     48  N   UNL A   1      43.705  27.103  27.382  1.00  0.00    -0.248 NA
ATOM     49  C   UNL A   1      43.752  24.928  26.526  1.00  0.00     0.031 C 
ATOM     50  C   UNL A   1      46.946  30.086  26.824  1.00  0.00     0.029 A 
ATOM     51  C   UNL A   1      45.938  29.144  26.966  1.00  0.00     0.049 A 
ATOM     52  H   UNL A   1      44.067  29.333  27.920  1.00  0.00     0.167 HD
ATOM     53  C   UNL A   1      44.895  26.911  26.693  1.00  0.00     0.074 A 
ATOM     54  C   UNL A   1      44.880  25.547  26.204  1.00  0.00     0.031 C 
ATOM     55  C   UNL A   1      45.907  27.788  26.484  1.00  0.00     0.031 A 
BRANCH  42  56
ATOM     56  C   UNL A   1      44.934  33.399  28.884  1.00  0.00    -0.014 A 
ATOM     57  C   UNL A   1      44.658  34.405  27.946  1.00  0.00     0.009 A 
ATOM     58  C   UNL A   1      45.679  33.724  30.030  1.00  0.00     0.009 A 
ATOM     59  C   UNL A   1      45.158  35.698  28.132  1.00  0.00     0.001 A 
ATOM     60  C   UNL A   1      46.152  35.022  30.226  1.00  0.00     0.001 A 
ATOM     61  C   UNL A   1      45.901  36.005  29.272  1.00  0.00     0.000 A 
ENDBRANCH  42  56
BRANCH  43  62
ATOM     62  C   UNL A   1      41.093  24.285  27.591  1.00  0.00    -0.014 A 
ATOM     63  C   UNL A   1      40.077  24.144  26.635  1.00  0.00     0.009 A 
ATOM     64  C   UNL A   1      41.562  23.142  28.260  1.00  0.00     0.009 A 
ATOM     65  C   UNL A   1      39.542  22.882  26.358  1.00  0.00     0.001 A 
ATOM     66  C   UNL A   1      41.045  21.881  27.960  1.00  0.00     0.001 A 
ATOM     67  C   UNL A   1      40.032  21.753  27.013  1.00  0.00     0.000 A 
ENDBRANCH  43  62
BRANCH  55  68
ATOM     68  C   UNL A   1      47.099  27.289  25.721  1.00  0.00    -0.014 A 
ATOM     69  C   UNL A   1      47.205  27.478  24.336  1.00  0.00     0.009 A 
ATOM     70  C   UNL A   1      48.154  26.672  26.410  1.00  0.00     0.009 A 
ATOM     71  C   UNL A   1      48.340  27.040  23.651  1.00  0.00     0.001 A 
ATOM     72  C   UNL A   1      49.297  26.255  25.727  1.00  0.00     0.001 A 
ATOM     73  C   UNL A   1      49.386  26.433  24.347  1.00  0.00     0.000 A 
ENDBRANCH  55  68
ENDBRANCH  29  30
ENDBRANCH  22  24
ENDBRANCH  21  22
ENDBRANCH  20  21
ENDBRANCH   1  20
TORSDOF 13
ENDMDL
MODEL 3
REMARK VINA RESULT:      -9.9      3.370      8.603
REMARK SMILES Cc1ncccc1Oc1ccc(C(=O)OCCOC(=O)c2ccc(-c3c4nc(c(-c5ccccc5)c5ccc([nH]5)c(-c5ccccc5)c5nc(c(-c6ccccc6)c6ccc3[nH]6)C=C5)C=C4)cc2)cc1Cl
REMARK SMILES IDX 16 1 15 2 13 3 14 4 12 5 9 6 10 7 70 8 11 9 69 10 71 11 8 12
REMARK SMILES IDX 7 13 1 14 2 15 3 16 4 17 6 18 5 19 17 20 18 21 19 22 20 23
REMARK SMILES IDX 21 24 22 25 68 26 23 27 67 28 24 29 25 30 26 31 61 32 27 33
REMARK SMILES IDX 66 34 60 35 62 36 28 37 65 38 59 39 58 40 29 42 51 43 36 44
REMARK SMILES IDX 50 45 37 46 40 47 49 48 63 49 38 50 39 51 48 53 64 54 41 55
REMARK SMILES IDX 30 56 31 57 35 58 32 59 34 60 33 61 52 62 53 63 57 64 54 65
REMARK SMILES IDX 56 66 55 67 42 68 43 69 47 70 44 71 46 72 45 73
REMARK H PARENT 62 41 40 52
REMARK Flexibility Score: inf
ROOT
ATOM      1  C   UNL A   1      32.093  30.361  26.700  1.00  0.00     0.275 C 
ENDROOT
BRANCH   1   2
ATOM      2  O   UNL A   1      32.684  29.298  25.929  1.00  0.00    -0.458 OA
BRANCH   2   3
ATOM      3  C   UNL A   1      31.952  28.867  24.877  1.00  0.00     0.338 C 
ATOM      4  O   UNL A   1      31.016  29.453  24.354  1.00  0.00    -0.246 OA
BRANCH   3   5
ATOM      5  C   UNL A   1      32.451  27.568  24.367  1.00  0.00     0.061 A 
ATOM      6  C   UNL A   1      33.750  25.306  23.406  1.00  0.00     0.146 A 
ATOM      7  C   UNL A   1      33.868  25.634  24.754  1.00  0.00     0.049 A 
ATOM      8  C   UNL A   1      32.870  26.010  22.574  1.00  0.00     0.084 A 
ATOM      9  C   UNL A   1      33.256  26.792  25.218  1.00  0.00     0.019 A 
ATOM     10  C   UNL A   1      32.217  27.146  23.054  1.00  0.00     0.040 A 
ATOM     11  Cl  UNL A   1      32.649  25.560  20.923  1.00  0.00    -0.080 Cl
BRANCH   6  12
ATOM     12  O   UNL A   1      34.522  24.287  22.929  1.00  0.00    -0.454 OA
BRANCH  12  13
ATOM     13  C   UNL A   1      34.495  23.058  23.559  1.00  0.00     0.148 A 
ATOM     14  C   UNL A   1      36.912  22.780  24.452  1.00  0.00     0.071 C 
ATOM     15  C   UNL A   1      35.501  22.334  24.222  1.00  0.00     0.080 A 
ATOM     16  N   UNL A   1      35.265  21.098  24.753  1.00  0.00    -0.258 NA
ATOM     17  C   UNL A   1      34.034  20.566  24.640  1.00  0.00     0.111 A 
ATOM     18  C   UNL A   1      33.223  22.471  23.486  1.00  0.00     0.050 A 
ATOM     19  C   UNL A   1      32.984  21.213  24.027  1.00  0.00     0.024 A 
ENDBRANCH  12  13
ENDBRANCH   6  12
ENDBRANCH   3   5
ENDBRANCH   2   3
ENDBRANCH   1   2
BRANCH   1  20
ATOM     20  C   UNL A   1      33.168  31.224  27.359  1.00  0.00     0.275 C 
BRANCH  20  21
ATOM     21  O   UNL A   1      34.382  30.476  27.556  1.00  0.00    -0.458 OA
BRANCH  21  22
ATOM     22  C   UNL A   1      35.107  30.822  28.643  1.00  0.00     0.338 C 
ATOM     23  O   UNL A   1      34.782  31.560  29.556  1.00  0.00    -0.246 OA
BRANCH  22  24
ATOM     24  C   UNL A   1      36.396  30.118  28.618  1.00  0.00     0.060 A 
ATOM     25  C   UNL A   1      36.904  29.607  29.810  1.00  0.00     0.016 A 
ATOM     26  C   UNL A   1      37.161  30.081  27.456  1.00  0.00     0.016 A 
ATOM     27  C   UNL A   1      38.206  29.126  29.874  1.00  0.00     0.010 A 
ATOM     28  C   UNL A   1      38.438  29.514  27.499  1.00  0.00     0.010 A 
ATOM     29  C   UNL A   1      38.986  29.056  28.713  1.00  0.00    -0.014 A 
BRANCH  29  30
ATOM     30  C   UNL A   1      40.375  28.527  28.758  1.00  0.00     0.031 A 
ATOM     31  C   UNL A   1      41.525  29.463  29.003  1.00  0.00     0.074 A 
ATOM     32  C   UNL A   1      40.617  27.220  28.542  1.00  0.00     0.049 A 
ATOM     33  N   UNL A   1      42.806  29.266  28.825  1.00  0.00    -0.248 NA
ATOM     34  C   UNL A   1      41.184  30.807  29.497  1.00  0.00     0.031 C 
ATOM     35  C   UNL A   1      39.600  26.184  28.349  1.00  0.00     0.029 A 
ATOM     36  N   UNL A   1      41.806  26.541  28.429  1.00  0.00    -0.354 N 
ATOM     37  C   UNL A   1      43.417  30.480  29.112  1.00  0.00     0.074 A 
ATOM     38  C   UNL A   1      42.367  31.404  29.487  1.00  0.00     0.031 C 
ATOM     39  C   UNL A   1      40.206  25.006  28.145  1.00  0.00     0.029 A 
ATOM     40  C   UNL A   1      41.648  25.217  28.102  1.00  0.00     0.049 A 
ATOM     41  H   UNL A   1      42.685  26.963  28.569  1.00  0.00     0.167 HD
ATOM     42  C   UNL A   1      44.732  30.798  29.051  1.00  0.00     0.031 A 
ATOM     43  C   UNL A   1      42.551  24.286  27.742  1.00  0.00     0.031 A 
ATOM     44  C   UNL A   1      45.774  29.864  28.714  1.00  0.00     0.049 A 
ATOM     45  C   UNL A   1      43.999  24.662  27.648  1.00  0.00     0.074 A 
ATOM     46  C   UNL A   1      47.140  30.078  28.657  1.00  0.00     0.029 A 
ATOM     47  N   UNL A   1      45.564  28.533  28.387  1.00  0.00    -0.354 N 
ATOM     48  N   UNL A   1      44.563  25.822  27.877  1.00  0.00    -0.248 NA
ATOM     49  C   UNL A   1      44.933  23.607  27.230  1.00  0.00     0.031 C 
ATOM     50  C   UNL A   1      47.752  28.888  28.252  1.00  0.00     0.029 A 
ATOM     51  C   UNL A   1      46.772  27.919  28.107  1.00  0.00     0.049 A 
ATOM     52  H   UNL A   1      44.685  28.091  28.360  1.00  0.00     0.167 HD
ATOM     53  C   UNL A   1      45.919  25.637  27.644  1.00  0.00     0.074 A 
ATOM     54  C   UNL A   1      46.093  24.248  27.268  1.00  0.00     0.031 C 
ATOM     55  C   UNL A   1      46.927  26.538  27.732  1.00  0.00     0.031 A 
BRANCH  42  56
ATOM     56  C   UNL A   1      45.108  32.234  29.292  1.00  0.00    -0.014 A 
ATOM     57  C   UNL A   1      45.137  33.179  28.256  1.00  0.00     0.009 A 
ATOM     58  C   UNL A   1      45.429  32.646  30.596  1.00  0.00     0.009 A 
ATOM     59  C   UNL A   1      45.523  34.497  28.514  1.00  0.00     0.001 A 
ATOM     60  C   UNL A   1      45.786  33.970  30.856  1.00  0.00     0.001 A 
ATOM     61  C   UNL A   1      45.845  34.892  29.813  1.00  0.00     0.000 A 
ENDBRANCH  42  56
BRANCH  43  62
ATOM     62  C   UNL A   1      42.081  22.925  27.375  1.00  0.00    -0.014 A 
ATOM     63  C   UNL A   1      41.463  22.691  26.139  1.00  0.00     0.009 A 
ATOM     64  C   UNL A   1      42.303  21.842  28.241  1.00  0.00     0.009 A 
ATOM     65  C   UNL A   1      41.074  21.397  25.780  1.00  0.00     0.001 A 
ATOM     66  C   UNL A   1      41.938  20.547  27.868  1.00  0.00     0.001 A 
ATOM     67  C   UNL A   1      41.320  20.327  26.640  1.00  0.00     0.000 A 
ENDBRANCH  43  62
BRANCH  55  68
ATOM     68  C   UNL A   1      48.316  26.042  27.450  1.00  0.00    -0.014 A 
ATOM     69  C   UNL A   1      48.866  26.119  26.163  1.00  0.00     0.009 A 
ATOM     70  C   UNL A   1      49.100  25.545  28.502  1.00  0.00     0.009 A 
ATOM     71  C   UNL A   1      50.173  25.686  25.930  1.00  0.00     0.001 A 
ATOM     72  C   UNL A   1      50.414  25.133  28.271  1.00  0.00     0.001 A 
ATOM     73  C   UNL A   1      50.946  25.199  26.984  1.00  0.00     0.000 A 
ENDBRANCH  55  68
ENDBRANCH  29  30
ENDBRANCH  22  24
ENDBRANCH  21  22
ENDBRANCH  20  21
ENDBRANCH   1  20
TORSDOF 13
ENDMDL
