MODEL 1
REMARK VINA RESULT:      -9.9      0.000      0.000
REMARK SMILES C/C(=N\[NH+]=C1\NC(=O)[C@H](CC(=O)OCCOC(=O)c2ccc(-c3c4nc(c(-c5ccccc5)c5ccc([nH]5)c(-c5ccccc5)c5nc(c(-c6ccccc6)c6ccc3[nH]6)C=C5)C=C4)cc2)S1)c1ccc([N+](=O)[O-])cc1
REMARK SMILES IDX 14 1 13 2 11 3 12 4 10 5 9 6 4 7 5 8 6 10 67 11 7 12 8 14
REMARK SMILES IDX 3 15 1 16 2 17 68 18 69 19 76 20 70 21 75 22 71 23 72 24
REMARK SMILES IDX 73 25 74 26 15 27 16 28 17 29 18 30 19 31 20 32 66 33 21 34
REMARK SMILES IDX 65 35 22 36 23 37 24 38 59 39 25 40 64 41 58 42 60 43 26 44
REMARK SMILES IDX 63 45 57 46 56 47 27 49 49 50 34 51 48 52 35 53 38 54 47 55
REMARK SMILES IDX 61 56 36 57 37 58 46 60 62 61 39 62 28 63 29 64 33 65 30 66
REMARK SMILES IDX 32 67 31 68 50 69 51 70 55 71 52 72 54 73 53 74 40 75 41 76
REMARK SMILES IDX 45 77 42 78 44 79 43 80
REMARK H PARENT 4 9 6 13 60 48 38 59
REMARK Flexibility Score: inf
ROOT
ATOM      1  C   UNL A   1      40.915  20.432  27.575  1.00  0.00     0.274 C 
ENDROOT
BRANCH   1   2
ATOM      2  O   UNL A   1      41.361  19.738  26.397  1.00  0.00    -0.462 OA
BRANCH   2   3
ATOM      3  C   UNL A   1      42.483  18.994  26.483  1.00  0.00     0.307 C 
ATOM      4  O   UNL A   1      42.806  18.311  27.447  1.00  0.00    -0.252 OA
BRANCH   3   5
ATOM      5  C   UNL A   1      43.341  19.140  25.251  1.00  0.00     0.150 C 
BRANCH   5   6
ATOM      6  C   UNL A   1      44.625  19.901  25.519  1.00  0.00     0.184 C 
ATOM      7  N   UNL A   1      46.274  23.134  24.183  1.00  0.00    -0.142 N 
ATOM      8  C   UNL A   1      45.714  22.013  24.488  1.00  0.00     0.337 C 
ATOM      9  H   UNL A   1      47.110  23.172  23.663  1.00  0.00     0.343 HD
ATOM     10  N   UNL A   1      46.259  20.857  24.059  1.00  0.00    -0.202 N 
ATOM     11  S   UNL A   1      44.305  21.710  25.455  1.00  0.00    -0.020 SA
ATOM     12  C   UNL A   1      45.711  19.682  24.474  1.00  0.00     0.322 C 
ATOM     13  H   UNL A   1      47.037  20.862  23.456  1.00  0.00     0.316 HD
ATOM     14  O   UNL A   1      46.108  18.606  24.050  1.00  0.00    -0.246 OA
BRANCH   7  15
ATOM     15  N   UNL A   1      45.636  24.283  24.630  1.00  0.00    -0.090 NA
ATOM     16  C   UNL A   1      47.609  24.612  26.126  1.00  0.00     0.071 C 
ATOM     17  C   UNL A   1      46.288  25.011  25.491  1.00  0.00     0.088 C 
BRANCH  17  18
ATOM     18  C   UNL A   1      45.670  26.305  25.922  1.00  0.00    -0.000 A 
ATOM     19  C   UNL A   1      44.400  26.650  25.431  1.00  0.00     0.017 A 
ATOM     20  C   UNL A   1      46.345  27.193  26.769  1.00  0.00     0.017 A 
ATOM     21  C   UNL A   1      43.807  27.866  25.782  1.00  0.00     0.086 A 
ATOM     22  C   UNL A   1      45.762  28.416  27.120  1.00  0.00     0.086 A 
ATOM     23  C   UNL A   1      44.495  28.749  26.625  1.00  0.00     0.269 A 
BRANCH  23  24
ATOM     24  N   UNL A   1      43.889  30.036  26.987  1.00  0.00     0.062 N 
ATOM     25  O   UNL A   1      44.606  30.872  27.555  1.00  0.00    -0.258 OA
ATOM     26  O   UNL A   1      42.696  30.211  26.701  1.00  0.00    -0.258 OA
ENDBRANCH  23  24
ENDBRANCH  17  18
ENDBRANCH   7  15
ENDBRANCH   5   6
ENDBRANCH   3   5
ENDBRANCH   2   3
ENDBRANCH   1   2
BRANCH   1  27
ATOM     27  C   UNL A   1      41.045  21.949  27.424  1.00  0.00     0.275 C 
BRANCH  27  28
ATOM     28  O   UNL A   1      40.443  22.407  26.199  1.00  0.00    -0.458 OA
BRANCH  28  29
ATOM     29  C   UNL A   1      39.277  23.078  26.337  1.00  0.00     0.338 C 
ATOM     30  O   UNL A   1      38.154  22.676  26.091  1.00  0.00    -0.246 OA
BRANCH  29  31
ATOM     31  C   UNL A   1      39.538  24.384  26.964  1.00  0.00     0.060 A 
ATOM     32  C   UNL A   1      40.285  25.330  26.253  1.00  0.00     0.016 A 
ATOM     33  C   UNL A   1      39.097  24.650  28.260  1.00  0.00     0.016 A 
ATOM     34  C   UNL A   1      40.591  26.557  26.839  1.00  0.00     0.010 A 
ATOM     35  C   UNL A   1      39.404  25.879  28.844  1.00  0.00     0.010 A 
ATOM     36  C   UNL A   1      40.156  26.837  28.140  1.00  0.00    -0.014 A 
BRANCH  36  37
ATOM     37  C   UNL A   1      40.498  28.120  28.796  1.00  0.00     0.031 A 
ATOM     38  C   UNL A   1      41.830  28.279  29.468  1.00  0.00     0.074 A 
ATOM     39  C   UNL A   1      39.598  29.119  28.826  1.00  0.00     0.049 A 
ATOM     40  N   UNL A   1      42.261  29.254  30.227  1.00  0.00    -0.248 NA
ATOM     41  C   UNL A   1      42.804  27.195  29.263  1.00  0.00     0.031 C 
ATOM     42  C   UNL A   1      38.290  29.100  28.172  1.00  0.00     0.029 A 
ATOM     43  N   UNL A   1      39.643  30.338  29.456  1.00  0.00    -0.354 N 
ATOM     44  C   UNL A   1      43.546  28.892  30.610  1.00  0.00     0.074 A 
ATOM     45  C   UNL A   1      43.821  27.604  30.009  1.00  0.00     0.031 C 
ATOM     46  C   UNL A   1      37.650  30.250  28.445  1.00  0.00     0.029 A 
ATOM     47  C   UNL A   1      38.480  31.058  29.333  1.00  0.00     0.049 A 
ATOM     48  H   UNL A   1      40.432  30.665  29.946  1.00  0.00     0.167 HD
ATOM     49  C   UNL A   1      44.415  29.572  31.394  1.00  0.00     0.031 A 
ATOM     50  C   UNL A   1      38.109  32.218  29.907  1.00  0.00     0.031 A 
ATOM     51  C   UNL A   1      44.133  30.847  31.996  1.00  0.00     0.049 A 
ATOM     52  C   UNL A   1      39.060  32.915  30.841  1.00  0.00     0.074 A 
ATOM     53  C   UNL A   1      44.953  31.622  32.799  1.00  0.00     0.029 A 
ATOM     54  N   UNL A   1      42.936  31.534  31.864  1.00  0.00    -0.354 N 
ATOM     55  N   UNL A   1      40.274  32.566  31.193  1.00  0.00    -0.248 NA
ATOM     56  C   UNL A   1      38.589  34.163  31.459  1.00  0.00     0.031 C 
ATOM     57  C   UNL A   1      44.233  32.754  33.194  1.00  0.00     0.029 A 
ATOM     58  C   UNL A   1      42.986  32.711  32.591  1.00  0.00     0.049 A 
ATOM     59  H   UNL A   1      42.165  31.229  31.334  1.00  0.00     0.167 HD
ATOM     60  C   UNL A   1      40.723  33.566  32.047  1.00  0.00     0.074 A 
ATOM     61  C   UNL A   1      39.653  34.535  32.157  1.00  0.00     0.031 C 
ATOM     62  C   UNL A   1      41.916  33.671  32.680  1.00  0.00     0.031 A 
BRANCH  49  63
ATOM     63  C   UNL A   1      45.741  28.927  31.681  1.00  0.00    -0.014 A 
ATOM     64  C   UNL A   1      46.851  29.136  30.848  1.00  0.00     0.009 A 
ATOM     65  C   UNL A   1      45.890  28.127  32.824  1.00  0.00     0.009 A 
ATOM     66  C   UNL A   1      48.076  28.532  31.139  1.00  0.00     0.001 A 
ATOM     67  C   UNL A   1      47.123  27.545  33.127  1.00  0.00     0.001 A 
ATOM     68  C   UNL A   1      48.212  27.742  32.280  1.00  0.00     0.000 A 
ENDBRANCH  49  63
BRANCH  50  69
ATOM     69  C   UNL A   1      36.759  32.778  29.641  1.00  0.00    -0.014 A 
ATOM     70  C   UNL A   1      35.727  32.626  30.579  1.00  0.00     0.009 A 
ATOM     71  C   UNL A   1      36.496  33.467  28.446  1.00  0.00     0.009 A 
ATOM     72  C   UNL A   1      34.453  33.136  30.316  1.00  0.00     0.001 A 
ATOM     73  C   UNL A   1      35.229  34.000  28.200  1.00  0.00     0.001 A 
ATOM     74  C   UNL A   1      34.207  33.827  29.130  1.00  0.00     0.000 A 
ENDBRANCH  50  69
BRANCH  62  75
ATOM     75  C   UNL A   1      42.155  34.901  33.507  1.00  0.00    -0.014 A 
ATOM     76  C   UNL A   1      41.732  34.977  34.842  1.00  0.00     0.009 A 
ATOM     77  C   UNL A   1      42.875  35.974  32.956  1.00  0.00     0.009 A 
ATOM     78  C   UNL A   1      42.009  36.114  35.604  1.00  0.00     0.001 A 
ATOM     79  C   UNL A   1      43.172  37.098  33.728  1.00  0.00     0.001 A 
ATOM     80  C   UNL A   1      42.734  37.169  35.049  1.00  0.00     0.000 A 
ENDBRANCH  62  75
ENDBRANCH  36  37
ENDBRANCH  29  31
ENDBRANCH  28  29
ENDBRANCH  27  28
ENDBRANCH   1  27
TORSDOF 15
ENDMDL
MODEL 2
REMARK VINA RESULT:      -9.8      4.834     10.160
REMARK SMILES C/C(=N\[NH+]=C1\NC(=O)[C@H](CC(=O)OCCOC(=O)c2ccc(-c3c4nc(c(-c5ccccc5)c5ccc([nH]5)c(-c5ccccc5)c5nc(c(-c6ccccc6)c6ccc3[nH]6)C=C5)C=C4)cc2)S1)c1ccc([N+](=O)[O-])cc1
REMARK SMILES IDX 14 1 13 2 11 3 12 4 10 5 9 6 4 7 5 8 6 10 67 11 7 12 8 14
REMARK SMILES IDX 3 15 1 16 2 17 68 18 69 19 76 20 70 21 75 22 71 23 72 24
REMARK SMILES IDX 73 25 74 26 15 27 16 28 17 29 18 30 19 31 20 32 66 33 21 34
REMARK SMILES IDX 65 35 22 36 23 37 24 38 59 39 25 40 64 41 58 42 60 43 26 44
REMARK SMILES IDX 63 45 57 46 56 47 27 49 49 50 34 51 48 52 35 53 38 54 47 55
REMARK SMILES IDX 61 56 36 57 37 58 46 60 62 61 39 62 28 63 29 64 33 65 30 66
REMARK SMILES IDX 32 67 31 68 50 69 51 70 55 71 52 72 54 73 53 74 40 75 41 76
REMARK SMILES IDX 45 77 42 78 44 79 43 80
REMARK H PARENT 4 9 6 13 60 48 38 59
REMARK Flexibility Score: inf
ROOT
ATOM      1  C   UNL A   1      33.145  31.020  27.267  1.00  0.00     0.274 C 
ENDROOT
BRANCH   1   2
ATOM      2  O   UNL A   1      32.963  30.329  26.019  1.00  0.00    -0.462 OA
BRANCH   2   3
ATOM      3  C   UNL A   1      31.920  29.479  25.909  1.00  0.00     0.307 C 
ATOM      4  O   UNL A   1      31.500  28.757  26.803  1.00  0.00    -0.252 OA
BRANCH   3   5
ATOM      5  C   UNL A   1      31.349  29.481  24.513  1.00  0.00     0.150 C 
BRANCH   5   6
ATOM      6  C   UNL A   1      30.993  28.089  24.025  1.00  0.00     0.184 C 
ATOM      7  N   UNL A   1      32.695  25.386  21.843  1.00  0.00    -0.142 N 
ATOM      8  C   UNL A   1      32.151  26.381  22.459  1.00  0.00     0.337 C 
ATOM      9  H   UNL A   1      32.376  25.086  20.960  1.00  0.00     0.343 HD
ATOM     10  N   UNL A   1      31.141  27.057  21.874  1.00  0.00    -0.202 N 
ATOM     11  S   UNL A   1      32.490  27.021  24.036  1.00  0.00    -0.020 SA
ATOM     12  C   UNL A   1      30.514  28.037  22.580  1.00  0.00     0.322 C 
ATOM     13  H   UNL A   1      30.864  26.846  20.953  1.00  0.00     0.316 HD
ATOM     14  O   UNL A   1      29.652  28.740  22.072  1.00  0.00    -0.246 OA
BRANCH   7  15
ATOM     15  N   UNL A   1      33.752  24.764  22.492  1.00  0.00    -0.090 NA
ATOM     16  C   UNL A   1      32.176  22.871  22.911  1.00  0.00     0.071 C 
ATOM     17  C   UNL A   1      33.530  23.559  22.935  1.00  0.00     0.088 C 
BRANCH  17  18
ATOM     18  C   UNL A   1      34.676  22.822  23.557  1.00  0.00    -0.000 A 
ATOM     19  C   UNL A   1      35.988  23.204  23.233  1.00  0.00     0.017 A 
ATOM     20  C   UNL A   1      34.467  21.739  24.420  1.00  0.00     0.017 A 
ATOM     21  C   UNL A   1      37.082  22.515  23.765  1.00  0.00     0.086 A 
ATOM     22  C   UNL A   1      35.557  21.039  24.952  1.00  0.00     0.086 A 
ATOM     23  C   UNL A   1      36.861  21.430  24.622  1.00  0.00     0.269 A 
BRANCH  23  24
ATOM     24  N   UNL A   1      38.002  20.689  25.173  1.00  0.00     0.062 N 
ATOM     25  O   UNL A   1      38.845  21.325  25.822  1.00  0.00    -0.258 OA
ATOM     26  O   UNL A   1      38.054  19.470  24.957  1.00  0.00    -0.258 OA
ENDBRANCH  23  24
ENDBRANCH  17  18
ENDBRANCH   7  15
ENDBRANCH   5   6
ENDBRANCH   3   5
ENDBRANCH   2   3
ENDBRANCH   1   2
BRANCH   1  27
ATOM     27  C   UNL A   1      32.206  32.221  27.394  1.00  0.00     0.275 C 
BRANCH  27  28
ATOM     28  O   UNL A   1      32.936  33.461  27.369  1.00  0.00    -0.458 OA
BRANCH  28  29
ATOM     29  C   UNL A   1      33.203  34.007  28.577  1.00  0.00     0.338 C 
ATOM     30  O   UNL A   1      32.461  34.684  29.267  1.00  0.00    -0.246 OA
BRANCH  29  31
ATOM     31  C   UNL A   1      34.529  33.560  29.030  1.00  0.00     0.060 A 
ATOM     32  C   UNL A   1      35.646  33.877  28.248  1.00  0.00     0.016 A 
ATOM     33  C   UNL A   1      34.663  32.791  30.186  1.00  0.00     0.016 A 
ATOM     34  C   UNL A   1      36.910  33.426  28.625  1.00  0.00     0.010 A 
ATOM     35  C   UNL A   1      35.929  32.341  30.562  1.00  0.00     0.010 A 
ATOM     36  C   UNL A   1      37.058  32.651  29.782  1.00  0.00    -0.014 A 
BRANCH  36  37
ATOM     37  C   UNL A   1      38.385  32.132  30.184  1.00  0.00     0.031 A 
ATOM     38  C   UNL A   1      38.873  30.828  29.626  1.00  0.00     0.074 A 
ATOM     39  C   UNL A   1      39.128  32.808  31.079  1.00  0.00     0.049 A 
ATOM     40  N   UNL A   1      39.925  30.126  29.965  1.00  0.00    -0.248 NA
ATOM     41  C   UNL A   1      38.068  30.231  28.549  1.00  0.00     0.031 C 
ATOM     42  C   UNL A   1      38.781  34.107  31.657  1.00  0.00     0.029 A 
ATOM     43  N   UNL A   1      40.319  32.479  31.676  1.00  0.00    -0.354 N 
ATOM     44  C   UNL A   1      39.896  28.994  29.160  1.00  0.00     0.074 A 
ATOM     45  C   UNL A   1      38.718  29.097  28.325  1.00  0.00     0.031 C 
ATOM     46  C   UNL A   1      39.734  34.459  32.536  1.00  0.00     0.029 A 
ATOM     47  C   UNL A   1      40.724  33.390  32.621  1.00  0.00     0.049 A 
ATOM     48  H   UNL A   1      40.832  31.671  31.449  1.00  0.00     0.167 HD
ATOM     49  C   UNL A   1      40.771  27.962  29.126  1.00  0.00     0.031 A 
ATOM     50  C   UNL A   1      41.755  33.346  33.487  1.00  0.00     0.031 A 
ATOM     51  C   UNL A   1      41.936  27.861  29.964  1.00  0.00     0.049 A 
ATOM     52  C   UNL A   1      42.667  32.151  33.486  1.00  0.00     0.074 A 
ATOM     53  C   UNL A   1      42.891  26.859  29.997  1.00  0.00     0.029 A 
ATOM     54  N   UNL A   1      42.301  28.795  30.922  1.00  0.00    -0.354 N 
ATOM     55  N   UNL A   1      42.633  31.088  32.720  1.00  0.00    -0.248 NA
ATOM     56  C   UNL A   1      43.757  32.147  34.472  1.00  0.00     0.031 C 
ATOM     57  C   UNL A   1      43.807  27.163  31.009  1.00  0.00     0.029 A 
ATOM     58  C   UNL A   1      43.453  28.381  31.569  1.00  0.00     0.049 A 
ATOM     59  H   UNL A   1      41.812  29.627  31.114  1.00  0.00     0.167 HD
ATOM     60  C   UNL A   1      43.713  30.305  33.108  1.00  0.00     0.074 A 
ATOM     61  C   UNL A   1      44.384  31.018  34.176  1.00  0.00     0.031 C 
ATOM     62  C   UNL A   1      44.114  29.107  32.621  1.00  0.00     0.031 A 
BRANCH  49  63
ATOM     63  C   UNL A   1      40.479  26.837  28.175  1.00  0.00    -0.014 A 
ATOM     64  C   UNL A   1      40.989  26.833  26.868  1.00  0.00     0.009 A 
ATOM     65  C   UNL A   1      39.711  25.745  28.608  1.00  0.00     0.009 A 
ATOM     66  C   UNL A   1      40.711  25.771  26.004  1.00  0.00     0.001 A 
ATOM     67  C   UNL A   1      39.455  24.673  27.751  1.00  0.00     0.001 A 
ATOM     68  C   UNL A   1      39.949  24.691  26.448  1.00  0.00     0.000 A 
ENDBRANCH  49  63
BRANCH  50  69
ATOM     69  C   UNL A   1      41.959  34.457  34.452  1.00  0.00    -0.014 A 
ATOM     70  C   UNL A   1      42.736  35.572  34.102  1.00  0.00     0.009 A 
ATOM     71  C   UNL A   1      41.379  34.407  35.730  1.00  0.00     0.009 A 
ATOM     72  C   UNL A   1      42.943  36.604  35.020  1.00  0.00     0.001 A 
ATOM     73  C   UNL A   1      41.565  35.454  36.634  1.00  0.00     0.001 A 
ATOM     74  C   UNL A   1      42.353  36.548  36.282  1.00  0.00     0.000 A 
ENDBRANCH  50  69
BRANCH  62  75
ATOM     75  C   UNL A   1      45.364  28.508  33.198  1.00  0.00    -0.014 A 
ATOM     76  C   UNL A   1      46.630  28.826  32.685  1.00  0.00     0.009 A 
ATOM     77  C   UNL A   1      45.272  27.664  34.316  1.00  0.00     0.009 A 
ATOM     78  C   UNL A   1      47.781  28.292  33.272  1.00  0.00     0.001 A 
ATOM     79  C   UNL A   1      46.424  27.153  34.915  1.00  0.00     0.001 A 
ATOM     80  C   UNL A   1      47.676  27.463  34.389  1.00  0.00     0.000 A 
ENDBRANCH  62  75
ENDBRANCH  36  37
ENDBRANCH  29  31
ENDBRANCH  28  29
ENDBRANCH  27  28
ENDBRANCH   1  27
TORSDOF 15
ENDMDL
MODEL 3
REMARK VINA RESULT:      -9.5      4.825      9.791
REMARK SMILES C/C(=N\[NH+]=C1\NC(=O)[C@H](CC(=O)OCCOC(=O)c2ccc(-c3c4nc(c(-c5ccccc5)c5ccc([nH]5)c(-c5ccccc5)c5nc(c(-c6ccccc6)c6ccc3[nH]6)C=C5)C=C4)cc2)S1)c1ccc([N+](=O)[O-])cc1
REMARK SMILES IDX 14 1 13 2 11 3 12 4 10 5 9 6 4 7 5 8 6 10 67 11 7 12 8 14
REMARK SMILES IDX 3 15 1 16 2 17 68 18 69 19 76 20 70 21 75 22 71 23 72 24
REMARK SMILES IDX 73 25 74 26 15 27 16 28 17 29 18 30 19 31 20 32 66 33 21 34
REMARK SMILES IDX 65 35 22 36 23 37 24 38 59 39 25 40 64 41 58 42 60 43 26 44
REMARK SMILES IDX 63 45 57 46 56 47 27 49 49 50 34 51 48 52 35 53 38 54 47 55
REMARK SMILES IDX 61 56 36 57 37 58 46 60 62 61 39 62 28 63 29 64 33 65 30 66
REMARK SMILES IDX 32 67 31 68 50 69 51 70 55 71 52 72 54 73 53 74 40 75 41 76
REMARK SMILES IDX 45 77 42 78 44 79 43 80
REMARK H PARENT 4 9 6 13 60 48 38 59
REMARK Flexibility Score: inf
ROOT
ATOM      1  C   UNL A   1      37.837  20.244  24.971  1.00  0.00     0.274 C 
ENDROOT
BRANCH   1   2
ATOM      2  O   UNL A   1      36.955  21.303  24.560  1.00  0.00    -0.462 OA
BRANCH   2   3
ATOM      3  C   UNL A   1      36.017  21.726  25.434  1.00  0.00     0.307 C 
ATOM      4  O   UNL A   1      36.120  22.703  26.162  1.00  0.00    -0.252 OA
BRANCH   3   5
ATOM      5  C   UNL A   1      34.821  20.806  25.450  1.00  0.00     0.150 C 
BRANCH   5   6
ATOM      6  C   UNL A   1      33.577  21.456  24.877  1.00  0.00     0.184 C 
ATOM      7  N   UNL A   1      30.730  23.695  26.235  1.00  0.00    -0.142 N 
ATOM      8  C   UNL A   1      31.648  22.856  25.891  1.00  0.00     0.337 C 
ATOM      9  H   UNL A   1      29.784  23.430  26.308  1.00  0.00     0.343 HD
ATOM     10  N   UNL A   1      31.320  21.569  25.658  1.00  0.00    -0.202 N 
ATOM     11  S   UNL A   1      33.342  23.121  25.621  1.00  0.00    -0.020 SA
ATOM     12  C   UNL A   1      32.282  20.721  25.200  1.00  0.00     0.322 C 
ATOM     13  H   UNL A   1      30.403  21.248  25.817  1.00  0.00     0.316 HD
ATOM     14  O   UNL A   1      32.066  19.527  25.053  1.00  0.00    -0.246 OA
BRANCH   7  15
ATOM     15  N   UNL A   1      31.150  24.993  26.494  1.00  0.00    -0.090 NA
ATOM     16  C   UNL A   1      30.380  25.538  24.181  1.00  0.00     0.071 C 
ATOM     17  C   UNL A   1      30.926  25.872  25.558  1.00  0.00     0.088 C 
BRANCH  17  18
ATOM     18  C   UNL A   1      31.280  27.299  25.842  1.00  0.00    -0.000 A 
ATOM     19  C   UNL A   1      31.654  27.662  27.146  1.00  0.00     0.017 A 
ATOM     20  C   UNL A   1      31.207  28.283  24.848  1.00  0.00     0.017 A 
ATOM     21  C   UNL A   1      31.955  28.992  27.456  1.00  0.00     0.086 A 
ATOM     22  C   UNL A   1      31.500  29.617  25.151  1.00  0.00     0.086 A 
ATOM     23  C   UNL A   1      31.873  29.967  26.455  1.00  0.00     0.269 A 
BRANCH  23  24
ATOM     24  N   UNL A   1      32.170  31.369  26.773  1.00  0.00     0.062 N 
ATOM     25  O   UNL A   1      33.201  31.609  27.418  1.00  0.00    -0.258 OA
ATOM     26  O   UNL A   1      31.371  32.230  26.378  1.00  0.00    -0.258 OA
ENDBRANCH  23  24
ENDBRANCH  17  18
ENDBRANCH   7  15
ENDBRANCH   5   6
ENDBRANCH   3   5
ENDBRANCH   2   3
ENDBRANCH   1   2
BRANCH   1  27
ATOM     27  C   UNL A   1      39.215  20.774  25.369  1.00  0.00     0.275 C 
BRANCH  27  28
ATOM     28  O   UNL A   1      39.998  19.759  26.023  1.00  0.00    -0.458 OA
BRANCH  28  29
ATOM     29  C   UNL A   1      41.340  19.888  25.902  1.00  0.00     0.338 C 
ATOM     30  O   UNL A   1      42.106  19.150  25.308  1.00  0.00    -0.246 OA
BRANCH  29  31
ATOM     31  C   UNL A   1      41.763  21.159  26.510  1.00  0.00     0.060 A 
ATOM     32  C   UNL A   1      41.634  21.315  27.894  1.00  0.00     0.016 A 
ATOM     33  C   UNL A   1      42.233  22.205  25.715  1.00  0.00     0.016 A 
ATOM     34  C   UNL A   1      41.981  22.525  28.493  1.00  0.00     0.010 A 
ATOM     35  C   UNL A   1      42.581  23.414  26.317  1.00  0.00     0.010 A 
ATOM     36  C   UNL A   1      42.452  23.583  27.707  1.00  0.00    -0.014 A 
BRANCH  36  37
ATOM     37  C   UNL A   1      42.794  24.888  28.317  1.00  0.00     0.031 A 
ATOM     38  C   UNL A   1      41.722  25.917  28.522  1.00  0.00     0.074 A 
ATOM     39  C   UNL A   1      44.071  25.164  28.642  1.00  0.00     0.049 A 
ATOM     40  N   UNL A   1      41.835  27.168  28.890  1.00  0.00    -0.248 NA
ATOM     41  C   UNL A   1      40.338  25.482  28.276  1.00  0.00     0.031 C 
ATOM     42  C   UNL A   1      45.192  24.231  28.531  1.00  0.00     0.029 A 
ATOM     43  N   UNL A   1      44.639  26.322  29.110  1.00  0.00    -0.354 N 
ATOM     44  C   UNL A   1      40.543  27.676  28.897  1.00  0.00     0.074 A 
ATOM     45  C   UNL A   1      39.663  26.603  28.486  1.00  0.00     0.031 C 
ATOM     46  C   UNL A   1      46.318  24.858  28.909  1.00  0.00     0.029 A 
ATOM     47  C   UNL A   1      46.005  26.246  29.235  1.00  0.00     0.049 A 
ATOM     48  H   UNL A   1      44.119  27.127  29.335  1.00  0.00     0.167 HD
ATOM     49  C   UNL A   1      40.132  28.926  29.214  1.00  0.00     0.031 A 
ATOM     50  C   UNL A   1      46.906  27.200  29.539  1.00  0.00     0.031 A 
ATOM     51  C   UNL A   1      41.012  29.991  29.613  1.00  0.00     0.049 A 
ATOM     52  C   UNL A   1      46.432  28.602  29.806  1.00  0.00     0.074 A 
ATOM     53  C   UNL A   1      40.690  31.291  29.966  1.00  0.00     0.029 A 
ATOM     54  N   UNL A   1      42.391  29.880  29.709  1.00  0.00    -0.354 N 
ATOM     55  N   UNL A   1      45.208  29.071  29.814  1.00  0.00    -0.248 NA
ATOM     56  C   UNL A   1      47.464  29.605  30.104  1.00  0.00     0.031 C 
ATOM     57  C   UNL A   1      41.879  31.979  30.226  1.00  0.00     0.029 A 
ATOM     58  C   UNL A   1      42.936  31.094  30.090  1.00  0.00     0.049 A 
ATOM     59  H   UNL A   1      42.905  29.060  29.531  1.00  0.00     0.167 HD
ATOM     60  C   UNL A   1      45.320  30.415  30.148  1.00  0.00     0.074 A 
ATOM     61  C   UNL A   1      46.730  30.684  30.338  1.00  0.00     0.031 C 
ATOM     62  C   UNL A   1      44.341  31.341  30.287  1.00  0.00     0.031 A 
BRANCH  49  63
ATOM     63  C   UNL A   1      38.663  29.222  29.101  1.00  0.00    -0.014 A 
ATOM     64  C   UNL A   1      37.808  29.110  30.208  1.00  0.00     0.009 A 
ATOM     65  C   UNL A   1      38.135  29.656  27.875  1.00  0.00     0.009 A 
ATOM     66  C   UNL A   1      36.447  29.398  30.081  1.00  0.00     0.001 A 
ATOM     67  C   UNL A   1      36.779  29.967  27.757  1.00  0.00     0.001 A 
ATOM     68  C   UNL A   1      35.936  29.830  28.858  1.00  0.00     0.000 A 
ENDBRANCH  49  63
BRANCH  50  69
ATOM     69  C   UNL A   1      48.354  26.868  29.571  1.00  0.00    -0.014 A 
ATOM     70  C   UNL A   1      49.122  26.916  28.398  1.00  0.00     0.009 A 
ATOM     71  C   UNL A   1      48.973  26.500  30.776  1.00  0.00     0.009 A 
ATOM     72  C   UNL A   1      50.479  26.583  28.430  1.00  0.00     0.001 A 
ATOM     73  C   UNL A   1      50.335  26.195  30.808  1.00  0.00     0.001 A 
ATOM     74  C   UNL A   1      51.085  26.229  29.634  1.00  0.00     0.000 A 
ENDBRANCH  50  69
BRANCH  62  75
ATOM     75  C   UNL A   1      44.749  32.721  30.715  1.00  0.00    -0.014 A 
ATOM     76  C   UNL A   1      45.157  33.685  29.781  1.00  0.00     0.009 A 
ATOM     77  C   UNL A   1      44.657  33.078  32.070  1.00  0.00     0.009 A 
ATOM     78  C   UNL A   1      45.485  34.976  30.201  1.00  0.00     0.001 A 
ATOM     79  C   UNL A   1      44.962  34.376  32.482  1.00  0.00     0.001 A 
ATOM     80  C   UNL A   1      45.381  35.322  31.548  1.00  0.00     0.000 A 
ENDBRANCH  62  75
ENDBRANCH  36  37
ENDBRANCH  29  31
ENDBRANCH  28  29
ENDBRANCH  27  28
ENDBRANCH   1  27
TORSDOF 15
ENDMDL
