MODEL 1
REMARK VINA RESULT:     -10.8      0.000      0.000
REMARK SMILES O=C(OCCOC(=O)c1ccc(OC[C@H]2C[C@H]3CC[C@@H]2C3)c(Cl)c1)c1ccc(-c2c3nc(c(-c4ccccc4)c4ccc([nH]4)c(-c4ccccc4)c4nc(c(-c5ccccc5)c5ccc2[nH]5)C=C4)C=C3)cc1
REMARK SMILES IDX 5 1 4 2 3 3 2 4 1 5 25 6 26 7 72 8 27 9 71 10 28 11 29 12
REMARK SMILES IDX 30 13 65 14 31 15 70 16 64 17 66 18 32 19 69 20 63 21 62 22
REMARK SMILES IDX 33 24 55 25 40 26 54 27 41 28 44 29 53 30 67 31 42 32 43 33
REMARK SMILES IDX 52 35 68 36 45 37 34 38 35 39 39 40 36 41 38 42 37 43 56 44
REMARK SMILES IDX 57 45 61 46 58 47 60 48 59 49 46 50 47 51 51 52 48 53 50 54
REMARK SMILES IDX 49 55 6 56 7 57 8 58 9 59 10 60 24 61 11 62 22 63 12 64
REMARK SMILES IDX 23 65 13 66 14 67 15 68 16 69 20 70 17 71 19 72 21 73 18 74
REMARK H PARENT 66 23 44 34
REMARK Flexibility Score: inf
ROOT
ATOM      1  C   UNL A   1      42.759  20.896  26.111  1.00  0.00     0.275 C 
ENDROOT
BRANCH   1   2
ATOM      2  C   UNL A   1      43.807  21.694  25.333  1.00  0.00     0.275 C 
BRANCH   2   3
ATOM      3  O   UNL A   1      43.335  22.982  24.908  1.00  0.00    -0.458 OA
BRANCH   3   4
ATOM      4  C   UNL A   1      43.917  24.185  25.125  1.00  0.00     0.338 C 
ATOM      5  O   UNL A   1      45.026  24.411  24.644  1.00  0.00    -0.246 OA
BRANCH   4   6
ATOM      6  C   UNL A   1      43.378  25.170  26.116  1.00  0.00     0.060 A 
ATOM      7  C   UNL A   1      43.808  26.485  26.303  1.00  0.00     0.016 A 
ATOM      8  C   UNL A   1      42.359  24.690  26.957  1.00  0.00     0.016 A 
ATOM      9  C   UNL A   1      43.212  27.309  27.267  1.00  0.00     0.010 A 
ATOM     10  C   UNL A   1      41.735  25.517  27.896  1.00  0.00     0.010 A 
ATOM     11  C   UNL A   1      42.174  26.832  28.069  1.00  0.00    -0.014 A 
BRANCH  11  12
ATOM     12  C   UNL A   1      41.656  27.649  29.190  1.00  0.00     0.031 A 
ATOM     13  C   UNL A   1      42.323  27.537  30.529  1.00  0.00     0.074 A 
ATOM     14  C   UNL A   1      40.620  28.490  29.017  1.00  0.00     0.049 A 
ATOM     15  N   UNL A   1      42.058  28.172  31.641  1.00  0.00    -0.248 NA
ATOM     16  C   UNL A   1      43.448  26.591  30.626  1.00  0.00     0.031 C 
ATOM     17  C   UNL A   1      39.916  28.717  27.756  1.00  0.00     0.029 A 
ATOM     18  N   UNL A   1      39.968  29.300  29.911  1.00  0.00    -0.354 N 
ATOM     19  C   UNL A   1      42.999  27.724  32.558  1.00  0.00     0.074 A 
ATOM     20  C   UNL A   1      43.791  26.711  31.898  1.00  0.00     0.031 C 
ATOM     21  C   UNL A   1      38.899  29.571  27.966  1.00  0.00     0.029 A 
ATOM     22  C   UNL A   1      38.887  29.954  29.374  1.00  0.00     0.049 A 
ATOM     23  H   UNL A   1      40.249  29.403  30.849  1.00  0.00     0.167 HD
ATOM     24  C   UNL A   1      43.210  28.142  33.827  1.00  0.00     0.031 A 
ATOM     25  C   UNL A   1      37.986  30.769  29.956  1.00  0.00     0.031 A 
ATOM     26  C   UNL A   1      42.404  29.123  34.492  1.00  0.00     0.049 A 
ATOM     27  C   UNL A   1      38.164  31.132  31.404  1.00  0.00     0.074 A 
ATOM     28  C   UNL A   1      42.534  29.629  35.772  1.00  0.00     0.029 A 
ATOM     29  N   UNL A   1      41.298  29.740  33.924  1.00  0.00    -0.354 N 
ATOM     30  N   UNL A   1      39.102  30.753  32.239  1.00  0.00    -0.248 NA
ATOM     31  C   UNL A   1      37.183  32.063  31.980  1.00  0.00     0.031 C 
ATOM     32  C   UNL A   1      41.480  30.523  35.993  1.00  0.00     0.029 A 
ATOM     33  C   UNL A   1      40.721  30.606  34.836  1.00  0.00     0.049 A 
ATOM     34  H   UNL A   1      40.972  29.583  33.009  1.00  0.00     0.167 HD
ATOM     35  C   UNL A   1      38.854  31.435  33.422  1.00  0.00     0.074 A 
ATOM     36  C   UNL A   1      37.672  32.245  33.199  1.00  0.00     0.031 C 
ATOM     37  C   UNL A   1      39.552  31.409  34.584  1.00  0.00     0.031 A 
BRANCH  24  38
ATOM     38  C   UNL A   1      44.363  27.511  34.552  1.00  0.00    -0.014 A 
ATOM     39  C   UNL A   1      45.655  28.055  34.457  1.00  0.00     0.009 A 
ATOM     40  C   UNL A   1      44.170  26.337  35.293  1.00  0.00     0.009 A 
ATOM     41  C   UNL A   1      46.741  27.405  35.046  1.00  0.00     0.001 A 
ATOM     42  C   UNL A   1      45.255  25.702  35.901  1.00  0.00     0.001 A 
ATOM     43  C   UNL A   1      46.540  26.228  35.765  1.00  0.00     0.000 A 
ENDBRANCH  24  38
BRANCH  25  44
ATOM     44  C   UNL A   1      36.849  31.308  29.166  1.00  0.00    -0.014 A 
ATOM     45  C   UNL A   1      36.858  32.632  28.702  1.00  0.00     0.009 A 
ATOM     46  C   UNL A   1      35.740  30.496  28.877  1.00  0.00     0.009 A 
ATOM     47  C   UNL A   1      35.770  33.138  27.986  1.00  0.00     0.001 A 
ATOM     48  C   UNL A   1      34.663  30.999  28.144  1.00  0.00     0.001 A 
ATOM     49  C   UNL A   1      34.675  32.323  27.706  1.00  0.00     0.000 A 
ENDBRANCH  25  44
BRANCH  37  50
ATOM     50  C   UNL A   1      39.092  32.322  35.681  1.00  0.00    -0.014 A 
ATOM     51  C   UNL A   1      38.191  31.886  36.664  1.00  0.00     0.009 A 
ATOM     52  C   UNL A   1      39.616  33.622  35.760  1.00  0.00     0.009 A 
ATOM     53  C   UNL A   1      37.805  32.746  37.693  1.00  0.00     0.001 A 
ATOM     54  C   UNL A   1      39.247  34.471  36.804  1.00  0.00     0.001 A 
ATOM     55  C   UNL A   1      38.337  34.034  37.766  1.00  0.00     0.000 A 
ENDBRANCH  37  50
ENDBRANCH  11  12
ENDBRANCH   4   6
ENDBRANCH   3   4
ENDBRANCH   2   3
ENDBRANCH   1   2
BRANCH   1  56
ATOM     56  O   UNL A   1      41.415  21.257  25.758  1.00  0.00    -0.458 OA
BRANCH  56  57
ATOM     57  C   UNL A   1      40.573  21.414  26.811  1.00  0.00     0.338 C 
ATOM     58  O   UNL A   1      40.798  21.175  27.985  1.00  0.00    -0.246 OA
BRANCH  57  59
ATOM     59  C   UNL A   1      39.351  22.085  26.345  1.00  0.00     0.061 A 
ATOM     60  C   UNL A   1      39.135  23.440  26.564  1.00  0.00     0.019 A 
ATOM     61  C   UNL A   1      38.380  21.308  25.710  1.00  0.00     0.040 A 
ATOM     62  C   UNL A   1      37.932  24.006  26.141  1.00  0.00     0.049 A 
ATOM     63  C   UNL A   1      37.142  21.865  25.358  1.00  0.00     0.083 A 
ATOM     64  C   UNL A   1      36.916  23.235  25.545  1.00  0.00     0.137 A 
ATOM     65  Cl  UNL A   1      35.956  20.714  24.841  1.00  0.00    -0.080 Cl
BRANCH  64  66
ATOM     66  O   UNL A   1      35.819  23.999  25.269  1.00  0.00    -0.492 OA
BRANCH  66  67
ATOM     67  C   UNL A   1      34.515  23.669  25.732  1.00  0.00     0.233 C 
BRANCH  67  68
ATOM     68  C   UNL A   1      33.431  23.809  24.666  1.00  0.00     0.030 C 
ATOM     69  C   UNL A   1      33.825  23.215  23.300  1.00  0.00     0.011 C 
ATOM     70  C   UNL A   1      32.062  23.155  24.953  1.00  0.00    -0.004 C 
ATOM     71  C   UNL A   1      32.571  22.407  22.916  1.00  0.00    -0.010 C 
ATOM     72  C   UNL A   1      32.190  21.640  25.164  1.00  0.00     0.004 C 
ATOM     73  C   UNL A   1      31.441  23.217  23.553  1.00  0.00     0.007 C 
ATOM     74  C   UNL A   1      32.544  21.123  23.762  1.00  0.00     0.004 C 
ENDBRANCH  67  68
ENDBRANCH  66  67
ENDBRANCH  64  66
ENDBRANCH  57  59
ENDBRANCH  56  57
ENDBRANCH   1  56
TORSDOF 14
ENDMDL
MODEL 2
REMARK VINA RESULT:     -10.8      4.428      7.288
REMARK SMILES O=C(OCCOC(=O)c1ccc(OC[C@H]2C[C@H]3CC[C@@H]2C3)c(Cl)c1)c1ccc(-c2c3nc(c(-c4ccccc4)c4ccc([nH]4)c(-c4ccccc4)c4nc(c(-c5ccccc5)c5ccc2[nH]5)C=C4)C=C3)cc1
REMARK SMILES IDX 5 1 4 2 3 3 2 4 1 5 25 6 26 7 72 8 27 9 71 10 28 11 29 12
REMARK SMILES IDX 30 13 65 14 31 15 70 16 64 17 66 18 32 19 69 20 63 21 62 22
REMARK SMILES IDX 33 24 55 25 40 26 54 27 41 28 44 29 53 30 67 31 42 32 43 33
REMARK SMILES IDX 52 35 68 36 45 37 34 38 35 39 39 40 36 41 38 42 37 43 56 44
REMARK SMILES IDX 57 45 61 46 58 47 60 48 59 49 46 50 47 51 51 52 48 53 50 54
REMARK SMILES IDX 49 55 6 56 7 57 8 58 9 59 10 60 24 61 11 62 22 63 12 64
REMARK SMILES IDX 23 65 13 66 14 67 15 68 16 69 20 70 17 71 19 72 21 73 18 74
REMARK H PARENT 66 23 44 34
REMARK Flexibility Score: inf
ROOT
ATOM      1  C   UNL A   1      44.995  20.210  24.382  1.00  0.00     0.275 C 
ENDROOT
BRANCH   1   2
ATOM      2  C   UNL A   1      44.271  19.228  25.305  1.00  0.00     0.275 C 
BRANCH   2   3
ATOM      3  O   UNL A   1      42.860  19.144  25.045  1.00  0.00    -0.458 OA
BRANCH   3   4
ATOM      4  C   UNL A   1      41.854  19.655  25.793  1.00  0.00     0.338 C 
ATOM      5  O   UNL A   1      40.778  19.062  25.834  1.00  0.00    -0.246 OA
BRANCH   4   6
ATOM      6  C   UNL A   1      41.912  21.028  26.386  1.00  0.00     0.060 A 
ATOM      7  C   UNL A   1      41.663  22.233  25.726  1.00  0.00     0.016 A 
ATOM      8  C   UNL A   1      42.290  21.091  27.739  1.00  0.00     0.016 A 
ATOM      9  C   UNL A   1      41.746  23.457  26.402  1.00  0.00     0.010 A 
ATOM     10  C   UNL A   1      42.338  22.306  28.430  1.00  0.00     0.010 A 
ATOM     11  C   UNL A   1      42.084  23.502  27.756  1.00  0.00    -0.014 A 
BRANCH  11  12
ATOM     12  C   UNL A   1      42.325  24.801  28.425  1.00  0.00     0.031 A 
ATOM     13  C   UNL A   1      43.660  25.040  29.069  1.00  0.00     0.074 A 
ATOM     14  C   UNL A   1      41.381  25.758  28.447  1.00  0.00     0.049 A 
ATOM     15  N   UNL A   1      44.101  26.106  29.686  1.00  0.00    -0.248 NA
ATOM     16  C   UNL A   1      44.632  23.936  28.998  1.00  0.00     0.031 C 
ATOM     17  C   UNL A   1      40.063  25.661  27.822  1.00  0.00     0.029 A 
ATOM     18  N   UNL A   1      41.380  27.000  29.031  1.00  0.00    -0.354 N 
ATOM     19  C   UNL A   1      45.407  25.809  30.050  1.00  0.00     0.074 A 
ATOM     20  C   UNL A   1      45.663  24.443  29.653  1.00  0.00     0.031 C 
ATOM     21  C   UNL A   1      39.361  26.774  28.098  1.00  0.00     0.029 A 
ATOM     22  C   UNL A   1      40.184  27.664  28.910  1.00  0.00     0.049 A 
ATOM     23  H   UNL A   1      42.163  27.378  29.493  1.00  0.00     0.167 HD
ATOM     24  C   UNL A   1      46.328  26.612  30.630  1.00  0.00     0.031 A 
ATOM     25  C   UNL A   1      39.798  28.856  29.404  1.00  0.00     0.031 A 
ATOM     26  C   UNL A   1      46.065  27.957  31.053  1.00  0.00     0.049 A 
ATOM     27  C   UNL A   1      40.798  29.690  30.154  1.00  0.00     0.074 A 
ATOM     28  C   UNL A   1      46.925  28.865  31.642  1.00  0.00     0.029 A 
ATOM     29  N   UNL A   1      44.831  28.583  30.941  1.00  0.00    -0.354 N 
ATOM     30  N   UNL A   1      42.053  29.424  30.428  1.00  0.00    -0.248 NA
ATOM     31  C   UNL A   1      40.342  31.004  30.630  1.00  0.00     0.031 C 
ATOM     32  C   UNL A   1      46.200  30.028  31.924  1.00  0.00     0.029 A 
ATOM     33  C   UNL A   1      44.901  29.859  31.471  1.00  0.00     0.049 A 
ATOM     34  H   UNL A   1      44.027  28.179  30.544  1.00  0.00     0.167 HD
ATOM     35  C   UNL A   1      42.550  30.553  31.064  1.00  0.00     0.074 A 
ATOM     36  C   UNL A   1      41.459  31.504  31.142  1.00  0.00     0.031 C 
ATOM     37  C   UNL A   1      43.802  30.790  31.526  1.00  0.00     0.031 A 
BRANCH  24  38
ATOM     38  C   UNL A   1      47.692  26.023  30.835  1.00  0.00    -0.014 A 
ATOM     39  C   UNL A   1      48.099  25.579  32.105  1.00  0.00     0.009 A 
ATOM     40  C   UNL A   1      48.598  25.957  29.767  1.00  0.00     0.009 A 
ATOM     41  C   UNL A   1      49.405  25.131  32.312  1.00  0.00     0.001 A 
ATOM     42  C   UNL A   1      49.896  25.486  29.973  1.00  0.00     0.001 A 
ATOM     43  C   UNL A   1      50.302  25.086  31.247  1.00  0.00     0.000 A 
ENDBRANCH  24  38
BRANCH  25  44
ATOM     44  C   UNL A   1      38.408  29.336  29.189  1.00  0.00    -0.014 A 
ATOM     45  C   UNL A   1      37.441  29.218  30.199  1.00  0.00     0.009 A 
ATOM     46  C   UNL A   1      38.040  29.914  27.963  1.00  0.00     0.009 A 
ATOM     47  C   UNL A   1      36.129  29.646  29.976  1.00  0.00     0.001 A 
ATOM     48  C   UNL A   1      36.734  30.358  27.751  1.00  0.00     0.001 A 
ATOM     49  C   UNL A   1      35.777  30.217  28.755  1.00  0.00     0.000 A 
ENDBRANCH  25  44
BRANCH  37  50
ATOM     50  C   UNL A   1      44.075  32.147  32.103  1.00  0.00    -0.014 A 
ATOM     51  C   UNL A   1      44.481  33.217  31.291  1.00  0.00     0.009 A 
ATOM     52  C   UNL A   1      43.866  32.368  33.474  1.00  0.00     0.009 A 
ATOM     53  C   UNL A   1      44.696  34.478  31.848  1.00  0.00     0.001 A 
ATOM     54  C   UNL A   1      44.057  33.636  34.022  1.00  0.00     0.001 A 
ATOM     55  C   UNL A   1      44.478  34.688  33.211  1.00  0.00     0.000 A 
ENDBRANCH  37  50
ENDBRANCH  11  12
ENDBRANCH   4   6
ENDBRANCH   3   4
ENDBRANCH   2   3
ENDBRANCH   1   2
BRANCH   1  56
ATOM     56  O   UNL A   1      45.181  21.500  24.985  1.00  0.00    -0.458 OA
BRANCH  56  57
ATOM     57  C   UNL A   1      44.799  22.549  24.212  1.00  0.00     0.338 C 
ATOM     58  O   UNL A   1      44.130  22.518  23.193  1.00  0.00    -0.246 OA
BRANCH  57  59
ATOM     59  C   UNL A   1      45.188  23.798  24.883  1.00  0.00     0.061 A 
ATOM     60  C   UNL A   1      46.387  23.909  25.577  1.00  0.00     0.019 A 
ATOM     61  C   UNL A   1      44.292  24.867  24.845  1.00  0.00     0.040 A 
ATOM     62  C   UNL A   1      46.675  25.105  26.235  1.00  0.00     0.049 A 
ATOM     63  C   UNL A   1      44.551  26.038  25.574  1.00  0.00     0.083 A 
ATOM     64  C   UNL A   1      45.766  26.180  26.256  1.00  0.00     0.137 A 
ATOM     65  Cl  UNL A   1      43.223  27.147  25.648  1.00  0.00    -0.080 Cl
BRANCH  64  66
ATOM     66  O   UNL A   1      46.248  27.213  27.006  1.00  0.00    -0.492 OA
BRANCH  66  67
ATOM     67  C   UNL A   1      46.736  28.420  26.430  1.00  0.00     0.233 C 
BRANCH  67  68
ATOM     68  C   UNL A   1      45.715  29.555  26.427  1.00  0.00     0.030 C 
ATOM     69  C   UNL A   1      44.918  29.676  27.740  1.00  0.00     0.011 C 
ATOM     70  C   UNL A   1      46.245  30.988  26.204  1.00  0.00    -0.004 C 
ATOM     71  C   UNL A   1      44.977  31.188  28.025  1.00  0.00    -0.010 C 
ATOM     72  C   UNL A   1      47.257  31.394  27.284  1.00  0.00     0.004 C 
ATOM     73  C   UNL A   1      45.011  31.795  26.622  1.00  0.00     0.007 C 
ATOM     74  C   UNL A   1      46.385  31.529  28.541  1.00  0.00     0.004 C 
ENDBRANCH  67  68
ENDBRANCH  66  67
ENDBRANCH  64  66
ENDBRANCH  57  59
ENDBRANCH  56  57
ENDBRANCH   1  56
TORSDOF 14
ENDMDL
MODEL 3
REMARK VINA RESULT:     -10.8      3.780      5.578
REMARK SMILES O=C(OCCOC(=O)c1ccc(OC[C@H]2C[C@H]3CC[C@@H]2C3)c(Cl)c1)c1ccc(-c2c3nc(c(-c4ccccc4)c4ccc([nH]4)c(-c4ccccc4)c4nc(c(-c5ccccc5)c5ccc2[nH]5)C=C4)C=C3)cc1
REMARK SMILES IDX 5 1 4 2 3 3 2 4 1 5 25 6 26 7 72 8 27 9 71 10 28 11 29 12
REMARK SMILES IDX 30 13 65 14 31 15 70 16 64 17 66 18 32 19 69 20 63 21 62 22
REMARK SMILES IDX 33 24 55 25 40 26 54 27 41 28 44 29 53 30 67 31 42 32 43 33
REMARK SMILES IDX 52 35 68 36 45 37 34 38 35 39 39 40 36 41 38 42 37 43 56 44
REMARK SMILES IDX 57 45 61 46 58 47 60 48 59 49 46 50 47 51 51 52 48 53 50 54
REMARK SMILES IDX 49 55 6 56 7 57 8 58 9 59 10 60 24 61 11 62 22 63 12 64
REMARK SMILES IDX 23 65 13 66 14 67 15 68 16 69 20 70 17 71 19 72 21 73 18 74
REMARK H PARENT 66 23 44 34
REMARK Flexibility Score: inf
ROOT
ATOM      1  C   UNL A   1      38.041  21.238  25.375  1.00  0.00     0.275 C 
ENDROOT
BRANCH   1   2
ATOM      2  C   UNL A   1      38.544  19.889  24.857  1.00  0.00     0.275 C 
BRANCH   2   3
ATOM      3  O   UNL A   1      39.505  19.272  25.729  1.00  0.00    -0.458 OA
BRANCH   3   4
ATOM      4  C   UNL A   1      40.805  19.613  25.893  1.00  0.00     0.338 C 
ATOM      5  O   UNL A   1      41.676  18.772  25.680  1.00  0.00    -0.246 OA
BRANCH   4   6
ATOM      6  C   UNL A   1      41.222  20.894  26.547  1.00  0.00     0.060 A 
ATOM      7  C   UNL A   1      41.115  21.213  27.901  1.00  0.00     0.016 A 
ATOM      8  C   UNL A   1      41.743  21.875  25.685  1.00  0.00     0.016 A 
ATOM      9  C   UNL A   1      41.550  22.451  28.389  1.00  0.00     0.010 A 
ATOM     10  C   UNL A   1      42.215  23.099  26.169  1.00  0.00     0.010 A 
ATOM     11  C   UNL A   1      42.103  23.401  27.528  1.00  0.00    -0.014 A 
BRANCH  11  12
ATOM     12  C   UNL A   1      42.415  24.764  28.016  1.00  0.00     0.031 A 
ATOM     13  C   UNL A   1      43.834  25.091  28.378  1.00  0.00     0.074 A 
ATOM     14  C   UNL A   1      41.456  25.701  28.121  1.00  0.00     0.049 A 
ATOM     15  N   UNL A   1      44.342  26.220  28.800  1.00  0.00    -0.248 NA
ATOM     16  C   UNL A   1      44.816  24.003  28.232  1.00  0.00     0.031 C 
ATOM     17  C   UNL A   1      40.051  25.519  27.762  1.00  0.00     0.029 A 
ATOM     18  N   UNL A   1      41.516  26.995  28.576  1.00  0.00    -0.354 N 
ATOM     19  C   UNL A   1      45.702  25.985  28.943  1.00  0.00     0.074 A 
ATOM     20  C   UNL A   1      45.930  24.591  28.636  1.00  0.00     0.031 C 
ATOM     21  C   UNL A   1      39.370  26.640  28.056  1.00  0.00     0.029 A 
ATOM     22  C   UNL A   1      40.295  27.621  28.616  1.00  0.00     0.049 A 
ATOM     23  H   UNL A   1      42.356  27.431  28.849  1.00  0.00     0.167 HD
ATOM     24  C   UNL A   1      46.682  26.858  29.265  1.00  0.00     0.031 A 
ATOM     25  C   UNL A   1      39.961  28.849  29.058  1.00  0.00     0.031 A 
ATOM     26  C   UNL A   1      46.452  28.234  29.601  1.00  0.00     0.049 A 
ATOM     27  C   UNL A   1      41.051  29.771  29.529  1.00  0.00     0.074 A 
ATOM     28  C   UNL A   1      47.372  29.210  29.933  1.00  0.00     0.029 A 
ATOM     29  N   UNL A   1      45.197  28.823  29.660  1.00  0.00    -0.354 N 
ATOM     30  N   UNL A   1      42.343  29.557  29.591  1.00  0.00    -0.248 NA
ATOM     31  C   UNL A   1      40.641  31.117  29.955  1.00  0.00     0.031 C 
ATOM     32  C   UNL A   1      46.668  30.383  30.234  1.00  0.00     0.029 A 
ATOM     33  C   UNL A   1      45.315  30.146  30.046  1.00  0.00     0.049 A 
ATOM     34  H   UNL A   1      44.349  28.366  29.458  1.00  0.00     0.167 HD
ATOM     35  C   UNL A   1      42.906  30.753  30.015  1.00  0.00     0.074 A 
ATOM     36  C   UNL A   1      41.813  31.687  30.204  1.00  0.00     0.031 C 
ATOM     37  C   UNL A   1      44.212  31.057  30.214  1.00  0.00     0.031 A 
BRANCH  24  38
ATOM     38  C   UNL A   1      48.082  26.317  29.269  1.00  0.00    -0.014 A 
ATOM     39  C   UNL A   1      48.824  26.236  28.078  1.00  0.00     0.009 A 
ATOM     40  C   UNL A   1      48.647  25.836  30.459  1.00  0.00     0.009 A 
ATOM     41  C   UNL A   1      50.083  25.634  28.070  1.00  0.00     0.001 A 
ATOM     42  C   UNL A   1      49.917  25.256  30.451  1.00  0.00     0.001 A 
ATOM     43  C   UNL A   1      50.628  25.143  29.255  1.00  0.00     0.000 A 
ENDBRANCH  24  38
BRANCH  25  44
ATOM     44  C   UNL A   1      38.539  29.280  29.059  1.00  0.00    -0.014 A 
ATOM     45  C   UNL A   1      37.974  29.900  27.936  1.00  0.00     0.009 A 
ATOM     46  C   UNL A   1      37.739  29.075  30.195  1.00  0.00     0.009 A 
ATOM     47  C   UNL A   1      36.644  30.330  27.958  1.00  0.00     0.001 A 
ATOM     48  C   UNL A   1      36.405  29.486  30.207  1.00  0.00     0.001 A 
ATOM     49  C   UNL A   1      35.860  30.121  29.091  1.00  0.00     0.000 A 
ENDBRANCH  25  44
BRANCH  37  50
ATOM     50  C   UNL A   1      44.536  32.469  30.600  1.00  0.00    -0.014 A 
ATOM     51  C   UNL A   1      44.893  33.426  29.639  1.00  0.00     0.009 A 
ATOM     52  C   UNL A   1      44.424  32.858  31.945  1.00  0.00     0.009 A 
ATOM     53  C   UNL A   1      45.157  34.741  30.021  1.00  0.00     0.001 A 
ATOM     54  C   UNL A   1      44.664  34.180  32.320  1.00  0.00     0.001 A 
ATOM     55  C   UNL A   1      45.036  35.119  31.360  1.00  0.00     0.000 A 
ENDBRANCH  37  50
ENDBRANCH  11  12
ENDBRANCH   4   6
ENDBRANCH   3   4
ENDBRANCH   2   3
ENDBRANCH   1   2
BRANCH   1  56
ATOM     56  O   UNL A   1      36.637  21.430  25.144  1.00  0.00    -0.458 OA
BRANCH  56  57
ATOM     57  C   UNL A   1      36.337  22.379  24.220  1.00  0.00     0.338 C 
ATOM     58  O   UNL A   1      36.847  22.536  23.123  1.00  0.00    -0.246 OA
BRANCH  57  59
ATOM     59  C   UNL A   1      35.158  23.128  24.676  1.00  0.00     0.061 A 
ATOM     60  C   UNL A   1      35.243  24.465  25.048  1.00  0.00     0.019 A 
ATOM     61  C   UNL A   1      33.945  22.444  24.772  1.00  0.00     0.040 A 
ATOM     62  C   UNL A   1      34.097  25.106  25.520  1.00  0.00     0.049 A 
ATOM     63  C   UNL A   1      32.816  23.070  25.322  1.00  0.00     0.083 A 
ATOM     64  C   UNL A   1      32.875  24.425  25.676  1.00  0.00     0.137 A 
ATOM     65  Cl  UNL A   1      31.483  22.010  25.628  1.00  0.00    -0.080 Cl
BRANCH  64  66
ATOM     66  O   UNL A   1      31.921  25.246  26.203  1.00  0.00    -0.492 OA
BRANCH  66  67
ATOM     67  C   UNL A   1      31.238  26.226  25.430  1.00  0.00     0.233 C 
BRANCH  67  68
ATOM     68  C   UNL A   1      31.242  27.617  26.060  1.00  0.00     0.030 C 
ATOM     69  C   UNL A   1      32.122  27.724  27.320  1.00  0.00     0.011 C 
ATOM     70  C   UNL A   1      31.734  28.792  25.186  1.00  0.00    -0.004 C 
ATOM     71  C   UNL A   1      32.905  29.026  27.067  1.00  0.00    -0.010 C 
ATOM     72  C   UNL A   1      33.181  28.585  24.718  1.00  0.00     0.004 C 
ATOM     73  C   UNL A   1      31.912  29.866  26.264  1.00  0.00     0.007 C 
ATOM     74  C   UNL A   1      33.990  28.743  26.014  1.00  0.00     0.004 C 
ENDBRANCH  67  68
ENDBRANCH  66  67
ENDBRANCH  64  66
ENDBRANCH  57  59
ENDBRANCH  56  57
ENDBRANCH   1  56
TORSDOF 14
ENDMDL
