MODEL 1
REMARK VINA RESULT:     -10.4      0.000      0.000
REMARK SMILES O=C(OCCOC(=O)c1cccc2nc(Cl)c(Cl)nc12)c1ccc(-c2c3nc(c(-c4ccccc4)c4ccc([nH]4)c(-c4ccccc4)c4nc(c(-c5ccccc5)c5ccc2[nH]5)C=C4)C=C3)cc1
REMARK SMILES IDX 4 1 3 2 2 3 1 4 21 5 22 6 68 7 23 8 67 9 24 10 25 11 26 12
REMARK SMILES IDX 61 13 27 14 66 15 60 16 62 17 28 18 65 19 59 20 58 21 29 23
REMARK SMILES IDX 51 24 36 25 50 26 37 27 40 28 49 29 63 30 38 31 39 32 48 34
REMARK SMILES IDX 64 35 41 36 30 37 31 38 35 39 32 40 34 41 33 42 52 43 53 44
REMARK SMILES IDX 57 45 54 46 56 47 55 48 42 49 43 50 47 51 44 52 46 53 45 54
REMARK SMILES IDX 5 55 6 56 7 57 8 58 9 59 10 60 20 61 11 62 13 63 19 64 12 65
REMARK SMILES IDX 14 66 17 67 15 68 18 69 16 70
REMARK H PARENT 62 22 40 33
REMARK Flexibility Score: inf
ROOT
ATOM      1  C   UNL A   1      33.293  37.267  30.230  1.00  0.00     0.275 C 
ENDROOT
BRANCH   1   2
ATOM      2  O   UNL A   1      32.238  36.680  31.010  1.00  0.00    -0.458 OA
BRANCH   2   3
ATOM      3  C   UNL A   1      32.340  36.102  32.232  1.00  0.00     0.338 C 
ATOM      4  O   UNL A   1      31.595  36.456  33.144  1.00  0.00    -0.246 OA
BRANCH   3   5
ATOM      5  C   UNL A   1      33.471  35.191  32.571  1.00  0.00     0.060 A 
ATOM      6  C   UNL A   1      34.760  35.698  32.351  1.00  0.00     0.016 A 
ATOM      7  C   UNL A   1      33.353  33.907  33.108  1.00  0.00     0.016 A 
ATOM      8  C   UNL A   1      35.890  34.895  32.525  1.00  0.00     0.010 A 
ATOM      9  C   UNL A   1      34.483  33.107  33.312  1.00  0.00     0.010 A 
ATOM     10  C   UNL A   1      35.760  33.583  33.003  1.00  0.00    -0.014 A 
BRANCH  10  11
ATOM     11  C   UNL A   1      36.961  32.803  33.383  1.00  0.00     0.031 A 
ATOM     12  C   UNL A   1      37.445  31.621  32.594  1.00  0.00     0.074 A 
ATOM     13  C   UNL A   1      37.604  33.177  34.504  1.00  0.00     0.049 A 
ATOM     14  N   UNL A   1      38.597  31.004  32.680  1.00  0.00    -0.248 NA
ATOM     15  C   UNL A   1      36.549  31.064  31.571  1.00  0.00     0.031 C 
ATOM     16  C   UNL A   1      37.188  34.280  35.375  1.00  0.00     0.029 A 
ATOM     17  N   UNL A   1      38.730  32.682  35.103  1.00  0.00    -0.354 N 
ATOM     18  C   UNL A   1      38.597  30.050  31.670  1.00  0.00     0.074 A 
ATOM     19  C   UNL A   1      37.309  30.124  31.018  1.00  0.00     0.031 C 
ATOM     20  C   UNL A   1      38.067  34.399  36.378  1.00  0.00     0.029 A 
ATOM     21  C   UNL A   1      39.076  33.355  36.249  1.00  0.00     0.049 A 
ATOM     22  H   UNL A   1      39.242  31.920  34.748  1.00  0.00     0.167 HD
ATOM     23  C   UNL A   1      39.587  29.194  31.327  1.00  0.00     0.031 A 
ATOM     24  C   UNL A   1      40.093  33.157  37.106  1.00  0.00     0.031 A 
ATOM     25  C   UNL A   1      40.785  29.008  32.106  1.00  0.00     0.049 A 
ATOM     26  C   UNL A   1      41.090  32.081  36.795  1.00  0.00     0.074 A 
ATOM     27  C   UNL A   1      41.831  28.132  31.874  1.00  0.00     0.029 A 
ATOM     28  N   UNL A   1      41.059  29.653  33.302  1.00  0.00    -0.354 N 
ATOM     29  N   UNL A   1      41.154  31.296  35.746  1.00  0.00    -0.248 NA
ATOM     30  C   UNL A   1      42.168  31.877  37.771  1.00  0.00     0.031 C 
ATOM     31  C   UNL A   1      42.673  28.161  32.988  1.00  0.00     0.029 A 
ATOM     32  C   UNL A   1      42.218  29.139  33.859  1.00  0.00     0.049 A 
ATOM     33  H   UNL A   1      40.511  30.369  33.697  1.00  0.00     0.167 HD
ATOM     34  C   UNL A   1      42.297  30.527  35.917  1.00  0.00     0.074 A 
ATOM     35  C   UNL A   1      42.900  30.952  37.164  1.00  0.00     0.031 C 
ATOM     36  C   UNL A   1      42.801  29.562  35.109  1.00  0.00     0.031 A 
BRANCH  23  37
ATOM     37  C   UNL A   1      39.432  28.362  30.082  1.00  0.00    -0.014 A 
ATOM     38  C   UNL A   1      39.074  27.008  30.174  1.00  0.00     0.009 A 
ATOM     39  C   UNL A   1      39.811  28.878  28.832  1.00  0.00     0.009 A 
ATOM     40  C   UNL A   1      39.131  26.179  29.050  1.00  0.00     0.001 A 
ATOM     41  C   UNL A   1      39.848  28.051  27.704  1.00  0.00     0.001 A 
ATOM     42  C   UNL A   1      39.521  26.700  27.817  1.00  0.00     0.000 A 
ENDBRANCH  23  37
BRANCH  24  43
ATOM     43  C   UNL A   1      40.217  34.038  38.297  1.00  0.00    -0.014 A 
ATOM     44  C   UNL A   1      39.542  33.725  39.491  1.00  0.00     0.009 A 
ATOM     45  C   UNL A   1      40.930  35.243  38.221  1.00  0.00     0.009 A 
ATOM     46  C   UNL A   1      39.545  34.617  40.564  1.00  0.00     0.001 A 
ATOM     47  C   UNL A   1      40.963  36.115  39.312  1.00  0.00     0.001 A 
ATOM     48  C   UNL A   1      40.259  35.809  40.475  1.00  0.00     0.000 A 
ENDBRANCH  24  43
BRANCH  36  49
ATOM     49  C   UNL A   1      44.083  28.897  35.529  1.00  0.00    -0.014 A 
ATOM     50  C   UNL A   1      45.307  29.386  35.045  1.00  0.00     0.009 A 
ATOM     51  C   UNL A   1      44.081  27.739  36.320  1.00  0.00     0.009 A 
ATOM     52  C   UNL A   1      46.500  28.721  35.327  1.00  0.00     0.001 A 
ATOM     53  C   UNL A   1      45.281  27.099  36.637  1.00  0.00     0.001 A 
ATOM     54  C   UNL A   1      46.487  27.583  36.130  1.00  0.00     0.000 A 
ENDBRANCH  36  49
ENDBRANCH  10  11
ENDBRANCH   3   5
ENDBRANCH   2   3
ENDBRANCH   1   2
BRANCH   1  55
ATOM     55  C   UNL A   1      33.340  36.808  28.771  1.00  0.00     0.275 C 
BRANCH  55  56
ATOM     56  O   UNL A   1      34.280  35.748  28.535  1.00  0.00    -0.458 OA
BRANCH  56  57
ATOM     57  C   UNL A   1      33.825  34.492  28.790  1.00  0.00     0.340 C 
ATOM     58  O   UNL A   1      32.699  34.180  29.140  1.00  0.00    -0.246 OA
BRANCH  57  59
ATOM     59  C   UNL A   1      34.936  33.540  28.612  1.00  0.00     0.088 A 
ATOM     60  C   UNL A   1      36.238  33.972  28.908  1.00  0.00     0.018 A 
ATOM     61  C   UNL A   1      34.673  32.247  28.142  1.00  0.00     0.105 A 
ATOM     62  C   UNL A   1      37.303  33.102  28.723  1.00  0.00     0.003 A 
ATOM     63  C   UNL A   1      35.784  31.388  27.926  1.00  0.00     0.091 A 
ATOM     64  N   UNL A   1      33.424  31.821  27.825  1.00  0.00    -0.230 NA
ATOM     65  C   UNL A   1      37.067  31.826  28.221  1.00  0.00     0.031 A 
ATOM     66  N   UNL A   1      35.651  30.156  27.405  1.00  0.00    -0.231 NA
ATOM     67  C   UNL A   1      33.300  30.576  27.305  1.00  0.00     0.167 A 
ATOM     68  C   UNL A   1      34.395  29.762  27.092  1.00  0.00     0.167 A 
ATOM     69  Cl  UNL A   1      31.692  30.151  26.890  1.00  0.00    -0.059 Cl
ATOM     70  Cl  UNL A   1      34.322  28.202  26.383  1.00  0.00    -0.059 Cl
ENDBRANCH  57  59
ENDBRANCH  56  57
ENDBRANCH  55  56
ENDBRANCH   1  55
TORSDOF 11
ENDMDL
MODEL 2
REMARK VINA RESULT:     -10.2      2.853      7.448
REMARK SMILES O=C(OCCOC(=O)c1cccc2nc(Cl)c(Cl)nc12)c1ccc(-c2c3nc(c(-c4ccccc4)c4ccc([nH]4)c(-c4ccccc4)c4nc(c(-c5ccccc5)c5ccc2[nH]5)C=C4)C=C3)cc1
REMARK SMILES IDX 4 1 3 2 2 3 1 4 21 5 22 6 68 7 23 8 67 9 24 10 25 11 26 12
REMARK SMILES IDX 61 13 27 14 66 15 60 16 62 17 28 18 65 19 59 20 58 21 29 23
REMARK SMILES IDX 51 24 36 25 50 26 37 27 40 28 49 29 63 30 38 31 39 32 48 34
REMARK SMILES IDX 64 35 41 36 30 37 31 38 35 39 32 40 34 41 33 42 52 43 53 44
REMARK SMILES IDX 57 45 54 46 56 47 55 48 42 49 43 50 47 51 44 52 46 53 45 54
REMARK SMILES IDX 5 55 6 56 7 57 8 58 9 59 10 60 20 61 11 62 13 63 19 64 12 65
REMARK SMILES IDX 14 66 17 67 15 68 18 69 16 70
REMARK H PARENT 62 22 40 33
REMARK Flexibility Score: inf
ROOT
ATOM      1  C   UNL A   1      31.813  32.428  27.177  1.00  0.00     0.275 C 
ENDROOT
BRANCH   1   2
ATOM      2  O   UNL A   1      32.476  33.701  27.257  1.00  0.00    -0.458 OA
BRANCH   2   3
ATOM      3  C   UNL A   1      33.003  34.288  28.360  1.00  0.00     0.338 C 
ATOM      4  O   UNL A   1      32.536  35.346  28.776  1.00  0.00    -0.246 OA
BRANCH   3   5
ATOM      5  C   UNL A   1      34.272  33.799  28.972  1.00  0.00     0.060 A 
ATOM      6  C   UNL A   1      34.137  32.894  30.035  1.00  0.00     0.016 A 
ATOM      7  C   UNL A   1      35.562  34.140  28.560  1.00  0.00     0.016 A 
ATOM      8  C   UNL A   1      35.251  32.458  30.756  1.00  0.00     0.010 A 
ATOM      9  C   UNL A   1      36.685  33.683  29.261  1.00  0.00     0.010 A 
ATOM     10  C   UNL A   1      36.541  32.857  30.378  1.00  0.00    -0.014 A 
BRANCH  10  11
ATOM     11  C   UNL A   1      37.730  32.237  31.007  1.00  0.00     0.031 A 
ATOM     12  C   UNL A   1      38.296  32.707  32.315  1.00  0.00     0.074 A 
ATOM     13  C   UNL A   1      38.322  31.231  30.337  1.00  0.00     0.049 A 
ATOM     14  N   UNL A   1      39.176  32.112  33.081  1.00  0.00    -0.248 NA
ATOM     15  C   UNL A   1      37.815  33.990  32.849  1.00  0.00     0.031 C 
ATOM     16  C   UNL A   1      37.886  30.727  29.031  1.00  0.00     0.029 A 
ATOM     17  N   UNL A   1      39.406  30.456  30.650  1.00  0.00    -0.354 N 
ATOM     18  C   UNL A   1      39.286  32.899  34.221  1.00  0.00     0.074 A 
ATOM     19  C   UNL A   1      38.430  34.048  34.026  1.00  0.00     0.031 C 
ATOM     20  C   UNL A   1      38.673  29.706  28.672  1.00  0.00     0.029 A 
ATOM     21  C   UNL A   1      39.696  29.515  29.692  1.00  0.00     0.049 A 
ATOM     22  H   UNL A   1      39.926  30.563  31.479  1.00  0.00     0.167 HD
ATOM     23  C   UNL A   1      40.038  32.675  35.323  1.00  0.00     0.031 A 
ATOM     24  C   UNL A   1      40.676  28.597  29.638  1.00  0.00     0.031 A 
ATOM     25  C   UNL A   1      41.022  31.626  35.417  1.00  0.00     0.049 A 
ATOM     26  C   UNL A   1      41.612  28.480  30.804  1.00  0.00     0.074 A 
ATOM     27  C   UNL A   1      41.871  31.339  36.471  1.00  0.00     0.029 A 
ATOM     28  N   UNL A   1      41.338  30.745  34.395  1.00  0.00    -0.354 N 
ATOM     29  N   UNL A   1      41.594  29.133  31.942  1.00  0.00    -0.248 NA
ATOM     30  C   UNL A   1      42.686  27.486  30.692  1.00  0.00     0.031 C 
ATOM     31  C   UNL A   1      42.779  30.369  36.042  1.00  0.00     0.029 A 
ATOM     32  C   UNL A   1      42.422  29.966  34.764  1.00  0.00     0.049 A 
ATOM     33  H   UNL A   1      40.864  30.682  33.534  1.00  0.00     0.167 HD
ATOM     34  C   UNL A   1      42.634  28.607  32.697  1.00  0.00     0.074 A 
ATOM     35  C   UNL A   1      43.250  27.572  31.891  1.00  0.00     0.031 C 
ATOM     36  C   UNL A   1      43.034  28.948  33.946  1.00  0.00     0.031 A 
BRANCH  23  37
ATOM     37  C   UNL A   1      39.869  33.578  36.516  1.00  0.00    -0.014 A 
ATOM     38  C   UNL A   1      38.879  33.309  37.474  1.00  0.00     0.009 A 
ATOM     39  C   UNL A   1      40.577  34.788  36.596  1.00  0.00     0.009 A 
ATOM     40  C   UNL A   1      38.576  34.246  38.466  1.00  0.00     0.001 A 
ATOM     41  C   UNL A   1      40.286  35.715  37.601  1.00  0.00     0.001 A 
ATOM     42  C   UNL A   1      39.277  35.450  38.527  1.00  0.00     0.000 A 
ENDBRANCH  23  37
BRANCH  24  43
ATOM     43  C   UNL A   1      40.767  27.706  28.452  1.00  0.00    -0.014 A 
ATOM     44  C   UNL A   1      41.465  28.115  27.302  1.00  0.00     0.009 A 
ATOM     45  C   UNL A   1      40.078  26.484  28.424  1.00  0.00     0.009 A 
ATOM     46  C   UNL A   1      41.438  27.342  26.140  1.00  0.00     0.001 A 
ATOM     47  C   UNL A   1      40.086  25.694  27.272  1.00  0.00     0.001 A 
ATOM     48  C   UNL A   1      40.752  26.130  26.128  1.00  0.00     0.000 A 
ENDBRANCH  24  43
BRANCH  36  49
ATOM     49  C   UNL A   1      44.188  28.189  34.542  1.00  0.00    -0.014 A 
ATOM     50  C   UNL A   1      45.497  28.669  34.367  1.00  0.00     0.009 A 
ATOM     51  C   UNL A   1      43.999  26.959  35.190  1.00  0.00     0.009 A 
ATOM     52  C   UNL A   1      46.591  27.928  34.810  1.00  0.00     0.001 A 
ATOM     53  C   UNL A   1      45.095  26.239  35.671  1.00  0.00     0.001 A 
ATOM     54  C   UNL A   1      46.389  26.718  35.470  1.00  0.00     0.000 A 
ENDBRANCH  36  49
ENDBRANCH  10  11
ENDBRANCH   3   5
ENDBRANCH   2   3
ENDBRANCH   1   2
BRANCH   1  55
ATOM     55  C   UNL A   1      32.749  31.218  27.196  1.00  0.00     0.275 C 
BRANCH  55  56
ATOM     56  O   UNL A   1      32.635  30.389  26.028  1.00  0.00    -0.458 OA
BRANCH  56  57
ATOM     57  C   UNL A   1      31.897  29.257  26.182  1.00  0.00     0.340 C 
ATOM     58  O   UNL A   1      31.464  28.803  27.228  1.00  0.00    -0.246 OA
BRANCH  57  59
ATOM     59  C   UNL A   1      31.726  28.620  24.863  1.00  0.00     0.088 A 
ATOM     60  C   UNL A   1      32.565  27.548  24.525  1.00  0.00     0.018 A 
ATOM     61  C   UNL A   1      30.751  29.106  23.981  1.00  0.00     0.105 A 
ATOM     62  C   UNL A   1      32.439  26.950  23.280  1.00  0.00     0.003 A 
ATOM     63  C   UNL A   1      30.668  28.500  22.698  1.00  0.00     0.091 A 
ATOM     64  N   UNL A   1      29.949  30.158  24.279  1.00  0.00    -0.230 NA
ATOM     65  C   UNL A   1      31.504  27.441  22.375  1.00  0.00     0.031 A 
ATOM     66  N   UNL A   1      29.823  28.939  21.749  1.00  0.00    -0.231 NA
ATOM     67  C   UNL A   1      29.097  30.589  23.318  1.00  0.00     0.167 A 
ATOM     68  C   UNL A   1      29.042  29.994  22.073  1.00  0.00     0.167 A 
ATOM     69  Cl  UNL A   1      28.165  31.954  23.773  1.00  0.00    -0.059 Cl
ATOM     70  Cl  UNL A   1      28.034  30.523  20.789  1.00  0.00    -0.059 Cl
ENDBRANCH  57  59
ENDBRANCH  56  57
ENDBRANCH  55  56
ENDBRANCH   1  55
TORSDOF 11
ENDMDL
MODEL 3
REMARK VINA RESULT:     -10.1      4.118      6.639
REMARK SMILES O=C(OCCOC(=O)c1cccc2nc(Cl)c(Cl)nc12)c1ccc(-c2c3nc(c(-c4ccccc4)c4ccc([nH]4)c(-c4ccccc4)c4nc(c(-c5ccccc5)c5ccc2[nH]5)C=C4)C=C3)cc1
REMARK SMILES IDX 4 1 3 2 2 3 1 4 21 5 22 6 68 7 23 8 67 9 24 10 25 11 26 12
REMARK SMILES IDX 61 13 27 14 66 15 60 16 62 17 28 18 65 19 59 20 58 21 29 23
REMARK SMILES IDX 51 24 36 25 50 26 37 27 40 28 49 29 63 30 38 31 39 32 48 34
REMARK SMILES IDX 64 35 41 36 30 37 31 38 35 39 32 40 34 41 33 42 52 43 53 44
REMARK SMILES IDX 57 45 54 46 56 47 55 48 42 49 43 50 47 51 44 52 46 53 45 54
REMARK SMILES IDX 5 55 6 56 7 57 8 58 9 59 10 60 20 61 11 62 13 63 19 64 12 65
REMARK SMILES IDX 14 66 17 67 15 68 18 69 16 70
REMARK H PARENT 62 22 40 33
REMARK Flexibility Score: inf
ROOT
ATOM      1  C   UNL A   1      34.228  33.215  28.002  1.00  0.00     0.275 C 
ENDROOT
BRANCH   1   2
ATOM      2  O   UNL A   1      34.161  31.909  28.599  1.00  0.00    -0.458 OA
BRANCH   2   3
ATOM      3  C   UNL A   1      34.623  30.743  28.085  1.00  0.00     0.338 C 
ATOM      4  O   UNL A   1      33.874  30.020  27.431  1.00  0.00    -0.246 OA
BRANCH   3   5
ATOM      5  C   UNL A   1      35.960  30.201  28.463  1.00  0.00     0.060 A 
ATOM      6  C   UNL A   1      36.953  30.264  27.475  1.00  0.00     0.016 A 
ATOM      7  C   UNL A   1      36.305  29.671  29.709  1.00  0.00     0.016 A 
ATOM      8  C   UNL A   1      38.209  29.684  27.677  1.00  0.00     0.010 A 
ATOM      9  C   UNL A   1      37.571  29.115  29.927  1.00  0.00     0.010 A 
ATOM     10  C   UNL A   1      38.527  29.096  28.909  1.00  0.00    -0.014 A 
BRANCH  10  11
ATOM     11  C   UNL A   1      39.916  28.667  29.196  1.00  0.00     0.031 A 
ATOM     12  C   UNL A   1      40.432  27.300  28.854  1.00  0.00     0.074 A 
ATOM     13  C   UNL A   1      40.714  29.555  29.817  1.00  0.00     0.049 A 
ATOM     14  N   UNL A   1      41.672  26.880  28.836  1.00  0.00    -0.248 NA
ATOM     15  C   UNL A   1      39.453  26.273  28.469  1.00  0.00     0.031 C 
ATOM     16  C   UNL A   1      40.299  30.896  30.241  1.00  0.00     0.029 A 
ATOM     17  N   UNL A   1      42.026  29.474  30.199  1.00  0.00    -0.354 N 
ATOM     18  C   UNL A   1      41.630  25.577  28.355  1.00  0.00     0.074 A 
ATOM     19  C   UNL A   1      40.237  25.248  28.148  1.00  0.00     0.031 C 
ATOM     20  C   UNL A   1      41.345  31.522  30.794  1.00  0.00     0.029 A 
ATOM     21  C   UNL A   1      42.486  30.615  30.808  1.00  0.00     0.049 A 
ATOM     22  H   UNL A   1      42.583  28.676  30.051  1.00  0.00     0.167 HD
ATOM     23  C   UNL A   1      42.665  24.740  28.114  1.00  0.00     0.031 A 
ATOM     24  C   UNL A   1      43.693  30.904  31.324  1.00  0.00     0.031 A 
ATOM     25  C   UNL A   1      44.024  25.020  28.503  1.00  0.00     0.049 A 
ATOM     26  C   UNL A   1      44.788  29.886  31.198  1.00  0.00     0.074 A 
ATOM     27  C   UNL A   1      45.142  24.219  28.348  1.00  0.00     0.029 A 
ATOM     28  N   UNL A   1      44.433  26.153  29.189  1.00  0.00    -0.354 N 
ATOM     29  N   UNL A   1      44.762  28.721  30.595  1.00  0.00    -0.248 NA
ATOM     30  C   UNL A   1      46.081  30.228  31.800  1.00  0.00     0.031 C 
ATOM     31  C   UNL A   1      46.197  24.812  29.045  1.00  0.00     0.029 A 
ATOM     32  C   UNL A   1      45.769  26.038  29.532  1.00  0.00     0.049 A 
ATOM     33  H   UNL A   1      43.859  26.925  29.400  1.00  0.00     0.167 HD
ATOM     34  C   UNL A   1      46.044  28.204  30.715  1.00  0.00     0.074 A 
ATOM     35  C   UNL A   1      46.824  29.190  31.436  1.00  0.00     0.031 C 
ATOM     36  C   UNL A   1      46.530  27.022  30.262  1.00  0.00     0.031 A 
BRANCH  23  37
ATOM     37  C   UNL A   1      42.395  23.427  27.427  1.00  0.00    -0.014 A 
ATOM     38  C   UNL A   1      42.009  22.303  28.173  1.00  0.00     0.009 A 
ATOM     39  C   UNL A   1      42.692  23.266  26.064  1.00  0.00     0.009 A 
ATOM     40  C   UNL A   1      41.960  21.038  27.580  1.00  0.00     0.001 A 
ATOM     41  C   UNL A   1      42.622  22.003  25.468  1.00  0.00     0.001 A 
ATOM     42  C   UNL A   1      42.270  20.888  26.229  1.00  0.00     0.000 A 
ENDBRANCH  23  37
BRANCH  24  43
ATOM     43  C   UNL A   1      43.911  32.234  31.953  1.00  0.00    -0.014 A 
ATOM     44  C   UNL A   1      43.583  32.447  33.303  1.00  0.00     0.009 A 
ATOM     45  C   UNL A   1      44.358  33.320  31.187  1.00  0.00     0.009 A 
ATOM     46  C   UNL A   1      43.657  33.725  33.860  1.00  0.00     0.001 A 
ATOM     47  C   UNL A   1      44.469  34.590  31.758  1.00  0.00     0.001 A 
ATOM     48  C   UNL A   1      44.104  34.794  33.088  1.00  0.00     0.000 A 
ENDBRANCH  24  43
BRANCH  36  49
ATOM     49  C   UNL A   1      47.983  26.721  30.513  1.00  0.00    -0.014 A 
ATOM     50  C   UNL A   1      48.931  27.011  29.518  1.00  0.00     0.009 A 
ATOM     51  C   UNL A   1      48.404  26.069  31.681  1.00  0.00     0.009 A 
ATOM     52  C   UNL A   1      50.266  26.639  29.679  1.00  0.00     0.001 A 
ATOM     53  C   UNL A   1      49.748  25.736  31.859  1.00  0.00     0.001 A 
ATOM     54  C   UNL A   1      50.674  26.009  30.853  1.00  0.00     0.000 A 
ENDBRANCH  36  49
ENDBRANCH  10  11
ENDBRANCH   3   5
ENDBRANCH   2   3
ENDBRANCH   1   2
BRANCH   1  55
ATOM     55  C   UNL A   1      32.924  34.013  28.062  1.00  0.00     0.275 C 
BRANCH  55  56
ATOM     56  O   UNL A   1      32.637  34.540  29.368  1.00  0.00    -0.458 OA
BRANCH  56  57
ATOM     57  C   UNL A   1      33.090  35.801  29.604  1.00  0.00     0.340 C 
ATOM     58  O   UNL A   1      33.202  36.701  28.789  1.00  0.00    -0.246 OA
BRANCH  57  59
ATOM     59  C   UNL A   1      33.470  35.909  31.024  1.00  0.00     0.088 A 
ATOM     60  C   UNL A   1      32.683  36.707  31.867  1.00  0.00     0.018 A 
ATOM     61  C   UNL A   1      34.605  35.233  31.491  1.00  0.00     0.105 A 
ATOM     62  C   UNL A   1      33.036  36.845  33.201  1.00  0.00     0.003 A 
ATOM     63  C   UNL A   1      34.967  35.421  32.853  1.00  0.00     0.091 A 
ATOM     64  N   UNL A   1      35.394  34.479  30.685  1.00  0.00    -0.230 NA
ATOM     65  C   UNL A   1      34.181  36.214  33.676  1.00  0.00     0.031 A 
ATOM     66  N   UNL A   1      36.079  34.882  33.382  1.00  0.00    -0.231 NA
ATOM     67  C   UNL A   1      36.510  33.936  31.230  1.00  0.00     0.167 A 
ATOM     68  C   UNL A   1      36.849  34.142  32.553  1.00  0.00     0.167 A 
ATOM     69  Cl  UNL A   1      37.466  33.045  30.121  1.00  0.00    -0.059 Cl
ATOM     70  Cl  UNL A   1      38.274  33.539  33.295  1.00  0.00    -0.059 Cl
ENDBRANCH  57  59
ENDBRANCH  56  57
ENDBRANCH  55  56
ENDBRANCH   1  55
TORSDOF 11
ENDMDL
