MODEL 1
REMARK VINA RESULT:     -12.6      0.000      0.000
REMARK SMILES Cc1c(C(=O)Nc2ccc(C(=O)Nc3ccccc3C(=O)OCCOC(=O)c3ccc(-c4c5nc(c(-c6ccccc6)c6ccc([nH]6)c(-c6ccccc6)c6nc(c(-c7ccccc7)c7ccc4[nH]7)C=C6)C=C5)cc3)cc2)cccc1[N+](=O)[O-]
REMARK SMILES IDX 22 1 20 2 21 3 19 4 14 5 15 6 16 7 18 8 17 9 13 10 11 11
REMARK SMILES IDX 12 12 10 14 7 15 8 16 77 17 9 18 76 19 6 20 4 21 5 22 3 24
REMARK SMILES IDX 1 25 2 26 81 27 78 28 80 29 79 30 82 31 83 32 84 33 23 34
REMARK SMILES IDX 24 35 25 36 26 37 27 38 28 39 29 40 75 41 30 42 74 43 31 44
REMARK SMILES IDX 32 45 33 46 68 47 34 48 73 49 67 50 69 51 35 52 72 53 66 54
REMARK SMILES IDX 65 55 36 57 58 58 43 59 57 60 44 61 47 62 56 63 70 64 45 65
REMARK SMILES IDX 46 66 55 68 71 69 48 70 37 71 38 72 42 73 39 74 41 75 40 76
REMARK SMILES IDX 59 77 60 78 64 79 61 80 63 81 62 82 49 83 50 84 54 85 51 86
REMARK SMILES IDX 53 87 52 88
REMARK H PARENT 13 13 6 23 69 56 47 67
REMARK Flexibility Score: inf
ROOT
ATOM      1  O   UNL A   1      40.832  20.603  26.362  1.00  0.00    -0.458 OA
ENDROOT
BRANCH   1   2
ATOM      2  C   UNL A   1      39.605  20.235  25.898  1.00  0.00     0.340 C 
ATOM      3  O   UNL A   1      39.399  19.091  25.491  1.00  0.00    -0.246 OA
BRANCH   2   4
ATOM      4  C   UNL A   1      38.504  21.273  25.749  1.00  0.00     0.083 A 
ATOM      5  C   UNL A   1      37.154  21.206  25.311  1.00  0.00     0.056 A 
ATOM      6  C   UNL A   1      36.423  22.422  25.196  1.00  0.00     0.027 A 
ATOM      7  C   UNL A   1      36.928  23.652  25.606  1.00  0.00     0.002 A 
ATOM      8  C   UNL A   1      38.979  22.555  26.155  1.00  0.00     0.018 A 
ATOM      9  C   UNL A   1      38.208  23.716  26.109  1.00  0.00     0.001 A 
BRANCH   5  10
ATOM     10  N   UNL A   1      36.301  20.115  25.016  1.00  0.00    -0.321 N 
ATOM     11  C   UNL A   1      34.940  19.922  24.916  1.00  0.00     0.255 C 
ATOM     12  O   UNL A   1      34.552  18.828  24.500  1.00  0.00    -0.269 OA
ATOM     13  H   UNL A   1      36.806  19.289  24.837  1.00  0.00     0.170 HD
BRANCH  11  14
ATOM     14  C   UNL A   1      33.939  20.948  25.241  1.00  0.00     0.040 A 
ATOM     15  C   UNL A   1      32.078  22.924  25.808  1.00  0.00     0.041 A 
ATOM     16  C   UNL A   1      32.396  22.625  24.497  1.00  0.00     0.027 A 
ATOM     17  C   UNL A   1      32.818  22.374  26.856  1.00  0.00     0.027 A 
ATOM     18  C   UNL A   1      33.174  21.520  24.242  1.00  0.00     0.016 A 
ATOM     19  C   UNL A   1      33.759  21.375  26.564  1.00  0.00     0.016 A 
BRANCH  15  20
ATOM     20  N   UNL A   1      30.878  23.588  26.065  1.00  0.00    -0.322 N 
ATOM     21  C   UNL A   1      30.666  24.964  25.999  1.00  0.00     0.256 C 
ATOM     22  O   UNL A   1      29.625  25.433  26.456  1.00  0.00    -0.269 OA
ATOM     23  H   UNL A   1      30.105  23.031  26.317  1.00  0.00     0.170 HD
BRANCH  21  24
ATOM     24  C   UNL A   1      31.699  25.914  25.415  1.00  0.00     0.049 A 
ATOM     25  C   UNL A   1      30.791  25.944  23.028  1.00  0.00     0.053 C 
ATOM     26  C   UNL A   1      31.884  26.208  24.032  1.00  0.00     0.039 A 
ATOM     27  C   UNL A   1      33.126  26.779  23.642  1.00  0.00     0.273 A 
ATOM     28  C   UNL A   1      32.596  26.451  26.357  1.00  0.00     0.014 A 
ATOM     29  C   UNL A   1      34.006  27.303  24.602  1.00  0.00     0.086 A 
ATOM     30  C   UNL A   1      33.707  27.189  25.955  1.00  0.00     0.008 A 
BRANCH  27  31
ATOM     31  N   UNL A   1      33.628  26.730  22.245  1.00  0.00     0.063 N 
ATOM     32  O   UNL A   1      33.972  27.801  21.723  1.00  0.00    -0.258 OA
ATOM     33  O   UNL A   1      33.764  25.627  21.703  1.00  0.00    -0.258 OA
ENDBRANCH  27  31
ENDBRANCH  21  24
ENDBRANCH  15  20
ENDBRANCH  11  14
ENDBRANCH   5  10
ENDBRANCH   2   4
ENDBRANCH   1   2
BRANCH   1  34
ATOM     34  C   UNL A   1      41.787  19.520  26.324  1.00  0.00     0.275 C 
BRANCH  34  35
ATOM     35  C   UNL A   1      43.070  19.677  25.462  1.00  0.00     0.275 C 
BRANCH  35  36
ATOM     36  O   UNL A   1      44.032  20.752  25.641  1.00  0.00    -0.458 OA
BRANCH  36  37
ATOM     37  C   UNL A   1      44.309  21.829  24.855  1.00  0.00     0.338 C 
ATOM     38  O   UNL A   1      44.635  21.771  23.702  1.00  0.00    -0.246 OA
BRANCH  37  39
ATOM     39  C   UNL A   1      44.073  23.099  25.520  1.00  0.00     0.060 A 
ATOM     40  C   UNL A   1      44.894  24.184  25.185  1.00  0.00     0.016 A 
ATOM     41  C   UNL A   1      42.933  23.209  26.304  1.00  0.00     0.016 A 
ATOM     42  C   UNL A   1      44.515  25.455  25.558  1.00  0.00     0.010 A 
ATOM     43  C   UNL A   1      42.496  24.465  26.602  1.00  0.00     0.010 A 
ATOM     44  C   UNL A   1      43.348  25.553  26.306  1.00  0.00    -0.014 A 
BRANCH  44  45
ATOM     45  C   UNL A   1      43.260  26.552  27.347  1.00  0.00     0.031 A 
ATOM     46  C   UNL A   1      42.259  27.611  27.213  1.00  0.00     0.074 A 
ATOM     47  C   UNL A   1      43.885  26.010  28.422  1.00  0.00     0.049 A 
ATOM     48  N   UNL A   1      42.180  28.651  27.961  1.00  0.00    -0.248 NA
ATOM     49  C   UNL A   1      41.281  27.650  26.118  1.00  0.00     0.031 C 
ATOM     50  C   UNL A   1      43.631  26.021  29.846  1.00  0.00     0.029 A 
ATOM     51  N   UNL A   1      45.041  25.224  28.331  1.00  0.00    -0.354 N 
ATOM     52  C   UNL A   1      40.884  29.099  27.795  1.00  0.00     0.074 A 
ATOM     53  C   UNL A   1      40.493  28.665  26.483  1.00  0.00     0.031 C 
ATOM     54  C   UNL A   1      44.736  25.566  30.482  1.00  0.00     0.029 A 
ATOM     55  C   UNL A   1      45.787  25.377  29.481  1.00  0.00     0.049 A 
ATOM     56  H   UNL A   1      45.282  24.651  27.567  1.00  0.00     0.167 HD
ATOM     57  C   UNL A   1      40.171  29.437  28.909  1.00  0.00     0.031 A 
ATOM     58  C   UNL A   1      46.906  26.153  29.338  1.00  0.00     0.031 A 
ATOM     59  C   UNL A   1      41.015  29.268  30.097  1.00  0.00     0.049 A 
ATOM     60  C   UNL A   1      46.639  27.501  29.968  1.00  0.00     0.074 A 
ATOM     61  C   UNL A   1      41.075  28.276  31.061  1.00  0.00     0.029 A 
ATOM     62  N   UNL A   1      42.225  29.952  30.164  1.00  0.00    -0.354 N 
ATOM     63  N   UNL A   1      45.490  28.128  29.940  1.00  0.00    -0.248 NA
ATOM     64  C   UNL A   1      47.628  28.155  30.811  1.00  0.00     0.031 C 
ATOM     65  C   UNL A   1      42.366  28.332  31.662  1.00  0.00     0.029 A 
ATOM     66  C   UNL A   1      43.100  29.322  31.027  1.00  0.00     0.049 A 
ATOM     67  H   UNL A   1      42.430  30.774  29.663  1.00  0.00     0.167 HD
ATOM     68  C   UNL A   1      45.521  29.144  30.858  1.00  0.00     0.074 A 
ATOM     69  C   UNL A   1      46.896  29.149  31.339  1.00  0.00     0.031 C 
ATOM     70  C   UNL A   1      44.431  29.880  31.233  1.00  0.00     0.031 A 
BRANCH  57  71
ATOM     71  C   UNL A   1      38.665  29.554  28.972  1.00  0.00    -0.014 A 
ATOM     72  C   UNL A   1      37.962  29.959  27.820  1.00  0.00     0.009 A 
ATOM     73  C   UNL A   1      37.875  29.289  30.105  1.00  0.00     0.009 A 
ATOM     74  C   UNL A   1      36.572  30.132  27.808  1.00  0.00     0.001 A 
ATOM     75  C   UNL A   1      36.483  29.475  30.107  1.00  0.00     0.001 A 
ATOM     76  C   UNL A   1      35.831  29.899  28.956  1.00  0.00     0.000 A 
ENDBRANCH  57  71
BRANCH  58  77
ATOM     77  C   UNL A   1      47.645  25.925  28.040  1.00  0.00    -0.014 A 
ATOM     78  C   UNL A   1      47.540  26.906  27.023  1.00  0.00     0.009 A 
ATOM     79  C   UNL A   1      48.657  24.962  27.902  1.00  0.00     0.009 A 
ATOM     80  C   UNL A   1      48.462  26.977  25.969  1.00  0.00     0.001 A 
ATOM     81  C   UNL A   1      49.568  25.022  26.828  1.00  0.00     0.001 A 
ATOM     82  C   UNL A   1      49.485  26.041  25.879  1.00  0.00     0.000 A 
ENDBRANCH  58  77
BRANCH  70  83
ATOM     83  C   UNL A   1      44.507  31.235  31.889  1.00  0.00    -0.014 A 
ATOM     84  C   UNL A   1      45.129  32.345  31.308  1.00  0.00     0.009 A 
ATOM     85  C   UNL A   1      43.758  31.472  33.064  1.00  0.00     0.009 A 
ATOM     86  C   UNL A   1      45.056  33.609  31.897  1.00  0.00     0.001 A 
ATOM     87  C   UNL A   1      43.615  32.745  33.611  1.00  0.00     0.001 A 
ATOM     88  C   UNL A   1      44.284  33.813  33.036  1.00  0.00     0.000 A 
ENDBRANCH  70  83
ENDBRANCH  44  45
ENDBRANCH  37  39
ENDBRANCH  36  37
ENDBRANCH  35  36
ENDBRANCH  34  35
ENDBRANCH   1  34
TORSDOF 16
ENDMDL
MODEL 2
REMARK VINA RESULT:     -12.6      2.062      2.672
REMARK SMILES Cc1c(C(=O)Nc2ccc(C(=O)Nc3ccccc3C(=O)OCCOC(=O)c3ccc(-c4c5nc(c(-c6ccccc6)c6ccc([nH]6)c(-c6ccccc6)c6nc(c(-c7ccccc7)c7ccc4[nH]7)C=C6)C=C5)cc3)cc2)cccc1[N+](=O)[O-]
REMARK SMILES IDX 22 1 20 2 21 3 19 4 14 5 15 6 16 7 18 8 17 9 13 10 11 11
REMARK SMILES IDX 12 12 10 14 7 15 8 16 77 17 9 18 76 19 6 20 4 21 5 22 3 24
REMARK SMILES IDX 1 25 2 26 81 27 78 28 80 29 79 30 82 31 83 32 84 33 23 34
REMARK SMILES IDX 24 35 25 36 26 37 27 38 28 39 29 40 75 41 30 42 74 43 31 44
REMARK SMILES IDX 32 45 33 46 68 47 34 48 73 49 67 50 69 51 35 52 72 53 66 54
REMARK SMILES IDX 65 55 36 57 58 58 43 59 57 60 44 61 47 62 56 63 70 64 45 65
REMARK SMILES IDX 46 66 55 68 71 69 48 70 37 71 38 72 42 73 39 74 41 75 40 76
REMARK SMILES IDX 59 77 60 78 64 79 61 80 63 81 62 82 49 83 50 84 54 85 51 86
REMARK SMILES IDX 53 87 52 88
REMARK H PARENT 13 13 6 23 69 56 47 67
REMARK Flexibility Score: inf
ROOT
ATOM      1  O   UNL A   1      40.695  20.245  27.231  1.00  0.00    -0.458 OA
ENDROOT
BRANCH   1   2
ATOM      2  C   UNL A   1      40.744  21.587  27.457  1.00  0.00     0.340 C 
ATOM      3  O   UNL A   1      41.614  22.077  28.177  1.00  0.00    -0.246 OA
BRANCH   2   4
ATOM      4  C   UNL A   1      39.640  22.490  26.928  1.00  0.00     0.083 A 
ATOM      5  C   UNL A   1      38.527  22.271  26.072  1.00  0.00     0.056 A 
ATOM      6  C   UNL A   1      37.739  23.393  25.693  1.00  0.00     0.027 A 
ATOM      7  C   UNL A   1      37.934  24.669  26.215  1.00  0.00     0.002 A 
ATOM      8  C   UNL A   1      39.803  23.813  27.435  1.00  0.00     0.018 A 
ATOM      9  C   UNL A   1      38.960  24.876  27.109  1.00  0.00     0.001 A 
BRANCH   5  10
ATOM     10  N   UNL A   1      37.952  21.092  25.542  1.00  0.00    -0.321 N 
ATOM     11  C   UNL A   1      36.678  20.659  25.245  1.00  0.00     0.255 C 
ATOM     12  O   UNL A   1      36.567  19.582  24.654  1.00  0.00    -0.269 OA
ATOM     13  H   UNL A   1      38.632  20.411  25.331  1.00  0.00     0.170 HD
BRANCH  11  14
ATOM     14  C   UNL A   1      35.459  21.419  25.559  1.00  0.00     0.040 A 
ATOM     15  C   UNL A   1      33.178  22.898  26.106  1.00  0.00     0.041 A 
ATOM     16  C   UNL A   1      33.581  22.701  24.799  1.00  0.00     0.027 A 
ATOM     17  C   UNL A   1      34.007  22.521  27.163  1.00  0.00     0.027 A 
ATOM     18  C   UNL A   1      34.599  21.812  24.549  1.00  0.00     0.016 A 
ATOM     19  C   UNL A   1      35.160  21.772  26.882  1.00  0.00     0.016 A 
BRANCH  15  20
ATOM     20  N   UNL A   1      31.851  23.260  26.344  1.00  0.00    -0.322 N 
ATOM     21  C   UNL A   1      31.298  24.527  26.166  1.00  0.00     0.256 C 
ATOM     22  O   UNL A   1      30.177  24.759  26.614  1.00  0.00    -0.269 OA
ATOM     23  H   UNL A   1      31.248  22.553  26.669  1.00  0.00     0.170 HD
BRANCH  21  24
ATOM     24  C   UNL A   1      32.051  25.648  25.469  1.00  0.00     0.049 A 
ATOM     25  C   UNL A   1      31.052  25.305  23.144  1.00  0.00     0.053 C 
ATOM     26  C   UNL A   1      32.097  25.882  24.063  1.00  0.00     0.039 A 
ATOM     27  C   UNL A   1      33.152  26.697  23.566  1.00  0.00     0.273 A 
ATOM     28  C   UNL A   1      32.840  26.441  26.323  1.00  0.00     0.014 A 
ATOM     29  C   UNL A   1      33.928  27.474  24.441  1.00  0.00     0.086 A 
ATOM     30  C   UNL A   1      33.727  27.387  25.814  1.00  0.00     0.008 A 
BRANCH  27  31
ATOM     31  N   UNL A   1      33.585  26.670  22.147  1.00  0.00     0.063 N 
ATOM     32  O   UNL A   1      33.948  27.742  21.639  1.00  0.00    -0.258 OA
ATOM     33  O   UNL A   1      33.651  25.580  21.568  1.00  0.00    -0.258 OA
ENDBRANCH  27  31
ENDBRANCH  21  24
ENDBRANCH  15  20
ENDBRANCH  11  14
ENDBRANCH   5  10
ENDBRANCH   2   4
ENDBRANCH   1   2
BRANCH   1  34
ATOM     34  C   UNL A   1      41.277  19.874  25.962  1.00  0.00     0.275 C 
BRANCH  34  35
ATOM     35  C   UNL A   1      42.806  19.615  25.881  1.00  0.00     0.275 C 
BRANCH  35  36
ATOM     36  O   UNL A   1      43.807  20.663  25.997  1.00  0.00    -0.458 OA
BRANCH  36  37
ATOM     37  C   UNL A   1      44.276  21.543  25.070  1.00  0.00     0.338 C 
ATOM     38  O   UNL A   1      44.459  21.286  23.913  1.00  0.00    -0.246 OA
BRANCH  37  39
ATOM     39  C   UNL A   1      44.447  22.888  25.592  1.00  0.00     0.060 A 
ATOM     40  C   UNL A   1      44.502  23.057  26.982  1.00  0.00     0.016 A 
ATOM     41  C   UNL A   1      44.734  23.896  24.682  1.00  0.00     0.016 A 
ATOM     42  C   UNL A   1      44.960  24.249  27.497  1.00  0.00     0.010 A 
ATOM     43  C   UNL A   1      45.276  25.047  25.172  1.00  0.00     0.010 A 
ATOM     44  C   UNL A   1      45.286  25.234  26.572  1.00  0.00    -0.014 A 
BRANCH  44  45
ATOM     45  C   UNL A   1      45.016  26.618  26.892  1.00  0.00     0.031 A 
ATOM     46  C   UNL A   1      43.678  27.145  26.626  1.00  0.00     0.074 A 
ATOM     47  C   UNL A   1      45.993  26.986  27.758  1.00  0.00     0.049 A 
ATOM     48  N   UNL A   1      43.344  28.382  26.696  1.00  0.00    -0.248 NA
ATOM     49  C   UNL A   1      42.573  26.309  26.137  1.00  0.00     0.031 C 
ATOM     50  C   UNL A   1      46.027  27.814  28.944  1.00  0.00     0.029 A 
ATOM     51  N   UNL A   1      47.323  26.560  27.653  1.00  0.00    -0.354 N 
ATOM     52  C   UNL A   1      41.969  28.364  26.832  1.00  0.00     0.074 A 
ATOM     53  C   UNL A   1      41.538  27.150  26.196  1.00  0.00     0.031 C 
ATOM     54  C   UNL A   1      47.320  28.077  29.245  1.00  0.00     0.029 A 
ATOM     55  C   UNL A   1      48.153  27.531  28.172  1.00  0.00     0.049 A 
ATOM     56  H   UNL A   1      47.618  25.703  27.268  1.00  0.00     0.167 HD
ATOM     57  C   UNL A   1      41.405  29.161  27.785  1.00  0.00     0.031 A 
ATOM     58  C   UNL A   1      48.836  28.262  27.238  1.00  0.00     0.031 A 
ATOM     59  C   UNL A   1      42.456  29.928  28.464  1.00  0.00     0.049 A 
ATOM     60  C   UNL A   1      48.192  29.625  27.130  1.00  0.00     0.074 A 
ATOM     61  C   UNL A   1      43.076  29.770  29.692  1.00  0.00     0.029 A 
ATOM     62  N   UNL A   1      43.296  30.735  27.703  1.00  0.00    -0.354 N 
ATOM     63  N   UNL A   1      46.907  29.857  27.224  1.00  0.00    -0.248 NA
ATOM     64  C   UNL A   1      48.990  30.839  27.065  1.00  0.00     0.031 C 
ATOM     65  C   UNL A   1      44.333  30.440  29.632  1.00  0.00     0.029 A 
ATOM     66  C   UNL A   1      44.493  30.956  28.356  1.00  0.00     0.049 A 
ATOM     67  H   UNL A   1      43.068  31.099  26.817  1.00  0.00     0.167 HD
ATOM     68  C   UNL A   1      46.714  31.202  27.395  1.00  0.00     0.074 A 
ATOM     69  C   UNL A   1      48.044  31.776  27.238  1.00  0.00     0.031 C 
ATOM     70  C   UNL A   1      45.516  31.776  27.720  1.00  0.00     0.031 A 
BRANCH  57  71
ATOM     71  C   UNL A   1      40.012  28.987  28.347  1.00  0.00    -0.014 A 
ATOM     72  C   UNL A   1      38.923  29.569  27.667  1.00  0.00     0.009 A 
ATOM     73  C   UNL A   1      39.690  28.278  29.519  1.00  0.00     0.009 A 
ATOM     74  C   UNL A   1      37.609  29.489  28.144  1.00  0.00     0.001 A 
ATOM     75  C   UNL A   1      38.377  28.207  30.013  1.00  0.00     0.001 A 
ATOM     76  C   UNL A   1      37.335  28.814  29.325  1.00  0.00     0.000 A 
ENDBRANCH  57  71
BRANCH  58  77
ATOM     77  C   UNL A   1      49.347  27.441  26.076  1.00  0.00    -0.014 A 
ATOM     78  C   UNL A   1      48.548  27.355  24.909  1.00  0.00     0.009 A 
ATOM     79  C   UNL A   1      50.682  27.019  25.974  1.00  0.00     0.009 A 
ATOM     80  C   UNL A   1      49.084  26.955  23.677  1.00  0.00     0.001 A 
ATOM     81  C   UNL A   1      51.212  26.596  24.739  1.00  0.00     0.001 A 
ATOM     82  C   UNL A   1      50.421  26.587  23.589  1.00  0.00     0.000 A 
ENDBRANCH  58  77
BRANCH  70  83
ATOM     83  C   UNL A   1      45.184  33.230  27.497  1.00  0.00    -0.014 A 
ATOM     84  C   UNL A   1      44.585  33.720  26.333  1.00  0.00     0.009 A 
ATOM     85  C   UNL A   1      45.300  34.133  28.579  1.00  0.00     0.009 A 
ATOM     86  C   UNL A   1      44.177  35.052  26.232  1.00  0.00     0.001 A 
ATOM     87  C   UNL A   1      44.823  35.440  28.511  1.00  0.00     0.001 A 
ATOM     88  C   UNL A   1      44.278  35.905  27.325  1.00  0.00     0.000 A 
ENDBRANCH  70  83
ENDBRANCH  44  45
ENDBRANCH  37  39
ENDBRANCH  36  37
ENDBRANCH  35  36
ENDBRANCH  34  35
ENDBRANCH   1  34
TORSDOF 16
ENDMDL
MODEL 3
REMARK VINA RESULT:     -12.5      3.578      9.619
REMARK SMILES Cc1c(C(=O)Nc2ccc(C(=O)Nc3ccccc3C(=O)OCCOC(=O)c3ccc(-c4c5nc(c(-c6ccccc6)c6ccc([nH]6)c(-c6ccccc6)c6nc(c(-c7ccccc7)c7ccc4[nH]7)C=C6)C=C5)cc3)cc2)cccc1[N+](=O)[O-]
REMARK SMILES IDX 22 1 20 2 21 3 19 4 14 5 15 6 16 7 18 8 17 9 13 10 11 11
REMARK SMILES IDX 12 12 10 14 7 15 8 16 77 17 9 18 76 19 6 20 4 21 5 22 3 24
REMARK SMILES IDX 1 25 2 26 81 27 78 28 80 29 79 30 82 31 83 32 84 33 23 34
REMARK SMILES IDX 24 35 25 36 26 37 27 38 28 39 29 40 75 41 30 42 74 43 31 44
REMARK SMILES IDX 32 45 33 46 68 47 34 48 73 49 67 50 69 51 35 52 72 53 66 54
REMARK SMILES IDX 65 55 36 57 58 58 43 59 57 60 44 61 47 62 56 63 70 64 45 65
REMARK SMILES IDX 46 66 55 68 71 69 48 70 37 71 38 72 42 73 39 74 41 75 40 76
REMARK SMILES IDX 59 77 60 78 64 79 61 80 63 81 62 82 49 83 50 84 54 85 51 86
REMARK SMILES IDX 53 87 52 88
REMARK H PARENT 13 13 6 23 69 56 47 67
REMARK Flexibility Score: inf
ROOT
ATOM      1  O   UNL A   1      32.382  30.642  25.727  1.00  0.00    -0.458 OA
ENDROOT
BRANCH   1   2
ATOM      2  C   UNL A   1      31.510  29.674  25.329  1.00  0.00     0.340 C 
ATOM      3  O   UNL A   1      31.344  28.656  26.000  1.00  0.00    -0.246 OA
BRANCH   2   4
ATOM      4  C   UNL A   1      30.825  29.776  23.974  1.00  0.00     0.083 A 
ATOM      5  C   UNL A   1      31.245  29.496  22.646  1.00  0.00     0.056 A 
ATOM      6  C   UNL A   1      30.359  29.813  21.579  1.00  0.00     0.027 A 
ATOM      7  C   UNL A   1      29.059  30.269  21.783  1.00  0.00     0.002 A 
ATOM      8  C   UNL A   1      29.488  30.246  24.134  1.00  0.00     0.018 A 
ATOM      9  C   UNL A   1      28.614  30.467  23.070  1.00  0.00     0.001 A 
BRANCH   5  10
ATOM     10  N   UNL A   1      32.398  28.860  22.126  1.00  0.00    -0.321 N 
ATOM     11  C   UNL A   1      33.052  27.666  22.342  1.00  0.00     0.255 C 
ATOM     12  O   UNL A   1      33.986  27.386  21.587  1.00  0.00    -0.269 OA
ATOM     13  H   UNL A   1      32.843  29.406  21.439  1.00  0.00     0.170 HD
BRANCH  11  14
ATOM     14  C   UNL A   1      32.679  26.704  23.389  1.00  0.00     0.040 A 
ATOM     15  C   UNL A   1      32.036  24.862  25.360  1.00  0.00     0.041 A 
ATOM     16  C   UNL A   1      33.246  25.528  25.400  1.00  0.00     0.027 A 
ATOM     17  C   UNL A   1      31.212  24.965  24.238  1.00  0.00     0.027 A 
ATOM     18  C   UNL A   1      33.457  26.567  24.524  1.00  0.00     0.016 A 
ATOM     19  C   UNL A   1      31.541  25.898  23.244  1.00  0.00     0.016 A 
BRANCH  15  20
ATOM     20  N   UNL A   1      31.558  24.283  26.536  1.00  0.00    -0.322 N 
ATOM     21  C   UNL A   1      31.643  22.937  26.886  1.00  0.00     0.256 C 
ATOM     22  O   UNL A   1      30.995  22.525  27.847  1.00  0.00    -0.269 OA
ATOM     23  H   UNL A   1      31.118  24.883  27.181  1.00  0.00     0.170 HD
BRANCH  21  24
ATOM     24  C   UNL A   1      32.481  21.947  26.094  1.00  0.00     0.049 A 
ATOM     25  C   UNL A   1      34.689  22.354  27.312  1.00  0.00     0.053 C 
ATOM     26  C   UNL A   1      33.900  21.817  26.145  1.00  0.00     0.039 A 
ATOM     27  C   UNL A   1      34.538  21.146  25.065  1.00  0.00     0.273 A 
ATOM     28  C   UNL A   1      31.754  21.176  25.169  1.00  0.00     0.014 A 
ATOM     29  C   UNL A   1      33.789  20.388  24.151  1.00  0.00     0.086 A 
ATOM     30  C   UNL A   1      32.402  20.359  24.244  1.00  0.00     0.008 A 
BRANCH  27  31
ATOM     31  N   UNL A   1      35.980  21.315  24.756  1.00  0.00     0.063 N 
ATOM     32  O   UNL A   1      36.757  20.430  25.145  1.00  0.00    -0.258 OA
ATOM     33  O   UNL A   1      36.327  22.272  24.055  1.00  0.00    -0.258 OA
ENDBRANCH  27  31
ENDBRANCH  21  24
ENDBRANCH  15  20
ENDBRANCH  11  14
ENDBRANCH   5  10
ENDBRANCH   2   4
ENDBRANCH   1   2
BRANCH   1  34
ATOM     34  C   UNL A   1      31.885  31.411  26.844  1.00  0.00     0.275 C 
BRANCH  34  35
ATOM     35  C   UNL A   1      32.047  32.956  26.826  1.00  0.00     0.275 C 
BRANCH  35  36
ATOM     36  O   UNL A   1      32.267  33.755  28.021  1.00  0.00    -0.458 OA
BRANCH  36  37
ATOM     37  C   UNL A   1      33.332  34.520  28.388  1.00  0.00     0.338 C 
ATOM     38  O   UNL A   1      33.324  35.718  28.457  1.00  0.00    -0.246 OA
BRANCH  37  39
ATOM     39  C   UNL A   1      34.485  33.737  28.798  1.00  0.00     0.060 A 
ATOM     40  C   UNL A   1      34.321  32.812  29.837  1.00  0.00     0.016 A 
ATOM     41  C   UNL A   1      35.626  33.819  28.012  1.00  0.00     0.016 A 
ATOM     42  C   UNL A   1      35.290  31.855  30.045  1.00  0.00     0.010 A 
ATOM     43  C   UNL A   1      36.549  32.825  28.143  1.00  0.00     0.010 A 
ATOM     44  C   UNL A   1      36.407  31.923  29.221  1.00  0.00    -0.014 A 
BRANCH  44  45
ATOM     45  C   UNL A   1      37.704  31.586  29.763  1.00  0.00     0.031 A 
ATOM     46  C   UNL A   1      38.270  30.274  29.448  1.00  0.00     0.074 A 
ATOM     47  C   UNL A   1      38.266  32.768  30.116  1.00  0.00     0.049 A 
ATOM     48  N   UNL A   1      39.320  29.774  29.991  1.00  0.00    -0.248 NA
ATOM     49  C   UNL A   1      37.623  29.325  28.533  1.00  0.00     0.031 C 
ATOM     50  C   UNL A   1      39.607  33.308  30.041  1.00  0.00     0.029 A 
ATOM     51  N   UNL A   1      37.549  33.830  30.682  1.00  0.00    -0.354 N 
ATOM     52  C   UNL A   1      39.737  28.798  29.106  1.00  0.00     0.074 A 
ATOM     53  C   UNL A   1      38.549  28.367  28.423  1.00  0.00     0.031 C 
ATOM     54  C   UNL A   1      39.663  34.424  30.806  1.00  0.00     0.029 A 
ATOM     55  C   UNL A   1      38.384  34.556  31.506  1.00  0.00     0.049 A 
ATOM     56  H   UNL A   1      36.598  34.027  30.518  1.00  0.00     0.167 HD
ATOM     57  C   UNL A   1      41.061  28.746  28.781  1.00  0.00     0.031 A 
ATOM     58  C   UNL A   1      38.180  34.360  32.845  1.00  0.00     0.031 A 
ATOM     59  C   UNL A   1      41.787  29.782  29.524  1.00  0.00     0.049 A 
ATOM     60  C   UNL A   1      39.293  33.485  33.377  1.00  0.00     0.074 A 
ATOM     61  C   UNL A   1      42.270  31.025  29.153  1.00  0.00     0.029 A 
ATOM     62  N   UNL A   1      41.708  29.792  30.913  1.00  0.00    -0.354 N 
ATOM     63  N   UNL A   1      39.848  32.496  32.722  1.00  0.00    -0.248 NA
ATOM     64  C   UNL A   1      39.957  33.782  34.636  1.00  0.00     0.031 C 
ATOM     65  C   UNL A   1      42.416  31.805  30.337  1.00  0.00     0.029 A 
ATOM     66  C   UNL A   1      41.974  31.052  31.413  1.00  0.00     0.049 A 
ATOM     67  H   UNL A   1      41.490  29.007  31.466  1.00  0.00     0.167 HD
ATOM     68  C   UNL A   1      41.005  32.139  33.362  1.00  0.00     0.074 A 
ATOM     69  C   UNL A   1      41.001  32.939  34.579  1.00  0.00     0.031 C 
ATOM     70  C   UNL A   1      41.935  31.275  32.853  1.00  0.00     0.031 A 
BRANCH  57  71
ATOM     71  C   UNL A   1      41.629  28.044  27.568  1.00  0.00    -0.014 A 
ATOM     72  C   UNL A   1      42.139  26.739  27.709  1.00  0.00     0.009 A 
ATOM     73  C   UNL A   1      41.698  28.588  26.272  1.00  0.00     0.009 A 
ATOM     74  C   UNL A   1      42.719  26.038  26.644  1.00  0.00     0.001 A 
ATOM     75  C   UNL A   1      42.293  27.899  25.203  1.00  0.00     0.001 A 
ATOM     76  C   UNL A   1      42.805  26.622  25.390  1.00  0.00     0.000 A 
ENDBRANCH  57  71
BRANCH  58  77
ATOM     77  C   UNL A   1      36.724  34.253  33.232  1.00  0.00    -0.014 A 
ATOM     78  C   UNL A   1      35.869  35.347  32.950  1.00  0.00     0.009 A 
ATOM     79  C   UNL A   1      36.116  33.034  33.570  1.00  0.00     0.009 A 
ATOM     80  C   UNL A   1      34.475  35.205  32.916  1.00  0.00     0.001 A 
ATOM     81  C   UNL A   1      34.713  32.899  33.558  1.00  0.00     0.001 A 
ATOM     82  C   UNL A   1      33.896  33.975  33.208  1.00  0.00     0.000 A 
ENDBRANCH  58  77
BRANCH  70  83
ATOM     83  C   UNL A   1      42.966  30.553  33.682  1.00  0.00    -0.014 A 
ATOM     84  C   UNL A   1      44.313  30.923  33.743  1.00  0.00     0.009 A 
ATOM     85  C   UNL A   1      42.538  29.565  34.600  1.00  0.00     0.009 A 
ATOM     86  C   UNL A   1      45.197  30.304  34.629  1.00  0.00     0.001 A 
ATOM     87  C   UNL A   1      43.398  29.002  35.540  1.00  0.00     0.001 A 
ATOM     88  C   UNL A   1      44.736  29.358  35.539  1.00  0.00     0.000 A 
ENDBRANCH  70  83
ENDBRANCH  44  45
ENDBRANCH  37  39
ENDBRANCH  36  37
ENDBRANCH  35  36
ENDBRANCH  34  35
ENDBRANCH   1  34
TORSDOF 16
ENDMDL
