MODEL 1
REMARK VINA RESULT:     -11.5      0.000      0.000
REMARK SMILES O=C(OCCOC(=O)[C@H]1CC2(CC[NH+](C(=O)C3CC3)CC2)CN1C(=O)CCn1cccn1)c1ccc(-c2c3nc(c(-c4ccccc4)c4ccc([nH]4)c(-c4ccccc4)c4nc(c(-c5ccccc5)c5ccc2[nH]5)C=C4)C=C3)cc1
REMARK SMILES IDX 5 1 4 2 3 3 2 4 1 5 33 6 34 7 80 8 35 9 79 10 36 11 37 12
REMARK SMILES IDX 38 13 73 14 39 15 78 16 72 17 74 18 40 19 77 20 71 21 70 22
REMARK SMILES IDX 41 24 63 25 48 26 62 27 49 28 52 29 61 30 75 31 50 32 51 33
REMARK SMILES IDX 60 35 76 36 53 37 42 38 43 39 47 40 44 41 46 42 45 43 64 44
REMARK SMILES IDX 65 45 69 46 66 47 68 48 67 49 54 50 55 51 59 52 56 53 58 54
REMARK SMILES IDX 57 55 6 56 7 57 8 58 9 59 10 60 23 61 11 62 22 63 12 64
REMARK SMILES IDX 21 65 13 66 20 67 14 68 24 70 25 71 26 72 27 73 28 74 29 75
REMARK SMILES IDX 32 76 30 77 31 78 15 79 16 80 17 81 18 82 19 83
REMARK H PARENT 74 23 52 34 14 69
REMARK Flexibility Score: inf
ROOT
ATOM      1  C   UNL A   1      34.109  30.374  27.279  1.00  0.00     0.274 C 
ENDROOT
BRANCH   1   2
ATOM      2  C   UNL A   1      35.458  29.666  27.323  1.00  0.00     0.275 C 
BRANCH   2   3
ATOM      3  O   UNL A   1      36.450  30.511  27.932  1.00  0.00    -0.458 OA
BRANCH   3   4
ATOM      4  C   UNL A   1      37.467  30.060  28.697  1.00  0.00     0.338 C 
ATOM      5  O   UNL A   1      37.809  30.658  29.712  1.00  0.00    -0.246 OA
BRANCH   4   6
ATOM      6  C   UNL A   1      38.361  28.984  28.229  1.00  0.00     0.060 A 
ATOM      7  C   UNL A   1      38.753  27.944  29.072  1.00  0.00     0.016 A 
ATOM      8  C   UNL A   1      39.173  29.323  27.161  1.00  0.00     0.016 A 
ATOM      9  C   UNL A   1      40.043  27.406  28.945  1.00  0.00     0.010 A 
ATOM     10  C   UNL A   1      40.420  28.752  27.008  1.00  0.00     0.010 A 
ATOM     11  C   UNL A   1      40.918  27.914  27.981  1.00  0.00    -0.014 A 
BRANCH  11  12
ATOM     12  C   UNL A   1      42.314  27.523  27.821  1.00  0.00     0.031 A 
ATOM     13  C   UNL A   1      42.467  26.347  26.941  1.00  0.00     0.074 A 
ATOM     14  C   UNL A   1      43.428  28.195  28.184  1.00  0.00     0.049 A 
ATOM     15  N   UNL A   1      42.175  25.137  27.282  1.00  0.00    -0.248 NA
ATOM     16  C   UNL A   1      42.733  26.517  25.502  1.00  0.00     0.031 C 
ATOM     17  C   UNL A   1      43.595  29.564  28.675  1.00  0.00     0.029 A 
ATOM     18  N   UNL A   1      44.714  27.728  28.149  1.00  0.00    -0.354 N 
ATOM     19  C   UNL A   1      42.561  24.362  26.207  1.00  0.00     0.074 A 
ATOM     20  C   UNL A   1      42.579  25.258  25.077  1.00  0.00     0.031 C 
ATOM     21  C   UNL A   1      44.921  29.856  28.769  1.00  0.00     0.029 A 
ATOM     22  C   UNL A   1      45.692  28.650  28.505  1.00  0.00     0.049 A 
ATOM     23  H   UNL A   1      44.931  26.804  27.890  1.00  0.00     0.167 HD
ATOM     24  C   UNL A   1      43.202  23.177  26.419  1.00  0.00     0.031 A 
ATOM     25  C   UNL A   1      47.025  28.405  28.612  1.00  0.00     0.031 A 
ATOM     26  C   UNL A   1      43.252  22.864  27.840  1.00  0.00     0.049 A 
ATOM     27  C   UNL A   1      47.174  26.954  28.869  1.00  0.00     0.074 A 
ATOM     28  C   UNL A   1      42.336  22.748  28.869  1.00  0.00     0.029 A 
ATOM     29  N   UNL A   1      44.472  23.054  28.449  1.00  0.00    -0.354 N 
ATOM     30  N   UNL A   1      46.794  26.380  29.973  1.00  0.00    -0.248 NA
ATOM     31  C   UNL A   1      47.408  26.059  27.749  1.00  0.00     0.031 C 
ATOM     32  C   UNL A   1      42.981  23.314  30.013  1.00  0.00     0.029 A 
ATOM     33  C   UNL A   1      44.279  23.675  29.651  1.00  0.00     0.049 A 
ATOM     34  H   UNL A   1      45.343  22.785  28.078  1.00  0.00     0.167 HD
ATOM     35  C   UNL A   1      46.278  25.159  29.566  1.00  0.00     0.074 A 
ATOM     36  C   UNL A   1      46.817  24.958  28.222  1.00  0.00     0.031 C 
ATOM     37  C   UNL A   1      45.237  24.586  30.242  1.00  0.00     0.031 A 
BRANCH  24  38
ATOM     38  C   UNL A   1      44.219  22.571  25.472  1.00  0.00    -0.014 A 
ATOM     39  C   UNL A   1      44.211  21.170  25.322  1.00  0.00     0.009 A 
ATOM     40  C   UNL A   1      45.335  23.249  24.955  1.00  0.00     0.009 A 
ATOM     41  C   UNL A   1      45.319  20.482  24.818  1.00  0.00     0.001 A 
ATOM     42  C   UNL A   1      46.425  22.568  24.406  1.00  0.00     0.001 A 
ATOM     43  C   UNL A   1      46.433  21.182  24.375  1.00  0.00     0.000 A 
ENDBRANCH  24  38
BRANCH  25  44
ATOM     44  C   UNL A   1      48.224  29.248  28.410  1.00  0.00    -0.014 A 
ATOM     45  C   UNL A   1      49.516  28.723  28.613  1.00  0.00     0.009 A 
ATOM     46  C   UNL A   1      48.116  30.450  27.693  1.00  0.00     0.009 A 
ATOM     47  C   UNL A   1      50.648  29.344  28.066  1.00  0.00     0.001 A 
ATOM     48  C   UNL A   1      49.248  31.071  27.148  1.00  0.00     0.001 A 
ATOM     49  C   UNL A   1      50.510  30.508  27.316  1.00  0.00     0.000 A 
ENDBRANCH  25  44
BRANCH  37  50
ATOM     50  C   UNL A   1      44.922  25.107  31.623  1.00  0.00    -0.014 A 
ATOM     51  C   UNL A   1      44.104  26.224  31.873  1.00  0.00     0.009 A 
ATOM     52  C   UNL A   1      45.386  24.367  32.722  1.00  0.00     0.009 A 
ATOM     53  C   UNL A   1      43.792  26.605  33.184  1.00  0.00     0.001 A 
ATOM     54  C   UNL A   1      45.055  24.734  34.029  1.00  0.00     0.001 A 
ATOM     55  C   UNL A   1      44.264  25.856  34.259  1.00  0.00     0.000 A 
ENDBRANCH  37  50
ENDBRANCH  11  12
ENDBRANCH   4   6
ENDBRANCH   3   4
ENDBRANCH   2   3
ENDBRANCH   1   2
BRANCH   1  56
ATOM     56  O   UNL A   1      33.061  29.424  27.006  1.00  0.00    -0.461 OA
BRANCH  56  57
ATOM     57  C   UNL A   1      32.346  29.686  25.887  1.00  0.00     0.328 C 
ATOM     58  O   UNL A   1      31.639  30.688  25.793  1.00  0.00    -0.250 OA
BRANCH  57  59
ATOM     59  C   UNL A   1      32.298  28.512  24.852  1.00  0.00     0.195 C 
ATOM     60  C   UNL A   1      32.438  27.203  25.646  1.00  0.00     0.046 C 
ATOM     61  N   UNL A   1      31.856  28.000  23.511  1.00  0.00    -0.328 N 
ATOM     62  C   UNL A   1      32.726  26.096  24.606  1.00  0.00     0.001 C 
ATOM     63  C   UNL A   1      32.778  26.867  23.272  1.00  0.00     0.128 C 
ATOM     64  C   UNL A   1      31.581  25.061  24.573  1.00  0.00     0.071 C 
ATOM     65  C   UNL A   1      34.038  25.373  24.946  1.00  0.00     0.071 C 
ATOM     66  C   UNL A   1      31.503  24.250  25.861  1.00  0.00     0.270 C 
ATOM     67  C   UNL A   1      33.903  24.576  26.252  1.00  0.00     0.270 C 
ATOM     68  N   UNL A   1      32.787  23.631  26.167  1.00  0.00    -0.272 N 
ATOM     69  H   UNL A   1      32.922  24.193  25.370  1.00  0.00     0.356 HD
BRANCH  61  70
ATOM     70  C   UNL A   1      30.612  27.825  22.885  1.00  0.00     0.225 C 
ATOM     71  O   UNL A   1      30.594  27.635  21.653  1.00  0.00    -0.275 OA
BRANCH  70  72
ATOM     72  C   UNL A   1      29.231  28.133  23.460  1.00  0.00     0.124 C 
BRANCH  72  73
ATOM     73  C   UNL A   1      28.100  28.811  22.735  1.00  0.00     0.154 C 
BRANCH  73  74
ATOM     74  N   UNL A   1      28.252  30.202  22.442  1.00  0.00    -0.272 N 
ATOM     75  C   UNL A   1      28.129  30.792  21.221  1.00  0.00     0.108 A 
ATOM     76  N   UNL A   1      28.392  31.075  23.450  1.00  0.00    -0.182 NA
ATOM     77  C   UNL A   1      28.173  32.145  21.455  1.00  0.00     0.042 A 
ATOM     78  C   UNL A   1      28.297  32.262  22.850  1.00  0.00     0.135 A 
ENDBRANCH  73  74
ENDBRANCH  72  73
ENDBRANCH  70  72
ENDBRANCH  61  70
BRANCH  68  79
ATOM     79  C   UNL A   1      33.051  22.295  26.453  1.00  0.00     0.315 C 
ATOM     80  O   UNL A   1      33.127  21.911  27.625  1.00  0.00    -0.231 OA
BRANCH  79  81
ATOM     81  C   UNL A   1      33.342  21.247  25.429  1.00  0.00     0.119 C 
ATOM     82  C   UNL A   1      32.420  20.468  24.539  1.00  0.00     0.019 C 
ATOM     83  C   UNL A   1      33.290  21.550  23.953  1.00  0.00     0.019 C 
ENDBRANCH  79  81
ENDBRANCH  68  79
ENDBRANCH  57  59
ENDBRANCH  56  57
ENDBRANCH   1  56
TORSDOF 17
ENDMDL
MODEL 2
REMARK VINA RESULT:     -11.2      5.353     10.837
REMARK SMILES O=C(OCCOC(=O)[C@H]1CC2(CC[NH+](C(=O)C3CC3)CC2)CN1C(=O)CCn1cccn1)c1ccc(-c2c3nc(c(-c4ccccc4)c4ccc([nH]4)c(-c4ccccc4)c4nc(c(-c5ccccc5)c5ccc2[nH]5)C=C4)C=C3)cc1
REMARK SMILES IDX 5 1 4 2 3 3 2 4 1 5 33 6 34 7 80 8 35 9 79 10 36 11 37 12
REMARK SMILES IDX 38 13 73 14 39 15 78 16 72 17 74 18 40 19 77 20 71 21 70 22
REMARK SMILES IDX 41 24 63 25 48 26 62 27 49 28 52 29 61 30 75 31 50 32 51 33
REMARK SMILES IDX 60 35 76 36 53 37 42 38 43 39 47 40 44 41 46 42 45 43 64 44
REMARK SMILES IDX 65 45 69 46 66 47 68 48 67 49 54 50 55 51 59 52 56 53 58 54
REMARK SMILES IDX 57 55 6 56 7 57 8 58 9 59 10 60 23 61 11 62 22 63 12 64
REMARK SMILES IDX 21 65 13 66 20 67 14 68 24 70 25 71 26 72 27 73 28 74 29 75
REMARK SMILES IDX 32 76 30 77 31 78 15 79 16 80 17 81 18 82 19 83
REMARK H PARENT 74 23 52 34 14 69
REMARK Flexibility Score: inf
ROOT
ATOM      1  C   UNL A   1      39.268  24.456  26.041  1.00  0.00     0.274 C 
ENDROOT
BRANCH   1   2
ATOM      2  C   UNL A   1      40.219  24.230  27.210  1.00  0.00     0.275 C 
BRANCH   2   3
ATOM      3  O   UNL A   1      41.034  25.395  27.427  1.00  0.00    -0.458 OA
BRANCH   3   4
ATOM      4  C   UNL A   1      40.548  26.621  27.720  1.00  0.00     0.338 C 
ATOM      5  O   UNL A   1      40.437  27.482  26.853  1.00  0.00    -0.246 OA
BRANCH   4   6
ATOM      6  C   UNL A   1      40.358  27.058  29.116  1.00  0.00     0.060 A 
ATOM      7  C   UNL A   1      39.227  26.692  29.846  1.00  0.00     0.016 A 
ATOM      8  C   UNL A   1      41.036  28.212  29.464  1.00  0.00     0.016 A 
ATOM      9  C   UNL A   1      38.686  27.597  30.773  1.00  0.00     0.010 A 
ATOM     10  C   UNL A   1      40.529  29.075  30.415  1.00  0.00     0.010 A 
ATOM     11  C   UNL A   1      39.282  28.848  30.955  1.00  0.00    -0.014 A 
BRANCH  11  12
ATOM     12  C   UNL A   1      38.758  29.917  31.798  1.00  0.00     0.031 A 
ATOM     13  C   UNL A   1      37.615  30.611  31.172  1.00  0.00     0.074 A 
ATOM     14  C   UNL A   1      39.037  30.187  33.091  1.00  0.00     0.049 A 
ATOM     15  N   UNL A   1      37.715  31.444  30.191  1.00  0.00    -0.248 NA
ATOM     16  C   UNL A   1      36.232  30.199  31.470  1.00  0.00     0.031 C 
ATOM     17  C   UNL A   1      39.790  29.419  34.084  1.00  0.00     0.029 A 
ATOM     18  N   UNL A   1      38.635  31.286  33.802  1.00  0.00    -0.354 N 
ATOM     19  C   UNL A   1      36.433  31.918  29.995  1.00  0.00     0.074 A 
ATOM     20  C   UNL A   1      35.564  30.914  30.557  1.00  0.00     0.031 C 
ATOM     21  C   UNL A   1      39.681  30.016  35.302  1.00  0.00     0.029 A 
ATOM     22  C   UNL A   1      38.993  31.289  35.146  1.00  0.00     0.049 A 
ATOM     23  H   UNL A   1      38.129  32.023  33.390  1.00  0.00     0.167 HD
ATOM     24  C   UNL A   1      36.229  33.246  29.757  1.00  0.00     0.031 A 
ATOM     25  C   UNL A   1      38.769  32.295  36.034  1.00  0.00     0.031 A 
ATOM     26  C   UNL A   1      37.497  33.946  29.616  1.00  0.00     0.049 A 
ATOM     27  C   UNL A   1      38.644  33.542  35.245  1.00  0.00     0.074 A 
ATOM     28  C   UNL A   1      38.633  33.807  28.840  1.00  0.00     0.029 A 
ATOM     29  N   UNL A   1      37.876  34.715  30.693  1.00  0.00    -0.354 N 
ATOM     30  N   UNL A   1      39.636  34.084  34.602  1.00  0.00    -0.248 NA
ATOM     31  C   UNL A   1      37.323  34.002  34.855  1.00  0.00     0.031 C 
ATOM     32  C   UNL A   1      39.725  34.119  29.710  1.00  0.00     0.029 A 
ATOM     33  C   UNL A   1      39.203  34.509  30.945  1.00  0.00     0.049 A 
ATOM     34  H   UNL A   1      37.285  35.317  31.201  1.00  0.00     0.167 HD
ATOM     35  C   UNL A   1      39.067  34.561  33.432  1.00  0.00     0.074 A 
ATOM     36  C   UNL A   1      37.634  34.617  33.711  1.00  0.00     0.031 C 
ATOM     37  C   UNL A   1      39.786  34.580  32.269  1.00  0.00     0.031 A 
BRANCH  24  38
ATOM     38  C   UNL A   1      34.982  34.007  30.160  1.00  0.00    -0.014 A 
ATOM     39  C   UNL A   1      34.204  34.569  29.130  1.00  0.00     0.009 A 
ATOM     40  C   UNL A   1      34.692  34.434  31.467  1.00  0.00     0.009 A 
ATOM     41  C   UNL A   1      33.294  35.601  29.380  1.00  0.00     0.001 A 
ATOM     42  C   UNL A   1      33.750  35.433  31.726  1.00  0.00     0.001 A 
ATOM     43  C   UNL A   1      33.081  36.044  30.678  1.00  0.00     0.000 A 
ENDBRANCH  24  38
BRANCH  25  44
ATOM     44  C   UNL A   1      38.533  32.315  37.494  1.00  0.00    -0.014 A 
ATOM     45  C   UNL A   1      39.126  33.302  38.306  1.00  0.00     0.009 A 
ATOM     46  C   UNL A   1      37.464  31.584  38.036  1.00  0.00     0.009 A 
ATOM     47  C   UNL A   1      38.627  33.589  39.585  1.00  0.00     0.001 A 
ATOM     48  C   UNL A   1      36.967  31.870  39.315  1.00  0.00     0.001 A 
ATOM     49  C   UNL A   1      37.534  32.884  40.080  1.00  0.00     0.000 A 
ENDBRANCH  25  44
BRANCH  37  50
ATOM     50  C   UNL A   1      41.285  34.431  32.363  1.00  0.00    -0.014 A 
ATOM     51  C   UNL A   1      42.172  35.511  32.522  1.00  0.00     0.009 A 
ATOM     52  C   UNL A   1      41.812  33.131  32.401  1.00  0.00     0.009 A 
ATOM     53  C   UNL A   1      43.546  35.294  32.679  1.00  0.00     0.001 A 
ATOM     54  C   UNL A   1      43.180  32.913  32.582  1.00  0.00     0.001 A 
ATOM     55  C   UNL A   1      44.047  33.994  32.714  1.00  0.00     0.000 A 
ENDBRANCH  37  50
ENDBRANCH  11  12
ENDBRANCH   4   6
ENDBRANCH   3   4
ENDBRANCH   2   3
ENDBRANCH   1   2
BRANCH   1  56
ATOM     56  O   UNL A   1      37.902  24.366  26.491  1.00  0.00    -0.461 OA
BRANCH  56  57
ATOM     57  C   UNL A   1      37.224  23.297  26.013  1.00  0.00     0.328 C 
ATOM     58  O   UNL A   1      37.789  22.407  25.379  1.00  0.00    -0.250 OA
BRANCH  57  59
ATOM     59  C   UNL A   1      35.666  23.413  26.113  1.00  0.00     0.195 C 
ATOM     60  C   UNL A   1      35.243  24.605  25.239  1.00  0.00     0.046 C 
ATOM     61  N   UNL A   1      34.343  22.749  26.369  1.00  0.00    -0.328 N 
ATOM     62  C   UNL A   1      33.774  24.912  25.609  1.00  0.00     0.001 C 
ATOM     63  C   UNL A   1      33.466  23.889  26.719  1.00  0.00     0.128 C 
ATOM     64  C   UNL A   1      32.843  24.678  24.401  1.00  0.00     0.071 C 
ATOM     65  C   UNL A   1      33.634  26.372  26.065  1.00  0.00     0.071 C 
ATOM     66  C   UNL A   1      33.088  25.682  23.282  1.00  0.00     0.270 C 
ATOM     67  C   UNL A   1      33.894  27.340  24.902  1.00  0.00     0.270 C 
ATOM     68  N   UNL A   1      32.997  27.050  23.780  1.00  0.00    -0.272 N 
ATOM     69  H   UNL A   1      32.901  26.454  24.558  1.00  0.00     0.356 HD
BRANCH  61  70
ATOM     70  C   UNL A   1      33.640  21.691  25.771  1.00  0.00     0.225 C 
ATOM     71  O   UNL A   1      32.618  21.265  26.344  1.00  0.00    -0.275 OA
BRANCH  70  72
ATOM     72  C   UNL A   1      34.120  20.774  24.649  1.00  0.00     0.124 C 
BRANCH  72  73
ATOM     73  C   UNL A   1      34.766  19.425  24.822  1.00  0.00     0.154 C 
BRANCH  73  74
ATOM     74  N   UNL A   1      33.956  18.275  24.567  1.00  0.00    -0.272 N 
ATOM     75  C   UNL A   1      34.395  17.035  24.215  1.00  0.00     0.108 A 
ATOM     76  N   UNL A   1      32.640  18.329  24.819  1.00  0.00    -0.182 NA
ATOM     77  C   UNL A   1      33.288  16.221  24.260  1.00  0.00     0.042 A 
ATOM     78  C   UNL A   1      32.243  17.063  24.675  1.00  0.00     0.135 A 
ENDBRANCH  73  74
ENDBRANCH  72  73
ENDBRANCH  70  72
ENDBRANCH  61  70
BRANCH  68  79
ATOM     79  C   UNL A   1      32.235  28.100  23.277  1.00  0.00     0.315 C 
ATOM     80  O   UNL A   1      32.680  28.820  22.378  1.00  0.00    -0.231 OA
BRANCH  79  81
ATOM     81  C   UNL A   1      30.896  28.506  23.801  1.00  0.00     0.119 C 
ATOM     82  C   UNL A   1      29.905  29.505  23.280  1.00  0.00     0.019 C 
ATOM     83  C   UNL A   1      29.619  28.030  23.156  1.00  0.00     0.019 C 
ENDBRANCH  79  81
ENDBRANCH  68  79
ENDBRANCH  57  59
ENDBRANCH  56  57
ENDBRANCH   1  56
TORSDOF 17
ENDMDL
MODEL 3
REMARK VINA RESULT:     -11.1      2.882      7.847
REMARK SMILES O=C(OCCOC(=O)[C@H]1CC2(CC[NH+](C(=O)C3CC3)CC2)CN1C(=O)CCn1cccn1)c1ccc(-c2c3nc(c(-c4ccccc4)c4ccc([nH]4)c(-c4ccccc4)c4nc(c(-c5ccccc5)c5ccc2[nH]5)C=C4)C=C3)cc1
REMARK SMILES IDX 5 1 4 2 3 3 2 4 1 5 33 6 34 7 80 8 35 9 79 10 36 11 37 12
REMARK SMILES IDX 38 13 73 14 39 15 78 16 72 17 74 18 40 19 77 20 71 21 70 22
REMARK SMILES IDX 41 24 63 25 48 26 62 27 49 28 52 29 61 30 75 31 50 32 51 33
REMARK SMILES IDX 60 35 76 36 53 37 42 38 43 39 47 40 44 41 46 42 45 43 64 44
REMARK SMILES IDX 65 45 69 46 66 47 68 48 67 49 54 50 55 51 59 52 56 53 58 54
REMARK SMILES IDX 57 55 6 56 7 57 8 58 9 59 10 60 23 61 11 62 22 63 12 64
REMARK SMILES IDX 21 65 13 66 20 67 14 68 24 70 25 71 26 72 27 73 28 74 29 75
REMARK SMILES IDX 32 76 30 77 31 78 15 79 16 80 17 81 18 82 19 83
REMARK H PARENT 74 23 52 34 14 69
REMARK Flexibility Score: inf
ROOT
ATOM      1  C   UNL A   1      35.074  22.887  24.479  1.00  0.00     0.274 C 
ENDROOT
BRANCH   1   2
ATOM      2  C   UNL A   1      35.492  21.430  24.638  1.00  0.00     0.275 C 
BRANCH   2   3
ATOM      3  O   UNL A   1      36.491  21.303  25.665  1.00  0.00    -0.458 OA
BRANCH   3   4
ATOM      4  C   UNL A   1      37.759  20.892  25.446  1.00  0.00     0.338 C 
ATOM      5  O   UNL A   1      38.028  19.699  25.340  1.00  0.00    -0.246 OA
BRANCH   4   6
ATOM      6  C   UNL A   1      38.898  21.821  25.565  1.00  0.00     0.060 A 
ATOM      7  C   UNL A   1      40.156  21.381  25.977  1.00  0.00     0.016 A 
ATOM      8  C   UNL A   1      38.553  23.145  25.764  1.00  0.00     0.016 A 
ATOM      9  C   UNL A   1      40.957  22.227  26.760  1.00  0.00     0.010 A 
ATOM     10  C   UNL A   1      39.368  23.991  26.489  1.00  0.00     0.010 A 
ATOM     11  C   UNL A   1      40.490  23.494  27.117  1.00  0.00    -0.014 A 
BRANCH  11  12
ATOM     12  C   UNL A   1      41.170  24.421  28.015  1.00  0.00     0.031 A 
ATOM     13  C   UNL A   1      40.387  25.652  28.244  1.00  0.00     0.074 A 
ATOM     14  C   UNL A   1      42.260  24.208  28.783  1.00  0.00     0.049 A 
ATOM     15  N   UNL A   1      40.250  26.601  27.380  1.00  0.00    -0.248 NA
ATOM     16  C   UNL A   1      39.488  25.764  29.406  1.00  0.00     0.031 C 
ATOM     17  C   UNL A   1      42.981  22.972  29.091  1.00  0.00     0.029 A 
ATOM     18  N   UNL A   1      42.953  25.147  29.498  1.00  0.00    -0.354 N 
ATOM     19  C   UNL A   1      39.535  27.581  28.039  1.00  0.00     0.074 A 
ATOM     20  C   UNL A   1      38.845  26.899  29.106  1.00  0.00     0.031 C 
ATOM     21  C   UNL A   1      43.932  23.220  30.032  1.00  0.00     0.029 A 
ATOM     22  C   UNL A   1      43.999  24.654  30.272  1.00  0.00     0.049 A 
ATOM     23  H   UNL A   1      42.728  26.105  29.467  1.00  0.00     0.167 HD
ATOM     24  C   UNL A   1      39.887  28.891  27.895  1.00  0.00     0.031 A 
ATOM     25  C   UNL A   1      44.869  25.394  31.011  1.00  0.00     0.031 A 
ATOM     26  C   UNL A   1      40.943  29.037  26.905  1.00  0.00     0.049 A 
ATOM     27  C   UNL A   1      44.899  26.747  30.409  1.00  0.00     0.074 A 
ATOM     28  C   UNL A   1      41.134  28.664  25.587  1.00  0.00     0.029 A 
ATOM     29  N   UNL A   1      42.202  29.278  27.408  1.00  0.00    -0.354 N 
ATOM     30  N   UNL A   1      45.400  26.995  29.233  1.00  0.00    -0.248 NA
ATOM     31  C   UNL A   1      44.034  27.780  30.949  1.00  0.00     0.031 C 
ATOM     32  C   UNL A   1      42.508  28.274  25.501  1.00  0.00     0.029 A 
ATOM     33  C   UNL A   1      43.106  28.501  26.741  1.00  0.00     0.049 A 
ATOM     34  H   UNL A   1      42.415  29.910  28.132  1.00  0.00     0.167 HD
ATOM     35  C   UNL A   1      44.552  27.949  28.693  1.00  0.00     0.074 A 
ATOM     36  C   UNL A   1      43.830  28.497  29.839  1.00  0.00     0.031 C 
ATOM     37  C   UNL A   1      44.315  27.983  27.347  1.00  0.00     0.031 A 
BRANCH  24  38
ATOM     38  C   UNL A   1      39.693  29.952  28.960  1.00  0.00    -0.014 A 
ATOM     39  C   UNL A   1      38.510  30.715  28.908  1.00  0.00     0.009 A 
ATOM     40  C   UNL A   1      40.704  30.424  29.814  1.00  0.00     0.009 A 
ATOM     41  C   UNL A   1      38.406  31.949  29.557  1.00  0.00     0.001 A 
ATOM     42  C   UNL A   1      40.585  31.635  30.501  1.00  0.00     0.001 A 
ATOM     43  C   UNL A   1      39.452  32.416  30.341  1.00  0.00     0.000 A 
ENDBRANCH  24  38
BRANCH  25  44
ATOM     44  C   UNL A   1      45.612  25.123  32.261  1.00  0.00    -0.014 A 
ATOM     45  C   UNL A   1      46.907  25.643  32.456  1.00  0.00     0.009 A 
ATOM     46  C   UNL A   1      44.925  24.649  33.390  1.00  0.00     0.009 A 
ATOM     47  C   UNL A   1      47.466  25.743  33.738  1.00  0.00     0.001 A 
ATOM     48  C   UNL A   1      45.485  24.747  34.671  1.00  0.00     0.001 A 
ATOM     49  C   UNL A   1      46.745  25.313  34.848  1.00  0.00     0.000 A 
ENDBRANCH  25  44
BRANCH  37  50
ATOM     50  C   UNL A   1      45.262  27.228  26.445  1.00  0.00    -0.014 A 
ATOM     51  C   UNL A   1      46.403  27.798  25.852  1.00  0.00     0.009 A 
ATOM     52  C   UNL A   1      45.046  25.852  26.275  1.00  0.00     0.009 A 
ATOM     53  C   UNL A   1      47.279  27.019  25.087  1.00  0.00     0.001 A 
ATOM     54  C   UNL A   1      45.932  25.070  25.532  1.00  0.00     0.001 A 
ATOM     55  C   UNL A   1      47.045  25.654  24.933  1.00  0.00     0.000 A 
ENDBRANCH  37  50
ENDBRANCH  11  12
ENDBRANCH   4   6
ENDBRANCH   3   4
ENDBRANCH   2   3
ENDBRANCH   1   2
BRANCH   1  56
ATOM     56  O   UNL A   1      34.119  23.013  23.408  1.00  0.00    -0.461 OA
BRANCH  56  57
ATOM     57  C   UNL A   1      33.676  24.274  23.198  1.00  0.00     0.328 C 
ATOM     58  O   UNL A   1      34.160  24.990  22.322  1.00  0.00    -0.250 OA
BRANCH  57  59
ATOM     59  C   UNL A   1      32.701  24.816  24.297  1.00  0.00     0.195 C 
ATOM     60  C   UNL A   1      31.741  25.798  23.606  1.00  0.00     0.046 C 
ATOM     61  N   UNL A   1      32.020  24.614  25.620  1.00  0.00    -0.328 N 
ATOM     62  C   UNL A   1      31.021  26.566  24.738  1.00  0.00     0.001 C 
ATOM     63  C   UNL A   1      31.663  25.995  26.018  1.00  0.00     0.128 C 
ATOM     64  C   UNL A   1      29.507  26.268  24.728  1.00  0.00     0.071 C 
ATOM     65  C   UNL A   1      31.229  28.079  24.572  1.00  0.00     0.071 C 
ATOM     66  C   UNL A   1      28.817  26.836  23.494  1.00  0.00     0.270 C 
ATOM     67  C   UNL A   1      30.517  28.596  23.313  1.00  0.00     0.270 C 
ATOM     68  N   UNL A   1      29.092  28.261  23.353  1.00  0.00    -0.272 N 
ATOM     69  H   UNL A   1      29.618  27.942  24.121  1.00  0.00     0.356 HD
BRANCH  61  70
ATOM     70  C   UNL A   1      31.132  23.658  26.135  1.00  0.00     0.225 C 
ATOM     71  O   UNL A   1      30.493  23.941  27.168  1.00  0.00    -0.275 OA
BRANCH  70  72
ATOM     72  C   UNL A   1      31.049  22.177  25.772  1.00  0.00     0.124 C 
BRANCH  72  73
ATOM     73  C   UNL A   1      32.173  21.179  25.858  1.00  0.00     0.154 C 
BRANCH  73  74
ATOM     74  N   UNL A   1      32.181  20.119  24.900  1.00  0.00    -0.272 N 
ATOM     75  C   UNL A   1      32.191  20.250  23.544  1.00  0.00     0.108 A 
ATOM     76  N   UNL A   1      32.337  18.855  25.319  1.00  0.00    -0.182 NA
ATOM     77  C   UNL A   1      32.384  18.982  23.049  1.00  0.00     0.042 A 
ATOM     78  C   UNL A   1      32.506  18.169  24.188  1.00  0.00     0.135 A 
ENDBRANCH  73  74
ENDBRANCH  72  73
ENDBRANCH  70  72
ENDBRANCH  61  70
BRANCH  68  79
ATOM     79  C   UNL A   1      28.181  29.299  23.179  1.00  0.00     0.315 C 
ATOM     80  O   UNL A   1      26.967  29.069  23.171  1.00  0.00    -0.231 OA
BRANCH  79  81
ATOM     81  C   UNL A   1      28.552  30.720  22.910  1.00  0.00     0.119 C 
ATOM     82  C   UNL A   1      28.101  31.661  21.832  1.00  0.00     0.019 C 
ATOM     83  C   UNL A   1      27.621  31.857  23.247  1.00  0.00     0.019 C 
ENDBRANCH  79  81
ENDBRANCH  68  79
ENDBRANCH  57  59
ENDBRANCH  56  57
ENDBRANCH   1  56
TORSDOF 17
ENDMDL
