MODEL 1
REMARK VINA RESULT:      -9.2      0.000      0.000
REMARK SMILES C[N@H+](CC(=O)OCCOC(=O)c1ccc(-c2c3nc(c(-c4ccccc4)c4ccc([nH]4)c(-c4ccccc4)c4nc(c(-c5ccccc5)c5ccc2[nH]5)C=C4)C=C3)cc1)Cc1csc(-c2ccco2)n1
REMARK SMILES IDX 7 1 6 2 4 3 5 4 3 5 2 6 1 7 60 9 61 10 62 11 70 12 63 13
REMARK SMILES IDX 64 14 65 15 66 16 69 17 67 18 68 19 8 20 9 21 10 22 11 23
REMARK SMILES IDX 12 24 13 25 59 26 14 27 58 28 15 29 16 30 17 31 52 32 18 33
REMARK SMILES IDX 57 34 51 35 53 36 19 37 56 38 50 39 49 40 20 42 42 43 27 44
REMARK SMILES IDX 41 45 28 46 31 47 40 48 54 49 29 50 30 51 39 53 55 54 32 55
REMARK SMILES IDX 21 56 22 57 26 58 23 59 25 60 24 61 43 62 44 63 48 64 45 65
REMARK SMILES IDX 47 66 46 67 33 68 34 69 38 70 35 71 37 72 36 73
REMARK H PARENT 2 8 53 41 31 52
REMARK Flexibility Score: inf
ROOT
ATOM      1  C   UNL A   1      33.491  34.030  28.572  1.00  0.00     0.274 C 
ENDROOT
BRANCH   1   2
ATOM      2  O   UNL A   1      34.110  35.329  28.587  1.00  0.00    -0.458 OA
BRANCH   2   3
ATOM      3  C   UNL A   1      33.399  36.339  29.154  1.00  0.00     0.361 C 
ATOM      4  O   UNL A   1      33.274  37.458  28.659  1.00  0.00    -0.245 OA
BRANCH   3   5
ATOM      5  C   UNL A   1      32.725  35.969  30.477  1.00  0.00     0.386 C 
BRANCH   5   6
ATOM      6  N   UNL A   1      33.585  36.164  31.649  1.00  0.00    -0.323 N 
ATOM      7  C   UNL A   1      33.654  37.529  32.127  1.00  0.00     0.333 C 
ATOM      8  H   UNL A   1      34.521  36.013  31.271  1.00  0.00     0.348 HD
BRANCH   6   9
ATOM      9  C   UNL A   1      33.553  35.112  32.669  1.00  0.00     0.320 C 
BRANCH   9  10
ATOM     10  C   UNL A   1      34.733  34.186  32.477  1.00  0.00     0.106 A 
ATOM     11  C   UNL A   1      34.713  32.802  32.428  1.00  0.00     0.097 A 
ATOM     12  N   UNL A   1      36.017  34.731  32.404  1.00  0.00    -0.232 NA
ATOM     13  S   UNL A   1      36.304  32.178  32.485  1.00  0.00    -0.119 S 
ATOM     14  C   UNL A   1      36.913  33.780  32.581  1.00  0.00     0.159 A 
BRANCH  14  15
ATOM     15  C   UNL A   1      38.290  34.045  32.909  1.00  0.00     0.162 A 
ATOM     16  C   UNL A   1      39.345  34.306  32.046  1.00  0.00     0.053 A 
ATOM     17  O   UNL A   1      38.761  34.145  34.198  1.00  0.00    -0.462 OA
ATOM     18  C   UNL A   1      40.488  34.577  32.837  1.00  0.00     0.043 A 
ATOM     19  C   UNL A   1      40.078  34.463  34.141  1.00  0.00     0.196 A 
ENDBRANCH  14  15
ENDBRANCH   9  10
ENDBRANCH   6   9
ENDBRANCH   5   6
ENDBRANCH   3   5
ENDBRANCH   2   3
ENDBRANCH   1   2
BRANCH   1  20
ATOM     20  C   UNL A   1      34.510  32.903  28.795  1.00  0.00     0.275 C 
BRANCH  20  21
ATOM     21  O   UNL A   1      34.743  32.112  27.609  1.00  0.00    -0.458 OA
BRANCH  21  22
ATOM     22  C   UNL A   1      34.807  30.790  27.853  1.00  0.00     0.338 C 
ATOM     23  O   UNL A   1      33.911  29.974  27.703  1.00  0.00    -0.246 OA
BRANCH  22  24
ATOM     24  C   UNL A   1      36.120  30.329  28.275  1.00  0.00     0.060 A 
ATOM     25  C   UNL A   1      37.147  30.321  27.326  1.00  0.00     0.016 A 
ATOM     26  C   UNL A   1      36.269  29.704  29.513  1.00  0.00     0.016 A 
ATOM     27  C   UNL A   1      38.352  29.702  27.626  1.00  0.00     0.010 A 
ATOM     28  C   UNL A   1      37.489  29.107  29.822  1.00  0.00     0.010 A 
ATOM     29  C   UNL A   1      38.536  29.116  28.886  1.00  0.00    -0.014 A 
BRANCH  29  30
ATOM     30  C   UNL A   1      39.884  28.676  29.293  1.00  0.00     0.031 A 
ATOM     31  C   UNL A   1      40.814  29.575  30.043  1.00  0.00     0.074 A 
ATOM     32  C   UNL A   1      40.261  27.442  28.915  1.00  0.00     0.049 A 
ATOM     33  N   UNL A   1      42.067  29.372  30.354  1.00  0.00    -0.248 NA
ATOM     34  C   UNL A   1      40.274  30.863  30.502  1.00  0.00     0.031 C 
ATOM     35  C   UNL A   1      39.409  26.487  28.199  1.00  0.00     0.029 A 
ATOM     36  N   UNL A   1      41.452  26.787  29.059  1.00  0.00    -0.354 N 
ATOM     37  C   UNL A   1      42.475  30.508  31.037  1.00  0.00     0.074 A 
ATOM     38  C   UNL A   1      41.336  31.401  31.091  1.00  0.00     0.031 C 
ATOM     39  C   UNL A   1      40.110  25.371  27.957  1.00  0.00     0.029 A 
ATOM     40  C   UNL A   1      41.468  25.558  28.450  1.00  0.00     0.049 A 
ATOM     41  H   UNL A   1      42.221  27.160  29.548  1.00  0.00     0.167 HD
ATOM     42  C   UNL A   1      43.695  30.775  31.561  1.00  0.00     0.031 A 
ATOM     43  C   UNL A   1      42.478  24.691  28.268  1.00  0.00     0.031 A 
ATOM     44  C   UNL A   1      44.821  29.879  31.484  1.00  0.00     0.049 A 
ATOM     45  C   UNL A   1      43.834  25.046  28.791  1.00  0.00     0.074 A 
ATOM     46  C   UNL A   1      46.093  30.041  32.005  1.00  0.00     0.029 A 
ATOM     47  N   UNL A   1      44.810  28.655  30.831  1.00  0.00    -0.354 N 
ATOM     48  N   UNL A   1      44.206  26.119  29.443  1.00  0.00    -0.248 NA
ATOM     49  C   UNL A   1      44.908  24.076  28.546  1.00  0.00     0.031 C 
ATOM     50  C   UNL A   1      46.864  28.934  31.630  1.00  0.00     0.029 A 
ATOM     51  C   UNL A   1      46.061  28.065  30.908  1.00  0.00     0.049 A 
ATOM     52  H   UNL A   1      44.028  28.263  30.379  1.00  0.00     0.167 HD
ATOM     53  C   UNL A   1      45.559  25.958  29.692  1.00  0.00     0.074 A 
ATOM     54  C   UNL A   1      45.936  24.673  29.135  1.00  0.00     0.031 C 
ATOM     55  C   UNL A   1      46.413  26.797  30.326  1.00  0.00     0.031 A 
BRANCH  42  56
ATOM     56  C   UNL A   1      43.891  32.103  32.234  1.00  0.00    -0.014 A 
ATOM     57  C   UNL A   1      44.256  33.243  31.503  1.00  0.00     0.009 A 
ATOM     58  C   UNL A   1      43.652  32.225  33.612  1.00  0.00     0.009 A 
ATOM     59  C   UNL A   1      44.397  34.477  32.143  1.00  0.00     0.001 A 
ATOM     60  C   UNL A   1      43.778  33.463  34.246  1.00  0.00     0.001 A 
ATOM     61  C   UNL A   1      44.155  34.587  33.512  1.00  0.00     0.000 A 
ENDBRANCH  42  56
BRANCH  43  62
ATOM     62  C   UNL A   1      42.231  23.439  27.515  1.00  0.00    -0.014 A 
ATOM     63  C   UNL A   1      42.512  23.367  26.144  1.00  0.00     0.009 A 
ATOM     64  C   UNL A   1      41.779  22.290  28.183  1.00  0.00     0.009 A 
ATOM     65  C   UNL A   1      42.338  22.166  25.454  1.00  0.00     0.001 A 
ATOM     66  C   UNL A   1      41.627  21.086  27.495  1.00  0.00     0.001 A 
ATOM     67  C   UNL A   1      41.904  21.025  26.130  1.00  0.00     0.000 A 
ENDBRANCH  43  62
BRANCH  55  68
ATOM     68  C   UNL A   1      47.834  26.337  30.442  1.00  0.00    -0.014 A 
ATOM     69  C   UNL A   1      48.761  26.608  29.423  1.00  0.00     0.009 A 
ATOM     70  C   UNL A   1      48.251  25.636  31.583  1.00  0.00     0.009 A 
ATOM     71  C   UNL A   1      50.077  26.160  29.536  1.00  0.00     0.001 A 
ATOM     72  C   UNL A   1      49.572  25.206  31.699  1.00  0.00     0.001 A 
ATOM     73  C   UNL A   1      50.482  25.461  30.673  1.00  0.00     0.000 A 
ENDBRANCH  55  68
ENDBRANCH  29  30
ENDBRANCH  22  24
ENDBRANCH  21  22
ENDBRANCH  20  21
ENDBRANCH   1  20
TORSDOF 15
ENDMDL
MODEL 2
REMARK VINA RESULT:      -8.7      3.498      6.053
REMARK SMILES C[N@H+](CC(=O)OCCOC(=O)c1ccc(-c2c3nc(c(-c4ccccc4)c4ccc([nH]4)c(-c4ccccc4)c4nc(c(-c5ccccc5)c5ccc2[nH]5)C=C4)C=C3)cc1)Cc1csc(-c2ccco2)n1
REMARK SMILES IDX 7 1 6 2 4 3 5 4 3 5 2 6 1 7 60 9 61 10 62 11 70 12 63 13
REMARK SMILES IDX 64 14 65 15 66 16 69 17 67 18 68 19 8 20 9 21 10 22 11 23
REMARK SMILES IDX 12 24 13 25 59 26 14 27 58 28 15 29 16 30 17 31 52 32 18 33
REMARK SMILES IDX 57 34 51 35 53 36 19 37 56 38 50 39 49 40 20 42 42 43 27 44
REMARK SMILES IDX 41 45 28 46 31 47 40 48 54 49 29 50 30 51 39 53 55 54 32 55
REMARK SMILES IDX 21 56 22 57 26 58 23 59 25 60 24 61 43 62 44 63 48 64 45 65
REMARK SMILES IDX 47 66 46 67 33 68 34 69 38 70 35 71 37 72 36 73
REMARK H PARENT 2 8 53 41 31 52
REMARK Flexibility Score: inf
ROOT
ATOM      1  C   UNL A   1      31.928  30.426  25.941  1.00  0.00     0.274 C 
ENDROOT
BRANCH   1   2
ATOM      2  O   UNL A   1      32.355  29.694  24.778  1.00  0.00    -0.458 OA
BRANCH   2   3
ATOM      3  C   UNL A   1      31.448  28.853  24.216  1.00  0.00     0.361 C 
ATOM      4  O   UNL A   1      30.404  29.220  23.680  1.00  0.00    -0.245 OA
BRANCH   3   5
ATOM      5  C   UNL A   1      31.839  27.374  24.278  1.00  0.00     0.386 C 
BRANCH   5   6
ATOM      6  N   UNL A   1      31.090  26.609  25.280  1.00  0.00    -0.323 N 
ATOM      7  C   UNL A   1      30.211  25.597  24.735  1.00  0.00     0.333 C 
ATOM      8  H   UNL A   1      30.435  27.299  25.648  1.00  0.00     0.348 HD
BRANCH   6   9
ATOM      9  C   UNL A   1      31.807  26.263  26.511  1.00  0.00     0.320 C 
BRANCH   9  10
ATOM     10  C   UNL A   1      32.389  24.873  26.382  1.00  0.00     0.106 A 
ATOM     11  C   UNL A   1      31.852  23.693  26.870  1.00  0.00     0.097 A 
ATOM     12  N   UNL A   1      33.636  24.713  25.775  1.00  0.00    -0.232 NA
ATOM     13  S   UNL A   1      32.988  22.421  26.741  1.00  0.00    -0.119 S 
ATOM     14  C   UNL A   1      34.117  23.519  26.059  1.00  0.00     0.159 A 
BRANCH  14  15
ATOM     15  C   UNL A   1      35.503  23.167  25.888  1.00  0.00     0.162 A 
ATOM     16  C   UNL A   1      36.602  24.011  25.801  1.00  0.00     0.053 A 
ATOM     17  O   UNL A   1      35.960  21.869  25.852  1.00  0.00    -0.462 OA
ATOM     18  C   UNL A   1      37.759  23.199  25.713  1.00  0.00     0.043 A 
ATOM     19  C   UNL A   1      37.312  21.903  25.745  1.00  0.00     0.196 A 
ENDBRANCH  14  15
ENDBRANCH   9  10
ENDBRANCH   6   9
ENDBRANCH   5   6
ENDBRANCH   3   5
ENDBRANCH   2   3
ENDBRANCH   1   2
BRANCH   1  20
ATOM     20  C   UNL A   1      32.574  29.893  27.228  1.00  0.00     0.275 C 
BRANCH  20  21
ATOM     21  O   UNL A   1      34.012  29.805  27.141  1.00  0.00    -0.458 OA
BRANCH  21  22
ATOM     22  C   UNL A   1      34.650  30.638  27.984  1.00  0.00     0.338 C 
ATOM     23  O   UNL A   1      34.202  31.659  28.481  1.00  0.00    -0.246 OA
BRANCH  22  24
ATOM     24  C   UNL A   1      35.983  30.195  28.359  1.00  0.00     0.060 A 
ATOM     25  C   UNL A   1      36.957  30.132  27.358  1.00  0.00     0.016 A 
ATOM     26  C   UNL A   1      36.199  29.638  29.618  1.00  0.00     0.016 A 
ATOM     27  C   UNL A   1      38.177  29.525  27.624  1.00  0.00     0.010 A 
ATOM     28  C   UNL A   1      37.434  29.053  29.893  1.00  0.00     0.010 A 
ATOM     29  C   UNL A   1      38.428  29.007  28.902  1.00  0.00    -0.014 A 
BRANCH  29  30
ATOM     30  C   UNL A   1      39.796  28.585  29.259  1.00  0.00     0.031 A 
ATOM     31  C   UNL A   1      40.759  29.512  29.928  1.00  0.00     0.074 A 
ATOM     32  C   UNL A   1      40.157  27.338  28.910  1.00  0.00     0.049 A 
ATOM     33  N   UNL A   1      42.026  29.323  30.185  1.00  0.00    -0.248 NA
ATOM     34  C   UNL A   1      40.237  30.816  30.365  1.00  0.00     0.031 C 
ATOM     35  C   UNL A   1      39.274  26.355  28.273  1.00  0.00     0.029 A 
ATOM     36  N   UNL A   1      41.356  26.690  29.019  1.00  0.00    -0.354 N 
ATOM     37  C   UNL A   1      42.464  30.484  30.804  1.00  0.00     0.074 A 
ATOM     38  C   UNL A   1      41.326  31.377  30.880  1.00  0.00     0.031 C 
ATOM     39  C   UNL A   1      39.966  25.232  28.038  1.00  0.00     0.029 A 
ATOM     40  C   UNL A   1      41.346  25.439  28.457  1.00  0.00     0.049 A 
ATOM     41  H   UNL A   1      42.147  27.082  29.456  1.00  0.00     0.167 HD
ATOM     42  C   UNL A   1      43.707  30.772  31.257  1.00  0.00     0.031 A 
ATOM     43  C   UNL A   1      42.349  24.567  28.258  1.00  0.00     0.031 A 
ATOM     44  C   UNL A   1      44.831  29.874  31.158  1.00  0.00     0.049 A 
ATOM     45  C   UNL A   1      43.727  24.942  28.701  1.00  0.00     0.074 A 
ATOM     46  C   UNL A   1      46.126  30.058  31.611  1.00  0.00     0.029 A 
ATOM     47  N   UNL A   1      44.791  28.627  30.554  1.00  0.00    -0.354 N 
ATOM     48  N   UNL A   1      44.128  26.040  29.293  1.00  0.00    -0.248 NA
ATOM     49  C   UNL A   1      44.791  23.966  28.439  1.00  0.00     0.031 C 
ATOM     50  C   UNL A   1      46.880  28.939  31.240  1.00  0.00     0.029 A 
ATOM     51  C   UNL A   1      46.046  28.042  30.591  1.00  0.00     0.049 A 
ATOM     52  H   UNL A   1      43.989  28.217  30.155  1.00  0.00     0.167 HD
ATOM     53  C   UNL A   1      45.492  25.890  29.481  1.00  0.00     0.074 A 
ATOM     54  C   UNL A   1      45.845  24.586  28.955  1.00  0.00     0.031 C 
ATOM     55  C   UNL A   1      46.373  26.754  30.040  1.00  0.00     0.031 A 
BRANCH  42  56
ATOM     56  C   UNL A   1      43.931  32.124  31.870  1.00  0.00    -0.014 A 
ATOM     57  C   UNL A   1      43.783  32.332  33.250  1.00  0.00     0.009 A 
ATOM     58  C   UNL A   1      44.350  33.193  31.062  1.00  0.00     0.009 A 
ATOM     59  C   UNL A   1      44.033  33.589  33.805  1.00  0.00     0.001 A 
ATOM     60  C   UNL A   1      44.613  34.445  31.622  1.00  0.00     0.001 A 
ATOM     61  C   UNL A   1      44.450  34.643  32.992  1.00  0.00     0.000 A 
ENDBRANCH  42  56
BRANCH  43  62
ATOM     62  C   UNL A   1      42.069  23.287  27.566  1.00  0.00    -0.014 A 
ATOM     63  C   UNL A   1      42.387  23.129  26.211  1.00  0.00     0.009 A 
ATOM     64  C   UNL A   1      41.546  22.197  28.280  1.00  0.00     0.009 A 
ATOM     65  C   UNL A   1      42.181  21.900  25.580  1.00  0.00     0.001 A 
ATOM     66  C   UNL A   1      41.362  20.964  27.652  1.00  0.00     0.001 A 
ATOM     67  C   UNL A   1      41.676  20.818  26.302  1.00  0.00     0.000 A 
ENDBRANCH  43  62
BRANCH  55  68
ATOM     68  C   UNL A   1      47.800  26.300  30.103  1.00  0.00    -0.014 A 
ATOM     69  C   UNL A   1      48.631  26.389  28.976  1.00  0.00     0.009 A 
ATOM     70  C   UNL A   1      48.318  25.789  31.302  1.00  0.00     0.009 A 
ATOM     71  C   UNL A   1      49.952  25.947  29.044  1.00  0.00     0.001 A 
ATOM     72  C   UNL A   1      49.645  25.366  31.370  1.00  0.00     0.001 A 
ATOM     73  C   UNL A   1      50.458  25.439  30.239  1.00  0.00     0.000 A 
ENDBRANCH  55  68
ENDBRANCH  29  30
ENDBRANCH  22  24
ENDBRANCH  21  22
ENDBRANCH  20  21
ENDBRANCH   1  20
TORSDOF 15
ENDMDL
MODEL 3
REMARK VINA RESULT:      -8.7      1.432      2.244
REMARK SMILES C[N@H+](CC(=O)OCCOC(=O)c1ccc(-c2c3nc(c(-c4ccccc4)c4ccc([nH]4)c(-c4ccccc4)c4nc(c(-c5ccccc5)c5ccc2[nH]5)C=C4)C=C3)cc1)Cc1csc(-c2ccco2)n1
REMARK SMILES IDX 7 1 6 2 4 3 5 4 3 5 2 6 1 7 60 9 61 10 62 11 70 12 63 13
REMARK SMILES IDX 64 14 65 15 66 16 69 17 67 18 68 19 8 20 9 21 10 22 11 23
REMARK SMILES IDX 12 24 13 25 59 26 14 27 58 28 15 29 16 30 17 31 52 32 18 33
REMARK SMILES IDX 57 34 51 35 53 36 19 37 56 38 50 39 49 40 20 42 42 43 27 44
REMARK SMILES IDX 41 45 28 46 31 47 40 48 54 49 29 50 30 51 39 53 55 54 32 55
REMARK SMILES IDX 21 56 22 57 26 58 23 59 25 60 24 61 43 62 44 63 48 64 45 65
REMARK SMILES IDX 47 66 46 67 33 68 34 69 38 70 35 71 37 72 36 73
REMARK H PARENT 2 8 53 41 31 52
REMARK Flexibility Score: inf
ROOT
ATOM      1  C   UNL A   1      34.239  34.065  28.914  1.00  0.00     0.274 C 
ENDROOT
BRANCH   1   2
ATOM      2  O   UNL A   1      35.600  34.533  28.937  1.00  0.00    -0.458 OA
BRANCH   2   3
ATOM      3  C   UNL A   1      36.492  33.788  29.640  1.00  0.00     0.361 C 
ATOM      4  O   UNL A   1      37.539  33.341  29.173  1.00  0.00    -0.245 OA
BRANCH   3   5
ATOM      5  C   UNL A   1      36.105  33.556  31.103  1.00  0.00     0.386 C 
BRANCH   5   6
ATOM      6  N   UNL A   1      36.485  34.659  31.993  1.00  0.00    -0.323 N 
ATOM      7  C   UNL A   1      35.405  35.179  32.805  1.00  0.00     0.333 C 
ATOM      8  H   UNL A   1      36.663  35.424  31.342  1.00  0.00     0.348 HD
BRANCH   6   9
ATOM      9  C   UNL A   1      37.800  34.562  32.633  1.00  0.00     0.320 C 
BRANCH   9  10
ATOM     10  C   UNL A   1      37.879  33.281  33.433  1.00  0.00     0.106 A 
ATOM     11  C   UNL A   1      37.468  33.084  34.740  1.00  0.00     0.097 A 
ATOM     12  N   UNL A   1      38.489  32.162  32.862  1.00  0.00    -0.232 NA
ATOM     13  S   UNL A   1      38.013  31.570  35.317  1.00  0.00    -0.119 S 
ATOM     14  C   UNL A   1      38.766  31.281  33.803  1.00  0.00     0.159 A 
BRANCH  14  15
ATOM     15  C   UNL A   1      39.691  30.193  33.615  1.00  0.00     0.162 A 
ATOM     16  C   UNL A   1      39.451  28.947  33.052  1.00  0.00     0.053 A 
ATOM     17  O   UNL A   1      41.029  30.268  33.928  1.00  0.00    -0.462 OA
ATOM     18  C   UNL A   1      40.683  28.249  33.019  1.00  0.00     0.043 A 
ATOM     19  C   UNL A   1      41.611  29.097  33.567  1.00  0.00     0.196 A 
ENDBRANCH  14  15
ENDBRANCH   9  10
ENDBRANCH   6   9
ENDBRANCH   5   6
ENDBRANCH   3   5
ENDBRANCH   2   3
ENDBRANCH   1   2
BRANCH   1  20
ATOM     20  C   UNL A   1      34.064  32.846  27.997  1.00  0.00     0.275 C 
BRANCH  20  21
ATOM     21  O   UNL A   1      34.235  31.591  28.691  1.00  0.00    -0.458 OA
BRANCH  21  22
ATOM     22  C   UNL A   1      34.741  30.615  27.913  1.00  0.00     0.338 C 
ATOM     23  O   UNL A   1      34.206  30.103  26.942  1.00  0.00    -0.246 OA
BRANCH  22  24
ATOM     24  C   UNL A   1      36.091  30.212  28.272  1.00  0.00     0.060 A 
ATOM     25  C   UNL A   1      37.062  30.210  27.265  1.00  0.00     0.016 A 
ATOM     26  C   UNL A   1      36.333  29.632  29.516  1.00  0.00     0.016 A 
ATOM     27  C   UNL A   1      38.303  29.642  27.511  1.00  0.00     0.010 A 
ATOM     28  C   UNL A   1      37.590  29.087  29.771  1.00  0.00     0.010 A 
ATOM     29  C   UNL A   1      38.581  29.102  28.775  1.00  0.00    -0.014 A 
BRANCH  29  30
ATOM     30  C   UNL A   1      39.964  28.721  29.115  1.00  0.00     0.031 A 
ATOM     31  C   UNL A   1      40.923  29.693  29.724  1.00  0.00     0.074 A 
ATOM     32  C   UNL A   1      40.343  27.468  28.806  1.00  0.00     0.049 A 
ATOM     33  N   UNL A   1      42.200  29.539  29.958  1.00  0.00    -0.248 NA
ATOM     34  C   UNL A   1      40.385  31.002  30.122  1.00  0.00     0.031 C 
ATOM     35  C   UNL A   1      39.466  26.444  28.229  1.00  0.00     0.029 A 
ATOM     36  N   UNL A   1      41.558  26.850  28.912  1.00  0.00    -0.354 N 
ATOM     37  C   UNL A   1      42.627  30.732  30.521  1.00  0.00     0.074 A 
ATOM     38  C   UNL A   1      41.473  31.605  30.589  1.00  0.00     0.031 C 
ATOM     39  C   UNL A   1      40.176  25.326  28.023  1.00  0.00     0.029 A 
ATOM     40  C   UNL A   1      41.560  25.577  28.400  1.00  0.00     0.049 A 
ATOM     41  H   UNL A   1      42.350  27.274  29.314  1.00  0.00     0.167 HD
ATOM     42  C   UNL A   1      43.874  31.062  30.933  1.00  0.00     0.031 A 
ATOM     43  C   UNL A   1      42.576  24.718  28.212  1.00  0.00     0.031 A 
ATOM     44  C   UNL A   1      45.014  30.184  30.842  1.00  0.00     0.049 A 
ATOM     45  C   UNL A   1      43.956  25.138  28.606  1.00  0.00     0.074 A 
ATOM     46  C   UNL A   1      46.315  30.410  31.256  1.00  0.00     0.029 A 
ATOM     47  N   UNL A   1      44.986  28.913  30.288  1.00  0.00    -0.354 N 
ATOM     48  N   UNL A   1      44.347  26.266  29.145  1.00  0.00    -0.248 NA
ATOM     49  C   UNL A   1      45.034  24.173  28.358  1.00  0.00     0.031 C 
ATOM     50  C   UNL A   1      47.084  29.293  30.911  1.00  0.00     0.029 A 
ATOM     51  C   UNL A   1      46.253  28.355  30.318  1.00  0.00     0.049 A 
ATOM     52  H   UNL A   1      44.184  28.472  29.924  1.00  0.00     0.167 HD
ATOM     53  C   UNL A   1      45.718  26.150  29.306  1.00  0.00     0.074 A 
ATOM     54  C   UNL A   1      46.087  24.833  28.823  1.00  0.00     0.031 C 
ATOM     55  C   UNL A   1      46.594  27.053  29.810  1.00  0.00     0.031 A 
BRANCH  42  56
ATOM     56  C   UNL A   1      44.085  32.442  31.486  1.00  0.00    -0.014 A 
ATOM     57  C   UNL A   1      43.967  32.700  32.861  1.00  0.00     0.009 A 
ATOM     58  C   UNL A   1      44.459  33.486  30.627  1.00  0.00     0.009 A 
ATOM     59  C   UNL A   1      44.203  33.983  33.361  1.00  0.00     0.001 A 
ATOM     60  C   UNL A   1      44.710  34.764  31.131  1.00  0.00     0.001 A 
ATOM     61  C   UNL A   1      44.577  35.013  32.497  1.00  0.00     0.000 A 
ENDBRANCH  42  56
BRANCH  43  62
ATOM     62  C   UNL A   1      42.307  23.406  27.576  1.00  0.00    -0.014 A 
ATOM     63  C   UNL A   1      42.469  23.240  26.195  1.00  0.00     0.009 A 
ATOM     64  C   UNL A   1      41.954  22.299  28.364  1.00  0.00     0.009 A 
ATOM     65  C   UNL A   1      42.277  21.985  25.612  1.00  0.00     0.001 A 
ATOM     66  C   UNL A   1      41.784  21.042  27.781  1.00  0.00     0.001 A 
ATOM     67  C   UNL A   1      41.942  20.888  26.405  1.00  0.00     0.000 A 
ENDBRANCH  43  62
BRANCH  55  68
ATOM     68  C   UNL A   1      48.031  26.630  29.857  1.00  0.00    -0.014 A 
ATOM     69  C   UNL A   1      48.912  26.968  28.818  1.00  0.00     0.009 A 
ATOM     70  C   UNL A   1      48.508  25.896  30.953  1.00  0.00     0.009 A 
ATOM     71  C   UNL A   1      50.243  26.555  28.866  1.00  0.00     0.001 A 
ATOM     72  C   UNL A   1      49.844  25.501  31.005  1.00  0.00     0.001 A 
ATOM     73  C   UNL A   1      50.708  25.823  29.959  1.00  0.00     0.000 A 
ENDBRANCH  55  68
ENDBRANCH  29  30
ENDBRANCH  22  24
ENDBRANCH  21  22
ENDBRANCH  20  21
ENDBRANCH   1  20
TORSDOF 15
ENDMDL
