MODEL 1
REMARK VINA RESULT:     -11.1      0.000      0.000
REMARK SMILES O=C(/C=C/c1cc(C(=O)NCCn2cccn2)cs1)OCCOC(=O)c1ccc(-c2c3nc(c(-c4ccccc4)c4ccc([nH]4)c(-c4ccccc4)c4nc(c(-c5ccccc5)c5ccc2[nH]5)C=C4)C=C3)cc1
REMARK SMILES IDX 20 1 2 2 1 3 3 4 4 5 5 6 6 7 19 8 7 9 18 10 8 11 9 12 10 13
REMARK SMILES IDX 11 15 12 16 13 17 14 18 17 19 15 20 16 21 21 22 22 23 23 24
REMARK SMILES IDX 24 25 25 26 26 27 27 28 73 29 28 30 72 31 29 32 30 33 31 34
REMARK SMILES IDX 66 35 32 36 71 37 65 38 67 39 33 40 70 41 64 42 63 43 34 45
REMARK SMILES IDX 56 46 41 47 55 48 42 49 45 50 54 51 68 52 43 53 44 54 53 56
REMARK SMILES IDX 69 57 46 58 35 59 36 60 40 61 37 62 39 63 38 64 57 65 58 66
REMARK SMILES IDX 62 67 59 68 61 69 60 70 47 71 48 72 52 73 49 74 51 75 50 76
REMARK H PARENT 10 14 67 44 45 55
REMARK Flexibility Score: inf
ROOT
ATOM      1  O   UNL A   1      41.521  19.990  26.134  1.00  0.00    -0.459 OA
ENDROOT
BRANCH   1   2
ATOM      2  C   UNL A   1      40.731  20.791  26.873  1.00  0.00     0.330 C 
ATOM      3  O   UNL A   1      40.968  20.957  28.069  1.00  0.00    -0.247 OA
BRANCH   2   4
ATOM      4  C   UNL A   1      39.515  21.439  26.347  1.00  0.00     0.095 C 
ATOM      5  C   UNL A   1      38.648  21.106  25.377  1.00  0.00     0.026 C 
BRANCH   5   6
ATOM      6  C   UNL A   1      37.546  21.964  25.100  1.00  0.00     0.028 A 
ATOM      7  C   UNL A   1      36.455  21.712  24.292  1.00  0.00     0.033 A 
ATOM      8  S   UNL A   1      37.401  23.512  25.815  1.00  0.00    -0.144 S 
ATOM      9  C   UNL A   1      35.574  22.819  24.103  1.00  0.00     0.051 A 
ATOM     10  C   UNL A   1      36.018  23.880  24.883  1.00  0.00     0.079 A 
BRANCH   9  11
ATOM     11  C   UNL A   1      34.366  22.948  23.286  1.00  0.00     0.252 C 
ATOM     12  O   UNL A   1      34.294  23.791  22.390  1.00  0.00    -0.269 OA
ATOM     13  N   UNL A   1      33.262  22.156  23.469  1.00  0.00    -0.350 N 
ATOM     14  H   UNL A   1      32.509  22.404  22.885  1.00  0.00     0.163 HD
BRANCH  13  15
ATOM     15  C   UNL A   1      32.962  21.026  24.341  1.00  0.00     0.140 C 
BRANCH  15  16
ATOM     16  C   UNL A   1      32.318  19.850  23.597  1.00  0.00     0.165 C 
BRANCH  16  17
ATOM     17  N   UNL A   1      32.748  18.535  24.051  1.00  0.00    -0.271 N 
ATOM     18  C   UNL A   1      32.614  17.970  25.288  1.00  0.00     0.108 A 
ATOM     19  N   UNL A   1      33.317  17.699  23.158  1.00  0.00    -0.181 NA
ATOM     20  C   UNL A   1      33.096  16.688  25.186  1.00  0.00     0.042 A 
ATOM     21  C   UNL A   1      33.521  16.577  23.852  1.00  0.00     0.135 A 
ENDBRANCH  16  17
ENDBRANCH  15  16
ENDBRANCH  13  15
ENDBRANCH   9  11
ENDBRANCH   5   6
ENDBRANCH   2   4
ENDBRANCH   1   2
BRANCH   1  22
ATOM     22  C   UNL A   1      42.291  18.851  26.549  1.00  0.00     0.275 C 
BRANCH  22  23
ATOM     23  C   UNL A   1      43.510  18.562  25.690  1.00  0.00     0.275 C 
BRANCH  23  24
ATOM     24  O   UNL A   1      43.530  19.311  24.482  1.00  0.00    -0.458 OA
BRANCH  24  25
ATOM     25  C   UNL A   1      44.731  19.746  24.039  1.00  0.00     0.338 C 
ATOM     26  O   UNL A   1      45.597  19.083  23.487  1.00  0.00    -0.246 OA
BRANCH  25  27
ATOM     27  C   UNL A   1      44.894  21.139  24.491  1.00  0.00     0.060 A 
ATOM     28  C   UNL A   1      45.944  21.459  25.357  1.00  0.00     0.016 A 
ATOM     29  C   UNL A   1      43.874  22.062  24.221  1.00  0.00     0.016 A 
ATOM     30  C   UNL A   1      45.870  22.640  26.080  1.00  0.00     0.010 A 
ATOM     31  C   UNL A   1      43.797  23.229  24.937  1.00  0.00     0.010 A 
ATOM     32  C   UNL A   1      44.747  23.463  25.921  1.00  0.00    -0.014 A 
BRANCH  32  33
ATOM     33  C   UNL A   1      44.587  24.648  26.737  1.00  0.00     0.031 A 
ATOM     34  C   UNL A   1      45.689  25.617  26.566  1.00  0.00     0.074 A 
ATOM     35  C   UNL A   1      43.459  24.904  27.432  1.00  0.00     0.049 A 
ATOM     36  N   UNL A   1      46.630  25.875  27.409  1.00  0.00    -0.248 NA
ATOM     37  C   UNL A   1      45.879  26.237  25.242  1.00  0.00     0.031 C 
ATOM     38  C   UNL A   1      42.192  24.163  27.411  1.00  0.00     0.029 A 
ATOM     39  N   UNL A   1      43.171  25.962  28.236  1.00  0.00    -0.354 N 
ATOM     40  C   UNL A   1      47.400  26.865  26.813  1.00  0.00     0.074 A 
ATOM     41  C   UNL A   1      47.033  26.880  25.420  1.00  0.00     0.031 C 
ATOM     42  C   UNL A   1      41.220  24.920  27.976  1.00  0.00     0.029 A 
ATOM     43  C   UNL A   1      41.818  26.129  28.518  1.00  0.00     0.049 A 
ATOM     44  H   UNL A   1      43.865  26.562  28.591  1.00  0.00     0.167 HD
ATOM     45  C   UNL A   1      48.043  27.795  27.572  1.00  0.00     0.031 A 
ATOM     46  C   UNL A   1      41.240  27.209  29.108  1.00  0.00     0.031 A 
ATOM     47  C   UNL A   1      48.082  27.404  28.959  1.00  0.00     0.049 A 
ATOM     48  C   UNL A   1      42.315  27.962  29.797  1.00  0.00     0.074 A 
ATOM     49  C   UNL A   1      48.593  26.328  29.658  1.00  0.00     0.029 A 
ATOM     50  N   UNL A   1      47.156  27.994  29.786  1.00  0.00    -0.354 N 
ATOM     51  N   UNL A   1      42.942  27.514  30.846  1.00  0.00    -0.248 NA
ATOM     52  C   UNL A   1      43.011  28.994  29.045  1.00  0.00     0.031 C 
ATOM     53  C   UNL A   1      47.627  26.056  30.671  1.00  0.00     0.029 A 
ATOM     54  C   UNL A   1      46.624  27.026  30.594  1.00  0.00     0.049 A 
ATOM     55  H   UNL A   1      46.916  28.949  29.797  1.00  0.00     0.167 HD
ATOM     56  C   UNL A   1      44.270  27.844  30.622  1.00  0.00     0.074 A 
ATOM     57  C   UNL A   1      44.239  28.839  29.549  1.00  0.00     0.031 C 
ATOM     58  C   UNL A   1      45.276  27.063  31.114  1.00  0.00     0.031 A 
BRANCH  45  59
ATOM     59  C   UNL A   1      48.198  29.239  27.156  1.00  0.00    -0.014 A 
ATOM     60  C   UNL A   1      49.470  29.827  27.267  1.00  0.00     0.009 A 
ATOM     61  C   UNL A   1      47.115  30.114  26.951  1.00  0.00     0.009 A 
ATOM     62  C   UNL A   1      49.633  31.216  27.265  1.00  0.00     0.001 A 
ATOM     63  C   UNL A   1      47.278  31.500  26.906  1.00  0.00     0.001 A 
ATOM     64  C   UNL A   1      48.536  32.053  27.094  1.00  0.00     0.000 A 
ENDBRANCH  45  59
BRANCH  46  65
ATOM     65  C   UNL A   1      39.899  27.806  28.901  1.00  0.00    -0.014 A 
ATOM     66  C   UNL A   1      38.970  27.873  29.955  1.00  0.00     0.009 A 
ATOM     67  C   UNL A   1      39.639  28.580  27.756  1.00  0.00     0.009 A 
ATOM     68  C   UNL A   1      37.852  28.718  29.884  1.00  0.00     0.001 A 
ATOM     69  C   UNL A   1      38.521  29.421  27.684  1.00  0.00     0.001 A 
ATOM     70  C   UNL A   1      37.637  29.504  28.755  1.00  0.00     0.000 A 
ENDBRANCH  46  65
BRANCH  58  71
ATOM     71  C   UNL A   1      44.916  25.997  32.122  1.00  0.00    -0.014 A 
ATOM     72  C   UNL A   1      44.535  24.689  31.775  1.00  0.00     0.009 A 
ATOM     73  C   UNL A   1      45.112  26.295  33.479  1.00  0.00     0.009 A 
ATOM     74  C   UNL A   1      44.329  23.718  32.762  1.00  0.00     0.001 A 
ATOM     75  C   UNL A   1      44.930  25.321  34.461  1.00  0.00     0.001 A 
ATOM     76  C   UNL A   1      44.532  24.034  34.104  1.00  0.00     0.000 A 
ENDBRANCH  58  71
ENDBRANCH  32  33
ENDBRANCH  25  27
ENDBRANCH  24  25
ENDBRANCH  23  24
ENDBRANCH  22  23
ENDBRANCH   1  22
TORSDOF 16
ENDMDL
MODEL 2
REMARK VINA RESULT:     -10.7      6.323     11.471
REMARK SMILES O=C(/C=C/c1cc(C(=O)NCCn2cccn2)cs1)OCCOC(=O)c1ccc(-c2c3nc(c(-c4ccccc4)c4ccc([nH]4)c(-c4ccccc4)c4nc(c(-c5ccccc5)c5ccc2[nH]5)C=C4)C=C3)cc1
REMARK SMILES IDX 20 1 2 2 1 3 3 4 4 5 5 6 6 7 19 8 7 9 18 10 8 11 9 12 10 13
REMARK SMILES IDX 11 15 12 16 13 17 14 18 17 19 15 20 16 21 21 22 22 23 23 24
REMARK SMILES IDX 24 25 25 26 26 27 27 28 73 29 28 30 72 31 29 32 30 33 31 34
REMARK SMILES IDX 66 35 32 36 71 37 65 38 67 39 33 40 70 41 64 42 63 43 34 45
REMARK SMILES IDX 56 46 41 47 55 48 42 49 45 50 54 51 68 52 43 53 44 54 53 56
REMARK SMILES IDX 69 57 46 58 35 59 36 60 40 61 37 62 39 63 38 64 57 65 58 66
REMARK SMILES IDX 62 67 59 68 61 69 60 70 47 71 48 72 52 73 49 74 51 75 50 76
REMARK H PARENT 10 14 67 44 45 55
REMARK Flexibility Score: inf
ROOT
ATOM      1  O   UNL A   1      33.962  34.285  29.008  1.00  0.00    -0.459 OA
ENDROOT
BRANCH   1   2
ATOM      2  C   UNL A   1      34.546  33.492  28.090  1.00  0.00     0.330 C 
ATOM      3  O   UNL A   1      35.582  33.853  27.533  1.00  0.00    -0.247 OA
BRANCH   2   4
ATOM      4  C   UNL A   1      33.965  32.214  27.635  1.00  0.00     0.095 C 
ATOM      5  C   UNL A   1      34.394  30.943  27.693  1.00  0.00     0.026 C 
BRANCH   5   6
ATOM      6  C   UNL A   1      33.581  29.906  27.151  1.00  0.00     0.028 A 
ATOM      7  C   UNL A   1      33.925  28.588  26.924  1.00  0.00     0.033 A 
ATOM      8  S   UNL A   1      31.948  30.169  26.717  1.00  0.00    -0.144 S 
ATOM      9  C   UNL A   1      32.937  27.815  26.245  1.00  0.00     0.051 A 
ATOM     10  C   UNL A   1      31.807  28.600  26.057  1.00  0.00     0.079 A 
BRANCH   9  11
ATOM     11  C   UNL A   1      32.962  26.423  25.790  1.00  0.00     0.252 C 
ATOM     12  O   UNL A   1      32.738  25.497  26.572  1.00  0.00    -0.269 OA
ATOM     13  N   UNL A   1      33.236  26.073  24.493  1.00  0.00    -0.350 N 
ATOM     14  H   UNL A   1      33.277  25.099  24.357  1.00  0.00     0.163 HD
BRANCH  13  15
ATOM     15  C   UNL A   1      33.479  26.833  23.271  1.00  0.00     0.140 C 
BRANCH  15  16
ATOM     16  C   UNL A   1      32.340  26.708  22.253  1.00  0.00     0.165 C 
BRANCH  16  17
ATOM     17  N   UNL A   1      31.059  27.231  22.706  1.00  0.00    -0.271 N 
ATOM     18  C   UNL A   1      30.508  28.462  22.481  1.00  0.00     0.108 A 
ATOM     19  N   UNL A   1      30.241  26.418  23.405  1.00  0.00    -0.181 NA
ATOM     20  C   UNL A   1      29.254  28.436  23.040  1.00  0.00     0.042 A 
ATOM     21  C   UNL A   1      29.144  27.153  23.601  1.00  0.00     0.135 A 
ENDBRANCH  16  17
ENDBRANCH  15  16
ENDBRANCH  13  15
ENDBRANCH   9  11
ENDBRANCH   5   6
ENDBRANCH   2   4
ENDBRANCH   1   2
BRANCH   1  22
ATOM     22  C   UNL A   1      33.557  35.657  28.887  1.00  0.00     0.275 C 
BRANCH  22  23
ATOM     23  C   UNL A   1      32.861  36.224  30.113  1.00  0.00     0.275 C 
BRANCH  23  24
ATOM     24  O   UNL A   1      32.503  35.226  31.060  1.00  0.00    -0.458 OA
BRANCH  24  25
ATOM     25  C   UNL A   1      32.790  35.469  32.358  1.00  0.00     0.338 C 
ATOM     26  O   UNL A   1      32.207  36.237  33.110  1.00  0.00    -0.246 OA
BRANCH  25  27
ATOM     27  C   UNL A   1      34.047  34.770  32.675  1.00  0.00     0.060 A 
ATOM     28  C   UNL A   1      35.195  35.517  32.953  1.00  0.00     0.016 A 
ATOM     29  C   UNL A   1      34.118  33.383  32.479  1.00  0.00     0.016 A 
ATOM     30  C   UNL A   1      36.430  34.893  32.860  1.00  0.00     0.010 A 
ATOM     31  C   UNL A   1      35.339  32.765  32.383  1.00  0.00     0.010 A 
ATOM     32  C   UNL A   1      36.482  33.544  32.487  1.00  0.00    -0.014 A 
BRANCH  32  33
ATOM     33  C   UNL A   1      37.758  32.891  32.276  1.00  0.00     0.031 A 
ATOM     34  C   UNL A   1      38.567  32.801  33.509  1.00  0.00     0.074 A 
ATOM     35  C   UNL A   1      38.076  32.277  31.118  1.00  0.00     0.049 A 
ATOM     36  N   UNL A   1      39.624  33.484  33.791  1.00  0.00    -0.248 NA
ATOM     37  C   UNL A   1      38.048  32.002  34.633  1.00  0.00     0.031 C 
ATOM     38  C   UNL A   1      37.218  32.035  29.952  1.00  0.00     0.029 A 
ATOM     39  N   UNL A   1      39.225  31.633  30.779  1.00  0.00    -0.354 N 
ATOM     40  C   UNL A   1      40.039  33.028  35.036  1.00  0.00     0.074 A 
ATOM     41  C   UNL A   1      38.926  32.301  35.591  1.00  0.00     0.031 C 
ATOM     42  C   UNL A   1      37.799  31.111  29.150  1.00  0.00     0.029 A 
ATOM     43  C   UNL A   1      39.121  30.800  29.669  1.00  0.00     0.049 A 
ATOM     44  H   UNL A   1      40.065  31.749  31.279  1.00  0.00     0.167 HD
ATOM     45  C   UNL A   1      41.358  33.021  35.368  1.00  0.00     0.031 A 
ATOM     46  C   UNL A   1      40.040  29.890  29.250  1.00  0.00     0.031 A 
ATOM     47  C   UNL A   1      42.135  33.817  34.451  1.00  0.00     0.049 A 
ATOM     48  C   UNL A   1      41.332  30.244  29.883  1.00  0.00     0.074 A 
ATOM     49  C   UNL A   1      42.132  35.142  34.063  1.00  0.00     0.029 A 
ATOM     50  N   UNL A   1      42.817  33.132  33.473  1.00  0.00    -0.354 N 
ATOM     51  N   UNL A   1      42.006  31.315  29.581  1.00  0.00    -0.248 NA
ATOM     52  C   UNL A   1      41.635  29.658  31.179  1.00  0.00     0.031 C 
ATOM     53  C   UNL A   1      42.405  35.116  32.664  1.00  0.00     0.029 A 
ATOM     54  C   UNL A   1      42.643  33.792  32.287  1.00  0.00     0.049 A 
ATOM     55  H   UNL A   1      43.341  32.309  33.604  1.00  0.00     0.167 HD
ATOM     56  C   UNL A   1      42.453  31.799  30.802  1.00  0.00     0.074 A 
ATOM     57  C   UNL A   1      42.280  30.688  31.738  1.00  0.00     0.031 C 
ATOM     58  C   UNL A   1      42.633  33.139  30.997  1.00  0.00     0.031 A 
BRANCH  45  59
ATOM     59  C   UNL A   1      41.996  31.934  36.202  1.00  0.00    -0.014 A 
ATOM     60  C   UNL A   1      42.797  32.320  37.291  1.00  0.00     0.009 A 
ATOM     61  C   UNL A   1      42.089  30.590  35.795  1.00  0.00     0.009 A 
ATOM     62  C   UNL A   1      43.705  31.431  37.877  1.00  0.00     0.001 A 
ATOM     63  C   UNL A   1      42.964  29.689  36.405  1.00  0.00     0.001 A 
ATOM     64  C   UNL A   1      43.796  30.119  37.427  1.00  0.00     0.000 A 
ENDBRANCH  45  59
BRANCH  46  65
ATOM     65  C   UNL A   1      39.850  28.582  28.578  1.00  0.00    -0.014 A 
ATOM     66  C   UNL A   1      40.462  28.313  27.340  1.00  0.00     0.009 A 
ATOM     67  C   UNL A   1      39.318  27.492  29.289  1.00  0.00     0.009 A 
ATOM     68  C   UNL A   1      40.578  27.000  26.858  1.00  0.00     0.001 A 
ATOM     69  C   UNL A   1      39.431  26.182  28.807  1.00  0.00     0.001 A 
ATOM     70  C   UNL A   1      40.077  25.934  27.601  1.00  0.00     0.000 A 
ENDBRANCH  46  65
BRANCH  58  71
ATOM     71  C   UNL A   1      42.596  34.042  29.788  1.00  0.00    -0.014 A 
ATOM     72  C   UNL A   1      41.440  34.709  29.345  1.00  0.00     0.009 A 
ATOM     73  C   UNL A   1      43.816  34.339  29.162  1.00  0.00     0.009 A 
ATOM     74  C   UNL A   1      41.503  35.623  28.287  1.00  0.00     0.001 A 
ATOM     75  C   UNL A   1      43.883  35.268  28.124  1.00  0.00     0.001 A 
ATOM     76  C   UNL A   1      42.726  35.906  27.681  1.00  0.00     0.000 A 
ENDBRANCH  58  71
ENDBRANCH  32  33
ENDBRANCH  25  27
ENDBRANCH  24  25
ENDBRANCH  23  24
ENDBRANCH  22  23
ENDBRANCH   1  22
TORSDOF 16
ENDMDL
MODEL 3
REMARK VINA RESULT:     -10.6      6.015     11.120
REMARK SMILES O=C(/C=C/c1cc(C(=O)NCCn2cccn2)cs1)OCCOC(=O)c1ccc(-c2c3nc(c(-c4ccccc4)c4ccc([nH]4)c(-c4ccccc4)c4nc(c(-c5ccccc5)c5ccc2[nH]5)C=C4)C=C3)cc1
REMARK SMILES IDX 20 1 2 2 1 3 3 4 4 5 5 6 6 7 19 8 7 9 18 10 8 11 9 12 10 13
REMARK SMILES IDX 11 15 12 16 13 17 14 18 17 19 15 20 16 21 21 22 22 23 23 24
REMARK SMILES IDX 24 25 25 26 26 27 27 28 73 29 28 30 72 31 29 32 30 33 31 34
REMARK SMILES IDX 66 35 32 36 71 37 65 38 67 39 33 40 70 41 64 42 63 43 34 45
REMARK SMILES IDX 56 46 41 47 55 48 42 49 45 50 54 51 68 52 43 53 44 54 53 56
REMARK SMILES IDX 69 57 46 58 35 59 36 60 40 61 37 62 39 63 38 64 57 65 58 66
REMARK SMILES IDX 62 67 59 68 61 69 60 70 47 71 48 72 52 73 49 74 51 75 50 76
REMARK H PARENT 10 14 67 44 45 55
REMARK Flexibility Score: inf
ROOT
ATOM      1  O   UNL A   1      33.968  33.886  29.119  1.00  0.00    -0.459 OA
ENDROOT
BRANCH   1   2
ATOM      2  C   UNL A   1      34.448  33.167  28.087  1.00  0.00     0.330 C 
ATOM      3  O   UNL A   1      35.438  33.561  27.469  1.00  0.00    -0.247 OA
BRANCH   2   4
ATOM      4  C   UNL A   1      33.800  31.943  27.581  1.00  0.00     0.095 C 
ATOM      5  C   UNL A   1      34.161  30.650  27.584  1.00  0.00     0.026 C 
BRANCH   5   6
ATOM      6  C   UNL A   1      33.294  29.681  27.001  1.00  0.00     0.028 A 
ATOM      7  C   UNL A   1      33.319  28.310  27.165  1.00  0.00     0.033 A 
ATOM      8  S   UNL A   1      31.993  30.126  25.983  1.00  0.00    -0.144 S 
ATOM      9  C   UNL A   1      32.402  27.587  26.345  1.00  0.00     0.051 A 
ATOM     10  C   UNL A   1      31.632  28.495  25.629  1.00  0.00     0.079 A 
BRANCH   9  11
ATOM     11  C   UNL A   1      32.181  26.146  26.203  1.00  0.00     0.252 C 
ATOM     12  O   UNL A   1      31.394  25.550  26.941  1.00  0.00    -0.269 OA
ATOM     13  N   UNL A   1      32.828  25.388  25.262  1.00  0.00    -0.350 N 
ATOM     14  H   UNL A   1      32.621  24.428  25.332  1.00  0.00     0.163 HD
BRANCH  13  15
ATOM     15  C   UNL A   1      33.756  25.698  24.179  1.00  0.00     0.140 C 
BRANCH  15  16
ATOM     16  C   UNL A   1      33.638  24.730  22.996  1.00  0.00     0.165 C 
BRANCH  16  17
ATOM     17  N   UNL A   1      33.343  23.353  23.365  1.00  0.00    -0.271 N 
ATOM     18  C   UNL A   1      32.454  22.484  22.795  1.00  0.00     0.108 A 
ATOM     19  N   UNL A   1      34.048  22.789  24.368  1.00  0.00    -0.181 NA
ATOM     20  C   UNL A   1      32.611  21.284  23.444  1.00  0.00     0.042 A 
ATOM     21  C   UNL A   1      33.602  21.530  24.408  1.00  0.00     0.135 A 
ENDBRANCH  16  17
ENDBRANCH  15  16
ENDBRANCH  13  15
ENDBRANCH   9  11
ENDBRANCH   5   6
ENDBRANCH   2   4
ENDBRANCH   1   2
BRANCH   1  22
ATOM     22  C   UNL A   1      33.895  35.313  29.266  1.00  0.00     0.275 C 
BRANCH  22  23
ATOM     23  C   UNL A   1      32.681  35.809  30.034  1.00  0.00     0.275 C 
BRANCH  23  24
ATOM     24  O   UNL A   1      32.983  36.184  31.371  1.00  0.00    -0.458 OA
BRANCH  24  25
ATOM     25  C   UNL A   1      32.748  35.273  32.341  1.00  0.00     0.338 C 
ATOM     26  O   UNL A   1      31.704  35.102  32.954  1.00  0.00    -0.246 OA
BRANCH  25  27
ATOM     27  C   UNL A   1      34.029  34.621  32.661  1.00  0.00     0.060 A 
ATOM     28  C   UNL A   1      35.167  35.408  32.860  1.00  0.00     0.016 A 
ATOM     29  C   UNL A   1      34.127  33.226  32.544  1.00  0.00     0.016 A 
ATOM     30  C   UNL A   1      36.413  34.806  32.766  1.00  0.00     0.010 A 
ATOM     31  C   UNL A   1      35.358  32.631  32.448  1.00  0.00     0.010 A 
ATOM     32  C   UNL A   1      36.486  33.439  32.472  1.00  0.00    -0.014 A 
BRANCH  32  33
ATOM     33  C   UNL A   1      37.770  32.802  32.262  1.00  0.00     0.031 A 
ATOM     34  C   UNL A   1      38.573  32.707  33.498  1.00  0.00     0.074 A 
ATOM     35  C   UNL A   1      38.101  32.204  31.098  1.00  0.00     0.049 A 
ATOM     36  N   UNL A   1      39.621  33.397  33.794  1.00  0.00    -0.248 NA
ATOM     37  C   UNL A   1      38.055  31.889  34.610  1.00  0.00     0.031 C 
ATOM     38  C   UNL A   1      37.253  31.967  29.925  1.00  0.00     0.029 A 
ATOM     39  N   UNL A   1      39.260  31.577  30.759  1.00  0.00    -0.354 N 
ATOM     40  C   UNL A   1      40.032  32.932  35.037  1.00  0.00     0.074 A 
ATOM     41  C   UNL A   1      38.924  32.187  35.576  1.00  0.00     0.031 C 
ATOM     42  C   UNL A   1      37.850  31.058  29.116  1.00  0.00     0.029 A 
ATOM     43  C   UNL A   1      39.172  30.755  29.640  1.00  0.00     0.049 A 
ATOM     44  H   UNL A   1      40.095  31.696  31.266  1.00  0.00     0.167 HD
ATOM     45  C   UNL A   1      41.350  32.935  35.377  1.00  0.00     0.031 A 
ATOM     46  C   UNL A   1      40.103  29.860  29.216  1.00  0.00     0.031 A 
ATOM     47  C   UNL A   1      42.123  33.750  34.474  1.00  0.00     0.049 A 
ATOM     48  C   UNL A   1      41.387  30.221  29.861  1.00  0.00     0.074 A 
ATOM     49  C   UNL A   1      42.108  35.080  34.101  1.00  0.00     0.029 A 
ATOM     50  N   UNL A   1      42.819  33.085  33.493  1.00  0.00    -0.354 N 
ATOM     51  N   UNL A   1      42.052  31.303  29.575  1.00  0.00    -0.248 NA
ATOM     52  C   UNL A   1      41.689  29.624  31.153  1.00  0.00     0.031 C 
ATOM     53  C   UNL A   1      42.390  35.073  32.703  1.00  0.00     0.029 A 
ATOM     54  C   UNL A   1      42.645  33.756  32.313  1.00  0.00     0.049 A 
ATOM     55  H   UNL A   1      43.351  32.266  33.617  1.00  0.00     0.167 HD
ATOM     56  C   UNL A   1      42.485  31.778  30.804  1.00  0.00     0.074 A 
ATOM     57  C   UNL A   1      42.319  30.654  31.727  1.00  0.00     0.031 C 
ATOM     58  C   UNL A   1      42.649  33.117  31.016  1.00  0.00     0.031 A 
BRANCH  45  59
ATOM     59  C   UNL A   1      41.994  31.847  36.202  1.00  0.00    -0.014 A 
ATOM     60  C   UNL A   1      42.796  32.229  37.293  1.00  0.00     0.009 A 
ATOM     61  C   UNL A   1      42.093  30.506  35.787  1.00  0.00     0.009 A 
ATOM     62  C   UNL A   1      43.709  31.341  37.871  1.00  0.00     0.001 A 
ATOM     63  C   UNL A   1      42.973  29.604  36.389  1.00  0.00     0.001 A 
ATOM     64  C   UNL A   1      43.805  30.032  37.412  1.00  0.00     0.000 A 
ENDBRANCH  45  59
BRANCH  46  65
ATOM     65  C   UNL A   1      39.932  28.559  28.528  1.00  0.00    -0.014 A 
ATOM     66  C   UNL A   1      40.507  28.330  27.265  1.00  0.00     0.009 A 
ATOM     67  C   UNL A   1      39.460  27.440  29.238  1.00  0.00     0.009 A 
ATOM     68  C   UNL A   1      40.648  27.029  26.757  1.00  0.00     0.001 A 
ATOM     69  C   UNL A   1      39.598  26.142  28.729  1.00  0.00     0.001 A 
ATOM     70  C   UNL A   1      40.208  25.935  27.497  1.00  0.00     0.000 A 
ENDBRANCH  46  65
BRANCH  58  71
ATOM     71  C   UNL A   1      42.610  34.034  29.817  1.00  0.00    -0.014 A 
ATOM     72  C   UNL A   1      41.448  34.685  29.368  1.00  0.00     0.009 A 
ATOM     73  C   UNL A   1      43.832  34.360  29.209  1.00  0.00     0.009 A 
ATOM     74  C   UNL A   1      41.506  35.613  28.321  1.00  0.00     0.001 A 
ATOM     75  C   UNL A   1      43.894  35.302  28.182  1.00  0.00     0.001 A 
ATOM     76  C   UNL A   1      42.731  35.924  27.733  1.00  0.00     0.000 A 
ENDBRANCH  58  71
ENDBRANCH  32  33
ENDBRANCH  25  27
ENDBRANCH  24  25
ENDBRANCH  23  24
ENDBRANCH  22  23
ENDBRANCH   1  22
TORSDOF 16
ENDMDL
