MODEL 1
REMARK VINA RESULT:     -12.3      0.000      0.000
REMARK SMILES Cc1cc(=O)c(Oc2ccc(C(=O)OCCOC(=O)c3ccc(-c4c5nc(c(-c6ccccc6)c6ccc([nH]6)c(-c6ccccc6)c6nc(c(-c7ccccc7)c7ccc4[nH]7)C=C6)C=C5)cc3)cc2)c(-c2ccc(S(C)(=O)=O)cc2)o1
REMARK SMILES IDX 15 1 14 2 12 3 13 4 11 5 8 6 9 7 69 8 10 9 68 10 7 11 6 12
REMARK SMILES IDX 1 13 2 14 3 15 81 16 4 17 70 18 5 19 71 20 72 21 80 22 73 23
REMARK SMILES IDX 79 24 74 25 75 26 76 27 77 28 78 29 16 30 17 31 18 32 19 33
REMARK SMILES IDX 20 34 21 35 67 36 22 37 66 38 23 39 24 40 25 41 60 42 26 43
REMARK SMILES IDX 65 44 59 45 61 46 27 47 64 48 58 49 57 50 28 52 50 53 35 54
REMARK SMILES IDX 49 55 36 56 39 57 48 58 62 59 37 60 38 61 47 63 63 64 40 65
REMARK SMILES IDX 29 66 30 67 34 68 31 69 33 70 32 71 51 72 52 73 56 74 53 75
REMARK SMILES IDX 55 76 54 77 41 78 42 79 46 80 43 81 45 82 44 83
REMARK H PARENT 61 51 39 62
REMARK Flexibility Score: inf
ROOT
ATOM      1  C   UNL A   1      41.847  20.961  26.176  1.00  0.00     0.275 C 
ENDROOT
BRANCH   1   2
ATOM      2  O   UNL A   1      40.601  21.425  25.621  1.00  0.00    -0.458 OA
BRANCH   2   3
ATOM      3  C   UNL A   1      39.704  21.957  26.492  1.00  0.00     0.338 C 
ATOM      4  O   UNL A   1      39.944  22.355  27.621  1.00  0.00    -0.246 OA
BRANCH   3   5
ATOM      5  C   UNL A   1      38.393  22.167  25.814  1.00  0.00     0.060 A 
ATOM      6  C   UNL A   1      36.157  22.817  24.267  1.00  0.00     0.127 A 
ATOM      7  C   UNL A   1      36.659  23.754  25.165  1.00  0.00     0.048 A 
ATOM      8  C   UNL A   1      36.693  21.526  24.223  1.00  0.00     0.048 A 
ATOM      9  C   UNL A   1      37.766  23.416  25.954  1.00  0.00     0.019 A 
ATOM     10  C   UNL A   1      37.826  21.206  24.972  1.00  0.00     0.019 A 
BRANCH   6  11
ATOM     11  O   UNL A   1      35.070  23.044  23.469  1.00  0.00    -0.449 OA
BRANCH  11  12
ATOM     12  C   UNL A   1      33.808  23.304  23.978  1.00  0.00     0.217 A 
ATOM     13  C   UNL A   1      30.330  24.467  26.250  1.00  0.00     0.088 C 
ATOM     14  C   UNL A   1      31.525  24.199  25.392  1.00  0.00     0.105 A 
ATOM     15  C   UNL A   1      32.367  25.152  24.986  1.00  0.00     0.098 A 
ATOM     16  O   UNL A   1      31.688  22.876  25.048  1.00  0.00    -0.457 OA
ATOM     17  C   UNL A   1      33.540  24.764  24.187  1.00  0.00     0.228 A 
ATOM     18  C   UNL A   1      32.865  22.444  24.435  1.00  0.00     0.180 A 
ATOM     19  O   UNL A   1      34.280  25.638  23.745  1.00  0.00    -0.285 OA
BRANCH  18  20
ATOM     20  C   UNL A   1      32.908  20.965  24.464  1.00  0.00     0.021 A 
ATOM     21  C   UNL A   1      33.674  20.321  25.454  1.00  0.00     0.013 A 
ATOM     22  C   UNL A   1      32.368  20.193  23.430  1.00  0.00     0.013 A 
ATOM     23  C   UNL A   1      33.921  18.944  25.397  1.00  0.00     0.021 A 
ATOM     24  C   UNL A   1      32.595  18.812  23.377  1.00  0.00     0.021 A 
ATOM     25  C   UNL A   1      33.388  18.193  24.348  1.00  0.00     0.067 A 
BRANCH  25  26
ATOM     26  S   UNL A   1      33.777  16.464  24.167  1.00  0.00     0.175 S 
ATOM     27  C   UNL A   1      35.192  16.183  25.192  1.00  0.00     0.163 C 
ATOM     28  O   UNL A   1      32.693  15.678  24.721  1.00  0.00    -0.224 OA
ATOM     29  O   UNL A   1      34.212  16.262  22.796  1.00  0.00    -0.224 OA
ENDBRANCH  25  26
ENDBRANCH  18  20
ENDBRANCH  11  12
ENDBRANCH   6  11
ENDBRANCH   3   5
ENDBRANCH   2   3
ENDBRANCH   1   2
BRANCH   1  30
ATOM     30  C   UNL A   1      43.045  21.780  25.672  1.00  0.00     0.275 C 
BRANCH  30  31
ATOM     31  O   UNL A   1      42.667  22.988  24.979  1.00  0.00    -0.458 OA
BRANCH  31  32
ATOM     32  C   UNL A   1      43.560  23.996  25.112  1.00  0.00     0.338 C 
ATOM     33  O   UNL A   1      44.594  24.142  24.482  1.00  0.00    -0.246 OA
BRANCH  32  34
ATOM     34  C   UNL A   1      43.131  24.996  26.105  1.00  0.00     0.060 A 
ATOM     35  C   UNL A   1      43.664  26.287  26.148  1.00  0.00     0.016 A 
ATOM     36  C   UNL A   1      42.046  24.656  26.915  1.00  0.00     0.016 A 
ATOM     37  C   UNL A   1      43.124  27.228  27.035  1.00  0.00     0.010 A 
ATOM     38  C   UNL A   1      41.502  25.588  27.790  1.00  0.00     0.010 A 
ATOM     39  C   UNL A   1      42.059  26.870  27.876  1.00  0.00    -0.014 A 
BRANCH  39  40
ATOM     40  C   UNL A   1      41.620  27.734  28.995  1.00  0.00     0.031 A 
ATOM     41  C   UNL A   1      42.366  27.618  30.295  1.00  0.00     0.074 A 
ATOM     42  C   UNL A   1      40.543  28.533  28.888  1.00  0.00     0.049 A 
ATOM     43  N   UNL A   1      42.112  28.172  31.451  1.00  0.00    -0.248 NA
ATOM     44  C   UNL A   1      43.542  26.728  30.296  1.00  0.00     0.031 C 
ATOM     45  C   UNL A   1      39.735  28.711  27.684  1.00  0.00     0.029 A 
ATOM     46  N   UNL A   1      39.941  29.339  29.821  1.00  0.00    -0.354 N 
ATOM     47  C   UNL A   1      43.083  27.684  32.316  1.00  0.00     0.074 A 
ATOM     48  C   UNL A   1      43.899  26.753  31.570  1.00  0.00     0.031 C 
ATOM     49  C   UNL A   1      38.751  29.591  27.947  1.00  0.00     0.029 A 
ATOM     50  C   UNL A   1      38.843  30.014  29.343  1.00  0.00     0.049 A 
ATOM     51  H   UNL A   1      40.264  29.426  30.747  1.00  0.00     0.167 HD
ATOM     52  C   UNL A   1      43.294  28.001  33.613  1.00  0.00     0.031 A 
ATOM     53  C   UNL A   1      38.015  30.876  29.967  1.00  0.00     0.031 A 
ATOM     54  C   UNL A   1      42.488  28.936  34.344  1.00  0.00     0.049 A 
ATOM     55  C   UNL A   1      38.262  31.213  31.415  1.00  0.00     0.074 A 
ATOM     56  C   UNL A   1      42.626  29.351  35.655  1.00  0.00     0.029 A 
ATOM     57  N   UNL A   1      41.397  29.610  33.815  1.00  0.00    -0.354 N 
ATOM     58  N   UNL A   1      39.207  30.776  32.213  1.00  0.00    -0.248 NA
ATOM     59  C   UNL A   1      37.339  32.168  32.049  1.00  0.00     0.031 C 
ATOM     60  C   UNL A   1      41.596  30.252  35.932  1.00  0.00     0.029 A 
ATOM     61  C   UNL A   1      40.850  30.437  34.777  1.00  0.00     0.049 A 
ATOM     62  H   UNL A   1      41.064  29.514  32.894  1.00  0.00     0.167 HD
ATOM     63  C   UNL A   1      39.011  31.421  33.429  1.00  0.00     0.074 A 
ATOM     64  C   UNL A   1      37.861  32.285  33.264  1.00  0.00     0.031 C 
ATOM     65  C   UNL A   1      39.719  31.306  34.579  1.00  0.00     0.031 A 
BRANCH  52  66
ATOM     66  C   UNL A   1      44.443  27.335  34.313  1.00  0.00    -0.014 A 
ATOM     67  C   UNL A   1      44.239  26.140  35.021  1.00  0.00     0.009 A 
ATOM     68  C   UNL A   1      45.725  27.906  34.299  1.00  0.00     0.009 A 
ATOM     69  C   UNL A   1      45.297  25.529  35.696  1.00  0.00     0.001 A 
ATOM     70  C   UNL A   1      46.788  27.276  34.949  1.00  0.00     0.001 A 
ATOM     71  C   UNL A   1      46.571  26.092  35.652  1.00  0.00     0.000 A 
ENDBRANCH  52  66
BRANCH  53  72
ATOM     72  C   UNL A   1      36.908  31.520  29.209  1.00  0.00    -0.014 A 
ATOM     73  C   UNL A   1      37.036  32.825  28.708  1.00  0.00     0.009 A 
ATOM     74  C   UNL A   1      35.700  30.834  29.005  1.00  0.00     0.009 A 
ATOM     75  C   UNL A   1      35.975  33.435  28.034  1.00  0.00     0.001 A 
ATOM     76  C   UNL A   1      34.649  31.437  28.307  1.00  0.00     0.001 A 
ATOM     77  C   UNL A   1      34.784  32.739  27.829  1.00  0.00     0.000 A 
ENDBRANCH  53  72
BRANCH  65  78
ATOM     78  C   UNL A   1      39.314  32.148  35.754  1.00  0.00    -0.014 A 
ATOM     79  C   UNL A   1      38.318  31.680  36.627  1.00  0.00     0.009 A 
ATOM     80  C   UNL A   1      39.787  33.459  35.897  1.00  0.00     0.009 A 
ATOM     81  C   UNL A   1      37.781  32.520  37.602  1.00  0.00     0.001 A 
ATOM     82  C   UNL A   1      39.265  34.289  36.891  1.00  0.00     0.001 A 
ATOM     83  C   UNL A   1      38.254  33.824  37.732  1.00  0.00     0.000 A 
ENDBRANCH  65  78
ENDBRANCH  39  40
ENDBRANCH  32  34
ENDBRANCH  31  32
ENDBRANCH  30  31
ENDBRANCH   1  30
TORSDOF 15
ENDMDL
MODEL 2
REMARK VINA RESULT:     -12.2      3.894      9.020
REMARK SMILES Cc1cc(=O)c(Oc2ccc(C(=O)OCCOC(=O)c3ccc(-c4c5nc(c(-c6ccccc6)c6ccc([nH]6)c(-c6ccccc6)c6nc(c(-c7ccccc7)c7ccc4[nH]7)C=C6)C=C5)cc3)cc2)c(-c2ccc(S(C)(=O)=O)cc2)o1
REMARK SMILES IDX 15 1 14 2 12 3 13 4 11 5 8 6 9 7 69 8 10 9 68 10 7 11 6 12
REMARK SMILES IDX 1 13 2 14 3 15 81 16 4 17 70 18 5 19 71 20 72 21 80 22 73 23
REMARK SMILES IDX 79 24 74 25 75 26 76 27 77 28 78 29 16 30 17 31 18 32 19 33
REMARK SMILES IDX 20 34 21 35 67 36 22 37 66 38 23 39 24 40 25 41 60 42 26 43
REMARK SMILES IDX 65 44 59 45 61 46 27 47 64 48 58 49 57 50 28 52 50 53 35 54
REMARK SMILES IDX 49 55 36 56 39 57 48 58 62 59 37 60 38 61 47 63 63 64 40 65
REMARK SMILES IDX 29 66 30 67 34 68 31 69 33 70 32 71 51 72 52 73 56 74 53 75
REMARK SMILES IDX 55 76 54 77 41 78 42 79 46 80 43 81 45 82 44 83
REMARK H PARENT 61 51 39 62
REMARK Flexibility Score: inf
ROOT
ATOM      1  C   UNL A   1      33.854  33.640  27.800  1.00  0.00     0.275 C 
ENDROOT
BRANCH   1   2
ATOM      2  O   UNL A   1      33.386  32.277  27.782  1.00  0.00    -0.458 OA
BRANCH   2   3
ATOM      3  C   UNL A   1      34.303  31.319  27.486  1.00  0.00     0.338 C 
ATOM      4  O   UNL A   1      35.510  31.398  27.659  1.00  0.00    -0.246 OA
BRANCH   3   5
ATOM      5  C   UNL A   1      33.617  30.058  27.083  1.00  0.00     0.060 A 
ATOM      6  C   UNL A   1      32.493  27.528  26.699  1.00  0.00     0.127 A 
ATOM      7  C   UNL A   1      33.853  27.712  26.466  1.00  0.00     0.048 A 
ATOM      8  C   UNL A   1      31.678  28.621  27.009  1.00  0.00     0.048 A 
ATOM      9  C   UNL A   1      34.408  28.985  26.639  1.00  0.00     0.019 A 
ATOM     10  C   UNL A   1      32.239  29.880  27.230  1.00  0.00     0.019 A 
BRANCH   6  11
ATOM     11  O   UNL A   1      31.856  26.329  26.539  1.00  0.00    -0.449 OA
BRANCH  11  12
ATOM     12  C   UNL A   1      32.015  25.540  25.412  1.00  0.00     0.217 A 
ATOM     13  C   UNL A   1      33.369  23.336  21.959  1.00  0.00     0.088 C 
ATOM     14  C   UNL A   1      32.925  23.974  23.236  1.00  0.00     0.105 A 
ATOM     15  C   UNL A   1      33.444  23.670  24.428  1.00  0.00     0.098 A 
ATOM     16  O   UNL A   1      31.925  24.907  23.085  1.00  0.00    -0.457 OA
ATOM     17  C   UNL A   1      32.965  24.398  25.613  1.00  0.00     0.228 A 
ATOM     18  C   UNL A   1      31.560  25.732  24.149  1.00  0.00     0.180 A 
ATOM     19  O   UNL A   1      33.380  24.077  26.723  1.00  0.00    -0.285 OA
BRANCH  18  20
ATOM     20  C   UNL A   1      30.709  26.829  23.637  1.00  0.00     0.021 A 
ATOM     21  C   UNL A   1      31.306  28.055  23.288  1.00  0.00     0.013 A 
ATOM     22  C   UNL A   1      29.312  26.753  23.668  1.00  0.00     0.013 A 
ATOM     23  C   UNL A   1      30.530  29.185  23.006  1.00  0.00     0.021 A 
ATOM     24  C   UNL A   1      28.529  27.874  23.368  1.00  0.00     0.021 A 
ATOM     25  C   UNL A   1      29.138  29.094  23.059  1.00  0.00     0.067 A 
BRANCH  25  26
ATOM     26  S   UNL A   1      28.113  30.533  22.828  1.00  0.00     0.175 S 
ATOM     27  C   UNL A   1      29.002  31.874  23.566  1.00  0.00     0.163 C 
ATOM     28  O   UNL A   1      28.018  30.820  21.411  1.00  0.00    -0.224 OA
ATOM     29  O   UNL A   1      26.916  30.340  23.628  1.00  0.00    -0.224 OA
ENDBRANCH  25  26
ENDBRANCH  18  20
ENDBRANCH  11  12
ENDBRANCH   6  11
ENDBRANCH   3   5
ENDBRANCH   2   3
ENDBRANCH   1   2
BRANCH   1  30
ATOM     30  C   UNL A   1      33.029  34.521  28.751  1.00  0.00     0.275 C 
BRANCH  30  31
ATOM     31  O   UNL A   1      33.831  35.256  29.699  1.00  0.00    -0.458 OA
BRANCH  31  32
ATOM     32  C   UNL A   1      33.834  34.721  30.942  1.00  0.00     0.338 C 
ATOM     33  O   UNL A   1      33.008  34.911  31.819  1.00  0.00    -0.246 OA
BRANCH  32  34
ATOM     34  C   UNL A   1      34.958  33.792  31.149  1.00  0.00     0.060 A 
ATOM     35  C   UNL A   1      34.830  32.612  31.887  1.00  0.00     0.016 A 
ATOM     36  C   UNL A   1      36.133  34.054  30.442  1.00  0.00     0.016 A 
ATOM     37  C   UNL A   1      35.902  31.711  31.941  1.00  0.00     0.010 A 
ATOM     38  C   UNL A   1      37.195  33.160  30.485  1.00  0.00     0.010 A 
ATOM     39  C   UNL A   1      37.096  31.998  31.260  1.00  0.00    -0.014 A 
BRANCH  39  40
ATOM     40  C   UNL A   1      38.332  31.215  31.483  1.00  0.00     0.031 A 
ATOM     41  C   UNL A   1      39.240  31.656  32.598  1.00  0.00     0.074 A 
ATOM     42  C   UNL A   1      38.680  30.201  30.672  1.00  0.00     0.049 A 
ATOM     43  N   UNL A   1      40.427  31.217  32.925  1.00  0.00    -0.248 NA
ATOM     44  C   UNL A   1      38.753  32.765  33.438  1.00  0.00     0.031 C 
ATOM     45  C   UNL A   1      37.887  29.700  29.551  1.00  0.00     0.029 A 
ATOM     46  N   UNL A   1      39.806  29.415  30.667  1.00  0.00    -0.354 N 
ATOM     47  C   UNL A   1      40.831  32.008  33.992  1.00  0.00     0.074 A 
ATOM     48  C   UNL A   1      39.792  32.983  34.227  1.00  0.00     0.031 C 
ATOM     49  C   UNL A   1      38.544  28.675  28.978  1.00  0.00     0.029 A 
ATOM     50  C   UNL A   1      39.814  28.468  29.671  1.00  0.00     0.049 A 
ATOM     51  H   UNL A   1      40.539  29.520  31.315  1.00  0.00     0.167 HD
ATOM     52  C   UNL A   1      41.961  31.915  34.731  1.00  0.00     0.031 A 
ATOM     53  C   UNL A   1      40.743  27.540  29.364  1.00  0.00     0.031 A 
ATOM     54  C   UNL A   1      42.983  30.935  34.500  1.00  0.00     0.049 A 
ATOM     55  C   UNL A   1      41.998  27.456  30.194  1.00  0.00     0.074 A 
ATOM     56  C   UNL A   1      44.156  30.735  35.202  1.00  0.00     0.029 A 
ATOM     57  N   UNL A   1      42.941  29.983  33.493  1.00  0.00    -0.354 N 
ATOM     58  N   UNL A   1      42.353  28.183  31.227  1.00  0.00    -0.248 NA
ATOM     59  C   UNL A   1      42.976  26.419  29.828  1.00  0.00     0.031 C 
ATOM     60  C   UNL A   1      44.844  29.681  34.596  1.00  0.00     0.029 A 
ATOM     61  C   UNL A   1      44.073  29.193  33.552  1.00  0.00     0.049 A 
ATOM     62  H   UNL A   1      42.216  29.885  32.835  1.00  0.00     0.167 HD
ATOM     63  C   UNL A   1      43.577  27.676  31.650  1.00  0.00     0.074 A 
ATOM     64  C   UNL A   1      43.902  26.575  30.768  1.00  0.00     0.031 C 
ATOM     65  C   UNL A   1      44.361  28.087  32.676  1.00  0.00     0.031 A 
BRANCH  52  66
ATOM     66  C   UNL A   1      42.138  32.894  35.855  1.00  0.00    -0.014 A 
ATOM     67  C   UNL A   1      41.621  32.606  37.127  1.00  0.00     0.009 A 
ATOM     68  C   UNL A   1      42.790  34.120  35.647  1.00  0.00     0.009 A 
ATOM     69  C   UNL A   1      41.758  33.523  38.170  1.00  0.00     0.001 A 
ATOM     70  C   UNL A   1      42.954  35.021  36.701  1.00  0.00     0.001 A 
ATOM     71  C   UNL A   1      42.432  34.725  37.959  1.00  0.00     0.000 A 
ENDBRANCH  52  66
BRANCH  53  72
ATOM     72  C   UNL A   1      40.495  26.584  28.251  1.00  0.00    -0.014 A 
ATOM     73  C   UNL A   1      41.041  26.800  26.975  1.00  0.00     0.009 A 
ATOM     74  C   UNL A   1      39.685  25.456  28.455  1.00  0.00     0.009 A 
ATOM     75  C   UNL A   1      40.768  25.918  25.926  1.00  0.00     0.001 A 
ATOM     76  C   UNL A   1      39.434  24.561  27.412  1.00  0.00     0.001 A 
ATOM     77  C   UNL A   1      39.969  24.796  26.147  1.00  0.00     0.000 A 
ENDBRANCH  53  72
BRANCH  65  78
ATOM     78  C   UNL A   1      45.635  27.340  32.944  1.00  0.00    -0.014 A 
ATOM     79  C   UNL A   1      46.803  27.698  32.250  1.00  0.00     0.009 A 
ATOM     80  C   UNL A   1      45.640  26.189  33.743  1.00  0.00     0.009 A 
ATOM     81  C   UNL A   1      47.944  26.899  32.328  1.00  0.00     0.001 A 
ATOM     82  C   UNL A   1      46.792  25.405  33.838  1.00  0.00     0.001 A 
ATOM     83  C   UNL A   1      47.936  25.752  33.120  1.00  0.00     0.000 A 
ENDBRANCH  65  78
ENDBRANCH  39  40
ENDBRANCH  32  34
ENDBRANCH  31  32
ENDBRANCH  30  31
ENDBRANCH   1  30
TORSDOF 15
ENDMDL
MODEL 3
REMARK VINA RESULT:     -12.1      3.312      6.841
REMARK SMILES Cc1cc(=O)c(Oc2ccc(C(=O)OCCOC(=O)c3ccc(-c4c5nc(c(-c6ccccc6)c6ccc([nH]6)c(-c6ccccc6)c6nc(c(-c7ccccc7)c7ccc4[nH]7)C=C6)C=C5)cc3)cc2)c(-c2ccc(S(C)(=O)=O)cc2)o1
REMARK SMILES IDX 15 1 14 2 12 3 13 4 11 5 8 6 9 7 69 8 10 9 68 10 7 11 6 12
REMARK SMILES IDX 1 13 2 14 3 15 81 16 4 17 70 18 5 19 71 20 72 21 80 22 73 23
REMARK SMILES IDX 79 24 74 25 75 26 76 27 77 28 78 29 16 30 17 31 18 32 19 33
REMARK SMILES IDX 20 34 21 35 67 36 22 37 66 38 23 39 24 40 25 41 60 42 26 43
REMARK SMILES IDX 65 44 59 45 61 46 27 47 64 48 58 49 57 50 28 52 50 53 35 54
REMARK SMILES IDX 49 55 36 56 39 57 48 58 62 59 37 60 38 61 47 63 63 64 40 65
REMARK SMILES IDX 29 66 30 67 34 68 31 69 33 70 32 71 51 72 52 73 56 74 53 75
REMARK SMILES IDX 55 76 54 77 41 78 42 79 46 80 43 81 45 82 44 83
REMARK H PARENT 61 51 39 62
REMARK Flexibility Score: inf
ROOT
ATOM      1  C   UNL A   1      38.719  20.240  24.975  1.00  0.00     0.275 C 
ENDROOT
BRANCH   1   2
ATOM      2  O   UNL A   1      37.781  20.917  25.836  1.00  0.00    -0.458 OA
BRANCH   2   3
ATOM      3  C   UNL A   1      37.822  22.274  25.837  1.00  0.00     0.338 C 
ATOM      4  O   UNL A   1      38.702  22.969  26.323  1.00  0.00    -0.246 OA
BRANCH   3   5
ATOM      5  C   UNL A   1      36.724  22.823  24.992  1.00  0.00     0.060 A 
ATOM      6  C   UNL A   1      34.909  24.213  23.383  1.00  0.00     0.127 A 
ATOM      7  C   UNL A   1      34.997  24.524  24.737  1.00  0.00     0.048 A 
ATOM      8  C   UNL A   1      35.637  23.140  22.859  1.00  0.00     0.048 A 
ATOM      9  C   UNL A   1      35.891  23.811  25.543  1.00  0.00     0.019 A 
ATOM     10  C   UNL A   1      36.565  22.462  23.651  1.00  0.00     0.019 A 
BRANCH   6  11
ATOM     11  O   UNL A   1      34.054  24.838  22.518  1.00  0.00    -0.449 OA
BRANCH  11  12
ATOM     12  C   UNL A   1      32.724  25.079  22.823  1.00  0.00     0.217 A 
ATOM     13  C   UNL A   1      28.921  26.305  24.450  1.00  0.00     0.088 C 
ATOM     14  C   UNL A   1      30.232  26.002  23.796  1.00  0.00     0.105 A 
ATOM     15  C   UNL A   1      31.070  26.945  23.360  1.00  0.00     0.098 A 
ATOM     16  O   UNL A   1      30.506  24.659  23.675  1.00  0.00    -0.457 OA
ATOM     17  C   UNL A   1      32.356  26.531  22.778  1.00  0.00     0.228 A 
ATOM     18  C   UNL A   1      31.774  24.228  23.283  1.00  0.00     0.180 A 
ATOM     19  O   UNL A   1      33.103  27.384  22.306  1.00  0.00    -0.285 OA
BRANCH  18  20
ATOM     20  C   UNL A   1      31.888  22.775  23.537  1.00  0.00     0.021 A 
ATOM     21  C   UNL A   1      32.024  22.319  24.861  1.00  0.00     0.013 A 
ATOM     22  C   UNL A   1      32.056  21.857  22.494  1.00  0.00     0.013 A 
ATOM     23  C   UNL A   1      32.349  20.986  25.139  1.00  0.00     0.021 A 
ATOM     24  C   UNL A   1      32.363  20.517  22.765  1.00  0.00     0.021 A 
ATOM     25  C   UNL A   1      32.530  20.089  24.086  1.00  0.00     0.067 A 
BRANCH  25  26
ATOM     26  S   UNL A   1      33.063  18.415  24.384  1.00  0.00     0.175 S 
ATOM     27  C   UNL A   1      32.858  17.567  22.844  1.00  0.00     0.163 C 
ATOM     28  O   UNL A   1      34.483  18.420  24.676  1.00  0.00    -0.224 OA
ATOM     29  O   UNL A   1      32.118  17.822  25.313  1.00  0.00    -0.224 OA
ENDBRANCH  25  26
ENDBRANCH  18  20
ENDBRANCH  11  12
ENDBRANCH   6  11
ENDBRANCH   3   5
ENDBRANCH   2   3
ENDBRANCH   1   2
BRANCH   1  30
ATOM     30  C   UNL A   1      39.383  19.043  25.672  1.00  0.00     0.275 C 
BRANCH  30  31
ATOM     31  O   UNL A   1      40.397  19.421  26.627  1.00  0.00    -0.458 OA
BRANCH  31  32
ATOM     32  C   UNL A   1      41.528  19.902  26.062  1.00  0.00     0.338 C 
ATOM     33  O   UNL A   1      42.203  19.356  25.204  1.00  0.00    -0.246 OA
BRANCH  32  34
ATOM     34  C   UNL A   1      41.874  21.245  26.557  1.00  0.00     0.060 A 
ATOM     35  C   UNL A   1      42.207  22.298  25.701  1.00  0.00     0.016 A 
ATOM     36  C   UNL A   1      41.705  21.477  27.923  1.00  0.00     0.016 A 
ATOM     37  C   UNL A   1      42.404  23.581  26.229  1.00  0.00     0.010 A 
ATOM     38  C   UNL A   1      41.891  22.749  28.449  1.00  0.00     0.010 A 
ATOM     39  C   UNL A   1      42.271  23.802  27.608  1.00  0.00    -0.014 A 
BRANCH  39  40
ATOM     40  C   UNL A   1      42.707  25.065  28.246  1.00  0.00     0.031 A 
ATOM     41  C   UNL A   1      41.661  26.118  28.482  1.00  0.00     0.074 A 
ATOM     42  C   UNL A   1      44.000  25.302  28.528  1.00  0.00     0.049 A 
ATOM     43  N   UNL A   1      41.800  27.344  28.914  1.00  0.00    -0.248 NA
ATOM     44  C   UNL A   1      40.273  25.747  28.154  1.00  0.00     0.031 C 
ATOM     45  C   UNL A   1      45.100  24.361  28.327  1.00  0.00     0.029 A 
ATOM     46  N   UNL A   1      44.604  26.423  29.042  1.00  0.00    -0.354 N 
ATOM     47  C   UNL A   1      40.523  27.890  28.891  1.00  0.00     0.074 A 
ATOM     48  C   UNL A   1      39.632  26.886  28.358  1.00  0.00     0.031 C 
ATOM     49  C   UNL A   1      46.246  24.938  28.731  1.00  0.00     0.029 A 
ATOM     50  C   UNL A   1      45.965  26.297  29.192  1.00  0.00     0.049 A 
ATOM     51  H   UNL A   1      44.110  27.240  29.279  1.00  0.00     0.167 HD
ATOM     52  C   UNL A   1      40.122  29.115  29.301  1.00  0.00     0.031 A 
ATOM     53  C   UNL A   1      46.872  27.181  29.655  1.00  0.00     0.031 A 
ATOM     54  C   UNL A   1      41.010  30.103  29.842  1.00  0.00     0.049 A 
ATOM     55  C   UNL A   1      46.407  28.543  30.103  1.00  0.00     0.074 A 
ATOM     56  C   UNL A   1      40.708  31.366  30.313  1.00  0.00     0.029 A 
ATOM     57  N   UNL A   1      42.377  29.926  29.995  1.00  0.00    -0.354 N 
ATOM     58  N   UNL A   1      45.191  29.036  30.114  1.00  0.00    -0.248 NA
ATOM     59  C   UNL A   1      47.431  29.468  30.611  1.00  0.00     0.031 C 
ATOM     60  C   UNL A   1      41.900  31.970  30.718  1.00  0.00     0.029 A 
ATOM     61  C   UNL A   1      42.934  31.062  30.549  1.00  0.00     0.049 A 
ATOM     62  H   UNL A   1      42.875  29.114  29.745  1.00  0.00     0.167 HD
ATOM     63  C   UNL A   1      45.300  30.312  30.654  1.00  0.00     0.074 A 
ATOM     64  C   UNL A   1      46.698  30.517  30.965  1.00  0.00     0.031 C 
ATOM     65  C   UNL A   1      44.327  31.231  30.872  1.00  0.00     0.031 A 
BRANCH  52  66
ATOM     66  C   UNL A   1      38.661  29.442  29.185  1.00  0.00    -0.014 A 
ATOM     67  C   UNL A   1      38.143  29.930  27.976  1.00  0.00     0.009 A 
ATOM     68  C   UNL A   1      37.800  29.296  30.285  1.00  0.00     0.009 A 
ATOM     69  C   UNL A   1      36.792  30.261  27.869  1.00  0.00     0.001 A 
ATOM     70  C   UNL A   1      36.443  29.599  30.165  1.00  0.00     0.001 A 
ATOM     71  C   UNL A   1      35.941  30.087  28.959  1.00  0.00     0.000 A 
ENDBRANCH  52  66
BRANCH  53  72
ATOM     72  C   UNL A   1      48.302  26.785  29.766  1.00  0.00    -0.014 A 
ATOM     73  C   UNL A   1      49.210  27.052  28.730  1.00  0.00     0.009 A 
ATOM     74  C   UNL A   1      48.761  26.110  30.908  1.00  0.00     0.009 A 
ATOM     75  C   UNL A   1      50.542  26.639  28.827  1.00  0.00     0.001 A 
ATOM     76  C   UNL A   1      50.099  25.722  31.015  1.00  0.00     0.001 A 
ATOM     77  C   UNL A   1      50.987  25.979  29.972  1.00  0.00     0.000 A 
ENDBRANCH  53  72
BRANCH  65  78
ATOM     78  C   UNL A   1      44.710  32.538  31.504  1.00  0.00    -0.014 A 
ATOM     79  C   UNL A   1      44.600  32.688  32.897  1.00  0.00     0.009 A 
ATOM     80  C   UNL A   1      45.009  33.658  30.718  1.00  0.00     0.009 A 
ATOM     81  C   UNL A   1      44.753  33.942  33.487  1.00  0.00     0.001 A 
ATOM     82  C   UNL A   1      45.186  34.908  31.315  1.00  0.00     0.001 A 
ATOM     83  C   UNL A   1      45.044  35.052  32.695  1.00  0.00     0.000 A 
ENDBRANCH  65  78
ENDBRANCH  39  40
ENDBRANCH  32  34
ENDBRANCH  31  32
ENDBRANCH  30  31
ENDBRANCH   1  30
TORSDOF 15
ENDMDL
