MODEL 1
REMARK VINA RESULT:     -12.8      0.000      0.000
REMARK SMILES O=C(OCCOC(=O)c1ccc(-c2c3nc(c(-c4ccccc4)c4ccc([nH]4)c(-c4ccccc4)c4nc(c(-c5ccccc5)c5ccc2[nH]5)C=C4)C=C3)cc1)c1ccc(/[NH+]=C2\S[C@@H](Cc3ccc(F)cc3)C(=O)N2Cc2ccccc2)cc1
REMARK SMILES IDX 4 1 3 2 2 3 1 4 57 5 58 6 84 7 59 8 83 9 60 10 61 11 62 12
REMARK SMILES IDX 63 14 75 15 64 16 73 17 74 18 76 19 77 20 78 21 82 22 79 23
REMARK SMILES IDX 81 24 80 25 65 26 66 27 67 28 72 29 68 30 71 31 69 32 70 33
REMARK SMILES IDX 5 34 6 35 7 36 8 37 9 38 10 39 56 40 11 41 55 42 12 43 13 44
REMARK SMILES IDX 14 45 49 46 15 47 54 48 48 49 50 50 16 51 53 52 47 53 46 54
REMARK SMILES IDX 17 56 39 57 24 58 38 59 25 60 28 61 37 62 51 63 26 64 27 65
REMARK SMILES IDX 36 67 52 68 29 69 18 70 19 71 23 72 20 73 22 74 21 75 40 76
REMARK SMILES IDX 41 77 45 78 42 79 44 80 43 81 30 82 31 83 35 84 32 85 34 86
REMARK SMILES IDX 33 87
REMARK H PARENT 61 13 50 55 28 66
REMARK Flexibility Score: inf
ROOT
ATOM      1  C   UNL A   1      43.112  20.792  25.805  1.00  0.00     0.275 C 
ENDROOT
BRANCH   1   2
ATOM      2  O   UNL A   1      41.732  21.184  25.663  1.00  0.00    -0.458 OA
BRANCH   2   3
ATOM      3  C   UNL A   1      40.729  21.249  26.571  1.00  0.00     0.338 C 
ATOM      4  O   UNL A   1      40.788  20.523  27.563  1.00  0.00    -0.246 OA
BRANCH   3   5
ATOM      5  C   UNL A   1      39.478  22.054  26.386  1.00  0.00     0.060 A 
ATOM      6  C   UNL A   1      39.243  23.323  26.909  1.00  0.00     0.020 A 
ATOM      7  C   UNL A   1      38.467  21.484  25.582  1.00  0.00     0.020 A 
ATOM      8  C   UNL A   1      38.108  24.043  26.551  1.00  0.00     0.052 A 
ATOM      9  C   UNL A   1      37.302  22.192  25.259  1.00  0.00     0.052 A 
ATOM     10  C   UNL A   1      37.135  23.487  25.726  1.00  0.00     0.125 A 
BRANCH  10  11
ATOM     11  N   UNL A   1      36.027  24.284  25.431  1.00  0.00    -0.235 N 
ATOM     12  C   UNL A   1      34.899  23.694  25.226  1.00  0.00     0.320 C 
ATOM     13  H   UNL A   1      36.105  25.264  25.379  1.00  0.00     0.313 HD
ATOM     14  S   UNL A   1      34.682  21.998  24.885  1.00  0.00    -0.022 SA
ATOM     15  N   UNL A   1      33.698  24.339  25.316  1.00  0.00    -0.186 N 
ATOM     16  C   UNL A   1      32.940  22.226  24.471  1.00  0.00     0.178 C 
ATOM     17  C   UNL A   1      32.573  23.574  25.079  1.00  0.00     0.324 C 
ATOM     18  O   UNL A   1      31.424  23.952  25.274  1.00  0.00    -0.245 OA
BRANCH  15  19
ATOM     19  C   UNL A   1      33.589  25.725  25.764  1.00  0.00     0.283 C 
BRANCH  19  20
ATOM     20  C   UNL A   1      33.147  26.694  24.678  1.00  0.00    -0.006 A 
ATOM     21  C   UNL A   1      32.190  27.684  24.939  1.00  0.00     0.008 A 
ATOM     22  C   UNL A   1      33.669  26.600  23.378  1.00  0.00     0.008 A 
ATOM     23  C   UNL A   1      31.771  28.553  23.925  1.00  0.00     0.000 A 
ATOM     24  C   UNL A   1      33.273  27.486  22.374  1.00  0.00     0.000 A 
ATOM     25  C   UNL A   1      32.319  28.460  22.645  1.00  0.00     0.000 A 
ENDBRANCH  19  20
ENDBRANCH  15  19
BRANCH  16  26
ATOM     26  C   UNL A   1      32.154  21.028  24.992  1.00  0.00     0.063 C 
BRANCH  26  27
ATOM     27  C   UNL A   1      32.630  19.715  24.421  1.00  0.00    -0.046 A 
ATOM     28  C   UNL A   1      32.206  19.318  23.146  1.00  0.00     0.007 A 
ATOM     29  C   UNL A   1      33.501  18.887  25.148  1.00  0.00     0.007 A 
ATOM     30  C   UNL A   1      32.671  18.128  22.591  1.00  0.00     0.039 A 
ATOM     31  C   UNL A   1      33.972  17.702  24.586  1.00  0.00     0.039 A 
ATOM     32  C   UNL A   1      33.556  17.336  23.312  1.00  0.00     0.123 A 
ATOM     33  F   UNL A   1      34.017  16.202  22.770  1.00  0.00    -0.207 F 
ENDBRANCH  26  27
ENDBRANCH  16  26
ENDBRANCH  10  11
ENDBRANCH   3   5
ENDBRANCH   2   3
ENDBRANCH   1   2
BRANCH   1  34
ATOM     34  C   UNL A   1      44.109  21.751  25.141  1.00  0.00     0.275 C 
BRANCH  34  35
ATOM     35  O   UNL A   1      43.510  22.990  24.722  1.00  0.00    -0.458 OA
BRANCH  35  36
ATOM     36  C   UNL A   1      44.199  24.105  25.079  1.00  0.00     0.338 C 
ATOM     37  O   UNL A   1      45.265  24.469  24.610  1.00  0.00    -0.246 OA
BRANCH  36  38
ATOM     38  C   UNL A   1      43.436  24.923  26.056  1.00  0.00     0.060 A 
ATOM     39  C   UNL A   1      43.551  26.315  25.955  1.00  0.00     0.016 A 
ATOM     40  C   UNL A   1      42.648  24.365  27.068  1.00  0.00     0.016 A 
ATOM     41  C   UNL A   1      42.935  27.146  26.895  1.00  0.00     0.010 A 
ATOM     42  C   UNL A   1      42.016  25.203  28.001  1.00  0.00     0.010 A 
ATOM     43  C   UNL A   1      42.194  26.598  27.952  1.00  0.00    -0.014 A 
BRANCH  43  44
ATOM     44  C   UNL A   1      41.774  27.481  29.077  1.00  0.00     0.031 A 
ATOM     45  C   UNL A   1      40.460  28.213  28.980  1.00  0.00     0.074 A 
ATOM     46  C   UNL A   1      42.493  27.587  30.212  1.00  0.00     0.049 A 
ATOM     47  N   UNL A   1      39.831  28.909  29.895  1.00  0.00    -0.248 NA
ATOM     48  C   UNL A   1      39.762  28.148  27.688  1.00  0.00     0.031 C 
ATOM     49  C   UNL A   1      43.768  26.929  30.470  1.00  0.00     0.029 A 
ATOM     50  N   UNL A   1      42.236  28.280  31.371  1.00  0.00    -0.354 N 
ATOM     51  C   UNL A   1      38.660  29.350  29.292  1.00  0.00     0.074 A 
ATOM     52  C   UNL A   1      38.693  28.894  27.920  1.00  0.00     0.031 C 
ATOM     53  C   UNL A   1      44.186  27.242  31.708  1.00  0.00     0.029 A 
ATOM     54  C   UNL A   1      43.203  28.122  32.337  1.00  0.00     0.049 A 
ATOM     55  H   UNL A   1      41.435  28.839  31.499  1.00  0.00     0.167 HD
ATOM     56  C   UNL A   1      37.632  30.049  29.831  1.00  0.00     0.031 A 
ATOM     57  C   UNL A   1      43.281  28.611  33.590  1.00  0.00     0.031 A 
ATOM     58  C   UNL A   1      37.583  30.525  31.186  1.00  0.00     0.049 A 
ATOM     59  C   UNL A   1      42.154  29.443  34.146  1.00  0.00     0.074 A 
ATOM     60  C   UNL A   1      36.562  31.213  31.821  1.00  0.00     0.029 A 
ATOM     61  N   UNL A   1      38.601  30.378  32.112  1.00  0.00    -0.354 N 
ATOM     62  N   UNL A   1      41.016  29.776  33.590  1.00  0.00    -0.248 NA
ATOM     63  C   UNL A   1      42.317  29.940  35.522  1.00  0.00     0.031 C 
ATOM     64  C   UNL A   1      36.987  31.534  33.113  1.00  0.00     0.029 A 
ATOM     65  C   UNL A   1      38.246  30.990  33.304  1.00  0.00     0.049 A 
ATOM     66  H   UNL A   1      39.452  29.909  31.949  1.00  0.00     0.167 HD
ATOM     67  C   UNL A   1      40.308  30.475  34.563  1.00  0.00     0.074 A 
ATOM     68  C   UNL A   1      41.143  30.514  35.744  1.00  0.00     0.031 C 
ATOM     69  C   UNL A   1      39.071  31.022  34.483  1.00  0.00     0.031 A 
BRANCH  56  70
ATOM     70  C   UNL A   1      36.470  30.355  28.928  1.00  0.00    -0.014 A 
ATOM     71  C   UNL A   1      35.611  29.339  28.480  1.00  0.00     0.009 A 
ATOM     72  C   UNL A   1      36.220  31.679  28.539  1.00  0.00     0.009 A 
ATOM     73  C   UNL A   1      34.546  29.639  27.628  1.00  0.00     0.001 A 
ATOM     74  C   UNL A   1      35.138  31.980  27.711  1.00  0.00     0.001 A 
ATOM     75  C   UNL A   1      34.310  30.959  27.248  1.00  0.00     0.000 A 
ENDBRANCH  56  70
BRANCH  57  76
ATOM     76  C   UNL A   1      44.461  28.307  34.444  1.00  0.00    -0.014 A 
ATOM     77  C   UNL A   1      45.601  29.125  34.405  1.00  0.00     0.009 A 
ATOM     78  C   UNL A   1      44.476  27.162  35.253  1.00  0.00     0.009 A 
ATOM     79  C   UNL A   1      46.744  28.782  35.129  1.00  0.00     0.001 A 
ATOM     80  C   UNL A   1      45.611  26.836  35.999  1.00  0.00     0.001 A 
ATOM     81  C   UNL A   1      46.748  27.639  35.926  1.00  0.00     0.000 A 
ENDBRANCH  57  76
BRANCH  69  82
ATOM     82  C   UNL A   1      38.510  31.664  35.725  1.00  0.00    -0.014 A 
ATOM     83  C   UNL A   1      37.930  30.904  36.753  1.00  0.00     0.009 A 
ATOM     84  C   UNL A   1      38.598  33.058  35.881  1.00  0.00     0.009 A 
ATOM     85  C   UNL A   1      37.414  31.531  37.890  1.00  0.00     0.001 A 
ATOM     86  C   UNL A   1      38.111  33.677  37.033  1.00  0.00     0.001 A 
ATOM     87  C   UNL A   1      37.509  32.914  38.032  1.00  0.00     0.000 A 
ENDBRANCH  69  82
ENDBRANCH  43  44
ENDBRANCH  36  38
ENDBRANCH  35  36
ENDBRANCH  34  35
ENDBRANCH   1  34
TORSDOF 16
ENDMDL
MODEL 2
REMARK VINA RESULT:     -12.7      4.537      9.883
REMARK SMILES O=C(OCCOC(=O)c1ccc(-c2c3nc(c(-c4ccccc4)c4ccc([nH]4)c(-c4ccccc4)c4nc(c(-c5ccccc5)c5ccc2[nH]5)C=C4)C=C3)cc1)c1ccc(/[NH+]=C2\S[C@@H](Cc3ccc(F)cc3)C(=O)N2Cc2ccccc2)cc1
REMARK SMILES IDX 4 1 3 2 2 3 1 4 57 5 58 6 84 7 59 8 83 9 60 10 61 11 62 12
REMARK SMILES IDX 63 14 75 15 64 16 73 17 74 18 76 19 77 20 78 21 82 22 79 23
REMARK SMILES IDX 81 24 80 25 65 26 66 27 67 28 72 29 68 30 71 31 69 32 70 33
REMARK SMILES IDX 5 34 6 35 7 36 8 37 9 38 10 39 56 40 11 41 55 42 12 43 13 44
REMARK SMILES IDX 14 45 49 46 15 47 54 48 48 49 50 50 16 51 53 52 47 53 46 54
REMARK SMILES IDX 17 56 39 57 24 58 38 59 25 60 28 61 37 62 51 63 26 64 27 65
REMARK SMILES IDX 36 67 52 68 29 69 18 70 19 71 23 72 20 73 22 74 21 75 40 76
REMARK SMILES IDX 41 77 45 78 42 79 44 80 43 81 30 82 31 83 35 84 32 85 34 86
REMARK SMILES IDX 33 87
REMARK H PARENT 61 13 50 55 28 66
REMARK Flexibility Score: inf
ROOT
ATOM      1  C   UNL A   1      34.025  34.336  30.281  1.00  0.00     0.275 C 
ENDROOT
BRANCH   1   2
ATOM      2  O   UNL A   1      33.830  33.172  29.453  1.00  0.00    -0.458 OA
BRANCH   2   3
ATOM      3  C   UNL A   1      34.335  32.851  28.238  1.00  0.00     0.338 C 
ATOM      4  O   UNL A   1      34.724  33.760  27.506  1.00  0.00    -0.246 OA
BRANCH   3   5
ATOM      5  C   UNL A   1      34.333  31.465  27.667  1.00  0.00     0.060 A 
ATOM      6  C   UNL A   1      35.448  30.643  27.523  1.00  0.00     0.020 A 
ATOM      7  C   UNL A   1      33.083  30.940  27.273  1.00  0.00     0.020 A 
ATOM      8  C   UNL A   1      35.312  29.319  27.120  1.00  0.00     0.052 A 
ATOM      9  C   UNL A   1      32.952  29.620  26.822  1.00  0.00     0.052 A 
ATOM     10  C   UNL A   1      34.069  28.799  26.771  1.00  0.00     0.125 A 
BRANCH  10  11
ATOM     11  N   UNL A   1      34.034  27.462  26.370  1.00  0.00    -0.235 N 
ATOM     12  C   UNL A   1      33.201  27.134  25.442  1.00  0.00     0.320 C 
ATOM     13  H   UNL A   1      34.625  26.791  26.783  1.00  0.00     0.313 HD
ATOM     14  S   UNL A   1      31.840  28.085  24.909  1.00  0.00    -0.022 SA
ATOM     15  N   UNL A   1      33.329  25.993  24.702  1.00  0.00    -0.186 N 
ATOM     16  C   UNL A   1      31.188  26.730  23.910  1.00  0.00     0.178 C 
ATOM     17  C   UNL A   1      32.365  25.779  23.736  1.00  0.00     0.324 C 
ATOM     18  O   UNL A   1      32.418  24.898  22.886  1.00  0.00    -0.245 OA
BRANCH  15  19
ATOM     19  C   UNL A   1      34.484  25.108  24.825  1.00  0.00     0.283 C 
BRANCH  19  20
ATOM     20  C   UNL A   1      34.167  23.759  25.451  1.00  0.00    -0.006 A 
ATOM     21  C   UNL A   1      34.360  22.568  24.737  1.00  0.00     0.008 A 
ATOM     22  C   UNL A   1      33.645  23.677  26.752  1.00  0.00     0.008 A 
ATOM     23  C   UNL A   1      34.040  21.333  25.314  1.00  0.00     0.000 A 
ATOM     24  C   UNL A   1      33.354  22.443  27.338  1.00  0.00     0.000 A 
ATOM     25  C   UNL A   1      33.545  21.270  26.616  1.00  0.00     0.000 A 
ENDBRANCH  19  20
ENDBRANCH  15  19
BRANCH  16  26
ATOM     26  C   UNL A   1      30.607  27.309  22.624  1.00  0.00     0.063 C 
BRANCH  26  27
ATOM     27  C   UNL A   1      29.632  28.433  22.870  1.00  0.00    -0.046 A 
ATOM     28  C   UNL A   1      30.083  29.760  22.855  1.00  0.00     0.007 A 
ATOM     29  C   UNL A   1      28.273  28.168  23.106  1.00  0.00     0.007 A 
ATOM     30  C   UNL A   1      29.184  30.808  23.040  1.00  0.00     0.039 A 
ATOM     31  C   UNL A   1      27.375  29.220  23.281  1.00  0.00     0.039 A 
ATOM     32  C   UNL A   1      27.838  30.529  23.242  1.00  0.00     0.123 A 
ATOM     33  F   UNL A   1      26.972  31.538  23.400  1.00  0.00    -0.207 F 
ENDBRANCH  26  27
ENDBRANCH  16  26
ENDBRANCH  10  11
ENDBRANCH   3   5
ENDBRANCH   2   3
ENDBRANCH   1   2
BRANCH   1  34
ATOM     34  C   UNL A   1      34.411  34.018  31.731  1.00  0.00     0.275 C 
BRANCH  34  35
ATOM     35  O   UNL A   1      34.655  32.620  31.959  1.00  0.00    -0.458 OA
BRANCH  35  36
ATOM     36  C   UNL A   1      35.769  32.347  32.687  1.00  0.00     0.338 C 
ATOM     37  O   UNL A   1      35.914  32.558  33.880  1.00  0.00    -0.246 OA
BRANCH  36  38
ATOM     38  C   UNL A   1      36.788  31.637  31.872  1.00  0.00     0.060 A 
ATOM     39  C   UNL A   1      37.686  30.805  32.552  1.00  0.00     0.016 A 
ATOM     40  C   UNL A   1      36.898  31.789  30.486  1.00  0.00     0.016 A 
ATOM     41  C   UNL A   1      38.728  30.176  31.864  1.00  0.00     0.010 A 
ATOM     42  C   UNL A   1      37.936  31.142  29.795  1.00  0.00     0.010 A 
ATOM     43  C   UNL A   1      38.888  30.369  30.484  1.00  0.00    -0.014 A 
BRANCH  43  44
ATOM     44  C   UNL A   1      40.145  29.908  29.829  1.00  0.00     0.031 A 
ATOM     45  C   UNL A   1      40.165  28.561  29.156  1.00  0.00     0.074 A 
ATOM     46  C   UNL A   1      41.240  30.689  29.751  1.00  0.00     0.049 A 
ATOM     47  N   UNL A   1      41.094  28.026  28.401  1.00  0.00    -0.248 NA
ATOM     48  C   UNL A   1      38.986  27.706  29.354  1.00  0.00     0.031 C 
ATOM     49  C   UNL A   1      41.373  32.021  30.328  1.00  0.00     0.029 A 
ATOM     50  N   UNL A   1      42.450  30.473  29.132  1.00  0.00    -0.354 N 
ATOM     51  C   UNL A   1      40.603  26.782  28.025  1.00  0.00     0.074 A 
ATOM     52  C   UNL A   1      39.324  26.617  28.680  1.00  0.00     0.031 C 
ATOM     53  C   UNL A   1      42.590  32.511  30.036  1.00  0.00     0.029 A 
ATOM     54  C   UNL A   1      43.326  31.527  29.245  1.00  0.00     0.049 A 
ATOM     55  H   UNL A   1      42.669  29.641  28.653  1.00  0.00     0.167 HD
ATOM     56  C   UNL A   1      41.147  25.865  27.190  1.00  0.00     0.031 A 
ATOM     57  C   UNL A   1      44.569  31.693  28.752  1.00  0.00     0.031 A 
ATOM     58  C   UNL A   1      42.422  26.000  26.539  1.00  0.00     0.049 A 
ATOM     59  C   UNL A   1      45.181  30.628  27.879  1.00  0.00     0.074 A 
ATOM     60  C   UNL A   1      43.031  25.131  25.650  1.00  0.00     0.029 A 
ATOM     61  N   UNL A   1      43.290  27.063  26.717  1.00  0.00    -0.354 N 
ATOM     62  N   UNL A   1      44.667  29.498  27.463  1.00  0.00    -0.248 NA
ATOM     63  C   UNL A   1      46.543  30.885  27.381  1.00  0.00     0.031 C 
ATOM     64  C   UNL A   1      44.295  25.639  25.336  1.00  0.00     0.029 A 
ATOM     65  C   UNL A   1      44.445  26.857  25.979  1.00  0.00     0.049 A 
ATOM     66  H   UNL A   1      43.115  27.849  27.284  1.00  0.00     0.167 HD
ATOM     67  C   UNL A   1      45.617  28.935  26.618  1.00  0.00     0.074 A 
ATOM     68  C   UNL A   1      46.737  29.850  26.576  1.00  0.00     0.031 C 
ATOM     69  C   UNL A   1      45.557  27.770  25.929  1.00  0.00     0.031 A 
BRANCH  56  70
ATOM     70  C   UNL A   1      40.355  24.612  26.946  1.00  0.00    -0.014 A 
ATOM     71  C   UNL A   1      40.834  23.358  27.358  1.00  0.00     0.009 A 
ATOM     72  C   UNL A   1      39.105  24.689  26.314  1.00  0.00     0.009 A 
ATOM     73  C   UNL A   1      40.093  22.202  27.108  1.00  0.00     0.001 A 
ATOM     74  C   UNL A   1      38.352  23.535  26.091  1.00  0.00     0.001 A 
ATOM     75  C   UNL A   1      38.852  22.293  26.478  1.00  0.00     0.000 A 
ENDBRANCH  56  70
BRANCH  57  76
ATOM     76  C   UNL A   1      45.331  32.938  29.038  1.00  0.00    -0.014 A 
ATOM     77  C   UNL A   1      45.289  34.022  28.148  1.00  0.00     0.009 A 
ATOM     78  C   UNL A   1      46.154  33.022  30.172  1.00  0.00     0.009 A 
ATOM     79  C   UNL A   1      46.084  35.149  28.367  1.00  0.00     0.001 A 
ATOM     80  C   UNL A   1      46.927  34.163  30.403  1.00  0.00     0.001 A 
ATOM     81  C   UNL A   1      46.901  35.219  29.494  1.00  0.00     0.000 A 
ENDBRANCH  57  76
BRANCH  69  82
ATOM     82  C   UNL A   1      46.710  27.436  25.019  1.00  0.00    -0.014 A 
ATOM     83  C   UNL A   1      46.857  28.039  23.760  1.00  0.00     0.009 A 
ATOM     84  C   UNL A   1      47.686  26.523  25.450  1.00  0.00     0.009 A 
ATOM     85  C   UNL A   1      47.936  27.703  22.938  1.00  0.00     0.001 A 
ATOM     86  C   UNL A   1      48.780  26.214  24.639  1.00  0.00     0.001 A 
ATOM     87  C   UNL A   1      48.898  26.797  23.379  1.00  0.00     0.000 A 
ENDBRANCH  69  82
ENDBRANCH  43  44
ENDBRANCH  36  38
ENDBRANCH  35  36
ENDBRANCH  34  35
ENDBRANCH   1  34
TORSDOF 16
ENDMDL
MODEL 3
REMARK VINA RESULT:     -12.6      0.813      5.563
REMARK SMILES O=C(OCCOC(=O)c1ccc(-c2c3nc(c(-c4ccccc4)c4ccc([nH]4)c(-c4ccccc4)c4nc(c(-c5ccccc5)c5ccc2[nH]5)C=C4)C=C3)cc1)c1ccc(/[NH+]=C2\S[C@@H](Cc3ccc(F)cc3)C(=O)N2Cc2ccccc2)cc1
REMARK SMILES IDX 4 1 3 2 2 3 1 4 57 5 58 6 84 7 59 8 83 9 60 10 61 11 62 12
REMARK SMILES IDX 63 14 75 15 64 16 73 17 74 18 76 19 77 20 78 21 82 22 79 23
REMARK SMILES IDX 81 24 80 25 65 26 66 27 67 28 72 29 68 30 71 31 69 32 70 33
REMARK SMILES IDX 5 34 6 35 7 36 8 37 9 38 10 39 56 40 11 41 55 42 12 43 13 44
REMARK SMILES IDX 14 45 49 46 15 47 54 48 48 49 50 50 16 51 53 52 47 53 46 54
REMARK SMILES IDX 17 56 39 57 24 58 38 59 25 60 28 61 37 62 51 63 26 64 27 65
REMARK SMILES IDX 36 67 52 68 29 69 18 70 19 71 23 72 20 73 22 74 21 75 40 76
REMARK SMILES IDX 41 77 45 78 42 79 44 80 43 81 30 82 31 83 35 84 32 85 34 86
REMARK SMILES IDX 33 87
REMARK H PARENT 61 13 50 55 28 66
REMARK Flexibility Score: inf
ROOT
ATOM      1  C   UNL A   1      43.151  21.358  25.734  1.00  0.00     0.275 C 
ENDROOT
BRANCH   1   2
ATOM      2  O   UNL A   1      41.937  22.030  26.125  1.00  0.00    -0.458 OA
BRANCH   2   3
ATOM      3  C   UNL A   1      40.734  21.540  26.508  1.00  0.00     0.338 C 
ATOM      4  O   UNL A   1      40.682  20.394  26.954  1.00  0.00    -0.246 OA
BRANCH   3   5
ATOM      5  C   UNL A   1      39.432  22.254  26.304  1.00  0.00     0.060 A 
ATOM      6  C   UNL A   1      39.069  23.466  26.887  1.00  0.00     0.020 A 
ATOM      7  C   UNL A   1      38.510  21.658  25.416  1.00  0.00     0.020 A 
ATOM      8  C   UNL A   1      37.898  24.115  26.513  1.00  0.00     0.052 A 
ATOM      9  C   UNL A   1      37.308  22.290  25.074  1.00  0.00     0.052 A 
ATOM     10  C   UNL A   1      37.014  23.537  25.606  1.00  0.00     0.125 A 
BRANCH  10  11
ATOM     11  N   UNL A   1      35.859  24.261  25.300  1.00  0.00    -0.235 N 
ATOM     12  C   UNL A   1      34.771  23.600  25.098  1.00  0.00     0.320 C 
ATOM     13  H   UNL A   1      35.877  25.243  25.240  1.00  0.00     0.313 HD
ATOM     14  S   UNL A   1      34.660  21.890  24.772  1.00  0.00    -0.022 SA
ATOM     15  N   UNL A   1      33.532  24.170  25.177  1.00  0.00    -0.186 N 
ATOM     16  C   UNL A   1      32.909  22.007  24.351  1.00  0.00     0.178 C 
ATOM     17  C   UNL A   1      32.457  23.335  24.945  1.00  0.00     0.324 C 
ATOM     18  O   UNL A   1      31.286  23.643  25.132  1.00  0.00    -0.245 OA
BRANCH  15  19
ATOM     19  C   UNL A   1      33.336  25.552  25.612  1.00  0.00     0.283 C 
BRANCH  19  20
ATOM     20  C   UNL A   1      33.468  26.576  24.496  1.00  0.00    -0.006 A 
ATOM     21  C   UNL A   1      33.607  27.941  24.781  1.00  0.00     0.008 A 
ATOM     22  C   UNL A   1      33.425  26.179  23.149  1.00  0.00     0.008 A 
ATOM     23  C   UNL A   1      33.702  28.878  23.745  1.00  0.00     0.000 A 
ATOM     24  C   UNL A   1      33.549  27.110  22.116  1.00  0.00     0.000 A 
ATOM     25  C   UNL A   1      33.681  28.463  22.414  1.00  0.00     0.000 A 
ENDBRANCH  19  20
ENDBRANCH  15  19
BRANCH  16  26
ATOM     26  C   UNL A   1      32.197  20.767  24.881  1.00  0.00     0.063 C 
BRANCH  26  27
ATOM     27  C   UNL A   1      32.743  19.482  24.310  1.00  0.00    -0.046 A 
ATOM     28  C   UNL A   1      32.252  19.000  23.089  1.00  0.00     0.007 A 
ATOM     29  C   UNL A   1      33.745  18.764  24.983  1.00  0.00     0.007 A 
ATOM     30  C   UNL A   1      32.778  17.837  22.532  1.00  0.00     0.039 A 
ATOM     31  C   UNL A   1      34.276  17.606  24.417  1.00  0.00     0.039 A 
ATOM     32  C   UNL A   1      33.790  17.156  23.196  1.00  0.00     0.123 A 
ATOM     33  F   UNL A   1      34.307  16.048  22.650  1.00  0.00    -0.207 F 
ENDBRANCH  26  27
ENDBRANCH  16  26
ENDBRANCH  10  11
ENDBRANCH   3   5
ENDBRANCH   2   3
ENDBRANCH   1   2
BRANCH   1  34
ATOM     34  C   UNL A   1      44.180  22.267  25.049  1.00  0.00     0.275 C 
BRANCH  34  35
ATOM     35  O   UNL A   1      43.625  23.518  24.608  1.00  0.00    -0.458 OA
BRANCH  35  36
ATOM     36  C   UNL A   1      44.310  24.619  25.012  1.00  0.00     0.338 C 
ATOM     37  O   UNL A   1      45.416  24.958  24.622  1.00  0.00    -0.246 OA
BRANCH  36  38
ATOM     38  C   UNL A   1      43.495  25.456  25.929  1.00  0.00     0.060 A 
ATOM     39  C   UNL A   1      44.065  26.653  26.381  1.00  0.00     0.016 A 
ATOM     40  C   UNL A   1      42.220  25.086  26.370  1.00  0.00     0.016 A 
ATOM     41  C   UNL A   1      43.395  27.447  27.316  1.00  0.00     0.010 A 
ATOM     42  C   UNL A   1      41.542  25.895  27.297  1.00  0.00     0.010 A 
ATOM     43  C   UNL A   1      42.144  27.056  27.814  1.00  0.00    -0.014 A 
BRANCH  43  44
ATOM     44  C   UNL A   1      41.577  27.773  28.992  1.00  0.00     0.031 A 
ATOM     45  C   UNL A   1      42.279  27.664  30.321  1.00  0.00     0.074 A 
ATOM     46  C   UNL A   1      40.501  28.578  28.892  1.00  0.00     0.049 A 
ATOM     47  N   UNL A   1      42.051  28.317  31.434  1.00  0.00    -0.248 NA
ATOM     48  C   UNL A   1      43.384  26.698  30.406  1.00  0.00     0.031 C 
ATOM     49  C   UNL A   1      39.726  28.807  27.678  1.00  0.00     0.029 A 
ATOM     50  N   UNL A   1      39.885  29.369  29.833  1.00  0.00    -0.354 N 
ATOM     51  C   UNL A   1      42.992  27.851  32.343  1.00  0.00     0.074 A 
ATOM     52  C   UNL A   1      43.753  26.821  31.671  1.00  0.00     0.031 C 
ATOM     53  C   UNL A   1      38.740  29.683  27.940  1.00  0.00     0.029 A 
ATOM     54  C   UNL A   1      38.815  30.082  29.344  1.00  0.00     0.049 A 
ATOM     55  H   UNL A   1      40.182  29.421  30.771  1.00  0.00     0.167 HD
ATOM     56  C   UNL A   1      43.226  28.256  33.614  1.00  0.00     0.031 A 
ATOM     57  C   UNL A   1      38.001  30.969  29.948  1.00  0.00     0.031 A 
ATOM     58  C   UNL A   1      42.474  29.267  34.307  1.00  0.00     0.049 A 
ATOM     59  C   UNL A   1      38.240  31.355  31.385  1.00  0.00     0.074 A 
ATOM     60  C   UNL A   1      42.668  29.759  35.586  1.00  0.00     0.029 A 
ATOM     61  N   UNL A   1      41.375  29.928  33.787  1.00  0.00    -0.354 N 
ATOM     62  N   UNL A   1      39.189  30.969  32.201  1.00  0.00    -0.248 NA
ATOM     63  C   UNL A   1      37.306  32.330  31.971  1.00  0.00     0.031 C 
ATOM     64  C   UNL A   1      41.651  30.677  35.862  1.00  0.00     0.029 A 
ATOM     65  C   UNL A   1      40.862  30.803  34.731  1.00  0.00     0.049 A 
ATOM     66  H   UNL A   1      41.012  29.797  32.881  1.00  0.00     0.167 HD
ATOM     67  C   UNL A   1      38.996  31.689  33.376  1.00  0.00     0.074 A 
ATOM     68  C   UNL A   1      37.844  32.538  33.165  1.00  0.00     0.031 C 
ATOM     69  C   UNL A   1      39.721  31.655  34.520  1.00  0.00     0.031 A 
BRANCH  56  70
ATOM     70  C   UNL A   1      44.350  27.580  34.348  1.00  0.00    -0.014 A 
ATOM     71  C   UNL A   1      45.649  28.113  34.339  1.00  0.00     0.009 A 
ATOM     72  C   UNL A   1      44.101  26.405  35.074  1.00  0.00     0.009 A 
ATOM     73  C   UNL A   1      46.684  27.462  35.012  1.00  0.00     0.001 A 
ATOM     74  C   UNL A   1      45.131  25.773  35.770  1.00  0.00     0.001 A 
ATOM     75  C   UNL A   1      46.423  26.295  35.729  1.00  0.00     0.000 A 
ENDBRANCH  56  70
BRANCH  57  76
ATOM     76  C   UNL A   1      36.882  31.598  29.194  1.00  0.00    -0.014 A 
ATOM     77  C   UNL A   1      37.003  32.904  28.694  1.00  0.00     0.009 A 
ATOM     78  C   UNL A   1      35.668  30.917  29.026  1.00  0.00     0.009 A 
ATOM     79  C   UNL A   1      35.917  33.528  28.076  1.00  0.00     0.001 A 
ATOM     80  C   UNL A   1      34.592  31.534  28.382  1.00  0.00     0.001 A 
ATOM     81  C   UNL A   1      34.714  32.843  27.920  1.00  0.00     0.000 A 
ENDBRANCH  57  76
BRANCH  69  82
ATOM     82  C   UNL A   1      39.331  32.605  35.622  1.00  0.00    -0.014 A 
ATOM     83  C   UNL A   1      38.410  32.245  36.618  1.00  0.00     0.009 A 
ATOM     84  C   UNL A   1      39.928  33.876  35.681  1.00  0.00     0.009 A 
ATOM     85  C   UNL A   1      38.066  33.151  37.624  1.00  0.00     0.001 A 
ATOM     86  C   UNL A   1      39.607  34.767  36.706  1.00  0.00     0.001 A 
ATOM     87  C   UNL A   1      38.667  34.408  37.670  1.00  0.00     0.000 A 
ENDBRANCH  69  82
ENDBRANCH  43  44
ENDBRANCH  36  38
ENDBRANCH  35  36
ENDBRANCH  34  35
ENDBRANCH   1  34
TORSDOF 16
ENDMDL
