MODEL 1
REMARK VINA RESULT:     -10.1      0.000      0.000
REMARK SMILES NS(=O)(=O)c1ccc(-n2ccnc2-c2ccc(O)c(C(=O)OCCOC(=O)c3ccc(-c4c5nc(c(-c6ccccc6)c6ccc([nH]6)c(-c6ccccc6)c6nc(c(-c7ccccc7)c7ccc4[nH]7)C=C6)C=C5)cc3)c2)cc1
REMARK SMILES IDX 23 1 22 2 20 3 21 4 19 5 14 6 15 7 76 8 16 9 17 10 13 11
REMARK SMILES IDX 9 12 10 13 11 14 12 15 8 16 5 17 6 18 78 19 7 20 77 21 2 22
REMARK SMILES IDX 3 23 4 24 1 25 18 28 24 30 25 31 26 32 27 33 28 34 29 35
REMARK SMILES IDX 75 36 30 37 74 38 31 39 32 40 33 41 68 42 34 43 73 44 67 45
REMARK SMILES IDX 69 46 35 47 72 48 66 49 65 50 36 52 58 53 43 54 57 55 44 56
REMARK SMILES IDX 47 57 56 58 70 59 45 60 46 61 55 63 71 64 48 65 37 66 38 67
REMARK SMILES IDX 42 68 39 69 41 70 40 71 59 72 60 73 64 74 61 75 63 76 62 77
REMARK SMILES IDX 49 78 50 79 54 80 51 81 53 82 52 83
REMARK H PARENT 1 26 1 27 18 29 69 51 47 62
REMARK Flexibility Score: inf
ROOT
ATOM      1  C   UNL A   1      34.248  34.993  29.444  1.00  0.00     0.275 C 
ENDROOT
BRANCH   1   2
ATOM      2  O   UNL A   1      33.810  34.588  30.752  1.00  0.00    -0.458 OA
BRANCH   2   3
ATOM      3  C   UNL A   1      34.622  34.931  31.783  1.00  0.00     0.342 C 
ATOM      4  O   UNL A   1      34.486  35.894  32.528  1.00  0.00    -0.246 OA
BRANCH   3   5
ATOM      5  C   UNL A   1      35.672  33.908  32.012  1.00  0.00     0.102 A 
ATOM      6  C   UNL A   1      38.000  33.306  32.393  1.00  0.00     0.019 A 
ATOM      7  C   UNL A   1      37.640  31.957  32.450  1.00  0.00     0.016 A 
ATOM      8  C   UNL A   1      37.018  34.271  32.117  1.00  0.00     0.031 A 
ATOM      9  C   UNL A   1      36.301  31.583  32.311  1.00  0.00     0.048 A 
ATOM     10  C   UNL A   1      35.321  32.556  32.117  1.00  0.00     0.130 A 
BRANCH   6  11
ATOM     11  C   UNL A   1      39.371  33.726  32.699  1.00  0.00     0.144 A 
ATOM     12  N   UNL A   1      39.883  33.820  33.994  1.00  0.00    -0.300 N 
ATOM     13  C   UNL A   1      41.074  34.500  33.897  1.00  0.00     0.113 A 
ATOM     14  C   UNL A   1      41.308  34.637  32.550  1.00  0.00     0.132 A 
ATOM     15  N   UNL A   1      40.261  34.145  31.818  1.00  0.00    -0.236 NA
BRANCH  12  16
ATOM     16  C   UNL A   1      39.303  33.325  35.192  1.00  0.00     0.047 A 
ATOM     17  C   UNL A   1      38.049  32.321  37.464  1.00  0.00     0.082 A 
ATOM     18  C   UNL A   1      38.752  31.451  36.628  1.00  0.00     0.024 A 
ATOM     19  C   UNL A   1      37.977  33.689  37.177  1.00  0.00     0.024 A 
ATOM     20  C   UNL A   1      39.374  31.954  35.486  1.00  0.00     0.028 A 
ATOM     21  C   UNL A   1      38.627  34.199  36.050  1.00  0.00     0.028 A 
BRANCH  17  22
ATOM     22  S   UNL A   1      37.209  31.690  38.888  1.00  0.00     0.238 S 
ATOM     23  O   UNL A   1      35.898  32.305  38.960  1.00  0.00    -0.207 OA
ATOM     24  O   UNL A   1      38.129  31.677  39.991  1.00  0.00    -0.207 OA
BRANCH  22  25
ATOM     25  N   UNL A   1      36.911  30.083  38.496  1.00  0.00    -0.225 NA
ATOM     26  H   UNL A   1      36.575  30.024  37.535  1.00  0.00     0.137 HD
ATOM     27  H   UNL A   1      36.206  29.704  39.127  1.00  0.00     0.137 HD
ENDBRANCH  22  25
ENDBRANCH  17  22
ENDBRANCH  12  16
ENDBRANCH   6  11
BRANCH  10  28
ATOM     28  O   UNL A   1      34.029  32.106  32.032  1.00  0.00    -0.507 OA
ATOM     29  H   UNL A   1      33.677  31.564  32.710  1.00  0.00     0.293 HD
ENDBRANCH  10  28
ENDBRANCH   3   5
ENDBRANCH   2   3
ENDBRANCH   1   2
BRANCH   1  30
ATOM     30  C   UNL A   1      33.795  34.000  28.382  1.00  0.00     0.275 C 
BRANCH  30  31
ATOM     31  O   UNL A   1      34.886  33.219  27.890  1.00  0.00    -0.458 OA
BRANCH  31  32
ATOM     32  C   UNL A   1      34.731  31.880  27.999  1.00  0.00     0.338 C 
ATOM     33  O   UNL A   1      33.726  31.233  27.760  1.00  0.00    -0.246 OA
BRANCH  32  34
ATOM     34  C   UNL A   1      35.903  31.318  28.676  1.00  0.00     0.060 A 
ATOM     35  C   UNL A   1      37.036  32.127  28.812  1.00  0.00     0.016 A 
ATOM     36  C   UNL A   1      35.950  29.938  28.915  1.00  0.00     0.016 A 
ATOM     37  C   UNL A   1      38.258  31.518  29.033  1.00  0.00     0.010 A 
ATOM     38  C   UNL A   1      37.167  29.333  29.107  1.00  0.00     0.010 A 
ATOM     39  C   UNL A   1      38.315  30.121  29.098  1.00  0.00    -0.014 A 
BRANCH  39  40
ATOM     40  C   UNL A   1      39.591  29.475  29.327  1.00  0.00     0.031 A 
ATOM     41  C   UNL A   1      39.903  29.354  30.771  1.00  0.00     0.074 A 
ATOM     42  C   UNL A   1      40.315  28.917  28.336  1.00  0.00     0.049 A 
ATOM     43  N   UNL A   1      40.834  29.969  31.420  1.00  0.00    -0.248 NA
ATOM     44  C   UNL A   1      38.958  28.617  31.632  1.00  0.00     0.031 C 
ATOM     45  C   UNL A   1      39.952  28.753  26.927  1.00  0.00     0.029 A 
ATOM     46  N   UNL A   1      41.509  28.269  28.412  1.00  0.00    -0.354 N 
ATOM     47  C   UNL A   1      40.727  29.529  32.733  1.00  0.00     0.074 A 
ATOM     48  C   UNL A   1      39.448  28.880  32.844  1.00  0.00     0.031 C 
ATOM     49  C   UNL A   1      40.778  27.844  26.354  1.00  0.00     0.029 A 
ATOM     50  C   UNL A   1      41.801  27.463  27.316  1.00  0.00     0.049 A 
ATOM     51  H   UNL A   1      42.118  28.363  29.179  1.00  0.00     0.167 HD
ATOM     52  C   UNL A   1      41.823  29.462  33.536  1.00  0.00     0.031 A 
ATOM     53  C   UNL A   1      42.770  26.512  27.243  1.00  0.00     0.031 A 
ATOM     54  C   UNL A   1      42.914  30.237  33.000  1.00  0.00     0.049 A 
ATOM     55  C   UNL A   1      43.738  26.785  28.333  1.00  0.00     0.074 A 
ATOM     56  C   UNL A   1      43.100  31.568  32.686  1.00  0.00     0.029 A 
ATOM     57  N   UNL A   1      43.885  29.543  32.319  1.00  0.00    -0.354 N 
ATOM     58  N   UNL A   1      44.517  27.826  28.347  1.00  0.00    -0.248 NA
ATOM     59  C   UNL A   1      43.491  26.169  29.628  1.00  0.00     0.031 C 
ATOM     60  C   UNL A   1      43.858  31.558  31.479  1.00  0.00     0.029 A 
ATOM     61  C   UNL A   1      44.172  30.233  31.171  1.00  0.00     0.049 A 
ATOM     62  H   UNL A   1      44.302  28.699  32.606  1.00  0.00     0.167 HD
ATOM     63  C   UNL A   1      44.469  28.276  29.658  1.00  0.00     0.074 A 
ATOM     64  C   UNL A   1      43.895  27.167  30.420  1.00  0.00     0.031 C 
ATOM     65  C   UNL A   1      44.611  29.603  29.947  1.00  0.00     0.031 A 
BRANCH  52  66
ATOM     66  C   UNL A   1      42.056  28.331  34.508  1.00  0.00    -0.014 A 
ATOM     67  C   UNL A   1      42.447  27.082  33.995  1.00  0.00     0.009 A 
ATOM     68  C   UNL A   1      41.620  28.355  35.848  1.00  0.00     0.009 A 
ATOM     69  C   UNL A   1      42.318  25.912  34.752  1.00  0.00     0.001 A 
ATOM     70  C   UNL A   1      41.528  27.195  36.620  1.00  0.00     0.001 A 
ATOM     71  C   UNL A   1      41.849  25.968  36.060  1.00  0.00     0.000 A 
ENDBRANCH  52  66
BRANCH  53  72
ATOM     72  C   UNL A   1      42.766  25.213  26.527  1.00  0.00    -0.014 A 
ATOM     73  C   UNL A   1      43.553  25.022  25.376  1.00  0.00     0.009 A 
ATOM     74  C   UNL A   1      42.226  24.068  27.137  1.00  0.00     0.009 A 
ATOM     75  C   UNL A   1      43.826  23.733  24.888  1.00  0.00     0.001 A 
ATOM     76  C   UNL A   1      42.495  22.782  26.650  1.00  0.00     0.001 A 
ATOM     77  C   UNL A   1      43.310  22.614  25.536  1.00  0.00     0.000 A 
ENDBRANCH  53  72
BRANCH  65  78
ATOM     78  C   UNL A   1      45.052  30.526  28.837  1.00  0.00    -0.014 A 
ATOM     79  C   UNL A   1      44.167  31.124  27.921  1.00  0.00     0.009 A 
ATOM     80  C   UNL A   1      46.397  30.921  28.816  1.00  0.00     0.009 A 
ATOM     81  C   UNL A   1      44.626  32.065  26.992  1.00  0.00     0.001 A 
ATOM     82  C   UNL A   1      46.851  31.875  27.904  1.00  0.00     0.001 A 
ATOM     83  C   UNL A   1      45.969  32.442  26.988  1.00  0.00     0.000 A 
ENDBRANCH  65  78
ENDBRANCH  39  40
ENDBRANCH  32  34
ENDBRANCH  31  32
ENDBRANCH  30  31
ENDBRANCH   1  30
TORSDOF 16
ENDMDL
MODEL 2
REMARK VINA RESULT:      -9.9      5.019      8.207
REMARK SMILES NS(=O)(=O)c1ccc(-n2ccnc2-c2ccc(O)c(C(=O)OCCOC(=O)c3ccc(-c4c5nc(c(-c6ccccc6)c6ccc([nH]6)c(-c6ccccc6)c6nc(c(-c7ccccc7)c7ccc4[nH]7)C=C6)C=C5)cc3)c2)cc1
REMARK SMILES IDX 23 1 22 2 20 3 21 4 19 5 14 6 15 7 76 8 16 9 17 10 13 11
REMARK SMILES IDX 9 12 10 13 11 14 12 15 8 16 5 17 6 18 78 19 7 20 77 21 2 22
REMARK SMILES IDX 3 23 4 24 1 25 18 28 24 30 25 31 26 32 27 33 28 34 29 35
REMARK SMILES IDX 75 36 30 37 74 38 31 39 32 40 33 41 68 42 34 43 73 44 67 45
REMARK SMILES IDX 69 46 35 47 72 48 66 49 65 50 36 52 58 53 43 54 57 55 44 56
REMARK SMILES IDX 47 57 56 58 70 59 45 60 46 61 55 63 71 64 48 65 37 66 38 67
REMARK SMILES IDX 42 68 39 69 41 70 40 71 59 72 60 73 64 74 61 75 63 76 62 77
REMARK SMILES IDX 49 78 50 79 54 80 51 81 53 82 52 83
REMARK H PARENT 1 26 1 27 18 29 69 51 47 62
REMARK Flexibility Score: inf
ROOT
ATOM      1  C   UNL A   1      33.030  31.117  26.975  1.00  0.00     0.275 C 
ENDROOT
BRANCH   1   2
ATOM      2  O   UNL A   1      32.568  29.783  27.247  1.00  0.00    -0.458 OA
BRANCH   2   3
ATOM      3  C   UNL A   1      33.132  28.797  26.507  1.00  0.00     0.342 C 
ATOM      4  O   UNL A   1      34.325  28.531  26.437  1.00  0.00    -0.246 OA
BRANCH   3   5
ATOM      5  C   UNL A   1      32.103  27.949  25.858  1.00  0.00     0.102 A 
ATOM      6  C   UNL A   1      30.855  25.863  25.714  1.00  0.00     0.019 A 
ATOM      7  C   UNL A   1      30.148  26.364  24.617  1.00  0.00     0.016 A 
ATOM      8  C   UNL A   1      31.870  26.641  26.293  1.00  0.00     0.031 A 
ATOM      9  C   UNL A   1      30.398  27.658  24.154  1.00  0.00     0.048 A 
ATOM     10  C   UNL A   1      31.354  28.452  24.786  1.00  0.00     0.130 A 
BRANCH   6  11
ATOM     11  C   UNL A   1      30.489  24.575  26.311  1.00  0.00     0.144 A 
ATOM     12  N   UNL A   1      31.238  23.408  26.158  1.00  0.00    -0.300 N 
ATOM     13  C   UNL A   1      30.451  22.375  26.610  1.00  0.00     0.113 A 
ATOM     14  C   UNL A   1      29.345  22.973  27.165  1.00  0.00     0.132 A 
ATOM     15  N   UNL A   1      29.382  24.329  26.989  1.00  0.00    -0.236 NA
BRANCH  12  16
ATOM     16  C   UNL A   1      32.552  23.284  25.634  1.00  0.00     0.047 A 
ATOM     17  C   UNL A   1      35.116  22.899  24.625  1.00  0.00     0.082 A 
ATOM     18  C   UNL A   1      34.018  22.768  23.773  1.00  0.00     0.024 A 
ATOM     19  C   UNL A   1      34.942  23.231  25.974  1.00  0.00     0.024 A 
ATOM     20  C   UNL A   1      32.733  22.954  24.281  1.00  0.00     0.028 A 
ATOM     21  C   UNL A   1      33.656  23.449  26.476  1.00  0.00     0.028 A 
BRANCH  17  22
ATOM     22  S   UNL A   1      36.750  22.614  24.009  1.00  0.00     0.238 S 
ATOM     23  O   UNL A   1      36.834  23.143  22.662  1.00  0.00    -0.207 OA
ATOM     24  O   UNL A   1      37.138  21.274  24.349  1.00  0.00    -0.207 OA
BRANCH  22  25
ATOM     25  N   UNL A   1      37.710  23.638  24.935  1.00  0.00    -0.225 NA
ATOM     26  H   UNL A   1      37.250  23.822  25.826  1.00  0.00     0.137 HD
ATOM     27  H   UNL A   1      37.849  24.517  24.436  1.00  0.00     0.137 HD
ENDBRANCH  22  25
ENDBRANCH  17  22
ENDBRANCH  12  16
ENDBRANCH   6  11
BRANCH  10  28
ATOM     28  O   UNL A   1      31.508  29.722  24.293  1.00  0.00    -0.507 OA
ATOM     29  H   UNL A   1      31.481  29.872  23.369  1.00  0.00     0.293 HD
ENDBRANCH  10  28
ENDBRANCH   3   5
ENDBRANCH   2   3
ENDBRANCH   1   2
BRANCH   1  30
ATOM     30  C   UNL A   1      34.003  31.590  28.047  1.00  0.00     0.275 C 
BRANCH  30  31
ATOM     31  O   UNL A   1      35.356  31.283  27.704  1.00  0.00    -0.458 OA
BRANCH  31  32
ATOM     32  C   UNL A   1      36.294  31.999  28.365  1.00  0.00     0.338 C 
ATOM     33  O   UNL A   1      36.477  33.203  28.309  1.00  0.00    -0.246 OA
BRANCH  32  34
ATOM     34  C   UNL A   1      37.233  31.075  29.008  1.00  0.00     0.060 A 
ATOM     35  C   UNL A   1      38.454  31.586  29.461  1.00  0.00     0.016 A 
ATOM     36  C   UNL A   1      37.005  29.697  28.905  1.00  0.00     0.016 A 
ATOM     37  C   UNL A   1      39.504  30.709  29.659  1.00  0.00     0.010 A 
ATOM     38  C   UNL A   1      38.055  28.830  29.075  1.00  0.00     0.010 A 
ATOM     39  C   UNL A   1      39.309  29.350  29.385  1.00  0.00    -0.014 A 
BRANCH  39  40
ATOM     40  C   UNL A   1      40.404  28.424  29.588  1.00  0.00     0.031 A 
ATOM     41  C   UNL A   1      40.830  28.366  31.006  1.00  0.00     0.074 A 
ATOM     42  C   UNL A   1      40.857  27.606  28.616  1.00  0.00     0.049 A 
ATOM     43  N   UNL A   1      41.947  28.781  31.500  1.00  0.00    -0.248 NA
ATOM     44  C   UNL A   1      39.831  27.982  32.022  1.00  0.00     0.031 C 
ATOM     45  C   UNL A   1      40.315  27.406  27.271  1.00  0.00     0.029 A 
ATOM     46  N   UNL A   1      41.855  26.684  28.673  1.00  0.00    -0.354 N 
ATOM     47  C   UNL A   1      41.877  28.511  32.861  1.00  0.00     0.074 A 
ATOM     48  C   UNL A   1      40.497  28.226  33.151  1.00  0.00     0.031 C 
ATOM     49  C   UNL A   1      40.825  26.265  26.746  1.00  0.00     0.029 A 
ATOM     50  C   UNL A   1      41.820  25.728  27.662  1.00  0.00     0.049 A 
ATOM     51  H   UNL A   1      42.548  26.692  29.373  1.00  0.00     0.167 HD
ATOM     52  C   UNL A   1      43.003  28.243  33.576  1.00  0.00     0.031 A 
ATOM     53  C   UNL A   1      42.512  24.558  27.628  1.00  0.00     0.031 A 
ATOM     54  C   UNL A   1      44.187  28.656  32.866  1.00  0.00     0.049 A 
ATOM     55  C   UNL A   1      43.628  24.677  28.595  1.00  0.00     0.074 A 
ATOM     56  C   UNL A   1      44.660  29.859  32.379  1.00  0.00     0.029 A 
ATOM     57  N   UNL A   1      44.878  27.675  32.197  1.00  0.00    -0.354 N 
ATOM     58  N   UNL A   1      44.637  25.480  28.422  1.00  0.00    -0.248 NA
ATOM     59  C   UNL A   1      43.378  24.273  29.971  1.00  0.00     0.031 C 
ATOM     60  C   UNL A   1      45.258  29.538  31.126  1.00  0.00     0.029 A 
ATOM     61  C   UNL A   1      45.201  28.154  30.955  1.00  0.00     0.049 A 
ATOM     62  H   UNL A   1      45.103  26.783  32.549  1.00  0.00     0.167 HD
ATOM     63  C   UNL A   1      44.843  26.051  29.669  1.00  0.00     0.074 A 
ATOM     64  C   UNL A   1      44.099  25.205  30.603  1.00  0.00     0.031 C 
ATOM     65  C   UNL A   1      45.337  27.319  29.785  1.00  0.00     0.031 A 
BRANCH  52  66
ATOM     66  C   UNL A   1      43.053  27.188  34.655  1.00  0.00    -0.014 A 
ATOM     67  C   UNL A   1      43.042  25.837  34.267  1.00  0.00     0.009 A 
ATOM     68  C   UNL A   1      42.807  27.456  36.016  1.00  0.00     0.009 A 
ATOM     69  C   UNL A   1      42.710  24.823  35.172  1.00  0.00     0.001 A 
ATOM     70  C   UNL A   1      42.514  26.443  36.931  1.00  0.00     0.001 A 
ATOM     71  C   UNL A   1      42.436  25.128  36.501  1.00  0.00     0.000 A 
ENDBRANCH  52  66
BRANCH  53  72
ATOM     72  C   UNL A   1      42.111  23.241  27.075  1.00  0.00    -0.014 A 
ATOM     73  C   UNL A   1      42.995  22.498  26.270  1.00  0.00     0.009 A 
ATOM     74  C   UNL A   1      40.981  22.575  27.579  1.00  0.00     0.009 A 
ATOM     75  C   UNL A   1      42.777  21.132  26.022  1.00  0.00     0.001 A 
ATOM     76  C   UNL A   1      40.761  21.214  27.330  1.00  0.00     0.001 A 
ATOM     77  C   UNL A   1      41.669  20.489  26.566  1.00  0.00     0.000 A 
ENDBRANCH  53  72
BRANCH  65  78
ATOM     78  C   UNL A   1      45.870  27.987  28.541  1.00  0.00    -0.014 A 
ATOM     79  C   UNL A   1      45.065  28.700  27.632  1.00  0.00     0.009 A 
ATOM     80  C   UNL A   1      47.260  28.021  28.365  1.00  0.00     0.009 A 
ATOM     81  C   UNL A   1      45.639  29.397  26.563  1.00  0.00     0.001 A 
ATOM     82  C   UNL A   1      47.834  28.734  27.312  1.00  0.00     0.001 A 
ATOM     83  C   UNL A   1      47.025  29.417  26.407  1.00  0.00     0.000 A 
ENDBRANCH  65  78
ENDBRANCH  39  40
ENDBRANCH  32  34
ENDBRANCH  31  32
ENDBRANCH  30  31
ENDBRANCH   1  30
TORSDOF 16
ENDMDL
MODEL 3
REMARK VINA RESULT:      -9.7      4.981      8.200
REMARK SMILES NS(=O)(=O)c1ccc(-n2ccnc2-c2ccc(O)c(C(=O)OCCOC(=O)c3ccc(-c4c5nc(c(-c6ccccc6)c6ccc([nH]6)c(-c6ccccc6)c6nc(c(-c7ccccc7)c7ccc4[nH]7)C=C6)C=C5)cc3)c2)cc1
REMARK SMILES IDX 23 1 22 2 20 3 21 4 19 5 14 6 15 7 76 8 16 9 17 10 13 11
REMARK SMILES IDX 9 12 10 13 11 14 12 15 8 16 5 17 6 18 78 19 7 20 77 21 2 22
REMARK SMILES IDX 3 23 4 24 1 25 18 28 24 30 25 31 26 32 27 33 28 34 29 35
REMARK SMILES IDX 75 36 30 37 74 38 31 39 32 40 33 41 68 42 34 43 73 44 67 45
REMARK SMILES IDX 69 46 35 47 72 48 66 49 65 50 36 52 58 53 43 54 57 55 44 56
REMARK SMILES IDX 47 57 56 58 70 59 45 60 46 61 55 63 71 64 48 65 37 66 38 67
REMARK SMILES IDX 42 68 39 69 41 70 40 71 59 72 60 73 64 74 61 75 63 76 62 77
REMARK SMILES IDX 49 78 50 79 54 80 51 81 53 82 52 83
REMARK H PARENT 1 26 1 27 18 29 69 51 47 62
REMARK Flexibility Score: inf
ROOT
ATOM      1  C   UNL A   1      31.981  30.596  26.873  1.00  0.00     0.275 C 
ENDROOT
BRANCH   1   2
ATOM      2  O   UNL A   1      32.203  30.227  25.501  1.00  0.00    -0.458 OA
BRANCH   2   3
ATOM      3  C   UNL A   1      32.775  29.014  25.297  1.00  0.00     0.342 C 
ATOM      4  O   UNL A   1      33.939  28.710  25.524  1.00  0.00    -0.246 OA
BRANCH   3   5
ATOM      5  C   UNL A   1      31.774  28.006  24.870  1.00  0.00     0.102 A 
ATOM      6  C   UNL A   1      30.630  25.881  25.194  1.00  0.00     0.019 A 
ATOM      7  C   UNL A   1      29.870  26.117  24.045  1.00  0.00     0.016 A 
ATOM      8  C   UNL A   1      31.620  26.805  25.568  1.00  0.00     0.031 A 
ATOM      9  C   UNL A   1      30.041  27.299  23.322  1.00  0.00     0.048 A 
ATOM     10  C   UNL A   1      30.972  28.248  23.746  1.00  0.00     0.130 A 
BRANCH   6  11
ATOM     11  C   UNL A   1      30.347  24.726  26.052  1.00  0.00     0.144 A 
ATOM     12  N   UNL A   1      31.170  23.603  26.139  1.00  0.00    -0.300 N 
ATOM     13  C   UNL A   1      30.450  22.640  26.806  1.00  0.00     0.113 A 
ATOM     14  C   UNL A   1      29.307  23.269  27.234  1.00  0.00     0.132 A 
ATOM     15  N   UNL A   1      29.257  24.558  26.778  1.00  0.00    -0.236 NA
BRANCH  12  16
ATOM     16  C   UNL A   1      32.491  23.456  25.637  1.00  0.00     0.047 A 
ATOM     17  C   UNL A   1      35.080  23.036  24.710  1.00  0.00     0.082 A 
ATOM     18  C   UNL A   1      33.998  22.604  23.940  1.00  0.00     0.024 A 
ATOM     19  C   UNL A   1      34.876  23.685  25.934  1.00  0.00     0.024 A 
ATOM     20  C   UNL A   1      32.701  22.808  24.410  1.00  0.00     0.028 A 
ATOM     21  C   UNL A   1      33.576  23.918  26.389  1.00  0.00     0.028 A 
BRANCH  17  22
ATOM     22  S   UNL A   1      36.733  22.736  24.155  1.00  0.00     0.238 S 
ATOM     23  O   UNL A   1      37.015  21.320  24.289  1.00  0.00    -0.207 OA
ATOM     24  O   UNL A   1      37.587  23.758  24.693  1.00  0.00    -0.207 OA
BRANCH  22  25
ATOM     25  N   UNL A   1      36.652  23.005  22.498  1.00  0.00    -0.225 NA
ATOM     26  H   UNL A   1      37.526  22.709  22.063  1.00  0.00     0.137 HD
ATOM     27  H   UNL A   1      36.504  23.998  22.321  1.00  0.00     0.137 HD
ENDBRANCH  22  25
ENDBRANCH  17  22
ENDBRANCH  12  16
ENDBRANCH   6  11
BRANCH  10  28
ATOM     28  O   UNL A   1      31.047  29.397  23.003  1.00  0.00    -0.507 OA
ATOM     29  H   UNL A   1      31.841  29.612  22.555  1.00  0.00     0.293 HD
ENDBRANCH  10  28
ENDBRANCH   3   5
ENDBRANCH   2   3
ENDBRANCH   1   2
BRANCH   1  30
ATOM     30  C   UNL A   1      32.993  31.639  27.330  1.00  0.00     0.275 C 
BRANCH  30  31
ATOM     31  O   UNL A   1      34.192  31.033  27.816  1.00  0.00    -0.458 OA
BRANCH  31  32
ATOM     32  C   UNL A   1      35.218  31.885  28.038  1.00  0.00     0.338 C 
ATOM     33  O   UNL A   1      35.327  33.030  27.633  1.00  0.00    -0.246 OA
BRANCH  32  34
ATOM     34  C   UNL A   1      36.321  31.150  28.665  1.00  0.00     0.060 A 
ATOM     35  C   UNL A   1      37.406  31.883  29.156  1.00  0.00     0.016 A 
ATOM     36  C   UNL A   1      36.381  29.759  28.511  1.00  0.00     0.016 A 
ATOM     37  C   UNL A   1      38.612  31.233  29.341  1.00  0.00     0.010 A 
ATOM     38  C   UNL A   1      37.586  29.120  28.670  1.00  0.00     0.010 A 
ATOM     39  C   UNL A   1      38.703  29.874  29.018  1.00  0.00    -0.014 A 
BRANCH  39  40
ATOM     40  C   UNL A   1      39.963  29.184  29.208  1.00  0.00     0.031 A 
ATOM     41  C   UNL A   1      40.239  28.913  30.638  1.00  0.00     0.074 A 
ATOM     42  C   UNL A   1      40.700  28.715  28.181  1.00  0.00     0.049 A 
ATOM     43  N   UNL A   1      41.165  29.442  31.365  1.00  0.00    -0.248 NA
ATOM     44  C   UNL A   1      39.263  28.111  31.401  1.00  0.00     0.031 C 
ATOM     45  C   UNL A   1      40.365  28.700  26.755  1.00  0.00     0.029 A 
ATOM     46  N   UNL A   1      41.880  28.040  28.216  1.00  0.00    -0.354 N 
ATOM     47  C   UNL A   1      41.021  28.873  32.625  1.00  0.00     0.074 A 
ATOM     48  C   UNL A   1      39.729  28.241  32.643  1.00  0.00     0.031 C 
ATOM     49  C   UNL A   1      41.189  27.839  26.111  1.00  0.00     0.029 A 
ATOM     50  C   UNL A   1      42.183  27.343  27.050  1.00  0.00     0.049 A 
ATOM     51  H   UNL A   1      42.473  28.045  29.001  1.00  0.00     0.167 HD
ATOM     52  C   UNL A   1      42.097  28.706  33.439  1.00  0.00     0.031 A 
ATOM     53  C   UNL A   1      43.138  26.387  26.903  1.00  0.00     0.031 A 
ATOM     54  C   UNL A   1      43.213  29.510  33.008  1.00  0.00     0.049 A 
ATOM     55  C   UNL A   1      44.085  26.530  28.034  1.00  0.00     0.074 A 
ATOM     56  C   UNL A   1      43.428  30.863  32.833  1.00  0.00     0.029 A 
ATOM     57  N   UNL A   1      44.188  28.870  32.281  1.00  0.00    -0.354 N 
ATOM     58  N   UNL A   1      44.881  27.550  28.169  1.00  0.00    -0.248 NA
ATOM     59  C   UNL A   1      43.799  25.792  29.255  1.00  0.00     0.031 C 
ATOM     60  C   UNL A   1      44.213  30.959  31.648  1.00  0.00     0.029 A 
ATOM     61  C   UNL A   1      44.512  29.666  31.214  1.00  0.00     0.049 A 
ATOM     62  H   UNL A   1      44.585  27.994  32.489  1.00  0.00     0.167 HD
ATOM     63  C   UNL A   1      44.811  27.867  29.518  1.00  0.00     0.074 A 
ATOM     64  C   UNL A   1      44.202  26.697  30.152  1.00  0.00     0.031 C 
ATOM     65  C   UNL A   1      44.968  29.155  29.943  1.00  0.00     0.031 A 
BRANCH  52  66
ATOM     66  C   UNL A   1      42.289  27.478  34.297  1.00  0.00    -0.014 A 
ATOM     67  C   UNL A   1      41.928  27.551  35.654  1.00  0.00     0.009 A 
ATOM     68  C   UNL A   1      43.077  26.376  33.912  1.00  0.00     0.009 A 
ATOM     69  C   UNL A   1      42.409  26.623  36.585  1.00  0.00     0.001 A 
ATOM     70  C   UNL A   1      43.526  25.426  34.831  1.00  0.00     0.001 A 
ATOM     71  C   UNL A   1      43.216  25.568  36.175  1.00  0.00     0.000 A 
ENDBRANCH  52  66
BRANCH  53  72
ATOM     72  C   UNL A   1      43.129  25.167  26.058  1.00  0.00    -0.014 A 
ATOM     73  C   UNL A   1      44.157  24.926  25.127  1.00  0.00     0.009 A 
ATOM     74  C   UNL A   1      42.279  24.093  26.373  1.00  0.00     0.009 A 
ATOM     75  C   UNL A   1      44.351  23.649  24.574  1.00  0.00     0.001 A 
ATOM     76  C   UNL A   1      42.470  22.820  25.820  1.00  0.00     0.001 A 
ATOM     77  C   UNL A   1      43.517  22.595  24.933  1.00  0.00     0.000 A 
ENDBRANCH  53  72
BRANCH  65  78
ATOM     78  C   UNL A   1      45.450  30.177  28.941  1.00  0.00    -0.014 A 
ATOM     79  C   UNL A   1      46.808  30.410  28.656  1.00  0.00     0.009 A 
ATOM     80  C   UNL A   1      44.486  30.818  28.151  1.00  0.00     0.009 A 
ATOM     81  C   UNL A   1      47.184  31.285  27.631  1.00  0.00     0.001 A 
ATOM     82  C   UNL A   1      44.860  31.673  27.115  1.00  0.00     0.001 A 
ATOM     83  C   UNL A   1      46.208  31.913  26.858  1.00  0.00     0.000 A 
ENDBRANCH  65  78
ENDBRANCH  39  40
ENDBRANCH  32  34
ENDBRANCH  31  32
ENDBRANCH  30  31
ENDBRANCH   1  30
TORSDOF 16
ENDMDL
