MODEL 1
REMARK VINA RESULT:      -9.3      0.000      0.000
REMARK SMILES O=C(CCCC[C@H](O)c1ccc(Cl)s1)OCCOC(=O)c1ccc(-c2c3nc(c(-c4ccccc4)c4ccc([nH]4)c(-c4ccccc4)c4nc(c(-c5ccccc5)c5ccc2[nH]5)C=C4)C=C3)cc1
REMARK SMILES IDX 15 1 2 2 1 3 3 4 4 5 5 6 6 7 7 8 9 9 10 10 14 11 11 12 12 13
REMARK SMILES IDX 13 14 8 15 16 17 17 18 18 19 19 20 20 21 21 22 22 23 68 24
REMARK SMILES IDX 23 25 67 26 24 27 25 28 26 29 61 30 27 31 66 32 60 33 62 34
REMARK SMILES IDX 28 35 65 36 59 37 58 38 29 40 51 41 36 42 50 43 37 44 40 45
REMARK SMILES IDX 49 46 63 47 38 48 39 49 48 51 64 52 41 53 30 54 31 55 35 56
REMARK SMILES IDX 32 57 34 58 33 59 52 60 53 61 57 62 54 63 56 64 55 65 42 66
REMARK SMILES IDX 43 67 47 68 44 69 46 70 45 71
REMARK H PARENT 8 16 62 39 40 50
REMARK Flexibility Score: inf
ROOT
ATOM      1  O   UNL A   1      46.334  21.183  25.753  1.00  0.00    -0.462 OA
ENDROOT
BRANCH   1   2
ATOM      2  C   UNL A   1      46.001  20.200  24.874  1.00  0.00     0.305 C 
ATOM      3  O   UNL A   1      46.854  19.588  24.242  1.00  0.00    -0.252 OA
BRANCH   2   4
ATOM      4  C   UNL A   1      44.522  20.060  24.584  1.00  0.00     0.123 C 
BRANCH   4   5
ATOM      5  C   UNL A   1      43.857  18.842  25.218  1.00  0.00     0.012 C 
BRANCH   5   6
ATOM      6  C   UNL A   1      42.895  19.132  26.378  1.00  0.00     0.004 C 
BRANCH   6   7
ATOM      7  C   UNL A   1      41.898  20.272  26.119  1.00  0.00     0.037 C 
BRANCH   7   8
ATOM      8  C   UNL A   1      40.439  19.983  26.482  1.00  0.00     0.154 C 
BRANCH   8   9
ATOM      9  C   UNL A   1      39.457  21.060  26.128  1.00  0.00     0.035 A 
ATOM     10  C   UNL A   1      39.416  22.394  26.500  1.00  0.00     0.020 A 
ATOM     11  S   UNL A   1      38.139  20.671  25.087  1.00  0.00    -0.126 S 
ATOM     12  C   UNL A   1      38.286  23.078  25.958  1.00  0.00     0.033 A 
ATOM     13  C   UNL A   1      37.535  22.245  25.170  1.00  0.00     0.093 A 
ATOM     14  Cl  UNL A   1      36.106  22.654  24.311  1.00  0.00    -0.072 Cl
ENDBRANCH   8   9
BRANCH   8  15
ATOM     15  O   UNL A   1      40.025  18.827  25.752  1.00  0.00    -0.388 OA
ATOM     16  H   UNL A   1      40.211  18.958  24.809  1.00  0.00     0.211 HD
ENDBRANCH   8  15
ENDBRANCH   7   8
ENDBRANCH   6   7
ENDBRANCH   5   6
ENDBRANCH   4   5
ENDBRANCH   2   4
ENDBRANCH   1   2
BRANCH   1  17
ATOM     17  C   UNL A   1      45.313  22.121  26.131  1.00  0.00     0.274 C 
BRANCH  17  18
ATOM     18  C   UNL A   1      45.853  23.542  26.334  1.00  0.00     0.275 C 
BRANCH  18  19
ATOM     19  O   UNL A   1      45.391  24.431  25.305  1.00  0.00    -0.458 OA
BRANCH  19  20
ATOM     20  C   UNL A   1      44.058  24.336  25.046  1.00  0.00     0.338 C 
ATOM     21  O   UNL A   1      43.522  23.589  24.250  1.00  0.00    -0.246 OA
BRANCH  20  22
ATOM     22  C   UNL A   1      43.300  25.167  26.008  1.00  0.00     0.060 A 
ATOM     23  C   UNL A   1      43.741  26.481  26.208  1.00  0.00     0.016 A 
ATOM     24  C   UNL A   1      42.194  24.682  26.713  1.00  0.00     0.016 A 
ATOM     25  C   UNL A   1      43.107  27.300  27.143  1.00  0.00     0.010 A 
ATOM     26  C   UNL A   1      41.562  25.501  27.656  1.00  0.00     0.010 A 
ATOM     27  C   UNL A   1      42.036  26.801  27.898  1.00  0.00    -0.014 A 
BRANCH  27  28
ATOM     28  C   UNL A   1      41.533  27.590  29.047  1.00  0.00     0.031 A 
ATOM     29  C   UNL A   1      42.263  27.504  30.360  1.00  0.00     0.074 A 
ATOM     30  C   UNL A   1      40.474  28.409  28.923  1.00  0.00     0.049 A 
ATOM     31  N   UNL A   1      42.040  28.149  31.476  1.00  0.00    -0.248 NA
ATOM     32  C   UNL A   1      43.399  26.568  30.419  1.00  0.00     0.031 C 
ATOM     33  C   UNL A   1      39.697  28.616  27.704  1.00  0.00     0.029 A 
ATOM     34  N   UNL A   1      39.875  29.229  29.848  1.00  0.00    -0.354 N 
ATOM     35  C   UNL A   1      43.016  27.713  32.363  1.00  0.00     0.074 A 
ATOM     36  C   UNL A   1      43.806  26.717  31.671  1.00  0.00     0.031 C 
ATOM     37  C   UNL A   1      38.722  29.509  27.954  1.00  0.00     0.029 A 
ATOM     38  C   UNL A   1      38.800  29.924  29.354  1.00  0.00     0.049 A 
ATOM     39  H   UNL A   1      40.188  29.310  30.779  1.00  0.00     0.167 HD
ATOM     40  C   UNL A   1      43.248  28.112  33.635  1.00  0.00     0.031 A 
ATOM     41  C   UNL A   1      37.972  30.795  29.963  1.00  0.00     0.031 A 
ATOM     42  C   UNL A   1      42.457  29.078  34.344  1.00  0.00     0.049 A 
ATOM     43  C   UNL A   1      38.193  31.152  31.409  1.00  0.00     0.074 A 
ATOM     44  C   UNL A   1      42.622  29.549  35.636  1.00  0.00     0.029 A 
ATOM     45  N   UNL A   1      41.341  29.713  33.825  1.00  0.00    -0.354 N 
ATOM     46  N   UNL A   1      39.146  30.763  32.221  1.00  0.00    -0.248 NA
ATOM     47  C   UNL A   1      37.225  32.078  32.018  1.00  0.00     0.031 C 
ATOM     48  C   UNL A   1      41.576  30.435  35.914  1.00  0.00     0.029 A 
ATOM     49  C   UNL A   1      40.790  30.551  34.780  1.00  0.00     0.049 A 
ATOM     50  H   UNL A   1      40.992  29.588  32.913  1.00  0.00     0.167 HD
ATOM     51  C   UNL A   1      38.911  31.422  33.423  1.00  0.00     0.074 A 
ATOM     52  C   UNL A   1      37.730  32.237  33.233  1.00  0.00     0.031 C 
ATOM     53  C   UNL A   1      39.616  31.359  34.580  1.00  0.00     0.031 A 
BRANCH  40  54
ATOM     54  C   UNL A   1      44.407  27.477  34.348  1.00  0.00    -0.014 A 
ATOM     55  C   UNL A   1      45.699  28.014  34.243  1.00  0.00     0.009 A 
ATOM     56  C   UNL A   1      44.199  26.344  35.148  1.00  0.00     0.009 A 
ATOM     57  C   UNL A   1      46.769  27.408  34.903  1.00  0.00     0.001 A 
ATOM     58  C   UNL A   1      45.268  25.753  35.824  1.00  0.00     0.001 A 
ATOM     59  C   UNL A   1      46.553  26.281  35.694  1.00  0.00     0.000 A 
ENDBRANCH  40  54
BRANCH  41  60
ATOM     60  C   UNL A   1      36.843  31.403  29.212  1.00  0.00    -0.014 A 
ATOM     61  C   UNL A   1      35.690  30.655  28.929  1.00  0.00     0.009 A 
ATOM     62  C   UNL A   1      36.932  32.722  28.742  1.00  0.00     0.009 A 
ATOM     63  C   UNL A   1      34.659  31.208  28.167  1.00  0.00     0.001 A 
ATOM     64  C   UNL A   1      35.889  33.279  28.000  1.00  0.00     0.001 A 
ATOM     65  C   UNL A   1      34.759  32.519  27.705  1.00  0.00     0.000 A 
ENDBRANCH  41  60
BRANCH  53  66
ATOM     66  C   UNL A   1      39.152  32.219  35.720  1.00  0.00    -0.014 A 
ATOM     67  C   UNL A   1      39.600  33.540  35.866  1.00  0.00     0.009 A 
ATOM     68  C   UNL A   1      38.210  31.714  36.631  1.00  0.00     0.009 A 
ATOM     69  C   UNL A   1      39.136  34.330  36.919  1.00  0.00     0.001 A 
ATOM     70  C   UNL A   1      37.729  32.515  37.669  1.00  0.00     0.001 A 
ATOM     71  C   UNL A   1      38.198  33.819  37.816  1.00  0.00     0.000 A 
ENDBRANCH  53  66
ENDBRANCH  27  28
ENDBRANCH  20  22
ENDBRANCH  19  20
ENDBRANCH  18  19
ENDBRANCH  17  18
ENDBRANCH   1  17
TORSDOF 17
ENDMDL
MODEL 2
REMARK VINA RESULT:      -9.2      5.273     10.342
REMARK SMILES O=C(CCCC[C@H](O)c1ccc(Cl)s1)OCCOC(=O)c1ccc(-c2c3nc(c(-c4ccccc4)c4ccc([nH]4)c(-c4ccccc4)c4nc(c(-c5ccccc5)c5ccc2[nH]5)C=C4)C=C3)cc1
REMARK SMILES IDX 15 1 2 2 1 3 3 4 4 5 5 6 6 7 7 8 9 9 10 10 14 11 11 12 12 13
REMARK SMILES IDX 13 14 8 15 16 17 17 18 18 19 19 20 20 21 21 22 22 23 68 24
REMARK SMILES IDX 23 25 67 26 24 27 25 28 26 29 61 30 27 31 66 32 60 33 62 34
REMARK SMILES IDX 28 35 65 36 59 37 58 38 29 40 51 41 36 42 50 43 37 44 40 45
REMARK SMILES IDX 49 46 63 47 38 48 39 49 48 51 64 52 41 53 30 54 31 55 35 56
REMARK SMILES IDX 32 57 34 58 33 59 52 60 53 61 57 62 54 63 56 64 55 65 42 66
REMARK SMILES IDX 43 67 47 68 44 69 46 70 45 71
REMARK H PARENT 8 16 62 39 40 50
REMARK Flexibility Score: inf
ROOT
ATOM      1  O   UNL A   1      31.779  29.997  27.294  1.00  0.00    -0.462 OA
ENDROOT
BRANCH   1   2
ATOM      2  C   UNL A   1      32.556  28.882  27.249  1.00  0.00     0.305 C 
ATOM      3  O   UNL A   1      33.772  28.942  27.386  1.00  0.00    -0.252 OA
BRANCH   2   4
ATOM      4  C   UNL A   1      31.851  27.614  26.817  1.00  0.00     0.123 C 
BRANCH   4   5
ATOM      5  C   UNL A   1      32.290  27.065  25.464  1.00  0.00     0.012 C 
BRANCH   5   6
ATOM      6  C   UNL A   1      31.272  27.200  24.324  1.00  0.00     0.004 C 
BRANCH   6   7
ATOM      7  C   UNL A   1      30.732  28.623  24.108  1.00  0.00     0.037 C 
BRANCH   7   8
ATOM      8  C   UNL A   1      29.503  28.743  23.201  1.00  0.00     0.154 C 
BRANCH   8   9
ATOM      9  C   UNL A   1      29.054  30.142  22.901  1.00  0.00     0.035 A 
ATOM     10  C   UNL A   1      29.017  31.266  23.711  1.00  0.00     0.020 A 
ATOM     11  S   UNL A   1      28.485  30.508  21.315  1.00  0.00    -0.126 S 
ATOM     12  C   UNL A   1      28.489  32.408  23.037  1.00  0.00     0.033 A 
ATOM     13  C   UNL A   1      28.181  32.115  21.735  1.00  0.00     0.093 A 
ATOM     14  Cl  UNL A   1      27.541  33.193  20.562  1.00  0.00    -0.072 Cl
ENDBRANCH   8   9
BRANCH   8  15
ATOM     15  O   UNL A   1      29.832  28.164  21.938  1.00  0.00    -0.388 OA
ATOM     16  H   UNL A   1      30.786  28.248  21.782  1.00  0.00     0.211 HD
ENDBRANCH   8  15
ENDBRANCH   7   8
ENDBRANCH   6   7
ENDBRANCH   5   6
ENDBRANCH   4   5
ENDBRANCH   2   4
ENDBRANCH   1   2
BRANCH   1  17
ATOM     17  C   UNL A   1      32.101  31.079  26.404  1.00  0.00     0.274 C 
BRANCH  17  18
ATOM     18  C   UNL A   1      31.755  32.455  26.986  1.00  0.00     0.275 C 
BRANCH  18  19
ATOM     19  O   UNL A   1      32.859  33.366  26.871  1.00  0.00    -0.458 OA
BRANCH  19  20
ATOM     20  C   UNL A   1      33.332  33.820  28.064  1.00  0.00     0.338 C 
ATOM     21  O   UNL A   1      32.776  34.593  28.821  1.00  0.00    -0.246 OA
BRANCH  20  22
ATOM     22  C   UNL A   1      34.575  33.100  28.419  1.00  0.00     0.060 A 
ATOM     23  C   UNL A   1      34.438  31.842  29.020  1.00  0.00     0.016 A 
ATOM     24  C   UNL A   1      35.846  33.634  28.188  1.00  0.00     0.016 A 
ATOM     25  C   UNL A   1      35.567  31.134  29.431  1.00  0.00     0.010 A 
ATOM     26  C   UNL A   1      36.979  32.927  28.606  1.00  0.00     0.010 A 
ATOM     27  C   UNL A   1      36.843  31.690  29.259  1.00  0.00    -0.014 A 
BRANCH  27  28
ATOM     28  C   UNL A   1      38.007  31.045  29.912  1.00  0.00     0.031 A 
ATOM     29  C   UNL A   1      38.286  31.351  31.359  1.00  0.00     0.074 A 
ATOM     30  C   UNL A   1      38.780  30.165  29.253  1.00  0.00     0.049 A 
ATOM     31  N   UNL A   1      39.206  30.858  32.147  1.00  0.00    -0.248 NA
ATOM     32  C   UNL A   1      37.406  32.341  32.002  1.00  0.00     0.031 C 
ATOM     33  C   UNL A   1      38.602  29.751  27.864  1.00  0.00     0.029 A 
ATOM     34  N   UNL A   1      39.874  29.453  29.681  1.00  0.00    -0.354 N 
ATOM     35  C   UNL A   1      39.006  31.462  33.382  1.00  0.00     0.074 A 
ATOM     36  C   UNL A   1      37.905  32.390  33.228  1.00  0.00     0.031 C 
ATOM     37  C   UNL A   1      39.556  28.853  27.551  1.00  0.00     0.029 A 
ATOM     38  C   UNL A   1      40.416  28.643  28.714  1.00  0.00     0.049 A 
ATOM     39  H   UNL A   1      40.236  29.519  30.594  1.00  0.00     0.167 HD
ATOM     40  C   UNL A   1      39.665  31.257  34.546  1.00  0.00     0.031 A 
ATOM     41  C   UNL A   1      41.486  27.825  28.764  1.00  0.00     0.031 A 
ATOM     42  C   UNL A   1      40.776  30.361  34.707  1.00  0.00     0.049 A 
ATOM     43  C   UNL A   1      42.263  27.685  30.045  1.00  0.00     0.074 A 
ATOM     44  C   UNL A   1      41.502  30.084  35.852  1.00  0.00     0.029 A 
ATOM     45  N   UNL A   1      41.330  29.604  33.688  1.00  0.00    -0.354 N 
ATOM     46  N   UNL A   1      42.035  28.231  31.215  1.00  0.00    -0.248 NA
ATOM     47  C   UNL A   1      43.442  26.806  30.013  1.00  0.00     0.031 C 
ATOM     48  C   UNL A   1      42.527  29.194  35.514  1.00  0.00     0.029 A 
ATOM     49  C   UNL A   1      42.408  28.882  34.171  1.00  0.00     0.049 A 
ATOM     50  H   UNL A   1      41.005  29.583  32.759  1.00  0.00     0.167 HD
ATOM     51  C   UNL A   1      43.019  27.736  32.063  1.00  0.00     0.074 A 
ATOM     52  C   UNL A   1      43.844  26.844  31.275  1.00  0.00     0.031 C 
ATOM     53  C   UNL A   1      43.219  27.996  33.379  1.00  0.00     0.031 A 
BRANCH  40  54
ATOM     54  C   UNL A   1      39.203  32.043  35.738  1.00  0.00    -0.014 A 
ATOM     55  C   UNL A   1      38.222  31.531  36.602  1.00  0.00     0.009 A 
ATOM     56  C   UNL A   1      39.769  33.296  36.012  1.00  0.00     0.009 A 
ATOM     57  C   UNL A   1      37.794  32.276  37.702  1.00  0.00     0.001 A 
ATOM     58  C   UNL A   1      39.354  34.029  37.124  1.00  0.00     0.001 A 
ATOM     59  C   UNL A   1      38.362  33.522  37.964  1.00  0.00     0.000 A 
ENDBRANCH  40  54
BRANCH  41  60
ATOM     60  C   UNL A   1      41.899  27.063  27.557  1.00  0.00    -0.014 A 
ATOM     61  C   UNL A   1      42.764  27.636  26.613  1.00  0.00     0.009 A 
ATOM     62  C   UNL A   1      41.398  25.773  27.327  1.00  0.00     0.009 A 
ATOM     63  C   UNL A   1      43.099  26.941  25.449  1.00  0.00     0.001 A 
ATOM     64  C   UNL A   1      41.753  25.072  26.173  1.00  0.00     0.001 A 
ATOM     65  C   UNL A   1      42.594  25.660  25.231  1.00  0.00     0.000 A 
ENDBRANCH  41  60
BRANCH  53  66
ATOM     66  C   UNL A   1      44.351  27.282  34.061  1.00  0.00    -0.014 A 
ATOM     67  C   UNL A   1      44.192  25.984  34.569  1.00  0.00     0.009 A 
ATOM     68  C   UNL A   1      45.609  27.898  34.147  1.00  0.00     0.009 A 
ATOM     69  C   UNL A   1      45.265  25.328  35.176  1.00  0.00     0.001 A 
ATOM     70  C   UNL A   1      46.687  27.231  34.733  1.00  0.00     0.001 A 
ATOM     71  C   UNL A   1      46.511  25.950  35.253  1.00  0.00     0.000 A 
ENDBRANCH  53  66
ENDBRANCH  27  28
ENDBRANCH  20  22
ENDBRANCH  19  20
ENDBRANCH  18  19
ENDBRANCH  17  18
ENDBRANCH   1  17
TORSDOF 17
ENDMDL
MODEL 3
REMARK VINA RESULT:      -9.2      5.439     11.527
REMARK SMILES O=C(CCCC[C@H](O)c1ccc(Cl)s1)OCCOC(=O)c1ccc(-c2c3nc(c(-c4ccccc4)c4ccc([nH]4)c(-c4ccccc4)c4nc(c(-c5ccccc5)c5ccc2[nH]5)C=C4)C=C3)cc1
REMARK SMILES IDX 15 1 2 2 1 3 3 4 4 5 5 6 6 7 7 8 9 9 10 10 14 11 11 12 12 13
REMARK SMILES IDX 13 14 8 15 16 17 17 18 18 19 19 20 20 21 21 22 22 23 68 24
REMARK SMILES IDX 23 25 67 26 24 27 25 28 26 29 61 30 27 31 66 32 60 33 62 34
REMARK SMILES IDX 28 35 65 36 59 37 58 38 29 40 51 41 36 42 50 43 37 44 40 45
REMARK SMILES IDX 49 46 63 47 38 48 39 49 48 51 64 52 41 53 30 54 31 55 35 56
REMARK SMILES IDX 32 57 34 58 33 59 52 60 53 61 57 62 54 63 56 64 55 65 42 66
REMARK SMILES IDX 43 67 47 68 44 69 46 70 45 71
REMARK H PARENT 8 16 62 39 40 50
REMARK Flexibility Score: inf
ROOT
ATOM      1  O   UNL A   1      33.629  35.676  28.636  1.00  0.00    -0.462 OA
ENDROOT
BRANCH   1   2
ATOM      2  C   UNL A   1      33.197  36.644  29.488  1.00  0.00     0.305 C 
ATOM      3  O   UNL A   1      33.283  37.833  29.206  1.00  0.00    -0.252 OA
BRANCH   2   4
ATOM      4  C   UNL A   1      32.801  36.165  30.869  1.00  0.00     0.123 C 
BRANCH   4   5
ATOM      5  C   UNL A   1      33.562  36.819  32.017  1.00  0.00     0.012 C 
BRANCH   5   6
ATOM      6  C   UNL A   1      33.994  35.884  33.154  1.00  0.00     0.004 C 
BRANCH   6   7
ATOM      7  C   UNL A   1      33.847  34.386  32.846  1.00  0.00     0.037 C 
BRANCH   7   8
ATOM      8  C   UNL A   1      35.016  33.494  33.277  1.00  0.00     0.154 C 
BRANCH   8   9
ATOM      9  C   UNL A   1      36.351  33.851  32.696  1.00  0.00     0.035 A 
ATOM     10  C   UNL A   1      37.466  34.419  33.291  1.00  0.00     0.020 A 
ATOM     11  S   UNL A   1      36.642  33.527  31.027  1.00  0.00    -0.126 S 
ATOM     12  C   UNL A   1      38.537  34.618  32.368  1.00  0.00     0.033 A 
ATOM     13  C   UNL A   1      38.204  34.161  31.120  1.00  0.00     0.093 A 
ATOM     14  Cl  UNL A   1      39.196  34.185  29.718  1.00  0.00    -0.072 Cl
ENDBRANCH   8   9
BRANCH   8  15
ATOM     15  O   UNL A   1      35.164  33.618  34.692  1.00  0.00    -0.388 OA
ATOM     16  H   UNL A   1      34.470  34.199  35.040  1.00  0.00     0.211 HD
ENDBRANCH   8  15
ENDBRANCH   7   8
ENDBRANCH   6   7
ENDBRANCH   5   6
ENDBRANCH   4   5
ENDBRANCH   2   4
ENDBRANCH   1   2
BRANCH   1  17
ATOM     17  C   UNL A   1      33.647  34.320  29.111  1.00  0.00     0.274 C 
BRANCH  17  18
ATOM     18  C   UNL A   1      33.605  33.288  27.978  1.00  0.00     0.275 C 
BRANCH  18  19
ATOM     19  O   UNL A   1      34.791  32.479  27.960  1.00  0.00    -0.458 OA
BRANCH  19  20
ATOM     20  C   UNL A   1      34.549  31.139  27.963  1.00  0.00     0.338 C 
ATOM     21  O   UNL A   1      33.506  30.586  27.674  1.00  0.00    -0.246 OA
BRANCH  20  22
ATOM     22  C   UNL A   1      35.809  30.403  28.209  1.00  0.00     0.060 A 
ATOM     23  C   UNL A   1      35.967  29.804  29.465  1.00  0.00     0.016 A 
ATOM     24  C   UNL A   1      36.823  30.306  27.252  1.00  0.00     0.016 A 
ATOM     25  C   UNL A   1      37.154  29.144  29.784  1.00  0.00     0.010 A 
ATOM     26  C   UNL A   1      38.017  29.649  27.573  1.00  0.00     0.010 A 
ATOM     27  C   UNL A   1      38.200  29.094  28.851  1.00  0.00    -0.014 A 
BRANCH  27  28
ATOM     28  C   UNL A   1      39.531  28.608  29.283  1.00  0.00     0.031 A 
ATOM     29  C   UNL A   1      40.321  29.432  30.263  1.00  0.00     0.074 A 
ATOM     30  C   UNL A   1      40.019  27.430  28.853  1.00  0.00     0.049 A 
ATOM     31  N   UNL A   1      41.474  29.173  30.824  1.00  0.00    -0.248 NA
ATOM     32  C   UNL A   1      39.728  30.718  30.667  1.00  0.00     0.031 C 
ATOM     33  C   UNL A   1      39.346  26.516  27.934  1.00  0.00     0.029 A 
ATOM     34  N   UNL A   1      41.203  26.801  29.149  1.00  0.00    -0.354 N 
ATOM     35  C   UNL A   1      41.736  30.251  31.659  1.00  0.00     0.074 A 
ATOM     36  C   UNL A   1      40.643  31.188  31.500  1.00  0.00     0.031 C 
ATOM     37  C   UNL A   1      40.129  25.438  27.741  1.00  0.00     0.029 A 
ATOM     38  C   UNL A   1      41.361  25.596  28.512  1.00  0.00     0.049 A 
ATOM     39  H   UNL A   1      41.876  27.180  29.761  1.00  0.00     0.167 HD
ATOM     40  C   UNL A   1      42.781  30.444  32.497  1.00  0.00     0.031 A 
ATOM     41  C   UNL A   1      42.384  24.721  28.546  1.00  0.00     0.031 A 
ATOM     42  C   UNL A   1      43.885  29.538  32.645  1.00  0.00     0.049 A 
ATOM     43  C   UNL A   1      43.582  25.003  29.414  1.00  0.00     0.074 A 
ATOM     44  C   UNL A   1      44.987  29.649  33.475  1.00  0.00     0.029 A 
ATOM     45  N   UNL A   1      44.034  28.357  31.936  1.00  0.00    -0.354 N 
ATOM     46  N   UNL A   1      43.795  26.006  30.230  1.00  0.00    -0.248 NA
ATOM     47  C   UNL A   1      44.678  24.022  29.369  1.00  0.00     0.031 C 
ATOM     48  C   UNL A   1      45.827  28.556  33.233  1.00  0.00     0.029 A 
ATOM     49  C   UNL A   1      45.224  27.744  32.288  1.00  0.00     0.049 A 
ATOM     50  H   UNL A   1      43.389  28.007  31.279  1.00  0.00     0.167 HD
ATOM     51  C   UNL A   1      45.030  25.760  30.820  1.00  0.00     0.074 A 
ATOM     52  C   UNL A   1      45.517  24.512  30.271  1.00  0.00     0.031 C 
ATOM     53  C   UNL A   1      45.698  26.502  31.737  1.00  0.00     0.031 A 
BRANCH  40  54
ATOM     54  C   UNL A   1      42.781  31.708  33.307  1.00  0.00    -0.014 A 
ATOM     55  C   UNL A   1      43.376  32.879  32.813  1.00  0.00     0.009 A 
ATOM     56  C   UNL A   1      42.164  31.732  34.566  1.00  0.00     0.009 A 
ATOM     57  C   UNL A   1      43.379  34.045  33.581  1.00  0.00     0.001 A 
ATOM     58  C   UNL A   1      42.150  32.905  35.321  1.00  0.00     0.001 A 
ATOM     59  C   UNL A   1      42.764  34.058  34.832  1.00  0.00     0.000 A 
ENDBRANCH  40  54
BRANCH  41  60
ATOM     60  C   UNL A   1      42.334  23.479  27.731  1.00  0.00    -0.014 A 
ATOM     61  C   UNL A   1      42.764  23.485  26.395  1.00  0.00     0.009 A 
ATOM     62  C   UNL A   1      41.817  22.294  28.275  1.00  0.00     0.009 A 
ATOM     63  C   UNL A   1      42.654  22.334  25.613  1.00  0.00     0.001 A 
ATOM     64  C   UNL A   1      41.730  21.138  27.497  1.00  0.00     0.001 A 
ATOM     65  C   UNL A   1      42.139  21.162  26.165  1.00  0.00     0.000 A 
ENDBRANCH  41  60
BRANCH  53  66
ATOM     66  C   UNL A   1      47.011  25.968  32.234  1.00  0.00    -0.014 A 
ATOM     67  C   UNL A   1      48.215  26.279  31.584  1.00  0.00     0.009 A 
ATOM     68  C   UNL A   1      47.048  25.188  33.399  1.00  0.00     0.009 A 
ATOM     69  C   UNL A   1      49.428  25.794  32.077  1.00  0.00     0.001 A 
ATOM     70  C   UNL A   1      48.264  24.724  33.904  1.00  0.00     0.001 A 
ATOM     71  C   UNL A   1      49.452  25.022  33.239  1.00  0.00     0.000 A 
ENDBRANCH  53  66
ENDBRANCH  27  28
ENDBRANCH  20  22
ENDBRANCH  19  20
ENDBRANCH  18  19
ENDBRANCH  17  18
ENDBRANCH   1  17
TORSDOF 17
ENDMDL
