MODEL 1
REMARK VINA RESULT:     -11.3      0.000      0.000
REMARK SMILES C[C@@H]1CCCC[C@@H]1NC(=O)[C@@H](C)n1cc(C(=O)OCCOC(=O)c2ccc(-c3c4nc(c(-c5ccccc5)c5ccc([nH]5)c(-c5ccccc5)c5nc(c(-c6ccccc6)c6ccc3[nH]6)C=C5)C=C4)cc2)cn1
REMARK SMILES IDX 19 1 18 2 16 3 17 4 15 5 13 6 14 7 73 8 72 9 11 10 12 11
REMARK SMILES IDX 9 12 8 13 10 15 7 16 1 17 2 18 3 19 4 20 6 21 5 22 20 23
REMARK SMILES IDX 21 24 22 25 23 26 24 27 25 28 71 29 26 30 70 31 27 32 28 33
REMARK SMILES IDX 29 34 64 35 30 36 69 37 63 38 65 39 31 40 68 41 62 42 61 43
REMARK SMILES IDX 32 45 54 46 39 47 53 48 40 49 43 50 52 51 66 52 41 53 42 54
REMARK SMILES IDX 51 56 67 57 44 58 33 59 34 60 38 61 35 62 37 63 36 64 55 65
REMARK SMILES IDX 56 66 60 67 57 68 59 69 58 70 45 71 46 72 50 73 47 74 49 75
REMARK SMILES IDX 48 76
REMARK H PARENT 8 14 65 44 43 55
REMARK Flexibility Score: inf
ROOT
ATOM      1  C   UNL A   1      33.993  32.342  28.037  1.00  0.00     0.275 C 
ENDROOT
BRANCH   1   2
ATOM      2  O   UNL A   1      33.993  30.983  27.564  1.00  0.00    -0.458 OA
BRANCH   2   3
ATOM      3  C   UNL A   1      32.785  30.546  27.112  1.00  0.00     0.341 C 
ATOM      4  O   UNL A   1      31.825  31.274  26.875  1.00  0.00    -0.246 OA
BRANCH   3   5
ATOM      5  C   UNL A   1      32.815  29.166  26.702  1.00  0.00     0.098 A 
ATOM      6  N   UNL A   1      32.474  27.082  26.071  1.00  0.00    -0.260 N 
ATOM      7  C   UNL A   1      31.821  28.252  26.393  1.00  0.00     0.125 A 
ATOM      8  N   UNL A   1      33.775  27.142  26.383  1.00  0.00    -0.180 NA
ATOM      9  C   UNL A   1      34.000  28.427  26.613  1.00  0.00     0.150 A 
BRANCH   6  10
ATOM     10  C   UNL A   1      31.916  25.835  25.556  1.00  0.00     0.193 C 
ATOM     11  C   UNL A   1      30.445  25.931  25.156  1.00  0.00     0.044 C 
BRANCH  10  12
ATOM     12  C   UNL A   1      32.200  24.605  26.437  1.00  0.00     0.244 C 
ATOM     13  N   UNL A   1      33.394  23.934  26.490  1.00  0.00    -0.351 N 
ATOM     14  H   UNL A   1      33.543  23.411  27.311  1.00  0.00     0.163 HD
ATOM     15  O   UNL A   1      31.330  24.226  27.234  1.00  0.00    -0.273 OA
BRANCH  13  16
ATOM     16  C   UNL A   1      34.480  23.877  25.512  1.00  0.00     0.084 C 
ATOM     17  C   UNL A   1      33.988  21.448  24.754  1.00  0.00     0.010 C 
ATOM     18  C   UNL A   1      34.142  22.918  24.340  1.00  0.00     0.008 C 
ATOM     19  C   UNL A   1      35.210  23.070  23.242  1.00  0.00     0.005 C 
ATOM     20  C   UNL A   1      36.637  22.892  23.761  1.00  0.00     0.000 C 
ATOM     21  C   UNL A   1      35.845  23.525  26.108  1.00  0.00     0.025 C 
ATOM     22  C   UNL A   1      36.921  23.702  25.028  1.00  0.00     0.002 C 
ENDBRANCH  13  16
ENDBRANCH  10  12
ENDBRANCH   6  10
ENDBRANCH   3   5
ENDBRANCH   2   3
ENDBRANCH   1   2
BRANCH   1  23
ATOM     23  C   UNL A   1      35.407  32.917  28.037  1.00  0.00     0.275 C 
BRANCH  23  24
ATOM     24  O   UNL A   1      35.919  33.145  29.357  1.00  0.00    -0.458 OA
BRANCH  24  25
ATOM     25  C   UNL A   1      35.937  32.043  30.140  1.00  0.00     0.338 C 
ATOM     26  O   UNL A   1      35.303  31.875  31.167  1.00  0.00    -0.246 OA
BRANCH  25  27
ATOM     27  C   UNL A   1      37.021  31.135  29.728  1.00  0.00     0.060 A 
ATOM     28  C   UNL A   1      36.730  29.773  29.597  1.00  0.00     0.016 A 
ATOM     29  C   UNL A   1      38.347  31.592  29.750  1.00  0.00     0.016 A 
ATOM     30  C   UNL A   1      37.771  28.856  29.609  1.00  0.00     0.010 A 
ATOM     31  C   UNL A   1      39.381  30.676  29.776  1.00  0.00     0.010 A 
ATOM     32  C   UNL A   1      39.086  29.312  29.765  1.00  0.00    -0.014 A 
BRANCH  32  33
ATOM     33  C   UNL A   1      40.160  28.329  29.849  1.00  0.00     0.031 A 
ATOM     34  C   UNL A   1      40.793  28.207  31.183  1.00  0.00     0.074 A 
ATOM     35  C   UNL A   1      40.462  27.477  28.849  1.00  0.00     0.049 A 
ATOM     36  N   UNL A   1      42.040  28.349  31.486  1.00  0.00    -0.248 NA
ATOM     37  C   UNL A   1      39.912  27.963  32.336  1.00  0.00     0.031 C 
ATOM     38  C   UNL A   1      39.720  27.287  27.598  1.00  0.00     0.029 A 
ATOM     39  N   UNL A   1      41.429  26.512  28.791  1.00  0.00    -0.354 N 
ATOM     40  C   UNL A   1      42.135  28.050  32.842  1.00  0.00     0.074 A 
ATOM     41  C   UNL A   1      40.787  27.944  33.340  1.00  0.00     0.031 C 
ATOM     42  C   UNL A   1      40.122  26.137  27.014  1.00  0.00     0.029 A 
ATOM     43  C   UNL A   1      41.234  25.588  27.775  1.00  0.00     0.049 A 
ATOM     44  H   UNL A   1      42.191  26.475  29.413  1.00  0.00     0.167 HD
ATOM     45  C   UNL A   1      43.310  27.670  33.406  1.00  0.00     0.031 A 
ATOM     46  C   UNL A   1      41.904  24.429  27.576  1.00  0.00     0.031 A 
ATOM     47  C   UNL A   1      44.440  27.972  32.571  1.00  0.00     0.049 A 
ATOM     48  C   UNL A   1      43.190  24.492  28.296  1.00  0.00     0.074 A 
ATOM     49  C   UNL A   1      45.148  29.095  32.210  1.00  0.00     0.029 A 
ATOM     50  N   UNL A   1      44.796  26.968  31.710  1.00  0.00    -0.354 N 
ATOM     51  N   UNL A   1      44.172  25.267  27.940  1.00  0.00    -0.248 NA
ATOM     52  C   UNL A   1      43.326  23.878  29.611  1.00  0.00     0.031 C 
ATOM     53  C   UNL A   1      45.755  28.790  30.955  1.00  0.00     0.029 A 
ATOM     54  C   UNL A   1      45.400  27.489  30.597  1.00  0.00     0.049 A 
ATOM     55  H   UNL A   1      44.639  26.009  31.868  1.00  0.00     0.167 HD
ATOM     56  C   UNL A   1      44.806  25.581  29.127  1.00  0.00     0.074 A 
ATOM     57  C   UNL A   1      44.380  24.558  30.070  1.00  0.00     0.031 C 
ATOM     58  C   UNL A   1      45.349  26.817  29.317  1.00  0.00     0.031 A 
BRANCH  45  59
ATOM     59  C   UNL A   1      43.406  26.609  34.477  1.00  0.00    -0.014 A 
ATOM     60  C   UNL A   1      43.406  25.257  34.086  1.00  0.00     0.009 A 
ATOM     61  C   UNL A   1      43.180  26.872  35.842  1.00  0.00     0.009 A 
ATOM     62  C   UNL A   1      43.134  24.232  35.002  1.00  0.00     0.001 A 
ATOM     63  C   UNL A   1      42.946  25.849  36.766  1.00  0.00     0.001 A 
ATOM     64  C   UNL A   1      42.897  24.529  36.340  1.00  0.00     0.000 A 
ENDBRANCH  45  59
BRANCH  46  65
ATOM     65  C   UNL A   1      41.455  23.195  26.904  1.00  0.00    -0.014 A 
ATOM     66  C   UNL A   1      42.381  22.224  26.491  1.00  0.00     0.009 A 
ATOM     67  C   UNL A   1      40.092  22.851  26.897  1.00  0.00     0.009 A 
ATOM     68  C   UNL A   1      41.959  20.940  26.124  1.00  0.00     0.001 A 
ATOM     69  C   UNL A   1      39.671  21.570  26.527  1.00  0.00     0.001 A 
ATOM     70  C   UNL A   1      40.606  20.610  26.157  1.00  0.00     0.000 A 
ENDBRANCH  46  65
BRANCH  58  71
ATOM     71  C   UNL A   1      45.674  27.618  28.088  1.00  0.00    -0.014 A 
ATOM     72  C   UNL A   1      44.902  28.712  27.661  1.00  0.00     0.009 A 
ATOM     73  C   UNL A   1      46.833  27.294  27.370  1.00  0.00     0.009 A 
ATOM     74  C   UNL A   1      45.261  29.434  26.520  1.00  0.00     0.001 A 
ATOM     75  C   UNL A   1      47.205  28.031  26.245  1.00  0.00     0.001 A 
ATOM     76  C   UNL A   1      46.414  29.094  25.814  1.00  0.00     0.000 A 
ENDBRANCH  58  71
ENDBRANCH  32  33
ENDBRANCH  25  27
ENDBRANCH  24  25
ENDBRANCH  23  24
ENDBRANCH   1  23
TORSDOF 14
ENDMDL
MODEL 2
REMARK VINA RESULT:     -11.3      3.680      8.675
REMARK SMILES C[C@@H]1CCCC[C@@H]1NC(=O)[C@@H](C)n1cc(C(=O)OCCOC(=O)c2ccc(-c3c4nc(c(-c5ccccc5)c5ccc([nH]5)c(-c5ccccc5)c5nc(c(-c6ccccc6)c6ccc3[nH]6)C=C5)C=C4)cc2)cn1
REMARK SMILES IDX 19 1 18 2 16 3 17 4 15 5 13 6 14 7 73 8 72 9 11 10 12 11
REMARK SMILES IDX 9 12 8 13 10 15 7 16 1 17 2 18 3 19 4 20 6 21 5 22 20 23
REMARK SMILES IDX 21 24 22 25 23 26 24 27 25 28 71 29 26 30 70 31 27 32 28 33
REMARK SMILES IDX 29 34 64 35 30 36 69 37 63 38 65 39 31 40 68 41 62 42 61 43
REMARK SMILES IDX 32 45 54 46 39 47 53 48 40 49 43 50 52 51 66 52 41 53 42 54
REMARK SMILES IDX 51 56 67 57 44 58 33 59 34 60 38 61 35 62 37 63 36 64 55 65
REMARK SMILES IDX 56 66 60 67 57 68 59 69 58 70 45 71 46 72 50 73 47 74 49 75
REMARK SMILES IDX 48 76
REMARK H PARENT 8 14 65 44 43 55
REMARK Flexibility Score: inf
ROOT
ATOM      1  C   UNL A   1      39.613  21.834  26.618  1.00  0.00     0.275 C 
ENDROOT
BRANCH   1   2
ATOM      2  O   UNL A   1      38.785  22.351  25.562  1.00  0.00    -0.458 OA
BRANCH   2   3
ATOM      3  C   UNL A   1      37.952  23.359  25.943  1.00  0.00     0.341 C 
ATOM      4  O   UNL A   1      38.203  24.171  26.829  1.00  0.00    -0.246 OA
BRANCH   3   5
ATOM      5  C   UNL A   1      36.846  23.534  25.039  1.00  0.00     0.098 A 
ATOM      6  N   UNL A   1      34.965  23.940  23.965  1.00  0.00    -0.260 N 
ATOM      7  C   UNL A   1      35.563  24.030  25.203  1.00  0.00     0.125 A 
ATOM      8  N   UNL A   1      35.701  23.216  23.113  1.00  0.00    -0.180 NA
ATOM      9  C   UNL A   1      36.880  23.107  23.706  1.00  0.00     0.150 A 
BRANCH   6  10
ATOM     10  C   UNL A   1      33.656  24.432  23.543  1.00  0.00     0.193 C 
ATOM     11  C   UNL A   1      32.877  23.455  22.666  1.00  0.00     0.044 C 
BRANCH  10  12
ATOM     12  C   UNL A   1      33.677  25.853  22.953  1.00  0.00     0.244 C 
ATOM     13  N   UNL A   1      33.676  27.011  23.689  1.00  0.00    -0.351 N 
ATOM     14  H   UNL A   1      34.029  27.803  23.221  1.00  0.00     0.163 HD
ATOM     15  O   UNL A   1      33.793  25.992  21.727  1.00  0.00    -0.273 OA
BRANCH  13  16
ATOM     16  C   UNL A   1      33.232  27.248  25.061  1.00  0.00     0.084 C 
ATOM     17  C   UNL A   1      31.119  28.594  24.397  1.00  0.00     0.010 C 
ATOM     18  C   UNL A   1      31.689  27.381  25.146  1.00  0.00     0.008 C 
ATOM     19  C   UNL A   1      31.265  27.401  26.626  1.00  0.00     0.005 C 
ATOM     20  C   UNL A   1      31.998  28.463  27.447  1.00  0.00     0.000 C 
ATOM     21  C   UNL A   1      33.905  28.441  25.743  1.00  0.00     0.025 C 
ATOM     22  C   UNL A   1      33.513  28.453  27.227  1.00  0.00     0.002 C 
ENDBRANCH  13  16
ENDBRANCH  10  12
ENDBRANCH   6  10
ENDBRANCH   3   5
ENDBRANCH   2   3
ENDBRANCH   1   2
BRANCH   1  23
ATOM     23  C   UNL A   1      41.085  21.858  26.215  1.00  0.00     0.275 C 
BRANCH  23  24
ATOM     24  O   UNL A   1      41.528  23.153  25.788  1.00  0.00    -0.458 OA
BRANCH  24  25
ATOM     25  C   UNL A   1      42.326  23.785  26.679  1.00  0.00     0.338 C 
ATOM     26  O   UNL A   1      43.362  23.354  27.155  1.00  0.00    -0.246 OA
BRANCH  25  27
ATOM     27  C   UNL A   1      41.659  24.989  27.205  1.00  0.00     0.060 A 
ATOM     28  C   UNL A   1      41.110  25.895  26.291  1.00  0.00     0.016 A 
ATOM     29  C   UNL A   1      41.829  25.335  28.553  1.00  0.00     0.016 A 
ATOM     30  C   UNL A   1      40.844  27.192  26.704  1.00  0.00     0.010 A 
ATOM     31  C   UNL A   1      41.575  26.632  28.959  1.00  0.00     0.010 A 
ATOM     32  C   UNL A   1      41.141  27.569  28.019  1.00  0.00    -0.014 A 
BRANCH  32  33
ATOM     33  C   UNL A   1      40.923  28.955  28.415  1.00  0.00     0.031 A 
ATOM     34  C   UNL A   1      42.108  29.835  28.288  1.00  0.00     0.074 A 
ATOM     35  C   UNL A   1      39.708  29.454  28.722  1.00  0.00     0.049 A 
ATOM     36  N   UNL A   1      42.671  30.546  29.208  1.00  0.00    -0.248 NA
ATOM     37  C   UNL A   1      42.792  29.875  26.986  1.00  0.00     0.031 C 
ATOM     38  C   UNL A   1      38.417  28.771  28.593  1.00  0.00     0.029 A 
ATOM     39  N   UNL A   1      39.359  30.720  29.102  1.00  0.00    -0.354 N 
ATOM     40  C   UNL A   1      43.683  31.255  28.569  1.00  0.00     0.074 A 
ATOM     41  C   UNL A   1      43.795  30.713  27.239  1.00  0.00     0.031 C 
ATOM     42  C   UNL A   1      37.423  29.683  28.672  1.00  0.00     0.029 A 
ATOM     43  C   UNL A   1      38.000  30.980  28.990  1.00  0.00     0.049 A 
ATOM     44  H   UNL A   1      40.009  31.385  29.422  1.00  0.00     0.167 HD
ATOM     45  C   UNL A   1      44.192  32.399  29.095  1.00  0.00     0.031 A 
ATOM     46  C   UNL A   1      37.378  32.176  29.112  1.00  0.00     0.031 A 
ATOM     47  C   UNL A   1      43.852  32.561  30.482  1.00  0.00     0.049 A 
ATOM     48  C   UNL A   1      38.261  33.100  29.849  1.00  0.00     0.074 A 
ATOM     49  C   UNL A   1      44.244  32.011  31.681  1.00  0.00     0.029 A 
ATOM     50  N   UNL A   1      42.689  33.248  30.707  1.00  0.00    -0.354 N 
ATOM     51  N   UNL A   1      38.536  32.972  31.113  1.00  0.00    -0.248 NA
ATOM     52  C   UNL A   1      39.090  34.057  29.125  1.00  0.00     0.031 C 
ATOM     53  C   UNL A   1      43.148  32.194  32.574  1.00  0.00     0.029 A 
ATOM     54  C   UNL A   1      42.125  32.854  31.891  1.00  0.00     0.049 A 
ATOM     55  H   UNL A   1      42.312  33.929  30.104  1.00  0.00     0.167 HD
ATOM     56  C   UNL A   1      39.815  33.479  31.238  1.00  0.00     0.074 A 
ATOM     57  C   UNL A   1      40.017  34.301  30.054  1.00  0.00     0.031 C 
ATOM     58  C   UNL A   1      40.698  32.924  32.115  1.00  0.00     0.031 A 
BRANCH  45  59
ATOM     59  C   UNL A   1      44.582  33.592  28.253  1.00  0.00    -0.014 A 
ATOM     60  C   UNL A   1      43.566  34.319  27.606  1.00  0.00     0.009 A 
ATOM     61  C   UNL A   1      45.902  33.831  27.825  1.00  0.00     0.009 A 
ATOM     62  C   UNL A   1      43.853  35.191  26.547  1.00  0.00     0.001 A 
ATOM     63  C   UNL A   1      46.195  34.729  26.795  1.00  0.00     0.001 A 
ATOM     64  C   UNL A   1      45.167  35.390  26.138  1.00  0.00     0.000 A 
ENDBRANCH  45  59
BRANCH  46  65
ATOM     65  C   UNL A   1      36.107  32.631  28.518  1.00  0.00    -0.014 A 
ATOM     66  C   UNL A   1      35.124  31.708  28.127  1.00  0.00     0.009 A 
ATOM     67  C   UNL A   1      35.751  33.990  28.572  1.00  0.00     0.009 A 
ATOM     68  C   UNL A   1      33.820  32.128  27.841  1.00  0.00     0.001 A 
ATOM     69  C   UNL A   1      34.449  34.409  28.281  1.00  0.00     0.001 A 
ATOM     70  C   UNL A   1      33.479  33.476  27.932  1.00  0.00     0.000 A 
ENDBRANCH  46  65
BRANCH  58  71
ATOM     71  C   UNL A   1      40.124  32.120  33.248  1.00  0.00    -0.014 A 
ATOM     72  C   UNL A   1      39.742  32.689  34.475  1.00  0.00     0.009 A 
ATOM     73  C   UNL A   1      39.904  30.750  33.046  1.00  0.00     0.009 A 
ATOM     74  C   UNL A   1      39.195  31.896  35.487  1.00  0.00     0.001 A 
ATOM     75  C   UNL A   1      39.334  29.964  34.049  1.00  0.00     0.001 A 
ATOM     76  C   UNL A   1      38.990  30.535  35.272  1.00  0.00     0.000 A 
ENDBRANCH  58  71
ENDBRANCH  32  33
ENDBRANCH  25  27
ENDBRANCH  24  25
ENDBRANCH  23  24
ENDBRANCH   1  23
TORSDOF 14
ENDMDL
MODEL 3
REMARK VINA RESULT:     -11.2      1.439      2.009
REMARK SMILES C[C@@H]1CCCC[C@@H]1NC(=O)[C@@H](C)n1cc(C(=O)OCCOC(=O)c2ccc(-c3c4nc(c(-c5ccccc5)c5ccc([nH]5)c(-c5ccccc5)c5nc(c(-c6ccccc6)c6ccc3[nH]6)C=C5)C=C4)cc2)cn1
REMARK SMILES IDX 19 1 18 2 16 3 17 4 15 5 13 6 14 7 73 8 72 9 11 10 12 11
REMARK SMILES IDX 9 12 8 13 10 15 7 16 1 17 2 18 3 19 4 20 6 21 5 22 20 23
REMARK SMILES IDX 21 24 22 25 23 26 24 27 25 28 71 29 26 30 70 31 27 32 28 33
REMARK SMILES IDX 29 34 64 35 30 36 69 37 63 38 65 39 31 40 68 41 62 42 61 43
REMARK SMILES IDX 32 45 54 46 39 47 53 48 40 49 43 50 52 51 66 52 41 53 42 54
REMARK SMILES IDX 51 56 67 57 44 58 33 59 34 60 38 61 35 62 37 63 36 64 55 65
REMARK SMILES IDX 56 66 60 67 57 68 59 69 58 70 45 71 46 72 50 73 47 74 49 75
REMARK SMILES IDX 48 76
REMARK H PARENT 8 14 65 44 43 55
REMARK Flexibility Score: inf
ROOT
ATOM      1  C   UNL A   1      32.810  30.267  27.057  1.00  0.00     0.275 C 
ENDROOT
BRANCH   1   2
ATOM      2  O   UNL A   1      33.235  28.923  27.340  1.00  0.00    -0.458 OA
BRANCH   2   3
ATOM      3  C   UNL A   1      32.268  27.980  27.168  1.00  0.00     0.341 C 
ATOM      4  O   UNL A   1      31.287  27.849  27.895  1.00  0.00    -0.246 OA
BRANCH   3   5
ATOM      5  C   UNL A   1      32.375  27.300  25.904  1.00  0.00     0.098 A 
ATOM      6  N   UNL A   1      32.219  26.075  24.079  1.00  0.00    -0.260 N 
ATOM      7  C   UNL A   1      31.601  26.334  25.283  1.00  0.00     0.125 A 
ATOM      8  N   UNL A   1      33.433  26.636  24.016  1.00  0.00    -0.180 NA
ATOM      9  C   UNL A   1      33.457  27.483  25.034  1.00  0.00     0.150 A 
BRANCH   6  10
ATOM     10  C   UNL A   1      31.762  25.229  22.980  1.00  0.00     0.193 C 
ATOM     11  C   UNL A   1      30.721  24.188  23.388  1.00  0.00     0.044 C 
BRANCH  10  12
ATOM     12  C   UNL A   1      32.897  24.616  22.141  1.00  0.00     0.244 C 
ATOM     13  N   UNL A   1      33.736  23.617  22.562  1.00  0.00    -0.351 N 
ATOM     14  H   UNL A   1      34.166  23.101  21.842  1.00  0.00     0.163 HD
ATOM     15  O   UNL A   1      33.030  24.972  20.961  1.00  0.00    -0.273 OA
BRANCH  13  16
ATOM     16  C   UNL A   1      34.089  23.200  23.918  1.00  0.00     0.084 C 
ATOM     17  C   UNL A   1      36.621  22.939  23.435  1.00  0.00     0.010 C 
ATOM     18  C   UNL A   1      35.537  23.617  24.284  1.00  0.00     0.008 C 
ATOM     19  C   UNL A   1      35.773  23.357  25.783  1.00  0.00     0.005 C 
ATOM     20  C   UNL A   1      35.444  21.925  26.205  1.00  0.00     0.000 C 
ATOM     21  C   UNL A   1      33.882  21.708  24.192  1.00  0.00     0.025 C 
ATOM     22  C   UNL A   1      34.085  21.443  25.690  1.00  0.00     0.002 C 
ENDBRANCH  13  16
ENDBRANCH  10  12
ENDBRANCH   6  10
ENDBRANCH   3   5
ENDBRANCH   2   3
ENDBRANCH   1   2
BRANCH   1  23
ATOM     23  C   UNL A   1      33.742  31.281  27.714  1.00  0.00     0.275 C 
BRANCH  23  24
ATOM     24  O   UNL A   1      35.125  31.049  27.413  1.00  0.00    -0.458 OA
BRANCH  24  25
ATOM     25  C   UNL A   1      35.982  31.793  28.148  1.00  0.00     0.338 C 
ATOM     26  O   UNL A   1      36.119  33.003  28.094  1.00  0.00    -0.246 OA
BRANCH  25  27
ATOM     27  C   UNL A   1      36.927  30.927  28.872  1.00  0.00     0.060 A 
ATOM     28  C   UNL A   1      38.174  31.456  29.226  1.00  0.00     0.016 A 
ATOM     29  C   UNL A   1      36.681  29.548  28.943  1.00  0.00     0.016 A 
ATOM     30  C   UNL A   1      39.212  30.590  29.534  1.00  0.00     0.010 A 
ATOM     31  C   UNL A   1      37.721  28.686  29.237  1.00  0.00     0.010 A 
ATOM     32  C   UNL A   1      38.994  29.208  29.473  1.00  0.00    -0.014 A 
BRANCH  32  33
ATOM     33  C   UNL A   1      40.116  28.312  29.728  1.00  0.00     0.031 A 
ATOM     34  C   UNL A   1      40.613  28.315  31.124  1.00  0.00     0.074 A 
ATOM     35  C   UNL A   1      40.577  27.426  28.822  1.00  0.00     0.049 A 
ATOM     36  N   UNL A   1      41.810  28.564  31.541  1.00  0.00    -0.248 NA
ATOM     37  C   UNL A   1      39.634  28.075  32.196  1.00  0.00     0.031 C 
ATOM     38  C   UNL A   1      39.984  27.111  27.518  1.00  0.00     0.029 A 
ATOM     39  N   UNL A   1      41.607  26.532  28.925  1.00  0.00    -0.354 N 
ATOM     40  C   UNL A   1      41.781  28.353  32.916  1.00  0.00     0.074 A 
ATOM     41  C   UNL A   1      40.399  28.179  33.282  1.00  0.00     0.031 C 
ATOM     42  C   UNL A   1      40.520  25.960  27.054  1.00  0.00     0.029 A 
ATOM     43  C   UNL A   1      41.580  25.539  27.956  1.00  0.00     0.049 A 
ATOM     44  H   UNL A   1      42.300  26.588  29.620  1.00  0.00     0.167 HD
ATOM     45  C   UNL A   1      42.914  28.093  33.619  1.00  0.00     0.031 A 
ATOM     46  C   UNL A   1      42.343  24.422  27.903  1.00  0.00     0.031 A 
ATOM     47  C   UNL A   1      44.102  28.426  32.884  1.00  0.00     0.049 A 
ATOM     48  C   UNL A   1      43.540  24.621  28.742  1.00  0.00     0.074 A 
ATOM     49  C   UNL A   1      44.768  29.575  32.522  1.00  0.00     0.029 A 
ATOM     50  N   UNL A   1      44.612  27.402  32.130  1.00  0.00    -0.354 N 
ATOM     51  N   UNL A   1      44.500  25.443  28.437  1.00  0.00    -0.248 NA
ATOM     52  C   UNL A   1      43.578  24.096  30.102  1.00  0.00     0.031 C 
ATOM     53  C   UNL A   1      45.522  29.242  31.357  1.00  0.00     0.029 A 
ATOM     54  C   UNL A   1      45.294  27.899  31.051  1.00  0.00     0.049 A 
ATOM     55  H   UNL A   1      44.504  26.445  32.334  1.00  0.00     0.167 HD
ATOM     56  C   UNL A   1      44.984  25.870  29.658  1.00  0.00     0.074 A 
ATOM     57  C   UNL A   1      44.530  24.876  30.619  1.00  0.00     0.031 C 
ATOM     58  C   UNL A   1      45.421  27.152  29.820  1.00  0.00     0.031 A 
BRANCH  45  59
ATOM     59  C   UNL A   1      42.967  27.105  34.762  1.00  0.00    -0.014 A 
ATOM     60  C   UNL A   1      44.055  27.165  35.652  1.00  0.00     0.009 A 
ATOM     61  C   UNL A   1      42.173  25.943  34.810  1.00  0.00     0.009 A 
ATOM     62  C   UNL A   1      44.364  26.093  36.499  1.00  0.00     0.001 A 
ATOM     63  C   UNL A   1      42.457  24.888  35.681  1.00  0.00     0.001 A 
ATOM     64  C   UNL A   1      43.569  24.952  36.509  1.00  0.00     0.000 A 
ENDBRANCH  45  59
BRANCH  46  65
ATOM     65  C   UNL A   1      42.050  23.121  27.271  1.00  0.00    -0.014 A 
ATOM     66  C   UNL A   1      42.963  22.531  26.383  1.00  0.00     0.009 A 
ATOM     67  C   UNL A   1      40.983  22.334  27.740  1.00  0.00     0.009 A 
ATOM     68  C   UNL A   1      42.835  21.188  26.012  1.00  0.00     0.001 A 
ATOM     69  C   UNL A   1      40.854  20.994  27.365  1.00  0.00     0.001 A 
ATOM     70  C   UNL A   1      41.790  20.416  26.514  1.00  0.00     0.000 A 
ENDBRANCH  46  65
BRANCH  58  71
ATOM     71  C   UNL A   1      45.819  27.901  28.580  1.00  0.00    -0.014 A 
ATOM     72  C   UNL A   1      44.920  28.687  27.839  1.00  0.00     0.009 A 
ATOM     73  C   UNL A   1      47.162  27.859  28.179  1.00  0.00     0.009 A 
ATOM     74  C   UNL A   1      45.350  29.379  26.703  1.00  0.00     0.001 A 
ATOM     75  C   UNL A   1      47.594  28.570  27.059  1.00  0.00     0.001 A 
ATOM     76  C   UNL A   1      46.687  29.321  26.315  1.00  0.00     0.000 A 
ENDBRANCH  58  71
ENDBRANCH  32  33
ENDBRANCH  25  27
ENDBRANCH  24  25
ENDBRANCH  23  24
ENDBRANCH   1  23
TORSDOF 14
ENDMDL
