MODEL 1
REMARK VINA RESULT:      -8.9      0.000      0.000
REMARK SMILES CC[NH2+][C@@]1(C(=O)OCCOC(=O)c2ccc(-c3c4nc(c(-c5ccccc5)c5ccc([nH]5)c(-c5ccccc5)c5nc(c(-c6ccccc6)c6ccc3[nH]6)C=C5)C=C4)cc2)CC[C@@H]([NH+]2CCC(C)(CC)CC2)C1
REMARK SMILES IDX 8 1 7 2 5 3 6 4 4 5 61 6 73 7 62 8 63 9 3 10 2 13 1 14 64 15
REMARK SMILES IDX 65 16 72 17 66 19 71 20 67 21 68 22 69 23 70 24 9 25 10 26
REMARK SMILES IDX 11 27 12 28 13 29 14 30 60 31 15 32 59 33 16 34 17 35 18 36
REMARK SMILES IDX 53 37 19 38 58 39 52 40 54 41 20 42 57 43 51 44 50 45 21 47
REMARK SMILES IDX 43 48 28 49 42 50 29 51 32 52 41 53 55 54 30 55 31 56 40 58
REMARK SMILES IDX 56 59 33 60 22 61 23 62 27 63 24 64 26 65 25 66 44 67 45 68
REMARK SMILES IDX 49 69 46 70 48 71 47 72 34 73 35 74 39 75 36 76 38 77 37 78
REMARK H PARENT 3 11 3 12 64 18 54 46 32 57
REMARK Flexibility Score: inf
ROOT
ATOM      1  C   UNL A   1      33.734  34.316  29.440  1.00  0.00     0.274 C 
ENDROOT
BRANCH   1   2
ATOM      2  O   UNL A   1      33.916  33.772  30.758  1.00  0.00    -0.457 OA
BRANCH   2   3
ATOM      3  C   UNL A   1      34.593  34.529  31.663  1.00  0.00     0.368 C 
ATOM      4  O   UNL A   1      34.089  35.449  32.299  1.00  0.00    -0.245 OA
BRANCH   3   5
ATOM      5  C   UNL A   1      36.080  34.084  31.786  1.00  0.00     0.200 C 
ATOM      6  C   UNL A   1      36.193  32.571  32.005  1.00  0.00     0.087 C 
ATOM      7  C   UNL A   1      36.772  34.658  33.037  1.00  0.00     0.146 C 
ATOM      8  C   UNL A   1      36.013  32.384  33.507  1.00  0.00     0.072 C 
ATOM      9  C   UNL A   1      36.620  33.637  34.168  1.00  0.00     0.191 C 
BRANCH   5  10
ATOM     10  N   UNL A   1      36.891  34.553  30.626  1.00  0.00    -0.332 N 
ATOM     11  H   UNL A   1      36.286  34.552  29.805  1.00  0.00     0.347 HD
ATOM     12  H   UNL A   1      37.240  35.473  30.895  1.00  0.00     0.347 HD
BRANCH  10  13
ATOM     13  C   UNL A   1      38.079  33.771  30.301  1.00  0.00     0.257 C 
ATOM     14  C   UNL A   1      37.993  33.349  28.838  1.00  0.00     0.071 C 
ENDBRANCH  10  13
ENDBRANCH   5  10
BRANCH   9  15
ATOM     15  N   UNL A   1      37.811  33.392  34.994  1.00  0.00    -0.332 N 
ATOM     16  C   UNL A   1      39.083  33.470  34.274  1.00  0.00     0.263 C 
ATOM     17  C   UNL A   1      37.818  32.266  35.924  1.00  0.00     0.263 C 
ATOM     18  H   UNL A   1      37.719  34.202  35.607  1.00  0.00     0.348 HD
ATOM     19  C   UNL A   1      39.478  32.200  33.515  1.00  0.00     0.068 C 
ATOM     20  C   UNL A   1      38.180  30.895  35.339  1.00  0.00     0.068 C 
ATOM     21  C   UNL A   1      39.342  30.871  34.306  1.00  0.00    -0.022 C 
ATOM     22  C   UNL A   1      39.043  29.740  33.283  1.00  0.00     0.012 C 
BRANCH  21  23
ATOM     23  C   UNL A   1      40.690  30.455  34.966  1.00  0.00     0.004 C 
ATOM     24  C   UNL A   1      41.631  29.597  34.142  1.00  0.00     0.004 C 
ENDBRANCH  21  23
ENDBRANCH   9  15
ENDBRANCH   3   5
ENDBRANCH   2   3
ENDBRANCH   1   2
BRANCH   1  25
ATOM     25  C   UNL A   1      34.126  33.245  28.420  1.00  0.00     0.275 C 
BRANCH  25  26
ATOM     26  O   UNL A   1      34.567  32.050  29.102  1.00  0.00    -0.458 OA
BRANCH  26  27
ATOM     27  C   UNL A   1      34.588  30.924  28.348  1.00  0.00     0.338 C 
ATOM     28  O   UNL A   1      33.704  30.504  27.621  1.00  0.00    -0.246 OA
BRANCH  27  29
ATOM     29  C   UNL A   1      35.914  30.283  28.430  1.00  0.00     0.060 A 
ATOM     30  C   UNL A   1      36.298  29.755  29.664  1.00  0.00     0.016 A 
ATOM     31  C   UNL A   1      36.802  30.264  27.354  1.00  0.00     0.016 A 
ATOM     32  C   UNL A   1      37.567  29.203  29.835  1.00  0.00     0.010 A 
ATOM     33  C   UNL A   1      38.087  29.728  27.529  1.00  0.00     0.010 A 
ATOM     34  C   UNL A   1      38.478  29.205  28.774  1.00  0.00    -0.014 A 
BRANCH  34  35
ATOM     35  C   UNL A   1      39.860  28.730  29.012  1.00  0.00     0.031 A 
ATOM     36  C   UNL A   1      40.844  29.626  29.707  1.00  0.00     0.074 A 
ATOM     37  C   UNL A   1      40.221  27.481  28.665  1.00  0.00     0.049 A 
ATOM     38  N   UNL A   1      42.088  29.389  30.038  1.00  0.00    -0.248 NA
ATOM     39  C   UNL A   1      40.357  30.961  30.087  1.00  0.00     0.031 C 
ATOM     40  C   UNL A   1      39.346  26.494  28.036  1.00  0.00     0.029 A 
ATOM     41  N   UNL A   1      41.421  26.831  28.804  1.00  0.00    -0.354 N 
ATOM     42  C   UNL A   1      42.533  30.541  30.673  1.00  0.00     0.074 A 
ATOM     43  C   UNL A   1      41.431  31.482  30.662  1.00  0.00     0.031 C 
ATOM     44  C   UNL A   1      40.039  25.357  27.847  1.00  0.00     0.029 A 
ATOM     45  C   UNL A   1      41.411  25.549  28.311  1.00  0.00     0.049 A 
ATOM     46  H   UNL A   1      42.213  27.243  29.219  1.00  0.00     0.167 HD
ATOM     47  C   UNL A   1      43.749  30.796  31.213  1.00  0.00     0.031 A 
ATOM     48  C   UNL A   1      42.402  24.642  28.228  1.00  0.00     0.031 A 
ATOM     49  C   UNL A   1      44.862  29.887  31.185  1.00  0.00     0.049 A 
ATOM     50  C   UNL A   1      43.771  24.984  28.751  1.00  0.00     0.074 A 
ATOM     51  C   UNL A   1      46.144  30.075  31.673  1.00  0.00     0.029 A 
ATOM     52  N   UNL A   1      44.830  28.620  30.624  1.00  0.00    -0.354 N 
ATOM     53  N   UNL A   1      44.177  26.075  29.353  1.00  0.00    -0.248 NA
ATOM     54  C   UNL A   1      44.818  23.964  28.581  1.00  0.00     0.031 C 
ATOM     55  C   UNL A   1      46.900  28.938  31.367  1.00  0.00     0.029 A 
ATOM     56  C   UNL A   1      46.076  28.024  30.732  1.00  0.00     0.049 A 
ATOM     57  H   UNL A   1      44.039  28.206  30.210  1.00  0.00     0.167 HD
ATOM     58  C   UNL A   1      45.519  25.868  29.647  1.00  0.00     0.074 A 
ATOM     59  C   UNL A   1      45.854  24.539  29.176  1.00  0.00     0.031 C 
ATOM     60  C   UNL A   1      46.396  26.704  30.253  1.00  0.00     0.031 A 
BRANCH  47  61
ATOM     61  C   UNL A   1      43.940  32.145  31.842  1.00  0.00    -0.014 A 
ATOM     62  C   UNL A   1      44.265  33.267  31.064  1.00  0.00     0.009 A 
ATOM     63  C   UNL A   1      43.789  32.296  33.229  1.00  0.00     0.009 A 
ATOM     64  C   UNL A   1      44.471  34.509  31.670  1.00  0.00     0.001 A 
ATOM     65  C   UNL A   1      43.973  33.542  33.829  1.00  0.00     0.001 A 
ATOM     66  C   UNL A   1      44.323  34.645  33.051  1.00  0.00     0.000 A 
ENDBRANCH  47  61
BRANCH  48  67
ATOM     67  C   UNL A   1      42.148  23.323  27.592  1.00  0.00    -0.014 A 
ATOM     68  C   UNL A   1      41.552  22.280  28.317  1.00  0.00     0.009 A 
ATOM     69  C   UNL A   1      42.528  23.096  26.260  1.00  0.00     0.009 A 
ATOM     70  C   UNL A   1      41.361  21.029  27.724  1.00  0.00     0.001 A 
ATOM     71  C   UNL A   1      42.313  21.852  25.663  1.00  0.00     0.001 A 
ATOM     72  C   UNL A   1      41.739  20.817  26.398  1.00  0.00     0.000 A 
ENDBRANCH  48  67
BRANCH  60  73
ATOM     73  C   UNL A   1      47.797  26.200  30.460  1.00  0.00    -0.014 A 
ATOM     74  C   UNL A   1      48.743  26.238  29.423  1.00  0.00     0.009 A 
ATOM     75  C   UNL A   1      48.185  25.713  31.718  1.00  0.00     0.009 A 
ATOM     76  C   UNL A   1      50.041  25.770  29.635  1.00  0.00     0.001 A 
ATOM     77  C   UNL A   1      49.490  25.269  31.933  1.00  0.00     0.001 A 
ATOM     78  C   UNL A   1      50.415  25.291  30.891  1.00  0.00     0.000 A 
ENDBRANCH  60  73
ENDBRANCH  34  35
ENDBRANCH  27  29
ENDBRANCH  26  27
ENDBRANCH  25  26
ENDBRANCH   1  25
TORSDOF 15
ENDMDL
MODEL 2
REMARK VINA RESULT:      -8.6      3.845      6.981
REMARK SMILES CC[NH2+][C@@]1(C(=O)OCCOC(=O)c2ccc(-c3c4nc(c(-c5ccccc5)c5ccc([nH]5)c(-c5ccccc5)c5nc(c(-c6ccccc6)c6ccc3[nH]6)C=C5)C=C4)cc2)CC[C@@H]([NH+]2CCC(C)(CC)CC2)C1
REMARK SMILES IDX 8 1 7 2 5 3 6 4 4 5 61 6 73 7 62 8 63 9 3 10 2 13 1 14 64 15
REMARK SMILES IDX 65 16 72 17 66 19 71 20 67 21 68 22 69 23 70 24 9 25 10 26
REMARK SMILES IDX 11 27 12 28 13 29 14 30 60 31 15 32 59 33 16 34 17 35 18 36
REMARK SMILES IDX 53 37 19 38 58 39 52 40 54 41 20 42 57 43 51 44 50 45 21 47
REMARK SMILES IDX 43 48 28 49 42 50 29 51 32 52 41 53 55 54 30 55 31 56 40 58
REMARK SMILES IDX 56 59 33 60 22 61 23 62 27 63 24 64 26 65 25 66 44 67 45 68
REMARK SMILES IDX 49 69 46 70 48 71 47 72 34 73 35 74 39 75 36 76 38 77 37 78
REMARK H PARENT 3 11 3 12 64 18 54 46 32 57
REMARK Flexibility Score: inf
ROOT
ATOM      1  C   UNL A   1      31.629  27.975  27.184  1.00  0.00     0.274 C 
ENDROOT
BRANCH   1   2
ATOM      2  O   UNL A   1      31.356  27.497  25.857  1.00  0.00    -0.457 OA
BRANCH   2   3
ATOM      3  C   UNL A   1      30.970  26.199  25.722  1.00  0.00     0.368 C 
ATOM      4  O   UNL A   1      30.194  25.634  26.485  1.00  0.00    -0.245 OA
BRANCH   3   5
ATOM      5  C   UNL A   1      31.637  25.527  24.486  1.00  0.00     0.200 C 
ATOM      6  C   UNL A   1      30.783  24.372  23.950  1.00  0.00     0.087 C 
ATOM      7  C   UNL A   1      32.967  24.830  24.832  1.00  0.00     0.146 C 
ATOM      8  C   UNL A   1      31.170  23.174  24.809  1.00  0.00     0.072 C 
ATOM      9  C   UNL A   1      32.658  23.367  25.163  1.00  0.00     0.191 C 
BRANCH   5  10
ATOM     10  N   UNL A   1      31.969  26.527  23.431  1.00  0.00    -0.332 N 
ATOM     11  H   UNL A   1      31.508  27.403  23.679  1.00  0.00     0.347 HD
ATOM     12  H   UNL A   1      32.987  26.572  23.413  1.00  0.00     0.347 HD
BRANCH  10  13
ATOM     13  C   UNL A   1      31.574  26.191  22.066  1.00  0.00     0.257 C 
ATOM     14  C   UNL A   1      32.834  25.880  21.264  1.00  0.00     0.071 C 
ENDBRANCH  10  13
ENDBRANCH   5  10
BRANCH   9  15
ATOM     15  N   UNL A   1      33.570  22.361  24.598  1.00  0.00    -0.332 N 
ATOM     16  C   UNL A   1      34.227  21.507  25.588  1.00  0.00     0.263 C 
ATOM     17  C   UNL A   1      34.514  22.756  23.557  1.00  0.00     0.263 C 
ATOM     18  H   UNL A   1      32.873  21.818  24.090  1.00  0.00     0.348 HD
ATOM     19  C   UNL A   1      35.470  22.112  26.246  1.00  0.00     0.068 C 
ATOM     20  C   UNL A   1      35.825  23.400  24.026  1.00  0.00     0.068 C 
ATOM     21  C   UNL A   1      36.493  22.769  25.280  1.00  0.00    -0.022 C 
ATOM     22  C   UNL A   1      37.213  23.907  26.056  1.00  0.00     0.012 C 
BRANCH  21  23
ATOM     23  C   UNL A   1      37.631  21.780  24.890  1.00  0.00     0.004 C 
ATOM     24  C   UNL A   1      37.283  20.305  24.842  1.00  0.00     0.004 C 
ENDBRANCH  21  23
ENDBRANCH   9  15
ENDBRANCH   3   5
ENDBRANCH   2   3
ENDBRANCH   1   2
BRANCH   1  25
ATOM     25  C   UNL A   1      32.373  29.308  27.071  1.00  0.00     0.275 C 
BRANCH  25  26
ATOM     26  O   UNL A   1      33.744  29.149  27.496  1.00  0.00    -0.458 OA
BRANCH  26  27
ATOM     27  C   UNL A   1      34.368  30.286  27.888  1.00  0.00     0.338 C 
ATOM     28  O   UNL A   1      33.876  31.395  28.009  1.00  0.00    -0.246 OA
BRANCH  27  29
ATOM     29  C   UNL A   1      35.761  29.993  28.274  1.00  0.00     0.060 A 
ATOM     30  C   UNL A   1      36.732  30.054  27.273  1.00  0.00     0.016 A 
ATOM     31  C   UNL A   1      36.110  29.588  29.563  1.00  0.00     0.016 A 
ATOM     32  C   UNL A   1      38.056  29.716  27.547  1.00  0.00     0.010 A 
ATOM     33  C   UNL A   1      37.438  29.226  29.837  1.00  0.00     0.010 A 
ATOM     34  C   UNL A   1      38.414  29.279  28.827  1.00  0.00    -0.014 A 
BRANCH  34  35
ATOM     35  C   UNL A   1      39.797  28.805  29.065  1.00  0.00     0.031 A 
ATOM     36  C   UNL A   1      40.777  29.697  29.770  1.00  0.00     0.074 A 
ATOM     37  C   UNL A   1      40.161  27.561  28.707  1.00  0.00     0.049 A 
ATOM     38  N   UNL A   1      42.021  29.460  30.102  1.00  0.00    -0.248 NA
ATOM     39  C   UNL A   1      40.286  31.027  30.161  1.00  0.00     0.031 C 
ATOM     40  C   UNL A   1      39.291  26.577  28.067  1.00  0.00     0.029 A 
ATOM     41  N   UNL A   1      41.363  26.912  28.844  1.00  0.00    -0.354 N 
ATOM     42  C   UNL A   1      42.461  30.607  30.748  1.00  0.00     0.074 A 
ATOM     43  C   UNL A   1      41.357  31.546  30.744  1.00  0.00     0.031 C 
ATOM     44  C   UNL A   1      39.987  25.444  27.869  1.00  0.00     0.029 A 
ATOM     45  C   UNL A   1      41.357  25.635  28.339  1.00  0.00     0.049 A 
ATOM     46  H   UNL A   1      42.152  27.322  29.264  1.00  0.00     0.167 HD
ATOM     47  C   UNL A   1      43.675  30.860  31.294  1.00  0.00     0.031 A 
ATOM     48  C   UNL A   1      42.350  24.730  28.250  1.00  0.00     0.031 A 
ATOM     49  C   UNL A   1      44.790  29.954  31.261  1.00  0.00     0.049 A 
ATOM     50  C   UNL A   1      43.717  25.071  28.780  1.00  0.00     0.074 A 
ATOM     51  C   UNL A   1      46.071  30.141  31.754  1.00  0.00     0.029 A 
ATOM     52  N   UNL A   1      44.763  28.692  30.688  1.00  0.00    -0.354 N 
ATOM     53  N   UNL A   1      44.119  26.157  29.392  1.00  0.00    -0.248 NA
ATOM     54  C   UNL A   1      44.767  24.055  28.604  1.00  0.00     0.031 C 
ATOM     55  C   UNL A   1      46.830  29.008  31.439  1.00  0.00     0.029 A 
ATOM     56  C   UNL A   1      46.009  28.098  30.795  1.00  0.00     0.049 A 
ATOM     57  H   UNL A   1      43.974  28.280  30.268  1.00  0.00     0.167 HD
ATOM     58  C   UNL A   1      45.460  25.950  29.689  1.00  0.00     0.074 A 
ATOM     59  C   UNL A   1      45.800  24.627  29.206  1.00  0.00     0.031 C 
ATOM     60  C   UNL A   1      46.334  26.784  30.305  1.00  0.00     0.031 A 
BRANCH  47  61
ATOM     61  C   UNL A   1      43.861  32.204  31.936  1.00  0.00    -0.014 A 
ATOM     62  C   UNL A   1      43.505  32.422  33.276  1.00  0.00     0.009 A 
ATOM     63  C   UNL A   1      44.402  33.264  31.192  1.00  0.00     0.009 A 
ATOM     64  C   UNL A   1      43.656  33.687  33.849  1.00  0.00     0.001 A 
ATOM     65  C   UNL A   1      44.571  34.521  31.773  1.00  0.00     0.001 A 
ATOM     66  C   UNL A   1      44.189  34.734  33.097  1.00  0.00     0.000 A 
ENDBRANCH  47  61
BRANCH  48  67
ATOM     67  C   UNL A   1      42.101  23.417  27.602  1.00  0.00    -0.014 A 
ATOM     68  C   UNL A   1      42.446  23.202  26.259  1.00  0.00     0.009 A 
ATOM     69  C   UNL A   1      41.490  22.378  28.322  1.00  0.00     0.009 A 
ATOM     70  C   UNL A   1      42.165  21.979  25.645  1.00  0.00     0.001 A 
ATOM     71  C   UNL A   1      41.232  21.149  27.712  1.00  0.00     0.001 A 
ATOM     72  C   UNL A   1      41.561  20.953  26.372  1.00  0.00     0.000 A 
ENDBRANCH  48  67
BRANCH  60  73
ATOM     73  C   UNL A   1      47.736  26.280  30.510  1.00  0.00    -0.014 A 
ATOM     74  C   UNL A   1      48.140  25.741  31.742  1.00  0.00     0.009 A 
ATOM     75  C   UNL A   1      48.651  26.313  29.448  1.00  0.00     0.009 A 
ATOM     76  C   UNL A   1      49.444  25.272  31.912  1.00  0.00     0.001 A 
ATOM     77  C   UNL A   1      49.947  25.822  29.614  1.00  0.00     0.001 A 
ATOM     78  C   UNL A   1      50.345  25.309  30.847  1.00  0.00     0.000 A 
ENDBRANCH  60  73
ENDBRANCH  34  35
ENDBRANCH  27  29
ENDBRANCH  26  27
ENDBRANCH  25  26
ENDBRANCH   1  25
TORSDOF 15
ENDMDL
MODEL 3
REMARK VINA RESULT:      -8.5      4.291      9.938
REMARK SMILES CC[NH2+][C@@]1(C(=O)OCCOC(=O)c2ccc(-c3c4nc(c(-c5ccccc5)c5ccc([nH]5)c(-c5ccccc5)c5nc(c(-c6ccccc6)c6ccc3[nH]6)C=C5)C=C4)cc2)CC[C@@H]([NH+]2CCC(C)(CC)CC2)C1
REMARK SMILES IDX 8 1 7 2 5 3 6 4 4 5 61 6 73 7 62 8 63 9 3 10 2 13 1 14 64 15
REMARK SMILES IDX 65 16 72 17 66 19 71 20 67 21 68 22 69 23 70 24 9 25 10 26
REMARK SMILES IDX 11 27 12 28 13 29 14 30 60 31 15 32 59 33 16 34 17 35 18 36
REMARK SMILES IDX 53 37 19 38 58 39 52 40 54 41 20 42 57 43 51 44 50 45 21 47
REMARK SMILES IDX 43 48 28 49 42 50 29 51 32 52 41 53 55 54 30 55 31 56 40 58
REMARK SMILES IDX 56 59 33 60 22 61 23 62 27 63 24 64 26 65 25 66 44 67 45 68
REMARK SMILES IDX 49 69 46 70 48 71 47 72 34 73 35 74 39 75 36 76 38 77 37 78
REMARK H PARENT 3 11 3 12 64 18 54 46 32 57
REMARK Flexibility Score: inf
ROOT
ATOM      1  C   UNL A   1      38.808  21.374  25.657  1.00  0.00     0.274 C 
ENDROOT
BRANCH   1   2
ATOM      2  O   UNL A   1      37.413  21.422  25.315  1.00  0.00    -0.457 OA
BRANCH   2   3
ATOM      3  C   UNL A   1      36.699  22.501  25.735  1.00  0.00     0.368 C 
ATOM      4  O   UNL A   1      37.187  23.455  26.330  1.00  0.00    -0.245 OA
BRANCH   3   5
ATOM      5  C   UNL A   1      35.191  22.371  25.367  1.00  0.00     0.200 C 
ATOM      6  C   UNL A   1      34.970  22.514  23.856  1.00  0.00     0.087 C 
ATOM      7  C   UNL A   1      34.337  23.517  25.942  1.00  0.00     0.146 C 
ATOM      8  C   UNL A   1      34.898  24.018  23.618  1.00  0.00     0.072 C 
ATOM      9  C   UNL A   1      34.255  24.619  24.883  1.00  0.00     0.191 C 
BRANCH   5  10
ATOM     10  N   UNL A   1      34.601  21.115  25.912  1.00  0.00    -0.332 N 
ATOM     11  H   UNL A   1      35.294  20.688  26.526  1.00  0.00     0.347 HD
ATOM     12  H   UNL A   1      33.740  21.401  26.377  1.00  0.00     0.347 HD
BRANCH  10  13
ATOM     13  C   UNL A   1      34.195  20.107  24.936  1.00  0.00     0.257 C 
ATOM     14  C   UNL A   1      32.683  19.930  25.028  1.00  0.00     0.071 C 
ENDBRANCH  10  13
ENDBRANCH   5  10
BRANCH   9  15
ATOM     15  N   UNL A   1      32.936  25.237  24.680  1.00  0.00    -0.332 N 
ATOM     16  C   UNL A   1      32.888  26.242  23.618  1.00  0.00     0.263 C 
ATOM     17  C   UNL A   1      32.169  25.682  25.840  1.00  0.00     0.263 C 
ATOM     18  H   UNL A   1      32.440  24.399  24.377  1.00  0.00     0.348 HD
ATOM     19  C   UNL A   1      33.364  27.640  24.024  1.00  0.00     0.068 C 
ATOM     20  C   UNL A   1      32.516  27.065  26.404  1.00  0.00     0.068 C 
ATOM     21  C   UNL A   1      32.794  28.185  25.362  1.00  0.00    -0.022 C 
ATOM     22  C   UNL A   1      33.853  29.146  25.971  1.00  0.00     0.012 C 
BRANCH  21  23
ATOM     23  C   UNL A   1      31.541  29.079  25.130  1.00  0.00     0.004 C 
ATOM     24  C   UNL A   1      31.498  30.414  25.848  1.00  0.00     0.004 C 
ENDBRANCH  21  23
ENDBRANCH   9  15
ENDBRANCH   3   5
ENDBRANCH   2   3
ENDBRANCH   1   2
BRANCH   1  25
ATOM     25  C   UNL A   1      39.331  19.971  25.343  1.00  0.00     0.275 C 
BRANCH  25  26
ATOM     26  O   UNL A   1      40.322  19.581  26.319  1.00  0.00    -0.458 OA
BRANCH  26  27
ATOM     27  C   UNL A   1      41.609  19.810  25.966  1.00  0.00     0.338 C 
ATOM     28  O   UNL A   1      42.312  19.122  25.244  1.00  0.00    -0.246 OA
BRANCH  27  29
ATOM     29  C   UNL A   1      42.058  21.111  26.496  1.00  0.00     0.060 A 
ATOM     30  C   UNL A   1      41.935  21.323  27.870  1.00  0.00     0.016 A 
ATOM     31  C   UNL A   1      42.512  22.139  25.668  1.00  0.00     0.016 A 
ATOM     32  C   UNL A   1      42.267  22.555  28.432  1.00  0.00     0.010 A 
ATOM     33  C   UNL A   1      42.827  23.387  26.227  1.00  0.00     0.010 A 
ATOM     34  C   UNL A   1      42.696  23.603  27.610  1.00  0.00    -0.014 A 
BRANCH  34  35
ATOM     35  C   UNL A   1      42.922  24.939  28.208  1.00  0.00     0.031 A 
ATOM     36  C   UNL A   1      44.307  25.340  28.626  1.00  0.00     0.074 A 
ATOM     37  C   UNL A   1      41.907  25.814  28.323  1.00  0.00     0.049 A 
ATOM     38  N   UNL A   1      44.721  26.472  29.137  1.00  0.00    -0.248 NA
ATOM     39  C   UNL A   1      45.365  24.338  28.430  1.00  0.00     0.031 C 
ATOM     40  C   UNL A   1      40.529  25.569  27.905  1.00  0.00     0.029 A 
ATOM     41  N   UNL A   1      41.889  27.093  28.821  1.00  0.00    -0.354 N 
ATOM     42  C   UNL A   1      46.090  26.323  29.319  1.00  0.00     0.074 A 
ATOM     43  C   UNL A   1      46.431  24.984  28.880  1.00  0.00     0.031 C 
ATOM     44  C   UNL A   1      39.796  26.667  28.159  1.00  0.00     0.029 A 
ATOM     45  C   UNL A   1      40.646  27.676  28.787  1.00  0.00     0.049 A 
ATOM     46  H   UNL A   1      42.688  27.549  29.167  1.00  0.00     0.167 HD
ATOM     47  C   UNL A   1      46.983  27.215  29.809  1.00  0.00     0.031 A 
ATOM     48  C   UNL A   1      40.238  28.881  29.228  1.00  0.00     0.031 A 
ATOM     49  C   UNL A   1      46.645  28.527  30.291  1.00  0.00     0.049 A 
ATOM     50  C   UNL A   1      41.233  29.820  29.855  1.00  0.00     0.074 A 
ATOM     51  C   UNL A   1      47.479  29.486  30.842  1.00  0.00     0.029 A 
ATOM     52  N   UNL A   1      45.365  29.060  30.295  1.00  0.00    -0.354 N 
ATOM     53  N   UNL A   1      42.524  29.668  30.017  1.00  0.00    -0.248 NA
ATOM     54  C   UNL A   1      40.708  31.098  30.361  1.00  0.00     0.031 C 
ATOM     55  C   UNL A   1      46.694  30.582  31.220  1.00  0.00     0.029 A 
ATOM     56  C   UNL A   1      45.382  30.325  30.859  1.00  0.00     0.049 A 
ATOM     57  H   UNL A   1      44.564  28.606  29.947  1.00  0.00     0.167 HD
ATOM     58  C   UNL A   1      42.969  30.834  30.627  1.00  0.00     0.074 A 
ATOM     59  C   UNL A   1      41.813  31.693  30.789  1.00  0.00     0.031 C 
ATOM     60  C   UNL A   1      44.224  31.165  31.019  1.00  0.00     0.031 A 
BRANCH  47  61
ATOM     61  C   UNL A   1      48.413  26.768  29.886  1.00  0.00    -0.014 A 
ATOM     62  C   UNL A   1      49.316  27.049  28.849  1.00  0.00     0.009 A 
ATOM     63  C   UNL A   1      48.863  26.061  31.011  1.00  0.00     0.009 A 
ATOM     64  C   UNL A   1      50.636  26.598  28.923  1.00  0.00     0.001 A 
ATOM     65  C   UNL A   1      50.188  25.631  31.092  1.00  0.00     0.001 A 
ATOM     66  C   UNL A   1      51.070  25.891  30.044  1.00  0.00     0.000 A 
ENDBRANCH  47  61
BRANCH  48  67
ATOM     67  C   UNL A   1      38.806  29.264  29.123  1.00  0.00    -0.014 A 
ATOM     68  C   UNL A   1      37.932  29.075  30.204  1.00  0.00     0.009 A 
ATOM     69  C   UNL A   1      38.303  29.796  27.926  1.00  0.00     0.009 A 
ATOM     70  C   UNL A   1      36.577  29.394  30.080  1.00  0.00     0.001 A 
ATOM     71  C   UNL A   1      36.953  30.137  27.813  1.00  0.00     0.001 A 
ATOM     72  C   UNL A   1      36.090  29.927  28.886  1.00  0.00     0.000 A 
ENDBRANCH  48  67
BRANCH  60  73
ATOM     73  C   UNL A   1      44.415  32.519  31.643  1.00  0.00    -0.014 A 
ATOM     74  C   UNL A   1      44.325  32.698  33.033  1.00  0.00     0.009 A 
ATOM     75  C   UNL A   1      44.725  33.622  30.833  1.00  0.00     0.009 A 
ATOM     76  C   UNL A   1      44.512  33.962  33.595  1.00  0.00     0.001 A 
ATOM     77  C   UNL A   1      44.934  34.880  31.400  1.00  0.00     0.001 A 
ATOM     78  C   UNL A   1      44.821  35.051  32.779  1.00  0.00     0.000 A 
ENDBRANCH  60  73
ENDBRANCH  34  35
ENDBRANCH  27  29
ENDBRANCH  26  27
ENDBRANCH  25  26
ENDBRANCH   1  25
TORSDOF 15
ENDMDL
