MODEL 1
REMARK VINA RESULT:     -12.9      0.000      0.000
REMARK SMILES O=C(OCCOC(=O)c1nccnc1C(=O)Nc1n[nH]c2ncccc12)c1ccc(-c2c3nc(c(-c4ccccc4)c4ccc([nH]4)c(-c4ccccc4)c4nc(c(-c5ccccc5)c5ccc2[nH]5)C=C4)C=C3)cc1
REMARK SMILES IDX 4 1 3 2 2 3 1 4 27 5 28 6 74 7 29 8 73 9 30 10 31 11 32 12
REMARK SMILES IDX 67 13 33 14 72 15 66 16 68 17 34 18 71 19 65 20 64 21 35 23
REMARK SMILES IDX 57 24 42 25 56 26 43 27 46 28 55 29 69 30 44 31 45 32 54 34
REMARK SMILES IDX 70 35 47 36 36 37 37 38 41 39 38 40 40 41 39 42 58 43 59 44
REMARK SMILES IDX 63 45 60 46 62 47 61 48 48 49 49 50 53 51 50 52 52 53 51 54
REMARK SMILES IDX 5 55 6 56 7 57 8 58 9 59 10 60 14 61 11 62 13 63 12 64 15 65
REMARK SMILES IDX 16 66 17 67 18 69 19 70 26 71 20 72 21 73 25 74 22 76 24 77
REMARK SMILES IDX 23 78
REMARK H PARENT 68 22 46 33 17 68 20 75
REMARK Flexibility Score: inf
ROOT
ATOM      1  C   UNL A   1      31.299  27.833  27.499  1.00  0.00     0.275 C 
ENDROOT
BRANCH   1   2
ATOM      2  O   UNL A   1      32.555  28.714  27.502  1.00  0.00    -0.458 OA
BRANCH   2   3
ATOM      3  C   UNL A   1      32.758  30.084  27.305  1.00  0.00     0.338 C 
ATOM      4  O   UNL A   1      31.876  30.851  26.956  1.00  0.00    -0.246 OA
BRANCH   3   5
ATOM      5  C   UNL A   1      34.226  30.521  27.331  1.00  0.00     0.060 A 
ATOM      6  C   UNL A   1      35.121  29.582  26.957  1.00  0.00     0.016 A 
ATOM      7  C   UNL A   1      34.858  31.702  27.677  1.00  0.00     0.016 A 
ATOM      8  C   UNL A   1      36.319  29.423  27.637  1.00  0.00     0.010 A 
ATOM      9  C   UNL A   1      36.257  31.680  28.041  1.00  0.00     0.010 A 
ATOM     10  C   UNL A   1      36.929  30.457  28.277  1.00  0.00    -0.014 A 
BRANCH  10  11
ATOM     11  C   UNL A   1      38.037  30.173  29.294  1.00  0.00     0.031 A 
ATOM     12  C   UNL A   1      39.226  29.390  28.790  1.00  0.00     0.074 A 
ATOM     13  C   UNL A   1      38.213  30.733  30.531  1.00  0.00     0.049 A 
ATOM     14  N   UNL A   1      40.161  28.757  29.448  1.00  0.00    -0.248 NA
ATOM     15  C   UNL A   1      39.391  29.335  27.329  1.00  0.00     0.031 C 
ATOM     16  C   UNL A   1      37.433  31.807  31.136  1.00  0.00     0.029 A 
ATOM     17  N   UNL A   1      39.165  30.513  31.521  1.00  0.00    -0.354 N 
ATOM     18  C   UNL A   1      40.945  28.150  28.475  1.00  0.00     0.074 A 
ATOM     19  C   UNL A   1      40.361  28.453  27.194  1.00  0.00     0.031 C 
ATOM     20  C   UNL A   1      37.899  32.152  32.340  1.00  0.00     0.029 A 
ATOM     21  C   UNL A   1      38.980  31.263  32.674  1.00  0.00     0.049 A 
ATOM     22  H   UNL A   1      39.909  29.877  31.413  1.00  0.00     0.167 HD
ATOM     23  C   UNL A   1      42.075  27.424  28.621  1.00  0.00     0.031 A 
ATOM     24  C   UNL A   1      39.562  31.245  33.892  1.00  0.00     0.031 A 
ATOM     25  C   UNL A   1      42.719  27.203  29.879  1.00  0.00     0.049 A 
ATOM     26  C   UNL A   1      40.687  30.284  34.100  1.00  0.00     0.074 A 
ATOM     27  C   UNL A   1      43.782  26.373  30.174  1.00  0.00     0.029 A 
ATOM     28  N   UNL A   1      42.380  27.864  31.051  1.00  0.00    -0.354 N 
ATOM     29  N   UNL A   1      41.273  29.519  33.213  1.00  0.00    -0.248 NA
ATOM     30  C   UNL A   1      41.236  30.178  35.457  1.00  0.00     0.031 C 
ATOM     31  C   UNL A   1      44.060  26.499  31.539  1.00  0.00     0.029 A 
ATOM     32  C   UNL A   1      43.208  27.451  32.077  1.00  0.00     0.049 A 
ATOM     33  H   UNL A   1      41.658  28.528  31.138  1.00  0.00     0.167 HD
ATOM     34  C   UNL A   1      42.281  28.862  33.895  1.00  0.00     0.074 A 
ATOM     35  C   UNL A   1      42.242  29.337  35.265  1.00  0.00     0.031 C 
ATOM     36  C   UNL A   1      43.157  27.944  33.427  1.00  0.00     0.031 A 
BRANCH  23  37
ATOM     37  C   UNL A   1      42.586  26.752  27.381  1.00  0.00    -0.014 A 
ATOM     38  C   UNL A   1      42.154  25.474  26.990  1.00  0.00     0.009 A 
ATOM     39  C   UNL A   1      43.619  27.373  26.662  1.00  0.00     0.009 A 
ATOM     40  C   UNL A   1      42.793  24.807  25.941  1.00  0.00     0.001 A 
ATOM     41  C   UNL A   1      44.231  26.719  25.594  1.00  0.00     0.001 A 
ATOM     42  C   UNL A   1      43.830  25.430  25.245  1.00  0.00     0.000 A 
ENDBRANCH  23  37
BRANCH  24  43
ATOM     43  C   UNL A   1      39.051  32.080  35.031  1.00  0.00    -0.014 A 
ATOM     44  C   UNL A   1      39.508  33.390  35.250  1.00  0.00     0.009 A 
ATOM     45  C   UNL A   1      38.151  31.531  35.963  1.00  0.00     0.009 A 
ATOM     46  C   UNL A   1      39.115  34.106  36.390  1.00  0.00     0.001 A 
ATOM     47  C   UNL A   1      37.732  32.260  37.082  1.00  0.00     0.001 A 
ATOM     48  C   UNL A   1      38.228  33.540  37.304  1.00  0.00     0.000 A 
ENDBRANCH  24  43
BRANCH  36  49
ATOM     49  C   UNL A   1      44.172  27.430  34.398  1.00  0.00    -0.014 A 
ATOM     50  C   UNL A   1      43.930  26.281  35.163  1.00  0.00     0.009 A 
ATOM     51  C   UNL A   1      45.403  28.092  34.516  1.00  0.00     0.009 A 
ATOM     52  C   UNL A   1      44.895  25.819  36.056  1.00  0.00     0.001 A 
ATOM     53  C   UNL A   1      46.378  27.608  35.385  1.00  0.00     0.001 A 
ATOM     54  C   UNL A   1      46.120  26.479  36.160  1.00  0.00     0.000 A 
ENDBRANCH  36  49
ENDBRANCH  10  11
ENDBRANCH   3   5
ENDBRANCH   2   3
ENDBRANCH   1   2
BRANCH   1  55
ATOM     55  C   UNL A   1      30.814  26.756  26.053  1.00  0.00     0.275 C 
BRANCH  55  56
ATOM     56  O   UNL A   1      31.239  24.760  25.806  1.00  0.00    -0.457 OA
BRANCH  56  57
ATOM     57  C   UNL A   1      31.460  23.366  26.258  1.00  0.00     0.359 C 
ATOM     58  O   UNL A   1      30.849  22.991  27.265  1.00  0.00    -0.244 OA
BRANCH  57  59
ATOM     59  C   UNL A   1      32.433  22.295  25.665  1.00  0.00     0.179 A 
ATOM     60  N   UNL A   1      31.690  21.157  25.390  1.00  0.00    -0.245 NA
ATOM     61  C   UNL A   1      33.779  22.328  25.232  1.00  0.00     0.161 A 
ATOM     62  C   UNL A   1      32.279  20.116  24.740  1.00  0.00     0.132 A 
ATOM     63  N   UNL A   1      34.351  21.184  24.681  1.00  0.00    -0.247 NA
ATOM     64  C   UNL A   1      33.608  20.104  24.439  1.00  0.00     0.132 A 
BRANCH  61  65
ATOM     65  C   UNL A   1      34.922  23.345  25.248  1.00  0.00     0.278 C 
ATOM     66  O   UNL A   1      35.856  23.178  26.046  1.00  0.00    -0.267 OA
ATOM     67  N   UNL A   1      35.050  24.465  24.493  1.00  0.00    -0.303 N 
ATOM     68  H   UNL A   1      35.822  25.040  24.703  1.00  0.00     0.172 HD
BRANCH  67  69
ATOM     69  C   UNL A   1      34.256  24.892  23.496  1.00  0.00     0.164 A 
ATOM     70  N   UNL A   1      33.831  23.952  22.642  1.00  0.00    -0.155 NA
ATOM     71  C   UNL A   1      33.692  26.164  23.339  1.00  0.00     0.063 A 
ATOM     72  N   UNL A   1      32.645  24.347  22.127  1.00  0.00    -0.259 N 
ATOM     73  C   UNL A   1      32.366  25.652  22.323  1.00  0.00     0.157 A 
ATOM     74  C   UNL A   1      33.617  27.923  23.964  1.00  0.00     0.017 A 
ATOM     75  H   UNL A   1      32.036  23.735  21.651  1.00  0.00     0.192 HD
ATOM     76  N   UNL A   1      31.057  26.623  21.901  1.00  0.00    -0.237 NA
ATOM     77  C   UNL A   1      32.221  28.937  23.571  1.00  0.00     0.021 A 
ATOM     78  C   UNL A   1      31.026  28.218  22.562  1.00  0.00     0.113 A 
ENDBRANCH  67  69
ENDBRANCH  61  65
ENDBRANCH  57  59
ENDBRANCH  56  57
ENDBRANCH  55  56
ENDBRANCH   1  55
TORSDOF 13
ENDMDL
MODEL 2
REMARK VINA RESULT:     -12.6      2.162      6.365
REMARK SMILES O=C(OCCOC(=O)c1nccnc1C(=O)Nc1n[nH]c2ncccc12)c1ccc(-c2c3nc(c(-c4ccccc4)c4ccc([nH]4)c(-c4ccccc4)c4nc(c(-c5ccccc5)c5ccc2[nH]5)C=C4)C=C3)cc1
REMARK SMILES IDX 4 1 3 2 2 3 1 4 27 5 28 6 74 7 29 8 73 9 30 10 31 11 32 12
REMARK SMILES IDX 67 13 33 14 72 15 66 16 68 17 34 18 71 19 65 20 64 21 35 23
REMARK SMILES IDX 57 24 42 25 56 26 43 27 46 28 55 29 69 30 44 31 45 32 54 34
REMARK SMILES IDX 70 35 47 36 36 37 37 38 41 39 38 40 40 41 39 42 58 43 59 44
REMARK SMILES IDX 63 45 60 46 62 47 61 48 48 49 49 50 53 51 50 52 52 53 51 54
REMARK SMILES IDX 5 55 6 56 7 57 8 58 9 59 10 60 14 61 11 62 13 63 12 64 15 65
REMARK SMILES IDX 16 66 17 67 18 69 19 70 26 71 20 72 21 73 25 74 22 76 24 77
REMARK SMILES IDX 23 78
REMARK H PARENT 68 22 46 33 17 68 20 75
REMARK Flexibility Score: inf
ROOT
ATOM      1  C   UNL A   1      40.083  21.307  26.384  1.00  0.00     0.275 C 
ENDROOT
BRANCH   1   2
ATOM      2  O   UNL A   1      41.297  22.188  26.057  1.00  0.00    -0.458 OA
BRANCH   2   3
ATOM      3  C   UNL A   1      41.721  23.436  26.524  1.00  0.00     0.338 C 
ATOM      4  O   UNL A   1      42.874  23.681  26.836  1.00  0.00    -0.246 OA
BRANCH   3   5
ATOM      5  C   UNL A   1      40.587  24.417  26.840  1.00  0.00     0.060 A 
ATOM      6  C   UNL A   1      40.675  25.623  26.241  1.00  0.00     0.016 A 
ATOM      7  C   UNL A   1      39.463  24.340  27.642  1.00  0.00     0.016 A 
ATOM      8  C   UNL A   1      40.369  26.788  26.927  1.00  0.00     0.010 A 
ATOM      9  C   UNL A   1      38.832  25.558  28.102  1.00  0.00     0.010 A 
ATOM     10  C   UNL A   1      39.471  26.811  27.946  1.00  0.00    -0.014 A 
BRANCH  10  11
ATOM     11  C   UNL A   1      39.426  28.013  28.893  1.00  0.00     0.031 A 
ATOM     12  C   UNL A   1      40.583  28.155  29.854  1.00  0.00     0.074 A 
ATOM     13  C   UNL A   1      38.606  29.109  28.831  1.00  0.00     0.049 A 
ATOM     14  N   UNL A   1      40.696  28.870  30.941  1.00  0.00    -0.248 NA
ATOM     15  C   UNL A   1      41.795  27.391  29.521  1.00  0.00     0.031 C 
ATOM     16  C   UNL A   1      37.641  29.434  27.787  1.00  0.00     0.029 A 
ATOM     17  N   UNL A   1      38.480  30.220  29.658  1.00  0.00    -0.354 N 
ATOM     18  C   UNL A   1      41.943  28.549  31.462  1.00  0.00     0.074 A 
ATOM     19  C   UNL A   1      42.530  27.554  30.603  1.00  0.00     0.031 C 
ATOM     20  C   UNL A   1      37.037  30.606  28.006  1.00  0.00     0.029 A 
ATOM     21  C   UNL A   1      37.489  31.113  29.275  1.00  0.00     0.049 A 
ATOM     22  H   UNL A   1      39.047  30.361  30.450  1.00  0.00     0.167 HD
ATOM     23  C   UNL A   1      42.569  29.055  32.546  1.00  0.00     0.031 A 
ATOM     24  C   UNL A   1      36.949  32.202  29.862  1.00  0.00     0.031 A 
ATOM     25  C   UNL A   1      42.039  30.116  33.347  1.00  0.00     0.049 A 
ATOM     26  C   UNL A   1      37.525  32.632  31.171  1.00  0.00     0.074 A 
ATOM     27  C   UNL A   1      42.509  30.615  34.545  1.00  0.00     0.029 A 
ATOM     28  N   UNL A   1      40.933  30.875  32.994  1.00  0.00    -0.354 N 
ATOM     29  N   UNL A   1      38.577  32.155  31.788  1.00  0.00    -0.248 NA
ATOM     30  C   UNL A   1      36.858  33.739  31.867  1.00  0.00     0.031 C 
ATOM     31  C   UNL A   1      41.659  31.653  34.942  1.00  0.00     0.029 A 
ATOM     32  C   UNL A   1      40.697  31.835  33.960  1.00  0.00     0.049 A 
ATOM     33  H   UNL A   1      40.396  30.749  32.178  1.00  0.00     0.167 HD
ATOM     34  C   UNL A   1      38.719  32.923  32.930  1.00  0.00     0.074 A 
ATOM     35  C   UNL A   1      37.660  33.912  32.907  1.00  0.00     0.031 C 
ATOM     36  C   UNL A   1      39.645  32.813  33.911  1.00  0.00     0.031 A 
BRANCH  23  37
ATOM     37  C   UNL A   1      43.840  28.366  32.948  1.00  0.00    -0.014 A 
ATOM     38  C   UNL A   1      45.104  28.842  32.562  1.00  0.00     0.009 A 
ATOM     39  C   UNL A   1      43.749  27.140  33.625  1.00  0.00     0.009 A 
ATOM     40  C   UNL A   1      46.245  28.069  32.792  1.00  0.00     0.001 A 
ATOM     41  C   UNL A   1      44.894  26.388  33.884  1.00  0.00     0.001 A 
ATOM     42  C   UNL A   1      46.139  26.844  33.452  1.00  0.00     0.000 A 
ENDBRANCH  23  37
BRANCH  24  43
ATOM     43  C   UNL A   1      35.756  32.907  29.284  1.00  0.00    -0.014 A 
ATOM     44  C   UNL A   1      34.508  32.272  29.161  1.00  0.00     0.009 A 
ATOM     45  C   UNL A   1      35.885  34.211  28.772  1.00  0.00     0.009 A 
ATOM     46  C   UNL A   1      33.443  32.903  28.504  1.00  0.00     0.001 A 
ATOM     47  C   UNL A   1      34.809  34.854  28.148  1.00  0.00     0.001 A 
ATOM     48  C   UNL A   1      33.594  34.193  27.998  1.00  0.00     0.000 A 
ENDBRANCH  24  43
BRANCH  36  49
ATOM     49  C   UNL A   1      39.573  33.819  35.016  1.00  0.00    -0.014 A 
ATOM     50  C   UNL A   1      38.894  33.541  36.210  1.00  0.00     0.009 A 
ATOM     51  C   UNL A   1      40.229  35.049  34.864  1.00  0.00     0.009 A 
ATOM     52  C   UNL A   1      38.848  34.493  37.226  1.00  0.00     0.001 A 
ATOM     53  C   UNL A   1      40.209  35.986  35.895  1.00  0.00     0.001 A 
ATOM     54  C   UNL A   1      39.512  35.711  37.070  1.00  0.00     0.000 A 
ENDBRANCH  36  49
ENDBRANCH  10  11
ENDBRANCH   3   5
ENDBRANCH   2   3
ENDBRANCH   1   2
BRANCH   1  55
ATOM     55  C   UNL A   1      38.534  21.280  25.342  1.00  0.00     0.275 C 
BRANCH  55  56
ATOM     56  O   UNL A   1      36.707  22.085  25.828  1.00  0.00    -0.457 OA
BRANCH  56  57
ATOM     57  C   UNL A   1      35.230  22.192  25.786  1.00  0.00     0.359 C 
ATOM     58  O   UNL A   1      34.718  23.191  26.303  1.00  0.00    -0.244 OA
BRANCH  57  59
ATOM     59  C   UNL A   1      34.197  21.162  25.225  1.00  0.00     0.179 A 
ATOM     60  N   UNL A   1      34.871  19.973  24.993  1.00  0.00    -0.245 NA
ATOM     61  C   UNL A   1      32.789  21.163  25.086  1.00  0.00     0.161 A 
ATOM     62  C   UNL A   1      34.168  18.867  24.625  1.00  0.00     0.132 A 
ATOM     63  N   UNL A   1      32.148  20.030  24.590  1.00  0.00    -0.247 NA
ATOM     64  C   UNL A   1      32.830  18.906  24.370  1.00  0.00     0.132 A 
BRANCH  61  65
ATOM     65  C   UNL A   1      31.657  22.172  25.289  1.00  0.00     0.278 C 
ATOM     66  O   UNL A   1      30.746  21.894  26.082  1.00  0.00    -0.267 OA
ATOM     67  N   UNL A   1      31.494  23.373  24.677  1.00  0.00    -0.303 N 
ATOM     68  H   UNL A   1      30.657  23.849  24.881  1.00  0.00     0.172 HD
BRANCH  67  69
ATOM     69  C   UNL A   1      32.329  23.994  23.826  1.00  0.00     0.164 A 
ATOM     70  N   UNL A   1      32.478  23.417  22.626  1.00  0.00    -0.155 NA
ATOM     71  C   UNL A   1      32.929  25.249  23.983  1.00  0.00     0.063 A 
ATOM     72  N   UNL A   1      32.792  24.377  21.726  1.00  0.00    -0.259 N 
ATOM     73  C   UNL A   1      33.187  25.542  22.280  1.00  0.00     0.157 A 
ATOM     74  C   UNL A   1      33.239  26.696  25.122  1.00  0.00     0.017 A 
ATOM     75  H   UNL A   1      32.736  24.239  20.753  1.00  0.00     0.192 HD
ATOM     76  N   UNL A   1      33.671  27.017  21.628  1.00  0.00    -0.237 NA
ATOM     77  C   UNL A   1      33.696  28.266  24.446  1.00  0.00     0.021 A 
ATOM     78  C   UNL A   1      33.882  28.325  22.736  1.00  0.00     0.113 A 
ENDBRANCH  67  69
ENDBRANCH  61  65
ENDBRANCH  57  59
ENDBRANCH  56  57
ENDBRANCH  55  56
ENDBRANCH   1  55
TORSDOF 13
ENDMDL
MODEL 3
REMARK VINA RESULT:     -12.5      1.794      6.572
REMARK SMILES O=C(OCCOC(=O)c1nccnc1C(=O)Nc1n[nH]c2ncccc12)c1ccc(-c2c3nc(c(-c4ccccc4)c4ccc([nH]4)c(-c4ccccc4)c4nc(c(-c5ccccc5)c5ccc2[nH]5)C=C4)C=C3)cc1
REMARK SMILES IDX 4 1 3 2 2 3 1 4 27 5 28 6 74 7 29 8 73 9 30 10 31 11 32 12
REMARK SMILES IDX 67 13 33 14 72 15 66 16 68 17 34 18 71 19 65 20 64 21 35 23
REMARK SMILES IDX 57 24 42 25 56 26 43 27 46 28 55 29 69 30 44 31 45 32 54 34
REMARK SMILES IDX 70 35 47 36 36 37 37 38 41 39 38 40 40 41 39 42 58 43 59 44
REMARK SMILES IDX 63 45 60 46 62 47 61 48 48 49 49 50 53 51 50 52 52 53 51 54
REMARK SMILES IDX 5 55 6 56 7 57 8 58 9 59 10 60 14 61 11 62 13 63 12 64 15 65
REMARK SMILES IDX 16 66 17 67 18 69 19 70 26 71 20 72 21 73 25 74 22 76 24 77
REMARK SMILES IDX 23 78
REMARK H PARENT 68 22 46 33 17 68 20 75
REMARK Flexibility Score: inf
ROOT
ATOM      1  C   UNL A   1      38.657  22.228  26.081  1.00  0.00     0.275 C 
ENDROOT
BRANCH   1   2
ATOM      2  O   UNL A   1      40.061  22.048  26.674  1.00  0.00    -0.458 OA
BRANCH   2   3
ATOM      3  C   UNL A   1      41.341  22.348  26.197  1.00  0.00     0.338 C 
ATOM      4  O   UNL A   1      42.108  21.510  25.755  1.00  0.00    -0.246 OA
BRANCH   3   5
ATOM      5  C   UNL A   1      41.809  23.779  26.485  1.00  0.00     0.060 A 
ATOM      6  C   UNL A   1      42.599  23.927  27.571  1.00  0.00     0.016 A 
ATOM      7  C   UNL A   1      41.583  24.994  25.865  1.00  0.00     0.016 A 
ATOM      8  C   UNL A   1      42.436  24.999  28.434  1.00  0.00     0.010 A 
ATOM      9  C   UNL A   1      41.771  26.219  26.610  1.00  0.00     0.010 A 
ATOM     10  C   UNL A   1      41.950  26.197  28.013  1.00  0.00    -0.014 A 
BRANCH  10  11
ATOM     11  C   UNL A   1      41.459  27.221  29.040  1.00  0.00     0.031 A 
ATOM     12  C   UNL A   1      42.323  27.410  30.265  1.00  0.00     0.074 A 
ATOM     13  C   UNL A   1      40.473  28.160  28.894  1.00  0.00     0.049 A 
ATOM     14  N   UNL A   1      42.047  27.965  31.415  1.00  0.00    -0.248 NA
ATOM     15  C   UNL A   1      43.706  26.919  30.162  1.00  0.00     0.031 C 
ATOM     16  C   UNL A   1      39.718  28.470  27.684  1.00  0.00     0.029 A 
ATOM     17  N   UNL A   1      39.949  29.099  29.776  1.00  0.00    -0.354 N 
ATOM     18  C   UNL A   1      43.186  27.785  32.190  1.00  0.00     0.074 A 
ATOM     19  C   UNL A   1      44.135  27.041  31.402  1.00  0.00     0.031 C 
ATOM     20  C   UNL A   1      38.861  29.478  27.870  1.00  0.00     0.029 A 
ATOM     21  C   UNL A   1      38.910  29.860  29.257  1.00  0.00     0.049 A 
ATOM     22  H   UNL A   1      40.287  29.214  30.693  1.00  0.00     0.167 HD
ATOM     23  C   UNL A   1      43.444  28.222  33.441  1.00  0.00     0.031 A 
ATOM     24  C   UNL A   1      38.049  30.743  29.804  1.00  0.00     0.031 A 
ATOM     25  C   UNL A   1      42.550  29.048  34.194  1.00  0.00     0.049 A 
ATOM     26  C   UNL A   1      38.224  31.064  31.252  1.00  0.00     0.074 A 
ATOM     27  C   UNL A   1      42.634  29.436  35.516  1.00  0.00     0.029 A 
ATOM     28  N   UNL A   1      41.421  29.654  33.662  1.00  0.00    -0.354 N 
ATOM     29  N   UNL A   1      39.186  30.685  32.055  1.00  0.00    -0.248 NA
ATOM     30  C   UNL A   1      37.213  31.928  31.874  1.00  0.00     0.031 C 
ATOM     31  C   UNL A   1      41.529  30.245  35.798  1.00  0.00     0.029 A 
ATOM     32  C   UNL A   1      40.792  30.407  34.635  1.00  0.00     0.049 A 
ATOM     33  H   UNL A   1      41.115  29.562  32.730  1.00  0.00     0.167 HD
ATOM     34  C   UNL A   1      38.916  31.288  33.271  1.00  0.00     0.074 A 
ATOM     35  C   UNL A   1      37.713  32.077  33.092  1.00  0.00     0.031 C 
ATOM     36  C   UNL A   1      39.604  31.190  34.432  1.00  0.00     0.031 A 
BRANCH  23  37
ATOM     37  C   UNL A   1      44.704  27.704  34.068  1.00  0.00    -0.014 A 
ATOM     38  C   UNL A   1      44.757  26.467  34.732  1.00  0.00     0.009 A 
ATOM     39  C   UNL A   1      45.829  28.543  34.098  1.00  0.00     0.009 A 
ATOM     40  C   UNL A   1      45.892  26.111  35.465  1.00  0.00     0.001 A 
ATOM     41  C   UNL A   1      46.973  28.169  34.801  1.00  0.00     0.001 A 
ATOM     42  C   UNL A   1      46.998  26.962  35.499  1.00  0.00     0.000 A 
ENDBRANCH  23  37
BRANCH  24  43
ATOM     43  C   UNL A   1      36.898  31.316  29.028  1.00  0.00    -0.014 A 
ATOM     44  C   UNL A   1      36.900  32.645  28.573  1.00  0.00     0.009 A 
ATOM     45  C   UNL A   1      35.740  30.546  28.807  1.00  0.00     0.009 A 
ATOM     46  C   UNL A   1      35.765  33.198  27.964  1.00  0.00     0.001 A 
ATOM     47  C   UNL A   1      34.620  31.088  28.166  1.00  0.00     0.001 A 
ATOM     48  C   UNL A   1      34.627  32.419  27.761  1.00  0.00     0.000 A 
ENDBRANCH  24  43
BRANCH  36  49
ATOM     49  C   UNL A   1      39.091  31.995  35.584  1.00  0.00    -0.014 A 
ATOM     50  C   UNL A   1      39.395  33.358  35.711  1.00  0.00     0.009 A 
ATOM     51  C   UNL A   1      38.263  31.380  36.533  1.00  0.00     0.009 A 
ATOM     52  C   UNL A   1      38.899  34.087  36.790  1.00  0.00     0.001 A 
ATOM     53  C   UNL A   1      37.742  32.120  37.593  1.00  0.00     0.001 A 
ATOM     54  C   UNL A   1      38.068  33.468  37.725  1.00  0.00     0.000 A 
ENDBRANCH  36  49
ENDBRANCH  10  11
ENDBRANCH   3   5
ENDBRANCH   2   3
ENDBRANCH   1   2
BRANCH   1  55
ATOM     55  C   UNL A   1      37.817  23.889  25.936  1.00  0.00     0.275 C 
BRANCH  55  56
ATOM     56  O   UNL A   1      35.807  24.235  25.680  1.00  0.00    -0.457 OA
BRANCH  56  57
ATOM     57  C   UNL A   1      34.374  23.862  25.624  1.00  0.00     0.359 C 
ATOM     58  O   UNL A   1      33.597  24.480  26.359  1.00  0.00    -0.244 OA
BRANCH  57  59
ATOM     59  C   UNL A   1      33.699  22.721  24.795  1.00  0.00     0.179 A 
ATOM     60  N   UNL A   1      33.546  21.626  25.632  1.00  0.00    -0.245 NA
ATOM     61  C   UNL A   1      33.109  22.661  23.511  1.00  0.00     0.161 A 
ATOM     62  C   UNL A   1      32.858  20.538  25.189  1.00  0.00     0.132 A 
ATOM     63  N   UNL A   1      32.525  21.472  23.079  1.00  0.00    -0.247 NA
ATOM     64  C   UNL A   1      32.403  20.436  23.909  1.00  0.00     0.132 A 
BRANCH  61  65
ATOM     65  C   UNL A   1      32.962  23.603  22.315  1.00  0.00     0.278 C 
ATOM     66  O   UNL A   1      33.523  23.307  21.250  1.00  0.00    -0.267 OA
ATOM     67  N   UNL A   1      32.292  24.783  22.263  1.00  0.00    -0.303 N 
ATOM     68  H   UNL A   1      32.378  25.289  21.423  1.00  0.00     0.172 HD
BRANCH  67  69
ATOM     69  C   UNL A   1      31.529  25.349  23.213  1.00  0.00     0.164 A 
ATOM     70  N   UNL A   1      30.367  24.736  23.475  1.00  0.00    -0.155 NA
ATOM     71  C   UNL A   1      31.874  26.402  24.070  1.00  0.00     0.063 A 
ATOM     72  N   UNL A   1      30.028  24.992  24.758  1.00  0.00    -0.259 N 
ATOM     73  C   UNL A   1      30.716  26.009  25.317  1.00  0.00     0.157 A 
ATOM     74  C   UNL A   1      33.137  27.708  24.503  1.00  0.00     0.017 A 
ATOM     75  H   UNL A   1      29.340  24.480  25.243  1.00  0.00     0.192 HD
ATOM     76  N   UNL A   1      30.686  26.710  26.847  1.00  0.00    -0.237 NA
ATOM     77  C   UNL A   1      33.150  28.416  26.126  1.00  0.00     0.021 A 
ATOM     78  C   UNL A   1      31.919  27.868  27.197  1.00  0.00     0.113 A 
ENDBRANCH  67  69
ENDBRANCH  61  65
ENDBRANCH  57  59
ENDBRANCH  56  57
ENDBRANCH  55  56
ENDBRANCH   1  55
TORSDOF 13
ENDMDL
