MODEL 1
REMARK VINA RESULT:     -13.3      0.000      0.000
REMARK SMILES O=C(OCCOC(=O)c1ccc(-c2c3nc(c(-c4ccccc4)c4ccc([nH]4)c(-c4ccccc4)c4nc(c(-c5ccccc5)c5ccc2[nH]5)C=C4)C=C3)cc1)C1=Cc2c(Cl)cc(Cl)cc2O[C@@H]1C(F)(F)F
REMARK SMILES IDX 5 1 4 2 3 3 2 4 1 5 57 6 58 7 68 8 59 9 67 10 60 11 66 12
REMARK SMILES IDX 61 13 62 14 65 15 63 16 64 17 69 18 70 19 71 20 72 21 6 22
REMARK SMILES IDX 7 23 8 24 9 25 10 26 56 27 11 28 55 29 12 30 13 31 14 32
REMARK SMILES IDX 49 33 15 34 54 35 48 36 50 37 16 38 53 39 47 40 46 41 17 43
REMARK SMILES IDX 39 44 24 45 38 46 25 47 28 48 37 49 51 50 26 51 27 52 36 54
REMARK SMILES IDX 52 55 29 56 18 57 19 58 23 59 20 60 22 61 21 62 40 63 41 64
REMARK SMILES IDX 45 65 42 66 44 67 43 68 30 69 31 70 35 71 32 72 34 73 33 74
REMARK H PARENT 50 42 28 53
REMARK Flexibility Score: inf
ROOT
ATOM      1  C   UNL A   1      31.562  31.827  26.845  1.00  0.00     0.275 C 
ENDROOT
BRANCH   1   2
ATOM      2  C   UNL A   1      32.869  30.206  26.267  1.00  0.00     0.275 C 
BRANCH   2   3
ATOM      3  O   UNL A   1      32.997  28.826  26.965  1.00  0.00    -0.459 OA
BRANCH   3   4
ATOM      4  C   UNL A   1      31.959  28.016  26.719  1.00  0.00     0.338 C 
ATOM      5  O   UNL A   1      31.169  27.524  27.484  1.00  0.00    -0.246 OA
BRANCH   4   6
ATOM      6  C   UNL A   1      32.410  27.621  25.404  1.00  0.00     0.087 C 
ATOM      7  C   UNL A   1      33.448  26.599  25.440  1.00  0.00     0.029 C 
ATOM      8  C   UNL A   1      30.647  27.409  24.666  1.00  0.00     0.316 C 
ATOM      9  C   UNL A   1      33.168  24.879  24.974  1.00  0.00     0.036 A 
ATOM     10  O   UNL A   1      30.286  25.558  24.233  1.00  0.00    -0.475 OA
ATOM     11  C   UNL A   1      34.141  23.943  25.214  1.00  0.00     0.053 A 
ATOM     12  C   UNL A   1      31.602  24.308  24.479  1.00  0.00     0.130 A 
ATOM     13  Cl  UNL A   1      35.730  24.342  25.718  1.00  0.00    -0.083 Cl
ATOM     14  C   UNL A   1      33.746  22.606  25.068  1.00  0.00     0.042 A 
ATOM     15  C   UNL A   1      31.296  22.981  24.351  1.00  0.00     0.067 A 
ATOM     16  C   UNL A   1      32.411  22.160  24.675  1.00  0.00     0.046 A 
ATOM     17  Cl  UNL A   1      32.190  20.438  24.651  1.00  0.00    -0.084 Cl
BRANCH   8  18
ATOM     18  C   UNL A   1      30.735  28.765  23.833  1.00  0.00     0.430 C 
ATOM     19  F   UNL A   1      31.919  28.903  23.233  1.00  0.00    -0.167 F 
ATOM     20  F   UNL A   1      29.864  28.693  22.777  1.00  0.00    -0.167 F 
ATOM     21  F   UNL A   1      30.356  29.908  24.435  1.00  0.00    -0.167 F 
ENDBRANCH   8  18
ENDBRANCH   4   6
ENDBRANCH   3   4
ENDBRANCH   2   3
ENDBRANCH   1   2
BRANCH   1  22
ATOM     22  O   UNL A   1      32.102  33.441  27.254  1.00  0.00    -0.458 OA
BRANCH  22  23
ATOM     23  C   UNL A   1      32.858  34.161  28.155  1.00  0.00     0.338 C 
ATOM     24  O   UNL A   1      32.518  35.034  28.932  1.00  0.00    -0.246 OA
BRANCH  23  25
ATOM     25  C   UNL A   1      34.146  33.407  28.318  1.00  0.00     0.060 A 
ATOM     26  C   UNL A   1      35.348  33.997  27.881  1.00  0.00     0.016 A 
ATOM     27  C   UNL A   1      34.193  32.347  29.218  1.00  0.00     0.016 A 
ATOM     28  C   UNL A   1      36.550  33.721  28.569  1.00  0.00     0.010 A 
ATOM     29  C   UNL A   1      35.391  32.058  29.876  1.00  0.00     0.010 A 
ATOM     30  C   UNL A   1      36.554  32.812  29.637  1.00  0.00    -0.014 A 
BRANCH  30  31
ATOM     31  C   UNL A   1      37.788  32.453  30.393  1.00  0.00     0.031 A 
ATOM     32  C   UNL A   1      38.521  31.244  29.899  1.00  0.00     0.074 A 
ATOM     33  C   UNL A   1      38.171  33.046  31.546  1.00  0.00     0.049 A 
ATOM     34  N   UNL A   1      39.480  30.561  30.462  1.00  0.00    -0.248 NA
ATOM     35  C   UNL A   1      38.065  30.711  28.604  1.00  0.00     0.031 C 
ATOM     36  C   UNL A   1      37.567  34.233  32.153  1.00  0.00     0.029 A 
ATOM     37  N   UNL A   1      39.164  32.699  32.444  1.00  0.00    -0.354 N 
ATOM     38  C   UNL A   1      39.714  29.497  29.605  1.00  0.00     0.074 A 
ATOM     39  C   UNL A   1      38.779  29.605  28.511  1.00  0.00     0.031 C 
ATOM     40  C   UNL A   1      38.185  34.501  33.322  1.00  0.00     0.029 A 
ATOM     41  C   UNL A   1      39.210  33.489  33.574  1.00  0.00     0.049 A 
ATOM     42  H   UNL A   1      39.785  31.951  32.288  1.00  0.00     0.167 HD
ATOM     43  C   UNL A   1      40.625  28.507  29.715  1.00  0.00     0.031 A 
ATOM     44  C   UNL A   1      39.975  33.390  34.686  1.00  0.00     0.031 A 
ATOM     45  C   UNL A   1      41.543  28.375  30.805  1.00  0.00     0.049 A 
ATOM     46  C   UNL A   1      40.960  32.242  34.804  1.00  0.00     0.074 A 
ATOM     47  C   UNL A   1      42.531  27.425  30.984  1.00  0.00     0.029 A 
ATOM     48  N   UNL A   1      41.574  29.212  31.908  1.00  0.00    -0.354 N 
ATOM     49  N   UNL A   1      41.234  31.291  33.943  1.00  0.00    -0.248 NA
ATOM     50  C   UNL A   1      41.741  32.151  36.053  1.00  0.00     0.031 C 
ATOM     51  C   UNL A   1      43.124  27.655  32.228  1.00  0.00     0.029 A 
ATOM     52  C   UNL A   1      42.546  28.782  32.789  1.00  0.00     0.049 A 
ATOM     53  H   UNL A   1      40.991  29.995  32.042  1.00  0.00     0.167 HD
ATOM     54  C   UNL A   1      42.235  30.521  34.527  1.00  0.00     0.074 A 
ATOM     55  C   UNL A   1      42.535  31.118  35.809  1.00  0.00     0.031 C 
ATOM     56  C   UNL A   1      42.849  29.411  34.048  1.00  0.00     0.031 A 
BRANCH  43  57
ATOM     57  C   UNL A   1      40.621  27.476  28.628  1.00  0.00    -0.014 A 
ATOM     58  C   UNL A   1      41.381  27.651  27.461  1.00  0.00     0.009 A 
ATOM     59  C   UNL A   1      39.805  26.342  28.753  1.00  0.00     0.009 A 
ATOM     60  C   UNL A   1      41.283  26.736  26.415  1.00  0.00     0.001 A 
ATOM     61  C   UNL A   1      39.738  25.409  27.718  1.00  0.00     0.001 A 
ATOM     62  C   UNL A   1      40.465  25.614  26.546  1.00  0.00     0.000 A 
ENDBRANCH  43  57
BRANCH  44  63
ATOM     63  C   UNL A   1      39.859  34.359  35.822  1.00  0.00    -0.014 A 
ATOM     64  C   UNL A   1      40.634  35.534  35.841  1.00  0.00     0.009 A 
ATOM     65  C   UNL A   1      39.074  34.064  36.947  1.00  0.00     0.009 A 
ATOM     66  C   UNL A   1      40.664  36.358  36.974  1.00  0.00     0.001 A 
ATOM     67  C   UNL A   1      39.080  34.908  38.067  1.00  0.00     0.001 A 
ATOM     68  C   UNL A   1      39.887  36.044  38.085  1.00  0.00     0.000 A 
ENDBRANCH  44  63
BRANCH  56  69
ATOM     69  C   UNL A   1      43.940  28.787  34.874  1.00  0.00    -0.014 A 
ATOM     70  C   UNL A   1      45.272  29.213  34.764  1.00  0.00     0.009 A 
ATOM     71  C   UNL A   1      43.605  27.847  35.863  1.00  0.00     0.009 A 
ATOM     72  C   UNL A   1      46.248  28.704  35.623  1.00  0.00     0.001 A 
ATOM     73  C   UNL A   1      44.575  27.364  36.739  1.00  0.00     0.001 A 
ATOM     74  C   UNL A   1      45.897  27.789  36.617  1.00  0.00     0.000 A 
ENDBRANCH  56  69
ENDBRANCH  30  31
ENDBRANCH  23  25
ENDBRANCH  22  23
ENDBRANCH   1  22
TORSDOF 12
ENDMDL
MODEL 2
REMARK VINA RESULT:     -13.2      5.486      9.859
REMARK SMILES O=C(OCCOC(=O)c1ccc(-c2c3nc(c(-c4ccccc4)c4ccc([nH]4)c(-c4ccccc4)c4nc(c(-c5ccccc5)c5ccc2[nH]5)C=C4)C=C3)cc1)C1=Cc2c(Cl)cc(Cl)cc2O[C@@H]1C(F)(F)F
REMARK SMILES IDX 5 1 4 2 3 3 2 4 1 5 57 6 58 7 68 8 59 9 67 10 60 11 66 12
REMARK SMILES IDX 61 13 62 14 65 15 63 16 64 17 69 18 70 19 71 20 72 21 6 22
REMARK SMILES IDX 7 23 8 24 9 25 10 26 56 27 11 28 55 29 12 30 13 31 14 32
REMARK SMILES IDX 49 33 15 34 54 35 48 36 50 37 16 38 53 39 47 40 46 41 17 43
REMARK SMILES IDX 39 44 24 45 38 46 25 47 28 48 37 49 51 50 26 51 27 52 36 54
REMARK SMILES IDX 52 55 29 56 18 57 19 58 23 59 20 60 22 61 21 62 40 63 41 64
REMARK SMILES IDX 45 65 42 66 44 67 43 68 30 69 31 70 35 71 32 72 34 73 33 74
REMARK H PARENT 50 42 28 53
REMARK Flexibility Score: inf
ROOT
ATOM      1  C   UNL A   1      38.071  19.929  24.895  1.00  0.00     0.275 C 
ENDROOT
BRANCH   1   2
ATOM      2  C   UNL A   1      37.180  21.764  25.610  1.00  0.00     0.275 C 
BRANCH   2   3
ATOM      3  O   UNL A   1      36.892  23.039  24.774  1.00  0.00    -0.459 OA
BRANCH   3   4
ATOM      4  C   UNL A   1      35.908  22.870  23.882  1.00  0.00     0.338 C 
ATOM      5  O   UNL A   1      35.926  22.996  22.684  1.00  0.00    -0.246 OA
BRANCH   4   6
ATOM      6  C   UNL A   1      34.839  22.954  24.850  1.00  0.00     0.087 C 
ATOM      7  C   UNL A   1      34.562  24.320  25.278  1.00  0.00     0.029 C 
ATOM      8  C   UNL A   1      33.631  21.812  23.882  1.00  0.00     0.316 C 
ATOM      9  C   UNL A   1      33.094  25.240  24.779  1.00  0.00     0.036 A 
ATOM     10  O   UNL A   1      32.083  22.792  23.262  1.00  0.00    -0.475 OA
ATOM     11  C   UNL A   1      32.999  26.578  25.068  1.00  0.00     0.053 A 
ATOM     12  C   UNL A   1      31.908  24.561  23.704  1.00  0.00     0.130 A 
ATOM     13  Cl  UNL A   1      34.094  27.399  26.100  1.00  0.00    -0.083 Cl
ATOM     14  C   UNL A   1      31.963  27.267  24.424  1.00  0.00     0.042 A 
ATOM     15  C   UNL A   1      30.917  25.301  23.119  1.00  0.00     0.067 A 
ATOM     16  C   UNL A   1      30.999  26.668  23.503  1.00  0.00     0.046 A 
ATOM     17  Cl  UNL A   1      29.872  27.783  22.794  1.00  0.00    -0.084 Cl
BRANCH   8  18
ATOM     18  C   UNL A   1      33.865  20.580  24.868  1.00  0.00     0.430 C 
ATOM     19  F   UNL A   1      33.920  20.968  26.144  1.00  0.00    -0.167 F 
ATOM     20  F   UNL A   1      32.756  19.775  24.841  1.00  0.00    -0.167 F 
ATOM     21  F   UNL A   1      34.853  19.712  24.578  1.00  0.00    -0.167 F 
ENDBRANCH   8  18
ENDBRANCH   4   6
ENDBRANCH   3   4
ENDBRANCH   2   3
ENDBRANCH   1   2
BRANCH   1  22
ATOM     22  O   UNL A   1      39.503  19.188  25.578  1.00  0.00    -0.458 OA
BRANCH  22  23
ATOM     23  C   UNL A   1      40.814  19.429  25.932  1.00  0.00     0.338 C 
ATOM     24  O   UNL A   1      41.831  18.864  25.577  1.00  0.00    -0.246 OA
BRANCH  23  25
ATOM     25  C   UNL A   1      40.836  20.799  26.546  1.00  0.00     0.060 A 
ATOM     26  C   UNL A   1      41.097  20.931  27.923  1.00  0.00     0.016 A 
ATOM     27  C   UNL A   1      40.984  21.904  25.713  1.00  0.00     0.016 A 
ATOM     28  C   UNL A   1      41.781  22.072  28.397  1.00  0.00     0.010 A 
ATOM     29  C   UNL A   1      41.637  23.042  26.193  1.00  0.00     0.010 A 
ATOM     30  C   UNL A   1      42.138  23.096  27.507  1.00  0.00    -0.014 A 
BRANCH  30  31
ATOM     31  C   UNL A   1      42.839  24.339  27.938  1.00  0.00     0.031 A 
ATOM     32  C   UNL A   1      41.951  25.478  28.337  1.00  0.00     0.074 A 
ATOM     33  C   UNL A   1      44.173  24.530  27.839  1.00  0.00     0.049 A 
ATOM     34  N   UNL A   1      42.245  26.733  28.542  1.00  0.00    -0.248 NA
ATOM     35  C   UNL A   1      40.522  25.150  28.474  1.00  0.00     0.031 C 
ATOM     36  C   UNL A   1      45.169  23.522  27.473  1.00  0.00     0.029 A 
ATOM     37  N   UNL A   1      44.928  25.676  28.014  1.00  0.00    -0.354 N 
ATOM     38  C   UNL A   1      41.029  27.349  28.795  1.00  0.00     0.074 A 
ATOM     39  C   UNL A   1      39.999  26.343  28.685  1.00  0.00     0.031 C 
ATOM     40  C   UNL A   1      46.391  24.094  27.432  1.00  0.00     0.029 A 
ATOM     41  C   UNL A   1      46.271  25.519  27.735  1.00  0.00     0.049 A 
ATOM     42  H   UNL A   1      44.540  26.530  28.311  1.00  0.00     0.167 HD
ATOM     43  C   UNL A   1      40.782  28.643  29.093  1.00  0.00     0.031 A 
ATOM     44  C   UNL A   1      47.275  26.427  27.709  1.00  0.00     0.031 A 
ATOM     45  C   UNL A   1      41.791  29.654  29.184  1.00  0.00     0.049 A 
ATOM     46  C   UNL A   1      46.962  27.882  28.003  1.00  0.00     0.074 A 
ATOM     47  C   UNL A   1      41.640  30.986  29.519  1.00  0.00     0.029 A 
ATOM     48  N   UNL A   1      43.135  29.444  28.926  1.00  0.00    -0.354 N 
ATOM     49  N   UNL A   1      45.819  28.436  28.331  1.00  0.00    -0.248 NA
ATOM     50  C   UNL A   1      48.081  28.840  27.919  1.00  0.00     0.031 C 
ATOM     51  C   UNL A   1      42.891  31.599  29.406  1.00  0.00     0.029 A 
ATOM     52  C   UNL A   1      43.824  30.633  29.064  1.00  0.00     0.049 A 
ATOM     53  H   UNL A   1      43.538  28.579  28.682  1.00  0.00     0.167 HD
ATOM     54  C   UNL A   1      46.090  29.787  28.525  1.00  0.00     0.074 A 
ATOM     55  C   UNL A   1      47.505  29.974  28.296  1.00  0.00     0.031 C 
ATOM     56  C   UNL A   1      45.240  30.790  28.859  1.00  0.00     0.031 A 
BRANCH  43  57
ATOM     57  C   UNL A   1      39.345  29.015  29.295  1.00  0.00    -0.014 A 
ATOM     58  C   UNL A   1      38.742  28.914  30.559  1.00  0.00     0.009 A 
ATOM     59  C   UNL A   1      38.575  29.423  28.197  1.00  0.00     0.009 A 
ATOM     60  C   UNL A   1      37.379  29.162  30.708  1.00  0.00     0.001 A 
ATOM     61  C   UNL A   1      37.219  29.706  28.358  1.00  0.00     0.001 A 
ATOM     62  C   UNL A   1      36.620  29.561  29.609  1.00  0.00     0.000 A 
ENDBRANCH  43  57
BRANCH  44  63
ATOM     63  C   UNL A   1      48.682  26.047  27.366  1.00  0.00    -0.014 A 
ATOM     64  C   UNL A   1      49.580  25.645  28.373  1.00  0.00     0.009 A 
ATOM     65  C   UNL A   1      49.176  26.200  26.061  1.00  0.00     0.009 A 
ATOM     66  C   UNL A   1      50.939  25.456  28.092  1.00  0.00     0.001 A 
ATOM     67  C   UNL A   1      50.530  25.978  25.776  1.00  0.00     0.001 A 
ATOM     68  C   UNL A   1      51.413  25.622  26.793  1.00  0.00     0.000 A 
ENDBRANCH  44  63
BRANCH  56  69
ATOM     69  C   UNL A   1      45.806  32.170  29.049  1.00  0.00    -0.014 A 
ATOM     70  C   UNL A   1      46.343  32.575  30.281  1.00  0.00     0.009 A 
ATOM     71  C   UNL A   1      45.912  33.030  27.944  1.00  0.00     0.009 A 
ATOM     72  C   UNL A   1      46.969  33.817  30.401  1.00  0.00     0.001 A 
ATOM     73  C   UNL A   1      46.565  34.256  28.060  1.00  0.00     0.001 A 
ATOM     74  C   UNL A   1      47.090  34.651  29.289  1.00  0.00     0.000 A 
ENDBRANCH  56  69
ENDBRANCH  30  31
ENDBRANCH  23  25
ENDBRANCH  22  23
ENDBRANCH   1  22
TORSDOF 12
ENDMDL
MODEL 3
REMARK VINA RESULT:     -13.0      1.272      1.868
REMARK SMILES O=C(OCCOC(=O)c1ccc(-c2c3nc(c(-c4ccccc4)c4ccc([nH]4)c(-c4ccccc4)c4nc(c(-c5ccccc5)c5ccc2[nH]5)C=C4)C=C3)cc1)C1=Cc2c(Cl)cc(Cl)cc2O[C@@H]1C(F)(F)F
REMARK SMILES IDX 5 1 4 2 3 3 2 4 1 5 57 6 58 7 68 8 59 9 67 10 60 11 66 12
REMARK SMILES IDX 61 13 62 14 65 15 63 16 64 17 69 18 70 19 71 20 72 21 6 22
REMARK SMILES IDX 7 23 8 24 9 25 10 26 56 27 11 28 55 29 12 30 13 31 14 32
REMARK SMILES IDX 49 33 15 34 54 35 48 36 50 37 16 38 53 39 47 40 46 41 17 43
REMARK SMILES IDX 39 44 24 45 38 46 25 47 28 48 37 49 51 50 26 51 27 52 36 54
REMARK SMILES IDX 52 55 29 56 18 57 19 58 23 59 20 60 22 61 21 62 40 63 41 64
REMARK SMILES IDX 45 65 42 66 44 67 43 68 30 69 31 70 35 71 32 72 34 73 33 74
REMARK H PARENT 50 42 28 53
REMARK Flexibility Score: inf
ROOT
ATOM      1  C   UNL A   1      32.164  30.736  26.744  1.00  0.00     0.275 C 
ENDROOT
BRANCH   1   2
ATOM      2  C   UNL A   1      32.353  28.638  27.228  1.00  0.00     0.275 C 
BRANCH   2   3
ATOM      3  O   UNL A   1      33.140  27.570  26.422  1.00  0.00    -0.459 OA
BRANCH   3   4
ATOM      4  C   UNL A   1      32.407  26.489  26.128  1.00  0.00     0.338 C 
ATOM      5  O   UNL A   1      31.643  25.865  26.821  1.00  0.00    -0.246 OA
BRANCH   4   6
ATOM      6  C   UNL A   1      33.175  26.124  24.959  1.00  0.00     0.087 C 
ATOM      7  C   UNL A   1      34.292  25.239  25.264  1.00  0.00     0.029 C 
ATOM      8  C   UNL A   1      31.650  25.678  23.875  1.00  0.00     0.316 C 
ATOM      9  C   UNL A   1      34.321  23.488  24.833  1.00  0.00     0.036 A 
ATOM     10  O   UNL A   1      31.609  23.788  23.465  1.00  0.00    -0.475 OA
ATOM     11  C   UNL A   1      35.321  22.685  25.319  1.00  0.00     0.053 A 
ATOM     12  C   UNL A   1      32.977  22.716  24.045  1.00  0.00     0.130 A 
ATOM     13  Cl  UNL A   1      36.706  23.289  26.129  1.00  0.00    -0.083 Cl
ATOM     14  C   UNL A   1      35.126  21.307  25.156  1.00  0.00     0.042 A 
ATOM     15  C   UNL A   1      32.862  21.359  23.918  1.00  0.00     0.067 A 
ATOM     16  C   UNL A   1      33.968  20.691  24.512  1.00  0.00     0.046 A 
ATOM     17  Cl  UNL A   1      33.960  18.954  24.524  1.00  0.00    -0.084 Cl
BRANCH   8  18
ATOM     18  C   UNL A   1      31.758  27.017  23.014  1.00  0.00     0.430 C 
ATOM     19  F   UNL A   1      32.896  27.069  22.318  1.00  0.00    -0.167 F 
ATOM     20  F   UNL A   1      30.801  26.991  22.034  1.00  0.00    -0.167 F 
ATOM     21  F   UNL A   1      31.506  28.189  23.627  1.00  0.00    -0.167 F 
ENDBRANCH   8  18
ENDBRANCH   4   6
ENDBRANCH   3   4
ENDBRANCH   2   3
ENDBRANCH   1   2
BRANCH   1  22
ATOM     22  O   UNL A   1      33.147  32.007  27.437  1.00  0.00    -0.458 OA
BRANCH  22  23
ATOM     23  C   UNL A   1      33.131  33.327  27.838  1.00  0.00     0.338 C 
ATOM     24  O   UNL A   1      32.232  34.146  27.780  1.00  0.00    -0.246 OA
BRANCH  23  25
ATOM     25  C   UNL A   1      34.312  33.503  28.748  1.00  0.00     0.060 A 
ATOM     26  C   UNL A   1      34.349  32.802  29.969  1.00  0.00     0.016 A 
ATOM     27  C   UNL A   1      35.491  34.024  28.223  1.00  0.00     0.016 A 
ATOM     28  C   UNL A   1      35.590  32.379  30.492  1.00  0.00     0.010 A 
ATOM     29  C   UNL A   1      36.717  33.625  28.761  1.00  0.00     0.010 A 
ATOM     30  C   UNL A   1      36.782  32.715  29.832  1.00  0.00    -0.014 A 
BRANCH  30  31
ATOM     31  C   UNL A   1      38.128  32.325  30.338  1.00  0.00     0.031 A 
ATOM     32  C   UNL A   1      38.691  31.058  29.770  1.00  0.00     0.074 A 
ATOM     33  C   UNL A   1      38.766  32.946  31.355  1.00  0.00     0.049 A 
ATOM     34  N   UNL A   1      39.715  30.350  30.161  1.00  0.00    -0.248 NA
ATOM     35  C   UNL A   1      37.955  30.494  28.626  1.00  0.00     0.031 C 
ATOM     36  C   UNL A   1      38.352  34.188  32.008  1.00  0.00     0.029 A 
ATOM     37  N   UNL A   1      39.907  32.586  32.048  1.00  0.00    -0.354 N 
ATOM     38  C   UNL A   1      39.721  29.239  29.333  1.00  0.00     0.074 A 
ATOM     39  C   UNL A   1      38.586  29.348  28.448  1.00  0.00     0.031 C 
ATOM     40  C   UNL A   1      39.209  34.474  33.011  1.00  0.00     0.029 A 
ATOM     41  C   UNL A   1      40.219  33.421  33.102  1.00  0.00     0.049 A 
ATOM     42  H   UNL A   1      40.450  31.800  31.810  1.00  0.00     0.167 HD
ATOM     43  C   UNL A   1      40.592  28.207  29.308  1.00  0.00     0.031 A 
ATOM     44  C   UNL A   1      41.193  33.329  34.038  1.00  0.00     0.031 A 
ATOM     45  C   UNL A   1      41.708  28.075  30.193  1.00  0.00     0.049 A 
ATOM     46  C   UNL A   1      42.131  32.137  34.014  1.00  0.00     0.074 A 
ATOM     47  C   UNL A   1      42.670  27.082  30.217  1.00  0.00     0.029 A 
ATOM     48  N   UNL A   1      42.002  28.956  31.220  1.00  0.00    -0.354 N 
ATOM     49  N   UNL A   1      42.179  31.137  33.167  1.00  0.00    -0.248 NA
ATOM     50  C   UNL A   1      43.147  32.060  35.080  1.00  0.00     0.031 C 
ATOM     51  C   UNL A   1      43.516  27.334  31.300  1.00  0.00     0.029 A 
ATOM     52  C   UNL A   1      43.116  28.514  31.906  1.00  0.00     0.049 A 
ATOM     53  H   UNL A   1      41.494  29.774  31.428  1.00  0.00     0.167 HD
ATOM     54  C   UNL A   1      43.245  30.340  33.575  1.00  0.00     0.074 A 
ATOM     55  C   UNL A   1      43.829  30.976  34.735  1.00  0.00     0.031 C 
ATOM     56  C   UNL A   1      43.699  29.180  33.041  1.00  0.00     0.031 A 
BRANCH  43  57
ATOM     57  C   UNL A   1      40.319  27.132  28.301  1.00  0.00    -0.014 A 
ATOM     58  C   UNL A   1      39.531  26.016  28.628  1.00  0.00     0.009 A 
ATOM     59  C   UNL A   1      40.898  27.214  27.026  1.00  0.00     0.009 A 
ATOM     60  C   UNL A   1      39.375  24.975  27.715  1.00  0.00     0.001 A 
ATOM     61  C   UNL A   1      40.710  26.186  26.103  1.00  0.00     0.001 A 
ATOM     62  C   UNL A   1      39.961  25.062  26.453  1.00  0.00     0.000 A 
ENDBRANCH  43  57
BRANCH  44  63
ATOM     63  C   UNL A   1      41.355  34.352  35.120  1.00  0.00    -0.014 A 
ATOM     64  C   UNL A   1      40.597  34.268  36.303  1.00  0.00     0.009 A 
ATOM     65  C   UNL A   1      42.168  35.481  34.933  1.00  0.00     0.009 A 
ATOM     66  C   UNL A   1      40.611  35.306  37.243  1.00  0.00     0.001 A 
ATOM     67  C   UNL A   1      42.206  36.503  35.891  1.00  0.00     0.001 A 
ATOM     68  C   UNL A   1      41.416  36.423  37.036  1.00  0.00     0.000 A 
ENDBRANCH  44  63
BRANCH  56  69
ATOM     69  C   UNL A   1      44.909  28.535  33.659  1.00  0.00    -0.014 A 
ATOM     70  C   UNL A   1      44.785  27.545  34.646  1.00  0.00     0.009 A 
ATOM     71  C   UNL A   1      46.184  28.839  33.155  1.00  0.00     0.009 A 
ATOM     72  C   UNL A   1      45.916  26.878  35.119  1.00  0.00     0.001 A 
ATOM     73  C   UNL A   1      47.308  28.149  33.608  1.00  0.00     0.001 A 
ATOM     74  C   UNL A   1      47.174  27.171  34.592  1.00  0.00     0.000 A 
ENDBRANCH  56  69
ENDBRANCH  30  31
ENDBRANCH  23  25
ENDBRANCH  22  23
ENDBRANCH   1  22
TORSDOF 12
ENDMDL
