MODEL 1
REMARK VINA RESULT:      -9.8      0.000      0.000
REMARK SMILES Cc1cc(C)c2c(c1)C=C(C(=O)OCCOC(=O)c1ccc(-c3c4nc(c(-c5ccccc5)c5ccc([nH]5)c(-c5ccccc5)c5nc(c(-c6ccccc6)c6ccc3[nH]6)C=C5)C=C4)cc1)[C@@H](C(F)(F)F)O2
REMARK SMILES IDX 15 1 14 2 13 3 11 4 12 5 10 6 1 7 2 8 3 9 8 10 4 11 7 12
REMARK SMILES IDX 5 13 6 14 9 15 72 16 67 17 68 18 69 19 70 20 71 21 16 22
REMARK SMILES IDX 17 23 18 24 19 25 20 26 66 27 21 28 65 29 22 30 23 31 24 32
REMARK SMILES IDX 59 33 25 34 64 35 58 36 60 37 26 38 63 39 57 40 56 41 27 43
REMARK SMILES IDX 49 44 34 45 48 46 35 47 38 48 47 49 61 50 36 51 37 52 46 54
REMARK SMILES IDX 62 55 39 56 28 57 29 58 33 59 30 60 32 61 31 62 50 63 51 64
REMARK SMILES IDX 55 65 52 66 54 67 53 68 40 69 41 70 45 71 42 72 44 73 43 74
REMARK H PARENT 60 42 38 53
REMARK Flexibility Score: inf
ROOT
ATOM      1  C   UNL A   1      33.729  33.443  28.356  1.00  0.00     0.275 C 
ENDROOT
BRANCH   1   2
ATOM      2  C   UNL A   1      34.362  34.671  29.009  1.00  0.00     0.275 C 
BRANCH   2   3
ATOM      3  O   UNL A   1      34.196  34.642  30.444  1.00  0.00    -0.459 OA
BRANCH   3   4
ATOM      4  C   UNL A   1      34.802  33.612  31.076  1.00  0.00     0.338 C 
ATOM      5  O   UNL A   1      34.390  32.465  31.167  1.00  0.00    -0.246 OA
BRANCH   4   6
ATOM      6  C   UNL A   1      36.089  34.042  31.650  1.00  0.00     0.087 C 
ATOM      7  C   UNL A   1      42.143  33.773  30.556  1.00  0.00     0.044 C 
ATOM      8  C   UNL A   1      40.897  34.095  31.328  1.00  0.00    -0.050 A 
ATOM      9  C   UNL A   1      40.972  34.509  32.664  1.00  0.00     0.010 A 
ATOM     10  C   UNL A   1      39.639  33.917  30.749  1.00  0.00     0.015 A 
ATOM     11  C   UNL A   1      39.810  34.770  33.411  1.00  0.00    -0.008 A 
ATOM     12  C   UNL A   1      38.474  34.159  31.488  1.00  0.00     0.018 A 
ATOM     13  C   UNL A   1      39.921  35.207  34.843  1.00  0.00     0.048 C 
ATOM     14  C   UNL A   1      38.554  34.592  32.812  1.00  0.00     0.130 A 
ATOM     15  C   UNL A   1      37.180  33.913  30.888  1.00  0.00     0.027 C 
ATOM     16  O   UNL A   1      37.447  34.869  33.570  1.00  0.00    -0.475 OA
ATOM     17  C   UNL A   1      36.139  34.451  33.092  1.00  0.00     0.316 C 
BRANCH  17  18
ATOM     18  C   UNL A   1      35.602  33.340  34.007  1.00  0.00     0.430 C 
ATOM     19  F   UNL A   1      35.991  33.526  35.292  1.00  0.00    -0.167 F 
ATOM     20  F   UNL A   1      34.246  33.319  34.016  1.00  0.00    -0.167 F 
ATOM     21  F   UNL A   1      36.022  32.113  33.629  1.00  0.00    -0.167 F 
ENDBRANCH  17  18
ENDBRANCH   4   6
ENDBRANCH   3   4
ENDBRANCH   2   3
ENDBRANCH   1   2
BRANCH   1  22
ATOM     22  O   UNL A   1      34.716  32.726  27.593  1.00  0.00    -0.458 OA
BRANCH  22  23
ATOM     23  C   UNL A   1      34.714  31.383  27.746  1.00  0.00     0.338 C 
ATOM     24  O   UNL A   1      33.921  30.583  27.282  1.00  0.00    -0.246 OA
BRANCH  23  25
ATOM     25  C   UNL A   1      35.880  30.965  28.541  1.00  0.00     0.060 A 
ATOM     26  C   UNL A   1      37.095  31.611  28.345  1.00  0.00     0.016 A 
ATOM     27  C   UNL A   1      35.821  29.824  29.338  1.00  0.00     0.016 A 
ATOM     28  C   UNL A   1      38.275  31.030  28.799  1.00  0.00     0.010 A 
ATOM     29  C   UNL A   1      36.993  29.328  29.923  1.00  0.00     0.010 A 
ATOM     30  C   UNL A   1      38.246  29.888  29.613  1.00  0.00    -0.014 A 
BRANCH  30  31
ATOM     31  C   UNL A   1      39.523  29.275  30.089  1.00  0.00     0.031 A 
ATOM     32  C   UNL A   1      40.177  29.751  31.365  1.00  0.00     0.074 A 
ATOM     33  C   UNL A   1      40.077  28.247  29.411  1.00  0.00     0.049 A 
ATOM     34  N   UNL A   1      41.335  29.411  31.875  1.00  0.00    -0.248 NA
ATOM     35  C   UNL A   1      39.444  30.744  32.168  1.00  0.00     0.031 C 
ATOM     36  C   UNL A   1      39.537  27.642  28.191  1.00  0.00     0.029 A 
ATOM     37  N   UNL A   1      41.202  27.500  29.671  1.00  0.00    -0.354 N 
ATOM     38  C   UNL A   1      41.492  30.185  33.020  1.00  0.00     0.074 A 
ATOM     39  C   UNL A   1      40.318  31.024  33.125  1.00  0.00     0.031 C 
ATOM     40  C   UNL A   1      40.272  26.570  27.863  1.00  0.00     0.029 A 
ATOM     41  C   UNL A   1      41.402  26.473  28.779  1.00  0.00     0.049 A 
ATOM     42  H   UNL A   1      41.808  27.684  30.425  1.00  0.00     0.167 HD
ATOM     43  C   UNL A   1      42.515  30.193  33.908  1.00  0.00     0.031 A 
ATOM     44  C   UNL A   1      42.396  25.570  28.678  1.00  0.00     0.031 A 
ATOM     45  C   UNL A   1      43.657  29.323  33.838  1.00  0.00     0.049 A 
ATOM     46  C   UNL A   1      43.546  25.639  29.639  1.00  0.00     0.074 A 
ATOM     47  C   UNL A   1      44.740  29.254  34.698  1.00  0.00     0.029 A 
ATOM     48  N   UNL A   1      43.855  28.357  32.865  1.00  0.00    -0.354 N 
ATOM     49  N   UNL A   1      43.703  26.420  30.680  1.00  0.00    -0.248 NA
ATOM     50  C   UNL A   1      44.671  24.724  29.394  1.00  0.00     0.031 C 
ATOM     51  C   UNL A   1      45.614  28.274  34.222  1.00  0.00     0.029 A 
ATOM     52  C   UNL A   1      45.052  27.700  33.093  1.00  0.00     0.049 A 
ATOM     53  H   UNL A   1      43.237  28.165  32.124  1.00  0.00     0.167 HD
ATOM     54  C   UNL A   1      44.942  26.091  31.213  1.00  0.00     0.074 A 
ATOM     55  C   UNL A   1      45.482  25.022  30.400  1.00  0.00     0.031 C 
ATOM     56  C   UNL A   1      45.577  26.638  32.276  1.00  0.00     0.031 A 
BRANCH  43  57
ATOM     57  C   UNL A   1      42.460  31.190  35.033  1.00  0.00    -0.014 A 
ATOM     58  C   UNL A   1      41.910  30.858  36.280  1.00  0.00     0.009 A 
ATOM     59  C   UNL A   1      43.033  32.461  34.861  1.00  0.00     0.009 A 
ATOM     60  C   UNL A   1      41.911  31.787  37.323  1.00  0.00     0.001 A 
ATOM     61  C   UNL A   1      43.056  33.379  35.913  1.00  0.00     0.001 A 
ATOM     62  C   UNL A   1      42.489  33.043  37.141  1.00  0.00     0.000 A 
ENDBRANCH  43  57
BRANCH  44  63
ATOM     63  C   UNL A   1      42.365  24.548  27.598  1.00  0.00    -0.014 A 
ATOM     64  C   UNL A   1      42.967  24.806  26.358  1.00  0.00     0.009 A 
ATOM     65  C   UNL A   1      41.751  23.301  27.806  1.00  0.00     0.009 A 
ATOM     66  C   UNL A   1      42.947  23.840  25.347  1.00  0.00     0.001 A 
ATOM     67  C   UNL A   1      41.761  22.328  26.806  1.00  0.00     0.001 A 
ATOM     68  C   UNL A   1      42.354  22.599  25.575  1.00  0.00     0.000 A 
ENDBRANCH  44  63
BRANCH  56  69
ATOM     69  C   UNL A   1      46.927  26.090  32.635  1.00  0.00    -0.014 A 
ATOM     70  C   UNL A   1      48.096  26.665  32.113  1.00  0.00     0.009 A 
ATOM     71  C   UNL A   1      47.034  25.049  33.569  1.00  0.00     0.009 A 
ATOM     72  C   UNL A   1      49.349  26.199  32.513  1.00  0.00     0.001 A 
ATOM     73  C   UNL A   1      48.289  24.601  33.985  1.00  0.00     0.001 A 
ATOM     74  C   UNL A   1      49.444  25.174  33.454  1.00  0.00     0.000 A 
ENDBRANCH  56  69
ENDBRANCH  30  31
ENDBRANCH  23  25
ENDBRANCH  22  23
ENDBRANCH   1  22
TORSDOF 12
ENDMDL
MODEL 2
REMARK VINA RESULT:      -9.6      5.763     11.140
REMARK SMILES Cc1cc(C)c2c(c1)C=C(C(=O)OCCOC(=O)c1ccc(-c3c4nc(c(-c5ccccc5)c5ccc([nH]5)c(-c5ccccc5)c5nc(c(-c6ccccc6)c6ccc3[nH]6)C=C5)C=C4)cc1)[C@@H](C(F)(F)F)O2
REMARK SMILES IDX 15 1 14 2 13 3 11 4 12 5 10 6 1 7 2 8 3 9 8 10 4 11 7 12
REMARK SMILES IDX 5 13 6 14 9 15 72 16 67 17 68 18 69 19 70 20 71 21 16 22
REMARK SMILES IDX 17 23 18 24 19 25 20 26 66 27 21 28 65 29 22 30 23 31 24 32
REMARK SMILES IDX 59 33 25 34 64 35 58 36 60 37 26 38 63 39 57 40 56 41 27 43
REMARK SMILES IDX 49 44 34 45 48 46 35 47 38 48 47 49 61 50 36 51 37 52 46 54
REMARK SMILES IDX 62 55 39 56 28 57 29 58 33 59 30 60 32 61 31 62 50 63 51 64
REMARK SMILES IDX 55 65 52 66 54 67 53 68 40 69 41 70 45 71 42 72 44 73 43 74
REMARK H PARENT 60 42 38 53
REMARK Flexibility Score: inf
ROOT
ATOM      1  C   UNL A   1      40.729  19.714  25.985  1.00  0.00     0.275 C 
ENDROOT
BRANCH   1   2
ATOM      2  C   UNL A   1      42.238  19.880  26.164  1.00  0.00     0.275 C 
BRANCH   2   3
ATOM      3  O   UNL A   1      42.662  21.211  25.794  1.00  0.00    -0.459 OA
BRANCH   3   4
ATOM      4  C   UNL A   1      43.944  21.314  25.375  1.00  0.00     0.338 C 
ATOM      5  O   UNL A   1      44.436  20.785  24.390  1.00  0.00    -0.246 OA
BRANCH   4   6
ATOM      6  C   UNL A   1      44.711  22.197  26.270  1.00  0.00     0.087 C 
ATOM      7  C   UNL A   1      43.949  25.951  31.092  1.00  0.00     0.044 C 
ATOM      8  C   UNL A   1      44.695  25.274  29.979  1.00  0.00    -0.050 A 
ATOM      9  C   UNL A   1      45.982  25.694  29.624  1.00  0.00     0.010 A 
ATOM     10  C   UNL A   1      44.088  24.261  29.234  1.00  0.00     0.015 A 
ATOM     11  C   UNL A   1      46.673  25.098  28.554  1.00  0.00    -0.008 A 
ATOM     12  C   UNL A   1      44.761  23.670  28.156  1.00  0.00     0.018 A 
ATOM     13  C   UNL A   1      48.050  25.573  28.192  1.00  0.00     0.048 C 
ATOM     14  C   UNL A   1      46.051  24.078  27.819  1.00  0.00     0.130 A 
ATOM     15  C   UNL A   1      44.092  22.662  27.360  1.00  0.00     0.027 C 
ATOM     16  O   UNL A   1      46.763  23.514  26.793  1.00  0.00    -0.475 OA
ATOM     17  C   UNL A   1      46.075  22.652  25.845  1.00  0.00     0.316 C 
BRANCH  17  18
ATOM     18  C   UNL A   1      46.031  23.348  24.476  1.00  0.00     0.430 C 
ATOM     19  F   UNL A   1      46.771  24.483  24.473  1.00  0.00    -0.167 F 
ATOM     20  F   UNL A   1      46.541  22.556  23.501  1.00  0.00    -0.167 F 
ATOM     21  F   UNL A   1      44.774  23.682  24.108  1.00  0.00    -0.167 F 
ENDBRANCH  17  18
ENDBRANCH   4   6
ENDBRANCH   3   4
ENDBRANCH   2   3
ENDBRANCH   1   2
BRANCH   1  22
ATOM     22  O   UNL A   1      40.026  20.563  26.911  1.00  0.00    -0.458 OA
BRANCH  22  23
ATOM     23  C   UNL A   1      39.254  21.524  26.356  1.00  0.00     0.338 C 
ATOM     24  O   UNL A   1      38.326  21.376  25.580  1.00  0.00    -0.246 OA
BRANCH  23  25
ATOM     25  C   UNL A   1      39.651  22.846  26.866  1.00  0.00     0.060 A 
ATOM     26  C   UNL A   1      39.239  23.984  26.181  1.00  0.00     0.016 A 
ATOM     27  C   UNL A   1      40.575  22.957  27.903  1.00  0.00     0.016 A 
ATOM     28  C   UNL A   1      39.868  25.202  26.413  1.00  0.00     0.010 A 
ATOM     29  C   UNL A   1      41.092  24.215  28.236  1.00  0.00     0.010 A 
ATOM     30  C   UNL A   1      40.793  25.347  27.457  1.00  0.00    -0.014 A 
BRANCH  30  31
ATOM     31  C   UNL A   1      41.461  26.663  27.688  1.00  0.00     0.031 A 
ATOM     32  C   UNL A   1      42.767  26.994  27.006  1.00  0.00     0.074 A 
ATOM     33  C   UNL A   1      40.872  27.597  28.467  1.00  0.00     0.049 A 
ATOM     34  N   UNL A   1      43.542  28.038  27.168  1.00  0.00    -0.248 NA
ATOM     35  C   UNL A   1      43.279  26.024  26.023  1.00  0.00     0.031 C 
ATOM     36  C   UNL A   1      39.586  27.446  29.152  1.00  0.00     0.029 A 
ATOM     37  N   UNL A   1      41.261  28.876  28.786  1.00  0.00    -0.354 N 
ATOM     38  C   UNL A   1      44.651  27.824  26.355  1.00  0.00     0.074 A 
ATOM     39  C   UNL A   1      44.458  26.544  25.711  1.00  0.00     0.031 C 
ATOM     40  C   UNL A   1      39.251  28.609  29.729  1.00  0.00     0.029 A 
ATOM     41  C   UNL A   1      40.346  29.556  29.555  1.00  0.00     0.049 A 
ATOM     42  H   UNL A   1      42.115  29.269  28.492  1.00  0.00     0.167 HD
ATOM     43  C   UNL A   1      45.727  28.622  26.156  1.00  0.00     0.031 A 
ATOM     44  C   UNL A   1      40.385  30.789  30.095  1.00  0.00     0.031 A 
ATOM     45  C   UNL A   1      45.896  29.919  26.752  1.00  0.00     0.049 A 
ATOM     46  C   UNL A   1      41.615  31.629  29.908  1.00  0.00     0.074 A 
ATOM     47  C   UNL A   1      46.951  30.803  26.603  1.00  0.00     0.029 A 
ATOM     48  N   UNL A   1      44.980  30.528  27.594  1.00  0.00    -0.354 N 
ATOM     49  N   UNL A   1      42.679  31.381  29.184  1.00  0.00    -0.248 NA
ATOM     50  C   UNL A   1      41.664  32.905  30.638  1.00  0.00     0.031 C 
ATOM     51  C   UNL A   1      46.692  31.930  27.387  1.00  0.00     0.029 A 
ATOM     52  C   UNL A   1      45.453  31.768  27.986  1.00  0.00     0.049 A 
ATOM     53  H   UNL A   1      44.119  30.137  27.870  1.00  0.00     0.167 HD
ATOM     54  C   UNL A   1      43.522  32.467  29.370  1.00  0.00     0.074 A 
ATOM     55  C   UNL A   1      42.836  33.389  30.251  1.00  0.00     0.031 C 
ATOM     56  C   UNL A   1      44.760  32.674  28.864  1.00  0.00     0.031 A 
BRANCH  43  57
ATOM     57  C   UNL A   1      46.826  28.110  25.266  1.00  0.00    -0.014 A 
ATOM     58  C   UNL A   1      46.741  28.203  23.869  1.00  0.00     0.009 A 
ATOM     59  C   UNL A   1      47.997  27.587  25.842  1.00  0.00     0.009 A 
ATOM     60  C   UNL A   1      47.794  27.760  23.066  1.00  0.00     0.001 A 
ATOM     61  C   UNL A   1      49.059  27.170  25.037  1.00  0.00     0.001 A 
ATOM     62  C   UNL A   1      48.954  27.251  23.650  1.00  0.00     0.000 A 
ENDBRANCH  43  57
BRANCH  44  63
ATOM     63  C   UNL A   1      39.237  31.287  30.899  1.00  0.00    -0.014 A 
ATOM     64  C   UNL A   1      38.201  32.008  30.288  1.00  0.00     0.009 A 
ATOM     65  C   UNL A   1      39.160  31.028  32.278  1.00  0.00     0.009 A 
ATOM     66  C   UNL A   1      37.116  32.465  31.042  1.00  0.00     0.001 A 
ATOM     67  C   UNL A   1      38.060  31.458  33.022  1.00  0.00     0.001 A 
ATOM     68  C   UNL A   1      37.042  32.181  32.405  1.00  0.00     0.000 A 
ENDBRANCH  44  63
BRANCH  56  69
ATOM     69  C   UNL A   1      45.460  33.947  29.237  1.00  0.00    -0.014 A 
ATOM     70  C   UNL A   1      46.328  33.991  30.339  1.00  0.00     0.009 A 
ATOM     71  C   UNL A   1      45.318  35.086  28.432  1.00  0.00     0.009 A 
ATOM     72  C   UNL A   1      47.034  35.159  30.632  1.00  0.00     0.001 A 
ATOM     73  C   UNL A   1      46.043  36.245  28.714  1.00  0.00     0.001 A 
ATOM     74  C   UNL A   1      46.898  36.281  29.815  1.00  0.00     0.000 A 
ENDBRANCH  56  69
ENDBRANCH  30  31
ENDBRANCH  23  25
ENDBRANCH  22  23
ENDBRANCH   1  22
TORSDOF 12
ENDMDL
MODEL 3
REMARK VINA RESULT:      -9.6      0.713      6.110
REMARK SMILES Cc1cc(C)c2c(c1)C=C(C(=O)OCCOC(=O)c1ccc(-c3c4nc(c(-c5ccccc5)c5ccc([nH]5)c(-c5ccccc5)c5nc(c(-c6ccccc6)c6ccc3[nH]6)C=C5)C=C4)cc1)[C@@H](C(F)(F)F)O2
REMARK SMILES IDX 15 1 14 2 13 3 11 4 12 5 10 6 1 7 2 8 3 9 8 10 4 11 7 12
REMARK SMILES IDX 5 13 6 14 9 15 72 16 67 17 68 18 69 19 70 20 71 21 16 22
REMARK SMILES IDX 17 23 18 24 19 25 20 26 66 27 21 28 65 29 22 30 23 31 24 32
REMARK SMILES IDX 59 33 25 34 64 35 58 36 60 37 26 38 63 39 57 40 56 41 27 43
REMARK SMILES IDX 49 44 34 45 48 46 35 47 38 48 47 49 61 50 36 51 37 52 46 54
REMARK SMILES IDX 62 55 39 56 28 57 29 58 33 59 30 60 32 61 31 62 50 63 51 64
REMARK SMILES IDX 55 65 52 66 54 67 53 68 40 69 41 70 45 71 42 72 44 73 43 74
REMARK H PARENT 60 42 38 53
REMARK Flexibility Score: inf
ROOT
ATOM      1  C   UNL A   1      33.574  33.645  28.331  1.00  0.00     0.275 C 
ENDROOT
BRANCH   1   2
ATOM      2  C   UNL A   1      34.296  34.810  29.009  1.00  0.00     0.275 C 
BRANCH   2   3
ATOM      3  O   UNL A   1      34.163  34.739  30.445  1.00  0.00    -0.459 OA
BRANCH   3   4
ATOM      4  C   UNL A   1      34.781  33.689  31.033  1.00  0.00     0.338 C 
ATOM      5  O   UNL A   1      34.400  32.528  31.044  1.00  0.00    -0.246 OA
BRANCH   4   6
ATOM      6  C   UNL A   1      36.039  34.119  31.668  1.00  0.00     0.087 C 
ATOM      7  C   UNL A   1      42.139  33.838  30.875  1.00  0.00     0.044 C 
ATOM      8  C   UNL A   1      40.857  34.164  31.584  1.00  0.00    -0.050 A 
ATOM      9  C   UNL A   1      40.867  34.583  32.920  1.00  0.00     0.010 A 
ATOM     10  C   UNL A   1      39.629  33.987  30.943  1.00  0.00     0.015 A 
ATOM     11  C   UNL A   1      39.670  34.847  33.608  1.00  0.00    -0.008 A 
ATOM     12  C   UNL A   1      38.430  34.233  31.624  1.00  0.00     0.018 A 
ATOM     13  C   UNL A   1      39.711  35.289  35.043  1.00  0.00     0.048 C 
ATOM     14  C   UNL A   1      38.445  34.669  32.949  1.00  0.00     0.130 A 
ATOM     15  C   UNL A   1      37.166  33.987  30.961  1.00  0.00     0.027 C 
ATOM     16  O   UNL A   1      37.302  34.951  33.650  1.00  0.00    -0.475 OA
ATOM     17  C   UNL A   1      36.019  34.534  33.109  1.00  0.00     0.316 C 
BRANCH  17  18
ATOM     18  C   UNL A   1      35.435  33.426  34.001  1.00  0.00     0.430 C 
ATOM     19  F   UNL A   1      35.891  32.204  33.634  1.00  0.00    -0.167 F 
ATOM     20  F   UNL A   1      35.792  33.596  35.297  1.00  0.00    -0.167 F 
ATOM     21  F   UNL A   1      34.085  33.387  33.955  1.00  0.00    -0.167 F 
ENDBRANCH  17  18
ENDBRANCH   4   6
ENDBRANCH   3   4
ENDBRANCH   2   3
ENDBRANCH   1   2
BRANCH   1  22
ATOM     22  O   UNL A   1      34.511  32.859  27.572  1.00  0.00    -0.458 OA
BRANCH  22  23
ATOM     23  C   UNL A   1      34.399  31.519  27.712  1.00  0.00     0.338 C 
ATOM     24  O   UNL A   1      33.396  30.839  27.585  1.00  0.00    -0.246 OA
BRANCH  23  25
ATOM     25  C   UNL A   1      35.718  30.931  27.999  1.00  0.00     0.060 A 
ATOM     26  C   UNL A   1      35.804  29.570  28.269  1.00  0.00     0.016 A 
ATOM     27  C   UNL A   1      36.832  31.748  28.183  1.00  0.00     0.016 A 
ATOM     28  C   UNL A   1      36.941  29.052  28.879  1.00  0.00     0.010 A 
ATOM     29  C   UNL A   1      38.027  31.190  28.655  1.00  0.00     0.010 A 
ATOM     30  C   UNL A   1      38.082  29.846  29.067  1.00  0.00    -0.014 A 
BRANCH  30  31
ATOM     31  C   UNL A   1      39.293  29.273  29.729  1.00  0.00     0.031 A 
ATOM     32  C   UNL A   1      40.137  28.237  29.024  1.00  0.00     0.074 A 
ATOM     33  C   UNL A   1      39.680  29.720  30.943  1.00  0.00     0.049 A 
ATOM     34  N   UNL A   1      41.157  27.553  29.482  1.00  0.00    -0.248 NA
ATOM     35  C   UNL A   1      39.786  27.914  27.631  1.00  0.00     0.031 C 
ATOM     36  C   UNL A   1      38.998  30.754  31.726  1.00  0.00     0.029 A 
ATOM     37  N   UNL A   1      40.764  29.388  31.720  1.00  0.00    -0.354 N 
ATOM     38  C   UNL A   1      41.530  26.688  28.459  1.00  0.00     0.074 A 
ATOM     39  C   UNL A   1      40.619  26.920  27.360  1.00  0.00     0.031 C 
ATOM     40  C   UNL A   1      39.724  31.034  32.818  1.00  0.00     0.029 A 
ATOM     41  C   UNL A   1      40.862  30.125  32.877  1.00  0.00     0.049 A 
ATOM     42  H   UNL A   1      41.410  28.687  31.472  1.00  0.00     0.167 HD
ATOM     43  C   UNL A   1      42.542  25.788  28.432  1.00  0.00     0.031 A 
ATOM     44  C   UNL A   1      41.743  30.063  33.894  1.00  0.00     0.031 A 
ATOM     45  C   UNL A   1      43.483  25.593  29.501  1.00  0.00     0.049 A 
ATOM     46  C   UNL A   1      42.819  29.017  33.866  1.00  0.00     0.074 A 
ATOM     47  C   UNL A   1      44.547  24.709  29.560  1.00  0.00     0.029 A 
ATOM     48  N   UNL A   1      43.488  26.306  30.689  1.00  0.00    -0.354 N 
ATOM     49  N   UNL A   1      43.116  28.168  32.913  1.00  0.00    -0.248 NA
ATOM     50  C   UNL A   1      43.661  28.900  35.065  1.00  0.00     0.031 C 
ATOM     51  C   UNL A   1      45.171  24.858  30.802  1.00  0.00     0.029 A 
ATOM     52  C   UNL A   1      44.525  25.869  31.495  1.00  0.00     0.049 A 
ATOM     53  H   UNL A   1      42.850  27.018  30.924  1.00  0.00     0.167 HD
ATOM     54  C   UNL A   1      44.178  27.416  33.397  1.00  0.00     0.074 A 
ATOM     55  C   UNL A   1      44.491  27.928  34.714  1.00  0.00     0.031 C 
ATOM     56  C   UNL A   1      44.825  26.386  32.804  1.00  0.00     0.031 A 
BRANCH  43  57
ATOM     57  C   UNL A   1      42.681  24.923  27.209  1.00  0.00    -0.014 A 
ATOM     58  C   UNL A   1      43.502  25.298  26.136  1.00  0.00     0.009 A 
ATOM     59  C   UNL A   1      42.029  23.679  27.163  1.00  0.00     0.009 A 
ATOM     60  C   UNL A   1      43.649  24.457  25.030  1.00  0.00     0.001 A 
ATOM     61  C   UNL A   1      42.198  22.829  26.068  1.00  0.00     0.001 A 
ATOM     62  C   UNL A   1      43.003  23.221  25.000  1.00  0.00     0.000 A 
ENDBRANCH  43  57
BRANCH  44  63
ATOM     63  C   UNL A   1      41.616  30.996  35.045  1.00  0.00    -0.014 A 
ATOM     64  C   UNL A   1      42.493  32.083  35.178  1.00  0.00     0.009 A 
ATOM     65  C   UNL A   1      40.609  30.818  36.007  1.00  0.00     0.009 A 
ATOM     66  C   UNL A   1      42.366  32.967  36.253  1.00  0.00     0.001 A 
ATOM     67  C   UNL A   1      40.465  31.720  37.062  1.00  0.00     0.001 A 
ATOM     68  C   UNL A   1      41.347  32.791  37.188  1.00  0.00     0.000 A 
ENDBRANCH  44  63
BRANCH  56  69
ATOM     69  C   UNL A   1      45.946  25.740  33.564  1.00  0.00    -0.014 A 
ATOM     70  C   UNL A   1      45.706  24.631  34.389  1.00  0.00     0.009 A 
ATOM     71  C   UNL A   1      47.262  26.190  33.386  1.00  0.00     0.009 A 
ATOM     72  C   UNL A   1      46.767  23.989  35.031  1.00  0.00     0.001 A 
ATOM     73  C   UNL A   1      48.323  25.532  34.010  1.00  0.00     0.001 A 
ATOM     74  C   UNL A   1      48.074  24.434  34.834  1.00  0.00     0.000 A 
ENDBRANCH  56  69
ENDBRANCH  30  31
ENDBRANCH  23  25
ENDBRANCH  22  23
ENDBRANCH   1  22
TORSDOF 12
ENDMDL
