MODEL 1
REMARK VINA RESULT:     -11.1      0.000      0.000
REMARK SMILES N#C/C(=C\c1cn(CC(=O)OCCOC(=O)c2ccc(-c3c4nc(c(-c5ccccc5)c5ccc([nH]5)c(-c5ccccc5)c5nc(c(-c6ccccc6)c6ccc3[nH]6)C=C5)C=C4)cc2)c2ccccc12)C(=O)N1CCCC[C@@H]1C#N
REMARK SMILES IDX 11 1 9 2 10 3 8 4 7 5 5 6 6 7 70 8 65 9 69 10 66 11 68 12
REMARK SMILES IDX 67 13 4 14 3 15 2 16 1 17 71 18 72 19 73 20 74 21 78 22
REMARK SMILES IDX 75 23 77 24 76 25 79 26 80 27 12 28 13 29 14 30 15 31 16 32
REMARK SMILES IDX 17 33 18 34 64 35 19 36 63 37 20 38 21 39 22 40 57 41 23 42
REMARK SMILES IDX 62 43 56 44 58 45 24 46 61 47 55 48 54 49 25 51 47 52 32 53
REMARK SMILES IDX 46 54 33 55 36 56 45 57 59 58 34 59 35 60 44 62 60 63 37 64
REMARK SMILES IDX 26 65 27 66 31 67 28 68 30 69 29 70 48 71 49 72 53 73 50 74
REMARK SMILES IDX 52 75 51 76 38 77 39 78 43 79 40 80 42 81 41 82
REMARK H PARENT 58 50 36 61
REMARK Flexibility Score: inf
ROOT
ATOM      1  O   UNL A   1      33.984  31.617  27.447  1.00  0.00    -0.461 OA
ENDROOT
BRANCH   1   2
ATOM      2  C   UNL A   1      32.936  30.977  26.889  1.00  0.00     0.326 C 
ATOM      3  O   UNL A   1      31.764  31.264  27.125  1.00  0.00    -0.250 OA
BRANCH   2   4
ATOM      4  C   UNL A   1      33.264  29.786  26.043  1.00  0.00     0.244 C 
BRANCH   4   5
ATOM      5  N   UNL A   1      32.262  28.965  25.361  1.00  0.00    -0.336 N 
ATOM      6  C   UNL A   1      31.651  26.972  24.733  1.00  0.00     0.002 A 
ATOM      7  C   UNL A   1      32.431  27.626  25.616  1.00  0.00     0.095 A 
ATOM      8  C   UNL A   1      30.761  27.854  24.109  1.00  0.00     0.007 A 
ATOM      9  C   UNL A   1      31.103  29.136  24.578  1.00  0.00     0.049 A 
ATOM     10  C   UNL A   1      29.711  27.661  23.170  1.00  0.00     0.011 A 
ATOM     11  C   UNL A   1      30.228  30.166  24.149  1.00  0.00     0.027 A 
ATOM     12  C   UNL A   1      29.042  28.734  22.609  1.00  0.00     0.001 A 
ATOM     13  C   UNL A   1      29.286  29.980  23.123  1.00  0.00     0.002 A 
BRANCH   6  14
ATOM     14  C   UNL A   1      31.856  25.622  24.512  1.00  0.00     0.035 C 
ATOM     15  C   UNL A   1      32.419  25.143  23.409  1.00  0.00     0.118 C 
BRANCH  15  16
ATOM     16  C   UNL A   1      33.129  26.067  22.433  1.00  0.00     0.105 C 
ATOM     17  N   UNL A   1      33.718  26.833  21.623  1.00  0.00    -0.192 NA
ENDBRANCH  15  16
BRANCH  15  18
ATOM     18  C   UNL A   1      32.595  23.652  23.313  1.00  0.00     0.265 C 
ATOM     19  O   UNL A   1      32.588  23.141  22.193  1.00  0.00    -0.268 OA
BRANCH  18  20
ATOM     20  N   UNL A   1      32.870  22.883  24.457  1.00  0.00    -0.322 N 
ATOM     21  C   UNL A   1      34.268  22.793  24.886  1.00  0.00     0.121 C 
ATOM     22  C   UNL A   1      31.922  22.098  25.303  1.00  0.00     0.189 C 
ATOM     23  C   UNL A   1      34.397  23.324  26.315  1.00  0.00     0.022 C 
ATOM     24  C   UNL A   1      32.034  22.540  26.783  1.00  0.00     0.041 C 
ATOM     25  C   UNL A   1      33.481  22.577  27.284  1.00  0.00     0.005 C 
BRANCH  22  26
ATOM     26  C   UNL A   1      32.154  20.626  25.212  1.00  0.00     0.087 C 
ATOM     27  N   UNL A   1      32.321  19.493  25.090  1.00  0.00    -0.196 NA
ENDBRANCH  22  26
ENDBRANCH  18  20
ENDBRANCH  15  18
ENDBRANCH   6  14
ENDBRANCH   4   5
ENDBRANCH   2   4
ENDBRANCH   1   2
BRANCH   1  28
ATOM     28  C   UNL A   1      33.668  32.918  28.002  1.00  0.00     0.274 C 
BRANCH  28  29
ATOM     29  C   UNL A   1      34.943  33.745  28.185  1.00  0.00     0.275 C 
BRANCH  29  30
ATOM     30  O   UNL A   1      36.069  32.851  28.289  1.00  0.00    -0.458 OA
BRANCH  30  31
ATOM     31  C   UNL A   1      37.205  33.379  28.803  1.00  0.00     0.338 C 
ATOM     32  O   UNL A   1      37.421  34.548  29.078  1.00  0.00    -0.246 OA
BRANCH  31  33
ATOM     33  C   UNL A   1      37.908  32.251  29.447  1.00  0.00     0.060 A 
ATOM     34  C   UNL A   1      39.037  32.297  30.234  1.00  0.00     0.016 A 
ATOM     35  C   UNL A   1      37.493  31.026  28.967  1.00  0.00     0.016 A 
ATOM     36  C   UNL A   1      39.816  31.130  30.333  1.00  0.00     0.010 A 
ATOM     37  C   UNL A   1      38.156  29.846  29.184  1.00  0.00     0.010 A 
ATOM     38  C   UNL A   1      39.426  29.942  29.685  1.00  0.00    -0.014 A 
BRANCH  38  39
ATOM     39  C   UNL A   1      40.221  28.720  29.672  1.00  0.00     0.031 A 
ATOM     40  C   UNL A   1      40.581  28.347  31.050  1.00  0.00     0.074 A 
ATOM     41  C   UNL A   1      40.500  27.883  28.645  1.00  0.00     0.049 A 
ATOM     42  N   UNL A   1      41.698  28.644  31.615  1.00  0.00    -0.248 NA
ATOM     43  C   UNL A   1      39.549  27.831  31.962  1.00  0.00     0.031 C 
ATOM     44  C   UNL A   1      40.031  27.860  27.258  1.00  0.00     0.029 A 
ATOM     45  N   UNL A   1      41.324  26.793  28.675  1.00  0.00    -0.354 N 
ATOM     46  C   UNL A   1      41.593  28.185  32.912  1.00  0.00     0.074 A 
ATOM     47  C   UNL A   1      40.198  27.892  33.126  1.00  0.00     0.031 C 
ATOM     48  C   UNL A   1      40.422  26.713  26.642  1.00  0.00     0.029 A 
ATOM     49  C   UNL A   1      41.323  26.000  27.530  1.00  0.00     0.049 A 
ATOM     50  H   UNL A   1      41.884  26.581  29.457  1.00  0.00     0.167 HD
ATOM     51  C   UNL A   1      42.708  27.861  33.616  1.00  0.00     0.031 A 
ATOM     52  C   UNL A   1      42.079  24.894  27.291  1.00  0.00     0.031 A 
ATOM     53  C   UNL A   1      43.899  28.361  32.967  1.00  0.00     0.049 A 
ATOM     54  C   UNL A   1      43.249  24.980  28.193  1.00  0.00     0.074 A 
ATOM     55  C   UNL A   1      44.366  29.623  32.655  1.00  0.00     0.029 A 
ATOM     56  N   UNL A   1      44.568  27.492  32.135  1.00  0.00    -0.354 N 
ATOM     57  N   UNL A   1      44.175  25.888  28.073  1.00  0.00    -0.248 NA
ATOM     58  C   UNL A   1      43.130  24.364  29.504  1.00  0.00     0.031 C 
ATOM     59  C   UNL A   1      44.922  29.496  31.349  1.00  0.00     0.029 A 
ATOM     60  C   UNL A   1      44.848  28.155  30.965  1.00  0.00     0.049 A 
ATOM     61  H   UNL A   1      44.803  26.559  32.341  1.00  0.00     0.167 HD
ATOM     62  C   UNL A   1      44.450  26.275  29.375  1.00  0.00     0.074 A 
ATOM     63  C   UNL A   1      43.823  25.255  30.217  1.00  0.00     0.031 C 
ATOM     64  C   UNL A   1      44.911  27.527  29.660  1.00  0.00     0.031 A 
BRANCH  51  65
ATOM     65  C   UNL A   1      42.734  26.778  34.653  1.00  0.00    -0.014 A 
ATOM     66  C   UNL A   1      42.268  26.947  35.972  1.00  0.00     0.009 A 
ATOM     67  C   UNL A   1      43.011  25.467  34.242  1.00  0.00     0.009 A 
ATOM     68  C   UNL A   1      42.081  25.867  36.836  1.00  0.00     0.001 A 
ATOM     69  C   UNL A   1      42.786  24.378  35.091  1.00  0.00     0.001 A 
ATOM     70  C   UNL A   1      42.319  24.579  36.387  1.00  0.00     0.000 A 
ENDBRANCH  51  65
BRANCH  52  71
ATOM     71  C   UNL A   1      41.655  23.580  26.733  1.00  0.00    -0.014 A 
ATOM     72  C   UNL A   1      40.390  23.058  27.053  1.00  0.00     0.009 A 
ATOM     73  C   UNL A   1      42.602  22.693  26.182  1.00  0.00     0.009 A 
ATOM     74  C   UNL A   1      40.101  21.697  26.889  1.00  0.00     0.001 A 
ATOM     75  C   UNL A   1      42.309  21.329  26.016  1.00  0.00     0.001 A 
ATOM     76  C   UNL A   1      41.066  20.828  26.387  1.00  0.00     0.000 A 
ENDBRANCH  52  71
BRANCH  64  77
ATOM     77  C   UNL A   1      45.304  28.431  28.508  1.00  0.00    -0.014 A 
ATOM     78  C   UNL A   1      46.673  28.635  28.277  1.00  0.00     0.009 A 
ATOM     79  C   UNL A   1      44.387  29.234  27.804  1.00  0.00     0.009 A 
ATOM     80  C   UNL A   1      47.118  29.633  27.409  1.00  0.00     0.001 A 
ATOM     81  C   UNL A   1      44.833  30.221  26.914  1.00  0.00     0.001 A 
ATOM     82  C   UNL A   1      46.199  30.430  26.730  1.00  0.00     0.000 A 
ENDBRANCH  64  77
ENDBRANCH  38  39
ENDBRANCH  31  33
ENDBRANCH  30  31
ENDBRANCH  29  30
ENDBRANCH  28  29
ENDBRANCH   1  28
TORSDOF 17
ENDMDL
MODEL 2
REMARK VINA RESULT:     -11.0      1.979      3.580
REMARK SMILES N#C/C(=C\c1cn(CC(=O)OCCOC(=O)c2ccc(-c3c4nc(c(-c5ccccc5)c5ccc([nH]5)c(-c5ccccc5)c5nc(c(-c6ccccc6)c6ccc3[nH]6)C=C5)C=C4)cc2)c2ccccc12)C(=O)N1CCCC[C@@H]1C#N
REMARK SMILES IDX 11 1 9 2 10 3 8 4 7 5 5 6 6 7 70 8 65 9 69 10 66 11 68 12
REMARK SMILES IDX 67 13 4 14 3 15 2 16 1 17 71 18 72 19 73 20 74 21 78 22
REMARK SMILES IDX 75 23 77 24 76 25 79 26 80 27 12 28 13 29 14 30 15 31 16 32
REMARK SMILES IDX 17 33 18 34 64 35 19 36 63 37 20 38 21 39 22 40 57 41 23 42
REMARK SMILES IDX 62 43 56 44 58 45 24 46 61 47 55 48 54 49 25 51 47 52 32 53
REMARK SMILES IDX 46 54 33 55 36 56 45 57 59 58 34 59 35 60 44 62 60 63 37 64
REMARK SMILES IDX 26 65 27 66 31 67 28 68 30 69 29 70 48 71 49 72 53 73 50 74
REMARK SMILES IDX 52 75 51 76 38 77 39 78 43 79 40 80 42 81 41 82
REMARK H PARENT 58 50 36 61
REMARK Flexibility Score: inf
ROOT
ATOM      1  O   UNL A   1      33.438  34.436  30.273  1.00  0.00    -0.461 OA
ENDROOT
BRANCH   1   2
ATOM      2  C   UNL A   1      33.566  34.621  28.943  1.00  0.00     0.326 C 
ATOM      3  O   UNL A   1      34.078  35.623  28.446  1.00  0.00    -0.250 OA
BRANCH   2   4
ATOM      4  C   UNL A   1      32.930  33.586  28.068  1.00  0.00     0.244 C 
BRANCH   4   5
ATOM      5  N   UNL A   1      33.533  32.287  27.767  1.00  0.00    -0.336 N 
ATOM      6  C   UNL A   1      33.210  30.199  27.241  1.00  0.00     0.002 A 
ATOM      7  C   UNL A   1      32.630  31.414  27.209  1.00  0.00     0.095 A 
ATOM      8  C   UNL A   1      34.574  30.307  27.535  1.00  0.00     0.007 A 
ATOM      9  C   UNL A   1      34.800  31.671  27.796  1.00  0.00     0.049 A 
ATOM     10  C   UNL A   1      35.621  29.349  27.619  1.00  0.00     0.011 A 
ATOM     11  C   UNL A   1      36.163  32.007  27.998  1.00  0.00     0.027 A 
ATOM     12  C   UNL A   1      36.887  29.705  28.049  1.00  0.00     0.001 A 
ATOM     13  C   UNL A   1      37.158  31.038  28.211  1.00  0.00     0.002 A 
BRANCH   6  14
ATOM     14  C   UNL A   1      32.432  29.068  27.065  1.00  0.00     0.035 C 
ATOM     15  C   UNL A   1      32.273  28.471  25.890  1.00  0.00     0.118 C 
BRANCH  15  16
ATOM     16  C   UNL A   1      33.158  28.831  24.707  1.00  0.00     0.105 C 
ATOM     17  N   UNL A   1      33.892  29.129  23.727  1.00  0.00    -0.192 NA
ENDBRANCH  15  16
BRANCH  15  18
ATOM     18  C   UNL A   1      31.413  27.238  25.850  1.00  0.00     0.265 C 
ATOM     19  O   UNL A   1      30.692  27.006  26.821  1.00  0.00    -0.268 OA
BRANCH  18  20
ATOM     20  N   UNL A   1      31.352  26.437  24.697  1.00  0.00    -0.322 N 
ATOM     21  C   UNL A   1      30.265  26.702  23.751  1.00  0.00     0.121 C 
ATOM     22  C   UNL A   1      32.241  25.305  24.300  1.00  0.00     0.189 C 
ATOM     23  C   UNL A   1      30.854  27.054  22.384  1.00  0.00     0.022 C 
ATOM     24  C   UNL A   1      32.836  25.560  22.892  1.00  0.00     0.041 C 
ATOM     25  C   UNL A   1      31.773  25.950  21.860  1.00  0.00     0.005 C 
BRANCH  22  26
ATOM     26  C   UNL A   1      31.534  23.990  24.303  1.00  0.00     0.087 C 
ATOM     27  N   UNL A   1      31.029  22.956  24.279  1.00  0.00    -0.196 NA
ENDBRANCH  22  26
ENDBRANCH  18  20
ENDBRANCH  15  18
ENDBRANCH   6  14
ENDBRANCH   4   5
ENDBRANCH   2   4
ENDBRANCH   1   2
BRANCH   1  28
ATOM     28  C   UNL A   1      34.410  33.529  30.851  1.00  0.00     0.274 C 
BRANCH  28  29
ATOM     29  C   UNL A   1      35.285  34.264  31.870  1.00  0.00     0.275 C 
BRANCH  29  30
ATOM     30  O   UNL A   1      36.615  33.707  31.832  1.00  0.00    -0.458 OA
BRANCH  30  31
ATOM     31  C   UNL A   1      36.872  32.713  32.715  1.00  0.00     0.338 C 
ATOM     32  O   UNL A   1      36.393  32.568  33.827  1.00  0.00    -0.246 OA
BRANCH  31  33
ATOM     33  C   UNL A   1      37.400  31.596  31.907  1.00  0.00     0.060 A 
ATOM     34  C   UNL A   1      36.882  30.326  31.778  1.00  0.00     0.016 A 
ATOM     35  C   UNL A   1      38.685  31.827  31.460  1.00  0.00     0.016 A 
ATOM     36  C   UNL A   1      37.756  29.296  31.391  1.00  0.00     0.010 A 
ATOM     37  C   UNL A   1      39.505  30.864  30.932  1.00  0.00     0.010 A 
ATOM     38  C   UNL A   1      39.108  29.564  31.100  1.00  0.00    -0.014 A 
BRANCH  38  39
ATOM     39  C   UNL A   1      40.093  28.540  30.774  1.00  0.00     0.031 A 
ATOM     40  C   UNL A   1      40.878  28.206  31.974  1.00  0.00     0.074 A 
ATOM     41  C   UNL A   1      40.242  27.817  29.639  1.00  0.00     0.049 A 
ATOM     42  N   UNL A   1      42.025  28.714  32.256  1.00  0.00    -0.248 NA
ATOM     43  C   UNL A   1      40.253  27.452  33.070  1.00  0.00     0.031 C 
ATOM     44  C   UNL A   1      39.429  27.741  28.423  1.00  0.00     0.029 A 
ATOM     45  N   UNL A   1      41.240  26.926  29.358  1.00  0.00    -0.354 N 
ATOM     46  C   UNL A   1      42.367  28.200  33.490  1.00  0.00     0.074 A 
ATOM     47  C   UNL A   1      41.167  27.610  34.029  1.00  0.00     0.031 C 
ATOM     48  C   UNL A   1      39.856  26.725  27.627  1.00  0.00     0.029 A 
ATOM     49  C   UNL A   1      41.085  26.190  28.186  1.00  0.00     0.049 A 
ATOM     50  H   UNL A   1      42.021  26.812  29.948  1.00  0.00     0.167 HD
ATOM     51  C   UNL A   1      43.671  28.097  33.852  1.00  0.00     0.031 A 
ATOM     52  C   UNL A   1      41.949  25.279  27.662  1.00  0.00     0.031 A 
ATOM     53  C   UNL A   1      44.521  28.860  32.966  1.00  0.00     0.049 A 
ATOM     54  C   UNL A   1      43.280  25.581  28.237  1.00  0.00     0.074 A 
ATOM     55  C   UNL A   1      44.630  30.202  32.657  1.00  0.00     0.029 A 
ATOM     56  N   UNL A   1      45.096  28.181  31.915  1.00  0.00    -0.354 N 
ATOM     57  N   UNL A   1      43.942  26.668  27.964  1.00  0.00    -0.248 NA
ATOM     58  C   UNL A   1      43.642  24.910  29.474  1.00  0.00     0.031 C 
ATOM     59  C   UNL A   1      44.826  30.241  31.246  1.00  0.00     0.029 A 
ATOM     60  C   UNL A   1      44.914  28.928  30.777  1.00  0.00     0.049 A 
ATOM     61  H   UNL A   1      45.557  27.313  31.969  1.00  0.00     0.167 HD
ATOM     62  C   UNL A   1      44.477  27.061  29.181  1.00  0.00     0.074 A 
ATOM     63  C   UNL A   1      44.314  25.904  30.061  1.00  0.00     0.031 C 
ATOM     64  C   UNL A   1      44.744  28.372  29.448  1.00  0.00     0.031 A 
BRANCH  51  65
ATOM     65  C   UNL A   1      44.188  27.010  34.746  1.00  0.00    -0.014 A 
ATOM     66  C   UNL A   1      44.257  25.654  34.369  1.00  0.00     0.009 A 
ATOM     67  C   UNL A   1      44.857  27.375  35.923  1.00  0.00     0.009 A 
ATOM     68  C   UNL A   1      44.959  24.710  35.120  1.00  0.00     0.001 A 
ATOM     69  C   UNL A   1      45.596  26.441  36.657  1.00  0.00     0.001 A 
ATOM     70  C   UNL A   1      45.648  25.109  36.254  1.00  0.00     0.000 A 
ENDBRANCH  51  65
BRANCH  52  71
ATOM     71  C   UNL A   1      41.656  23.925  27.117  1.00  0.00    -0.014 A 
ATOM     72  C   UNL A   1      40.790  23.063  27.812  1.00  0.00     0.009 A 
ATOM     73  C   UNL A   1      42.477  23.356  26.123  1.00  0.00     0.009 A 
ATOM     74  C   UNL A   1      40.787  21.682  27.568  1.00  0.00     0.001 A 
ATOM     75  C   UNL A   1      42.471  21.973  25.878  1.00  0.00     0.001 A 
ATOM     76  C   UNL A   1      41.639  21.135  26.614  1.00  0.00     0.000 A 
ENDBRANCH  52  71
BRANCH  64  77
ATOM     77  C   UNL A   1      44.626  29.377  28.319  1.00  0.00    -0.014 A 
ATOM     78  C   UNL A   1      45.814  29.873  27.761  1.00  0.00     0.009 A 
ATOM     79  C   UNL A   1      43.415  29.993  27.952  1.00  0.00     0.009 A 
ATOM     80  C   UNL A   1      45.804  30.972  26.900  1.00  0.00     0.001 A 
ATOM     81  C   UNL A   1      43.402  31.082  27.069  1.00  0.00     0.001 A 
ATOM     82  C   UNL A   1      44.599  31.580  26.557  1.00  0.00     0.000 A 
ENDBRANCH  64  77
ENDBRANCH  38  39
ENDBRANCH  31  33
ENDBRANCH  30  31
ENDBRANCH  29  30
ENDBRANCH  28  29
ENDBRANCH   1  28
TORSDOF 17
ENDMDL
MODEL 3
REMARK VINA RESULT:     -11.0      1.333      2.028
REMARK SMILES N#C/C(=C\c1cn(CC(=O)OCCOC(=O)c2ccc(-c3c4nc(c(-c5ccccc5)c5ccc([nH]5)c(-c5ccccc5)c5nc(c(-c6ccccc6)c6ccc3[nH]6)C=C5)C=C4)cc2)c2ccccc12)C(=O)N1CCCC[C@@H]1C#N
REMARK SMILES IDX 11 1 9 2 10 3 8 4 7 5 5 6 6 7 70 8 65 9 69 10 66 11 68 12
REMARK SMILES IDX 67 13 4 14 3 15 2 16 1 17 71 18 72 19 73 20 74 21 78 22
REMARK SMILES IDX 75 23 77 24 76 25 79 26 80 27 12 28 13 29 14 30 15 31 16 32
REMARK SMILES IDX 17 33 18 34 64 35 19 36 63 37 20 38 21 39 22 40 57 41 23 42
REMARK SMILES IDX 62 43 56 44 58 45 24 46 61 47 55 48 54 49 25 51 47 52 32 53
REMARK SMILES IDX 46 54 33 55 36 56 45 57 59 58 34 59 35 60 44 62 60 63 37 64
REMARK SMILES IDX 26 65 27 66 31 67 28 68 30 69 29 70 48 71 49 72 53 73 50 74
REMARK SMILES IDX 52 75 51 76 38 77 39 78 43 79 40 80 42 81 41 82
REMARK H PARENT 58 50 36 61
REMARK Flexibility Score: inf
ROOT
ATOM      1  O   UNL A   1      34.111  31.343  27.728  1.00  0.00    -0.461 OA
ENDROOT
BRANCH   1   2
ATOM      2  C   UNL A   1      33.263  30.538  27.055  1.00  0.00     0.326 C 
ATOM      3  O   UNL A   1      32.041  30.586  27.183  1.00  0.00    -0.250 OA
BRANCH   2   4
ATOM      4  C   UNL A   1      33.893  29.469  26.217  1.00  0.00     0.244 C 
BRANCH   4   5
ATOM      5  N   UNL A   1      33.201  28.253  25.788  1.00  0.00    -0.336 N 
ATOM      6  C   UNL A   1      33.231  26.080  25.662  1.00  0.00     0.002 A 
ATOM      7  C   UNL A   1      33.755  27.122  26.336  1.00  0.00     0.095 A 
ATOM      8  C   UNL A   1      32.135  26.487  24.892  1.00  0.00     0.007 A 
ATOM      9  C   UNL A   1      32.065  27.885  25.038  1.00  0.00     0.049 A 
ATOM     10  C   UNL A   1      31.217  25.778  24.070  1.00  0.00     0.011 A 
ATOM     11  C   UNL A   1      30.934  28.479  24.424  1.00  0.00     0.027 A 
ATOM     12  C   UNL A   1      30.273  26.443  23.309  1.00  0.00     0.001 A 
ATOM     13  C   UNL A   1      30.119  27.789  23.510  1.00  0.00     0.002 A 
BRANCH   6  14
ATOM     14  C   UNL A   1      33.836  24.838  25.748  1.00  0.00     0.035 C 
ATOM     15  C   UNL A   1      33.301  23.812  26.398  1.00  0.00     0.118 C 
BRANCH  15  16
ATOM     16  C   UNL A   1      31.853  23.852  26.860  1.00  0.00     0.105 C 
ATOM     17  N   UNL A   1      30.653  23.885  27.244  1.00  0.00    -0.192 NA
ENDBRANCH  15  16
BRANCH  15  18
ATOM     18  C   UNL A   1      34.064  22.516  26.393  1.00  0.00     0.265 C 
ATOM     19  O   UNL A   1      33.786  21.679  27.253  1.00  0.00    -0.268 OA
BRANCH  18  20
ATOM     20  N   UNL A   1      34.984  22.224  25.372  1.00  0.00    -0.322 N 
ATOM     21  C   UNL A   1      34.458  22.083  24.012  1.00  0.00     0.121 C 
ATOM     22  C   UNL A   1      36.457  22.002  25.480  1.00  0.00     0.189 C 
ATOM     23  C   UNL A   1      35.134  23.104  23.096  1.00  0.00     0.022 C 
ATOM     24  C   UNL A   1      37.215  22.966  24.533  1.00  0.00     0.041 C 
ATOM     25  C   UNL A   1      36.656  22.960  23.107  1.00  0.00     0.005 C 
BRANCH  22  26
ATOM     26  C   UNL A   1      36.851  20.597  25.167  1.00  0.00     0.087 C 
ATOM     27  N   UNL A   1      37.150  19.501  24.976  1.00  0.00    -0.196 NA
ENDBRANCH  22  26
ENDBRANCH  18  20
ENDBRANCH  15  18
ENDBRANCH   6  14
ENDBRANCH   4   5
ENDBRANCH   2   4
ENDBRANCH   1   2
BRANCH   1  28
ATOM     28  C   UNL A   1      33.559  32.635  28.085  1.00  0.00     0.274 C 
BRANCH  28  29
ATOM     29  C   UNL A   1      34.631  33.511  28.739  1.00  0.00     0.275 C 
BRANCH  29  30
ATOM     30  O   UNL A   1      35.785  32.699  29.031  1.00  0.00    -0.458 OA
BRANCH  30  31
ATOM     31  C   UNL A   1      36.951  33.363  29.219  1.00  0.00     0.338 C 
ATOM     32  O   UNL A   1      37.108  34.568  29.328  1.00  0.00    -0.246 OA
BRANCH  31  33
ATOM     33  C   UNL A   1      37.884  32.368  29.784  1.00  0.00     0.060 A 
ATOM     34  C   UNL A   1      39.204  32.550  30.134  1.00  0.00     0.016 A 
ATOM     35  C   UNL A   1      37.403  31.078  29.692  1.00  0.00     0.016 A 
ATOM     36  C   UNL A   1      40.034  31.416  30.175  1.00  0.00     0.010 A 
ATOM     37  C   UNL A   1      38.163  29.954  29.884  1.00  0.00     0.010 A 
ATOM     38  C   UNL A   1      39.519  30.132  29.913  1.00  0.00    -0.014 A 
BRANCH  38  39
ATOM     39  C   UNL A   1      40.331  28.922  29.856  1.00  0.00     0.031 A 
ATOM     40  C   UNL A   1      40.765  28.550  31.213  1.00  0.00     0.074 A 
ATOM     41  C   UNL A   1      40.571  28.093  28.813  1.00  0.00     0.049 A 
ATOM     42  N   UNL A   1      41.904  28.862  31.722  1.00  0.00    -0.248 NA
ATOM     43  C   UNL A   1      39.788  28.015  32.172  1.00  0.00     0.031 C 
ATOM     44  C   UNL A   1      40.035  28.067  27.451  1.00  0.00     0.029 A 
ATOM     45  N   UNL A   1      41.413  27.016  28.797  1.00  0.00    -0.354 N 
ATOM     46  C   UNL A   1      41.871  28.398  33.021  1.00  0.00     0.074 A 
ATOM     47  C   UNL A   1      40.493  28.082  33.303  1.00  0.00     0.031 C 
ATOM     48  C   UNL A   1      40.412  26.928  26.811  1.00  0.00     0.029 A 
ATOM     49  C   UNL A   1      41.367  26.226  27.651  1.00  0.00     0.049 A 
ATOM     50  H   UNL A   1      42.014  26.810  29.550  1.00  0.00     0.167 HD
ATOM     51  C   UNL A   1      43.025  28.090  33.668  1.00  0.00     0.031 A 
ATOM     52  C   UNL A   1      42.127  25.133  27.369  1.00  0.00     0.031 A 
ATOM     53  C   UNL A   1      44.174  28.610  32.962  1.00  0.00     0.049 A 
ATOM     54  C   UNL A   1      43.340  25.234  28.213  1.00  0.00     0.074 A 
ATOM     55  C   UNL A   1      44.605  29.880  32.632  1.00  0.00     0.029 A 
ATOM     56  N   UNL A   1      44.814  27.754  32.094  1.00  0.00    -0.354 N 
ATOM     57  N   UNL A   1      44.244  26.157  28.050  1.00  0.00    -0.248 NA
ATOM     58  C   UNL A   1      43.295  24.612  29.526  1.00  0.00     0.031 C 
ATOM     59  C   UNL A   1      45.098  29.766  31.299  1.00  0.00     0.029 A 
ATOM     60  C   UNL A   1      45.025  28.425  30.915  1.00  0.00     0.049 A 
ATOM     61  H   UNL A   1      45.074  26.824  32.284  1.00  0.00     0.167 HD
ATOM     62  C   UNL A   1      44.577  26.544  29.339  1.00  0.00     0.074 A 
ATOM     63  C   UNL A   1      44.009  25.512  30.206  1.00  0.00     0.031 C 
ATOM     64  C   UNL A   1      45.033  27.803  29.605  1.00  0.00     0.031 A 
BRANCH  51  65
ATOM     65  C   UNL A   1      43.119  27.004  34.697  1.00  0.00    -0.014 A 
ATOM     66  C   UNL A   1      43.236  27.246  36.080  1.00  0.00     0.009 A 
ATOM     67  C   UNL A   1      42.842  25.686  34.306  1.00  0.00     0.009 A 
ATOM     68  C   UNL A   1      43.079  26.232  37.027  1.00  0.00     0.001 A 
ATOM     69  C   UNL A   1      42.644  24.675  35.252  1.00  0.00     0.001 A 
ATOM     70  C   UNL A   1      42.761  24.949  36.612  1.00  0.00     0.000 A 
ENDBRANCH  51  65
BRANCH  52  71
ATOM     71  C   UNL A   1      41.696  23.815  26.828  1.00  0.00    -0.014 A 
ATOM     72  C   UNL A   1      40.469  23.259  27.230  1.00  0.00     0.009 A 
ATOM     73  C   UNL A   1      42.623  22.956  26.203  1.00  0.00     0.009 A 
ATOM     74  C   UNL A   1      40.202  21.892  27.072  1.00  0.00     0.001 A 
ATOM     75  C   UNL A   1      42.352  21.587  26.042  1.00  0.00     0.001 A 
ATOM     76  C   UNL A   1      41.150  21.053  26.494  1.00  0.00     0.000 A 
ENDBRANCH  52  71
BRANCH  64  77
ATOM     77  C   UNL A   1      45.354  28.716  28.439  1.00  0.00    -0.014 A 
ATOM     78  C   UNL A   1      46.688  29.118  28.274  1.00  0.00     0.009 A 
ATOM     79  C   UNL A   1      44.371  29.346  27.653  1.00  0.00     0.009 A 
ATOM     80  C   UNL A   1      47.030  30.143  27.389  1.00  0.00     0.001 A 
ATOM     81  C   UNL A   1      44.716  30.359  26.747  1.00  0.00     0.001 A 
ATOM     82  C   UNL A   1      46.043  30.767  26.628  1.00  0.00     0.000 A 
ENDBRANCH  64  77
ENDBRANCH  38  39
ENDBRANCH  31  33
ENDBRANCH  30  31
ENDBRANCH  29  30
ENDBRANCH  28  29
ENDBRANCH   1  28
TORSDOF 17
ENDMDL
