MODEL 1
REMARK VINA RESULT:     -10.3      0.000      0.000
REMARK SMILES CC1(C)CCC[C@H]([N@H+](CC(=O)OCCOC(=O)c2ccc(-c3c4nc(c(-c5ccccc5)c5ccc([nH]5)c(-c5ccccc5)c5nc(c(-c6ccccc6)c6ccc3[nH]6)C=C5)C=C4)cc2)C(C)(C)C)C1
REMARK SMILES IDX 13 1 12 2 10 3 11 4 9 5 8 6 7 8 1 9 2 10 3 11 4 12 70 13
REMARK SMILES IDX 5 14 6 15 66 16 67 17 68 18 69 19 14 20 15 21 16 22 17 23
REMARK SMILES IDX 18 24 19 25 65 26 20 27 64 28 21 29 22 30 23 31 58 32 24 33
REMARK SMILES IDX 63 34 57 35 59 36 25 37 62 38 56 39 55 40 26 42 48 43 33 44
REMARK SMILES IDX 47 45 34 46 37 47 46 48 60 49 35 50 36 51 45 53 61 54 38 55
REMARK SMILES IDX 27 56 28 57 32 58 29 59 31 60 30 61 49 62 50 63 54 64 51 65
REMARK SMILES IDX 53 66 52 67 39 68 40 69 44 70 41 71 43 72 42 73
REMARK H PARENT 8 7 59 41 37 52
REMARK Flexibility Score: inf
ROOT
ATOM      1  C   UNL A   1      37.838  21.054  25.144  1.00  0.00     0.274 C 
ENDROOT
BRANCH   1   2
ATOM      2  O   UNL A   1      37.305  22.347  24.780  1.00  0.00    -0.458 OA
BRANCH   2   3
ATOM      3  C   UNL A   1      36.155  22.331  24.080  1.00  0.00     0.361 C 
ATOM      4  O   UNL A   1      36.064  22.780  22.934  1.00  0.00    -0.245 OA
BRANCH   3   5
ATOM      5  C   UNL A   1      34.930  21.690  24.719  1.00  0.00     0.387 C 
BRANCH   5   6
ATOM      6  N   UNL A   1      33.544  21.746  24.140  1.00  0.00    -0.319 N 
ATOM      7  H   UNL A   1      33.588  22.142  23.202  1.00  0.00     0.349 HD
BRANCH   6   8
ATOM      8  C   UNL A   1      33.057  20.313  24.093  1.00  0.00     0.185 C 
ATOM      9  C   UNL A   1      35.066  17.038  24.785  1.00  0.00     0.011 C 
ATOM     10  C   UNL A   1      33.776  17.837  24.516  1.00  0.00    -0.030 C 
ATOM     11  C   UNL A   1      32.709  17.367  25.523  1.00  0.00     0.011 C 
ATOM     12  C   UNL A   1      33.311  17.560  23.073  1.00  0.00     0.007 C 
ATOM     13  C   UNL A   1      34.090  19.340  24.702  1.00  0.00     0.071 C 
ATOM     14  C   UNL A   1      32.089  18.385  22.685  1.00  0.00     0.007 C 
ATOM     15  C   UNL A   1      32.390  19.874  22.770  1.00  0.00     0.065 C 
ENDBRANCH   6   8
BRANCH   6  16
ATOM     16  C   UNL A   1      32.581  22.768  24.719  1.00  0.00     0.090 C 
ATOM     17  C   UNL A   1      33.339  23.725  25.673  1.00  0.00     0.078 C 
ATOM     18  C   UNL A   1      31.980  23.765  23.679  1.00  0.00     0.078 C 
ATOM     19  C   UNL A   1      31.379  22.189  25.511  1.00  0.00     0.078 C 
ENDBRANCH   6  16
ENDBRANCH   5   6
ENDBRANCH   3   5
ENDBRANCH   2   3
ENDBRANCH   1   2
BRANCH   1  20
ATOM     20  C   UNL A   1      39.264  21.161  25.693  1.00  0.00     0.275 C 
BRANCH  20  21
ATOM     21  O   UNL A   1      39.815  19.856  25.963  1.00  0.00    -0.458 OA
BRANCH  21  22
ATOM     22  C   UNL A   1      41.158  19.809  26.018  1.00  0.00     0.338 C 
ATOM     23  O   UNL A   1      41.886  18.881  25.651  1.00  0.00    -0.246 OA
BRANCH  22  24
ATOM     24  C   UNL A   1      41.738  21.021  26.603  1.00  0.00     0.060 A 
ATOM     25  C   UNL A   1      41.646  21.280  27.973  1.00  0.00     0.016 A 
ATOM     26  C   UNL A   1      42.192  22.009  25.726  1.00  0.00     0.016 A 
ATOM     27  C   UNL A   1      41.904  22.567  28.447  1.00  0.00     0.010 A 
ATOM     28  C   UNL A   1      42.526  23.270  26.213  1.00  0.00     0.010 A 
ATOM     29  C   UNL A   1      42.349  23.570  27.571  1.00  0.00    -0.014 A 
BRANCH  29  30
ATOM     30  C   UNL A   1      42.709  24.917  28.072  1.00  0.00     0.031 A 
ATOM     31  C   UNL A   1      44.117  25.249  28.481  1.00  0.00     0.074 A 
ATOM     32  C   UNL A   1      41.730  25.829  28.207  1.00  0.00     0.049 A 
ATOM     33  N   UNL A   1      44.568  26.329  29.070  1.00  0.00    -0.248 NA
ATOM     34  C   UNL A   1      45.152  24.241  28.201  1.00  0.00     0.031 C 
ATOM     35  C   UNL A   1      40.330  25.621  27.833  1.00  0.00     0.029 A 
ATOM     36  N   UNL A   1      41.760  27.106  28.699  1.00  0.00    -0.354 N 
ATOM     37  C   UNL A   1      45.928  26.122  29.258  1.00  0.00     0.074 A 
ATOM     38  C   UNL A   1      46.233  24.813  28.717  1.00  0.00     0.031 C 
ATOM     39  C   UNL A   1      39.639  26.741  28.086  1.00  0.00     0.029 A 
ATOM     40  C   UNL A   1      40.531  27.716  28.701  1.00  0.00     0.049 A 
ATOM     41  H   UNL A   1      42.581  27.544  29.021  1.00  0.00     0.167 HD
ATOM     42  C   UNL A   1      46.835  26.946  29.838  1.00  0.00     0.031 A 
ATOM     43  C   UNL A   1      40.150  28.913  29.176  1.00  0.00     0.031 A 
ATOM     44  C   UNL A   1      46.523  28.247  30.372  1.00  0.00     0.049 A 
ATOM     45  C   UNL A   1      41.163  29.788  29.844  1.00  0.00     0.074 A 
ATOM     46  C   UNL A   1      47.376  29.164  30.966  1.00  0.00     0.029 A 
ATOM     47  N   UNL A   1      45.260  28.816  30.376  1.00  0.00    -0.354 N 
ATOM     48  N   UNL A   1      42.441  29.569  30.031  1.00  0.00    -0.248 NA
ATOM     49  C   UNL A   1      40.678  31.067  30.379  1.00  0.00     0.031 C 
ATOM     50  C   UNL A   1      46.619  30.273  31.362  1.00  0.00     0.029 A 
ATOM     51  C   UNL A   1      45.304  30.063  30.981  1.00  0.00     0.049 A 
ATOM     52  H   UNL A   1      44.450  28.398  30.005  1.00  0.00     0.167 HD
ATOM     53  C   UNL A   1      42.917  30.681  30.709  1.00  0.00     0.074 A 
ATOM     54  C   UNL A   1      41.793  31.583  30.877  1.00  0.00     0.031 C 
ATOM     55  C   UNL A   1      44.171  30.931  31.156  1.00  0.00     0.031 A 
BRANCH  42  56
ATOM     56  C   UNL A   1      48.250  26.456  29.962  1.00  0.00    -0.014 A 
ATOM     57  C   UNL A   1      49.203  26.723  28.969  1.00  0.00     0.009 A 
ATOM     58  C   UNL A   1      48.649  25.776  31.124  1.00  0.00     0.009 A 
ATOM     59  C   UNL A   1      50.527  26.304  29.130  1.00  0.00     0.001 A 
ATOM     60  C   UNL A   1      49.976  25.373  31.289  1.00  0.00     0.001 A 
ATOM     61  C   UNL A   1      50.913  25.633  30.290  1.00  0.00     0.000 A 
ENDBRANCH  42  56
BRANCH  43  62
ATOM     62  C   UNL A   1      38.730  29.321  29.056  1.00  0.00    -0.014 A 
ATOM     63  C   UNL A   1      38.235  29.808  27.838  1.00  0.00     0.009 A 
ATOM     64  C   UNL A   1      37.850  29.158  30.136  1.00  0.00     0.009 A 
ATOM     65  C   UNL A   1      36.882  30.125  27.705  1.00  0.00     0.001 A 
ATOM     66  C   UNL A   1      36.493  29.452  29.994  1.00  0.00     0.001 A 
ATOM     67  C   UNL A   1      36.012  29.938  28.779  1.00  0.00     0.000 A 
ENDBRANCH  43  62
BRANCH  55  68
ATOM     68  C   UNL A   1      44.378  32.235  31.866  1.00  0.00    -0.014 A 
ATOM     69  C   UNL A   1      44.220  32.328  33.257  1.00  0.00     0.009 A 
ATOM     70  C   UNL A   1      44.729  33.381  31.137  1.00  0.00     0.009 A 
ATOM     71  C   UNL A   1      44.380  33.555  33.902  1.00  0.00     0.001 A 
ATOM     72  C   UNL A   1      44.906  34.602  31.787  1.00  0.00     0.001 A 
ATOM     73  C   UNL A   1      44.723  34.690  33.167  1.00  0.00     0.000 A 
ENDBRANCH  55  68
ENDBRANCH  29  30
ENDBRANCH  22  24
ENDBRANCH  21  22
ENDBRANCH  20  21
ENDBRANCH   1  20
TORSDOF 14
ENDMDL
MODEL 2
REMARK VINA RESULT:     -10.3      2.825      6.950
REMARK SMILES CC1(C)CCC[C@H]([N@H+](CC(=O)OCCOC(=O)c2ccc(-c3c4nc(c(-c5ccccc5)c5ccc([nH]5)c(-c5ccccc5)c5nc(c(-c6ccccc6)c6ccc3[nH]6)C=C5)C=C4)cc2)C(C)(C)C)C1
REMARK SMILES IDX 13 1 12 2 10 3 11 4 9 5 8 6 7 8 1 9 2 10 3 11 4 12 70 13
REMARK SMILES IDX 5 14 6 15 66 16 67 17 68 18 69 19 14 20 15 21 16 22 17 23
REMARK SMILES IDX 18 24 19 25 65 26 20 27 64 28 21 29 22 30 23 31 58 32 24 33
REMARK SMILES IDX 63 34 57 35 59 36 25 37 62 38 56 39 55 40 26 42 48 43 33 44
REMARK SMILES IDX 47 45 34 46 37 47 46 48 60 49 35 50 36 51 45 53 61 54 38 55
REMARK SMILES IDX 27 56 28 57 32 58 29 59 31 60 30 61 49 62 50 63 54 64 51 65
REMARK SMILES IDX 53 66 52 67 39 68 40 69 44 70 41 71 43 72 42 73
REMARK H PARENT 8 7 59 41 37 52
REMARK Flexibility Score: inf
ROOT
ATOM      1  C   UNL A   1      36.503  22.543  23.704  1.00  0.00     0.274 C 
ENDROOT
BRANCH   1   2
ATOM      2  O   UNL A   1      35.155  22.671  24.208  1.00  0.00    -0.458 OA
BRANCH   2   3
ATOM      3  C   UNL A   1      34.259  23.210  23.359  1.00  0.00     0.361 C 
ATOM      4  O   UNL A   1      34.515  23.434  22.173  1.00  0.00    -0.245 OA
BRANCH   3   5
ATOM      5  C   UNL A   1      32.861  23.510  23.880  1.00  0.00     0.387 C 
BRANCH   5   6
ATOM      6  N   UNL A   1      32.536  23.807  25.317  1.00  0.00    -0.319 N 
ATOM      7  H   UNL A   1      33.401  23.995  25.824  1.00  0.00     0.349 HD
BRANCH   6   8
ATOM      8  C   UNL A   1      31.650  25.034  25.297  1.00  0.00     0.185 C 
ATOM      9  C   UNL A   1      30.823  27.386  22.293  1.00  0.00     0.011 C 
ATOM     10  C   UNL A   1      30.645  26.871  23.734  1.00  0.00    -0.030 C 
ATOM     11  C   UNL A   1      29.135  26.719  24.000  1.00  0.00     0.011 C 
ATOM     12  C   UNL A   1      31.261  27.895  24.708  1.00  0.00     0.007 C 
ATOM     13  C   UNL A   1      31.369  25.510  23.854  1.00  0.00     0.071 C 
ATOM     14  C   UNL A   1      31.215  27.424  26.156  1.00  0.00     0.007 C 
ATOM     15  C   UNL A   1      31.995  26.129  26.331  1.00  0.00     0.065 C 
ENDBRANCH   6   8
BRANCH   6  16
ATOM     16  C   UNL A   1      32.069  22.652  26.187  1.00  0.00     0.090 C 
ATOM     17  C   UNL A   1      30.554  22.792  26.479  1.00  0.00     0.078 C 
ATOM     18  C   UNL A   1      32.133  21.250  25.505  1.00  0.00     0.078 C 
ATOM     19  C   UNL A   1      32.788  22.503  27.553  1.00  0.00     0.078 C 
ENDBRANCH   6  16
ENDBRANCH   5   6
ENDBRANCH   3   5
ENDBRANCH   2   3
ENDBRANCH   1   2
BRANCH   1  20
ATOM     20  C   UNL A   1      37.231  21.347  24.322  1.00  0.00     0.275 C 
BRANCH  20  21
ATOM     21  O   UNL A   1      37.499  21.570  25.722  1.00  0.00    -0.458 OA
BRANCH  21  22
ATOM     22  C   UNL A   1      38.796  21.488  26.070  1.00  0.00     0.338 C 
ATOM     23  O   UNL A   1      39.534  20.503  25.966  1.00  0.00    -0.246 OA
BRANCH  22  24
ATOM     24  C   UNL A   1      39.303  22.740  26.639  1.00  0.00     0.060 A 
ATOM     25  C   UNL A   1      38.805  23.978  26.227  1.00  0.00     0.016 A 
ATOM     26  C   UNL A   1      40.444  22.669  27.442  1.00  0.00     0.016 A 
ATOM     27  C   UNL A   1      39.517  25.140  26.528  1.00  0.00     0.010 A 
ATOM     28  C   UNL A   1      41.108  23.836  27.810  1.00  0.00     0.010 A 
ATOM     29  C   UNL A   1      40.672  25.078  27.325  1.00  0.00    -0.014 A 
BRANCH  29  30
ATOM     30  C   UNL A   1      41.391  26.309  27.726  1.00  0.00     0.031 A 
ATOM     31  C   UNL A   1      40.769  27.310  28.658  1.00  0.00     0.074 A 
ATOM     32  C   UNL A   1      42.602  26.542  27.189  1.00  0.00     0.049 A 
ATOM     33  N   UNL A   1      41.203  28.500  28.994  1.00  0.00    -0.248 NA
ATOM     34  C   UNL A   1      39.495  26.935  29.291  1.00  0.00     0.031 C 
ATOM     35  C   UNL A   1      43.309  25.636  26.280  1.00  0.00     0.029 A 
ATOM     36  N   UNL A   1      43.449  27.610  27.323  1.00  0.00    -0.354 N 
ATOM     37  C   UNL A   1      40.246  29.027  29.851  1.00  0.00     0.074 A 
ATOM     38  C   UNL A   1      39.207  28.028  29.988  1.00  0.00     0.031 C 
ATOM     39  C   UNL A   1      44.492  26.175  25.958  1.00  0.00     0.029 A 
ATOM     40  C   UNL A   1      44.596  27.489  26.581  1.00  0.00     0.049 A 
ATOM     41  H   UNL A   1      43.254  28.387  27.894  1.00  0.00     0.167 HD
ATOM     42  C   UNL A   1      40.235  30.240  30.458  1.00  0.00     0.031 A 
ATOM     43  C   UNL A   1      45.608  28.352  26.388  1.00  0.00     0.031 A 
ATOM     44  C   UNL A   1      41.273  31.228  30.317  1.00  0.00     0.049 A 
ATOM     45  C   UNL A   1      45.552  29.697  27.041  1.00  0.00     0.074 A 
ATOM     46  C   UNL A   1      41.359  32.481  30.903  1.00  0.00     0.029 A 
ATOM     47  N   UNL A   1      42.406  31.076  29.534  1.00  0.00    -0.354 N 
ATOM     48  N   UNL A   1      44.631  30.188  27.833  1.00  0.00    -0.248 NA
ATOM     49  C   UNL A   1      46.667  30.611  26.761  1.00  0.00     0.031 C 
ATOM     50  C   UNL A   1      42.528  33.099  30.445  1.00  0.00     0.029 A 
ATOM     51  C   UNL A   1      43.188  32.218  29.605  1.00  0.00     0.049 A 
ATOM     52  H   UNL A   1      42.625  30.274  29.006  1.00  0.00     0.167 HD
ATOM     53  C   UNL A   1      45.051  31.471  28.146  1.00  0.00     0.074 A 
ATOM     54  C   UNL A   1      46.322  31.672  27.477  1.00  0.00     0.031 C 
ATOM     55  C   UNL A   1      44.436  32.402  28.915  1.00  0.00     0.031 A 
BRANCH  42  56
ATOM     56  C   UNL A   1      39.044  30.587  31.306  1.00  0.00    -0.014 A 
ATOM     57  C   UNL A   1      39.021  30.309  32.680  1.00  0.00     0.009 A 
ATOM     58  C   UNL A   1      37.958  31.268  30.731  1.00  0.00     0.009 A 
ATOM     59  C   UNL A   1      37.925  30.689  33.460  1.00  0.00     0.001 A 
ATOM     60  C   UNL A   1      36.872  31.662  31.516  1.00  0.00     0.001 A 
ATOM     61  C   UNL A   1      36.854  31.368  32.879  1.00  0.00     0.000 A 
ENDBRANCH  42  56
BRANCH  43  62
ATOM     62  C   UNL A   1      46.735  27.961  25.509  1.00  0.00    -0.014 A 
ATOM     63  C   UNL A   1      47.885  27.372  26.054  1.00  0.00     0.009 A 
ATOM     64  C   UNL A   1      46.636  28.111  24.118  1.00  0.00     0.009 A 
ATOM     65  C   UNL A   1      48.916  26.939  25.218  1.00  0.00     0.001 A 
ATOM     66  C   UNL A   1      47.657  27.656  23.283  1.00  0.00     0.001 A 
ATOM     67  C   UNL A   1      48.798  27.073  23.835  1.00  0.00     0.000 A 
ENDBRANCH  43  62
BRANCH  55  68
ATOM     68  C   UNL A   1      45.145  33.715  29.066  1.00  0.00    -0.014 A 
ATOM     69  C   UNL A   1      44.882  34.777  28.187  1.00  0.00     0.009 A 
ATOM     70  C   UNL A   1      46.084  33.889  30.093  1.00  0.00     0.009 A 
ATOM     71  C   UNL A   1      45.574  35.982  28.315  1.00  0.00     0.001 A 
ATOM     72  C   UNL A   1      46.761  35.102  30.229  1.00  0.00     0.001 A 
ATOM     73  C   UNL A   1      46.512  36.143  29.336  1.00  0.00     0.000 A 
ENDBRANCH  55  68
ENDBRANCH  29  30
ENDBRANCH  22  24
ENDBRANCH  21  22
ENDBRANCH  20  21
ENDBRANCH   1  20
TORSDOF 14
ENDMDL
MODEL 3
REMARK VINA RESULT:     -10.3      1.291      6.783
REMARK SMILES CC1(C)CCC[C@H]([N@H+](CC(=O)OCCOC(=O)c2ccc(-c3c4nc(c(-c5ccccc5)c5ccc([nH]5)c(-c5ccccc5)c5nc(c(-c6ccccc6)c6ccc3[nH]6)C=C5)C=C4)cc2)C(C)(C)C)C1
REMARK SMILES IDX 13 1 12 2 10 3 11 4 9 5 8 6 7 8 1 9 2 10 3 11 4 12 70 13
REMARK SMILES IDX 5 14 6 15 66 16 67 17 68 18 69 19 14 20 15 21 16 22 17 23
REMARK SMILES IDX 18 24 19 25 65 26 20 27 64 28 21 29 22 30 23 31 58 32 24 33
REMARK SMILES IDX 63 34 57 35 59 36 25 37 62 38 56 39 55 40 26 42 48 43 33 44
REMARK SMILES IDX 47 45 34 46 37 47 46 48 60 49 35 50 36 51 45 53 61 54 38 55
REMARK SMILES IDX 27 56 28 57 32 58 29 59 31 60 30 61 49 62 50 63 54 64 51 65
REMARK SMILES IDX 53 66 52 67 39 68 40 69 44 70 41 71 43 72 42 73
REMARK H PARENT 8 7 59 41 37 52
REMARK Flexibility Score: inf
ROOT
ATOM      1  C   UNL A   1      37.557  21.409  25.187  1.00  0.00     0.274 C 
ENDROOT
BRANCH   1   2
ATOM      2  O   UNL A   1      37.200  22.729  24.721  1.00  0.00    -0.458 OA
BRANCH   2   3
ATOM      3  C   UNL A   1      36.319  22.775  23.704  1.00  0.00     0.361 C 
ATOM      4  O   UNL A   1      36.663  22.941  22.530  1.00  0.00    -0.245 OA
BRANCH   3   5
ATOM      5  C   UNL A   1      34.844  22.565  24.017  1.00  0.00     0.387 C 
BRANCH   5   6
ATOM      6  N   UNL A   1      34.157  23.078  25.251  1.00  0.00    -0.319 N 
ATOM      7  H   UNL A   1      34.853  23.249  25.976  1.00  0.00     0.349 HD
BRANCH   6   8
ATOM      8  C   UNL A   1      33.482  24.371  24.843  1.00  0.00     0.185 C 
ATOM      9  C   UNL A   1      32.772  25.710  21.245  1.00  0.00     0.011 C 
ATOM     10  C   UNL A   1      32.647  25.741  22.781  1.00  0.00    -0.030 C 
ATOM     11  C   UNL A   1      31.164  25.965  23.132  1.00  0.00     0.011 C 
ATOM     12  C   UNL A   1      33.508  26.898  23.327  1.00  0.00     0.007 C 
ATOM     13  C   UNL A   1      33.150  24.387  23.334  1.00  0.00     0.071 C 
ATOM     14  C   UNL A   1      33.521  26.947  24.850  1.00  0.00     0.007 C 
ATOM     15  C   UNL A   1      34.095  25.662  25.430  1.00  0.00     0.065 C 
ENDBRANCH   6   8
BRANCH   6  16
ATOM     16  C   UNL A   1      33.311  22.097  26.045  1.00  0.00     0.090 C 
ATOM     17  C   UNL A   1      33.570  20.653  25.544  1.00  0.00     0.078 C 
ATOM     18  C   UNL A   1      33.686  21.981  27.556  1.00  0.00     0.078 C 
ATOM     19  C   UNL A   1      31.779  22.332  25.994  1.00  0.00     0.078 C 
ENDBRANCH   6  16
ENDBRANCH   5   6
ENDBRANCH   3   5
ENDBRANCH   2   3
ENDBRANCH   1   2
BRANCH   1  20
ATOM     20  C   UNL A   1      39.004  21.353  25.684  1.00  0.00     0.275 C 
BRANCH  20  21
ATOM     21  O   UNL A   1      39.477  19.992  25.750  1.00  0.00    -0.458 OA
BRANCH  21  22
ATOM     22  C   UNL A   1      40.804  19.862  25.931  1.00  0.00     0.338 C 
ATOM     23  O   UNL A   1      41.509  18.901  25.608  1.00  0.00    -0.246 OA
BRANCH  22  24
ATOM     24  C   UNL A   1      41.394  21.022  26.606  1.00  0.00     0.060 A 
ATOM     25  C   UNL A   1      41.247  21.213  27.982  1.00  0.00     0.016 A 
ATOM     26  C   UNL A   1      41.919  22.037  25.804  1.00  0.00     0.016 A 
ATOM     27  C   UNL A   1      41.522  22.465  28.535  1.00  0.00     0.010 A 
ATOM     28  C   UNL A   1      42.271  23.259  26.371  1.00  0.00     0.010 A 
ATOM     29  C   UNL A   1      42.040  23.496  27.734  1.00  0.00    -0.014 A 
BRANCH  29  30
ATOM     30  C   UNL A   1      42.419  24.801  28.320  1.00  0.00     0.031 A 
ATOM     31  C   UNL A   1      41.400  25.883  28.548  1.00  0.00     0.074 A 
ATOM     32  C   UNL A   1      43.717  25.023  28.596  1.00  0.00     0.049 A 
ATOM     33  N   UNL A   1      41.590  27.125  28.918  1.00  0.00    -0.248 NA
ATOM     34  C   UNL A   1      39.988  25.530  28.329  1.00  0.00     0.031 C 
ATOM     35  C   UNL A   1      44.792  24.044  28.425  1.00  0.00     0.029 A 
ATOM     36  N   UNL A   1      44.352  26.139  29.071  1.00  0.00    -0.354 N 
ATOM     37  C   UNL A   1      40.330  27.711  28.948  1.00  0.00     0.074 A 
ATOM     38  C   UNL A   1      39.381  26.688  28.562  1.00  0.00     0.031 C 
ATOM     39  C   UNL A   1      45.950  24.594  28.813  1.00  0.00     0.029 A 
ATOM     40  C   UNL A   1      45.709  25.980  29.193  1.00  0.00     0.049 A 
ATOM     41  H   UNL A   1      43.882  26.973  29.301  1.00  0.00     0.167 HD
ATOM     42  C   UNL A   1      40.002  28.989  29.259  1.00  0.00     0.031 A 
ATOM     43  C   UNL A   1      46.665  26.860  29.538  1.00  0.00     0.031 A 
ATOM     44  C   UNL A   1      40.953  30.001  29.643  1.00  0.00     0.049 A 
ATOM     45  C   UNL A   1      46.279  28.273  29.841  1.00  0.00     0.074 A 
ATOM     46  C   UNL A   1      40.717  31.321  29.992  1.00  0.00     0.029 A 
ATOM     47  N   UNL A   1      42.322  29.805  29.729  1.00  0.00    -0.354 N 
ATOM     48  N   UNL A   1      45.086  28.816  29.845  1.00  0.00    -0.248 NA
ATOM     49  C   UNL A   1      47.371  29.197  30.171  1.00  0.00     0.031 C 
ATOM     50  C   UNL A   1      41.949  31.932  30.254  1.00  0.00     0.029 A 
ATOM     51  C   UNL A   1      42.947  30.983  30.105  1.00  0.00     0.049 A 
ATOM     52  H   UNL A   1      42.784  28.954  29.550  1.00  0.00     0.167 HD
ATOM     53  C   UNL A   1      45.282  30.148  30.176  1.00  0.00     0.074 A 
ATOM     54  C   UNL A   1      46.706  30.323  30.388  1.00  0.00     0.031 C 
ATOM     55  C   UNL A   1      44.365  31.139  30.289  1.00  0.00     0.031 A 
BRANCH  42  56
ATOM     56  C   UNL A   1      38.556  29.384  29.164  1.00  0.00    -0.014 A 
ATOM     57  C   UNL A   1      37.707  29.319  30.279  1.00  0.00     0.009 A 
ATOM     58  C   UNL A   1      38.054  29.895  27.956  1.00  0.00     0.009 A 
ATOM     59  C   UNL A   1      36.379  29.742  30.181  1.00  0.00     0.001 A 
ATOM     60  C   UNL A   1      36.730  30.333  27.866  1.00  0.00     0.001 A 
ATOM     61  C   UNL A   1      35.893  30.252  28.977  1.00  0.00     0.000 A 
ENDBRANCH  42  56
BRANCH  43  62
ATOM     62  C   UNL A   1      48.078  26.415  29.575  1.00  0.00    -0.014 A 
ATOM     63  C   UNL A   1      48.608  25.845  30.740  1.00  0.00     0.009 A 
ATOM     64  C   UNL A   1      48.879  26.495  28.426  1.00  0.00     0.009 A 
ATOM     65  C   UNL A   1      49.918  25.361  30.753  1.00  0.00     0.001 A 
ATOM     66  C   UNL A   1      50.179  25.989  28.434  1.00  0.00     0.001 A 
ATOM     67  C   UNL A   1      50.698  25.425  29.599  1.00  0.00     0.000 A 
ENDBRANCH  43  62
BRANCH  55  68
ATOM     68  C   UNL A   1      44.889  32.493  30.661  1.00  0.00    -0.014 A 
ATOM     69  C   UNL A   1      45.284  33.406  29.673  1.00  0.00     0.009 A 
ATOM     70  C   UNL A   1      44.992  32.856  32.012  1.00  0.00     0.009 A 
ATOM     71  C   UNL A   1      45.804  34.650  30.033  1.00  0.00     0.001 A 
ATOM     72  C   UNL A   1      45.495  34.107  32.368  1.00  0.00     0.001 A 
ATOM     73  C   UNL A   1      45.909  34.999  31.379  1.00  0.00     0.000 A 
ENDBRANCH  55  68
ENDBRANCH  29  30
ENDBRANCH  22  24
ENDBRANCH  21  22
ENDBRANCH  20  21
ENDBRANCH   1  20
TORSDOF 14
ENDMDL
