MODEL 1
REMARK VINA RESULT:     -12.1      0.000      0.000
REMARK SMILES O=C(OCCOC(=O)c1nnn(-c2ccccc2C(F)(F)F)c1-c1cccc(Cl)c1)c1ccc(-c2c3nc(c(-c4ccccc4)c4ccc([nH]4)c(-c4ccccc4)c4nc(c(-c5ccccc5)c5ccc2[nH]5)C=C4)C=C3)cc1
REMARK SMILES IDX 4 1 3 2 2 3 1 4 31 5 32 6 78 7 33 8 77 9 34 10 35 11 36 12
REMARK SMILES IDX 71 13 37 14 76 15 70 16 72 17 38 18 75 19 69 20 68 21 39 23
REMARK SMILES IDX 61 24 46 25 60 26 47 27 50 28 59 29 73 30 48 31 49 32 58 34
REMARK SMILES IDX 74 35 51 36 40 37 41 38 45 39 42 40 44 41 43 42 62 43 63 44
REMARK SMILES IDX 67 45 64 46 66 47 65 48 52 49 53 50 57 51 54 52 56 53 55 54
REMARK SMILES IDX 5 55 6 56 7 57 8 58 9 59 10 60 23 61 11 62 12 63 24 64 25 65
REMARK SMILES IDX 30 66 26 67 28 68 27 69 29 70 13 71 14 72 18 73 15 74 17 75
REMARK SMILES IDX 16 76 19 77 20 78 21 79 22 80
REMARK H PARENT 72 22 50 33
REMARK Flexibility Score: inf
ROOT
ATOM      1  C   UNL A   1      33.404  28.829  27.372  1.00  0.00     0.275 C 
ENDROOT
BRANCH   1   2
ATOM      2  O   UNL A   1      34.084  30.044  26.991  1.00  0.00    -0.458 OA
BRANCH   2   3
ATOM      3  C   UNL A   1      34.739  30.790  27.906  1.00  0.00     0.338 C 
ATOM      4  O   UNL A   1      34.216  31.702  28.526  1.00  0.00    -0.246 OA
BRANCH   3   5
ATOM      5  C   UNL A   1      36.066  30.234  28.281  1.00  0.00     0.060 A 
ATOM      6  C   UNL A   1      37.140  30.158  27.388  1.00  0.00     0.016 A 
ATOM      7  C   UNL A   1      36.213  29.744  29.587  1.00  0.00     0.016 A 
ATOM      8  C   UNL A   1      38.305  29.502  27.761  1.00  0.00     0.010 A 
ATOM      9  C   UNL A   1      37.381  29.098  29.964  1.00  0.00     0.010 A 
ATOM     10  C   UNL A   1      38.399  28.924  29.029  1.00  0.00    -0.014 A 
BRANCH  10  11
ATOM     11  C   UNL A   1      39.604  28.170  29.358  1.00  0.00     0.031 A 
ATOM     12  C   UNL A   1      39.987  28.174  30.799  1.00  0.00     0.074 A 
ATOM     13  C   UNL A   1      40.273  27.436  28.444  1.00  0.00     0.049 A 
ATOM     14  N   UNL A   1      41.071  28.634  31.332  1.00  0.00    -0.248 NA
ATOM     15  C   UNL A   1      39.002  27.683  31.777  1.00  0.00     0.031 C 
ATOM     16  C   UNL A   1      39.878  27.115  27.069  1.00  0.00     0.029 A 
ATOM     17  N   UNL A   1      41.424  26.723  28.597  1.00  0.00    -0.354 N 
ATOM     18  C   UNL A   1      40.991  28.346  32.694  1.00  0.00     0.074 A 
ATOM     19  C   UNL A   1      39.654  27.861  32.928  1.00  0.00     0.031 C 
ATOM     20  C   UNL A   1      40.633  26.090  26.611  1.00  0.00     0.029 A 
ATOM     21  C   UNL A   1      41.662  25.793  27.592  1.00  0.00     0.049 A 
ATOM     22  H   UNL A   1      42.037  26.857  29.356  1.00  0.00     0.167 HD
ATOM     23  C   UNL A   1      42.094  28.348  33.495  1.00  0.00     0.031 A 
ATOM     24  C   UNL A   1      42.606  24.819  27.589  1.00  0.00     0.031 A 
ATOM     25  C   UNL A   1      43.195  29.047  32.892  1.00  0.00     0.049 A 
ATOM     26  C   UNL A   1      43.638  25.199  28.580  1.00  0.00     0.074 A 
ATOM     27  C   UNL A   1      43.419  30.349  32.490  1.00  0.00     0.029 A 
ATOM     28  N   UNL A   1      44.159  28.291  32.273  1.00  0.00    -0.354 N 
ATOM     29  N   UNL A   1      44.425  26.226  28.431  1.00  0.00    -0.248 NA
ATOM     30  C   UNL A   1      43.482  24.718  29.943  1.00  0.00     0.031 C 
ATOM     31  C   UNL A   1      44.157  30.228  31.275  1.00  0.00     0.029 A 
ATOM     32  C   UNL A   1      44.404  28.872  31.057  1.00  0.00     0.049 A 
ATOM     33  H   UNL A   1      44.594  27.484  32.634  1.00  0.00     0.167 HD
ATOM     34  C   UNL A   1      44.503  26.791  29.696  1.00  0.00     0.074 A 
ATOM     35  C   UNL A   1      43.976  25.770  30.602  1.00  0.00     0.031 C 
ATOM     36  C   UNL A   1      44.720  28.128  29.860  1.00  0.00     0.031 A 
BRANCH  23  37
ATOM     37  C   UNL A   1      42.307  27.381  34.634  1.00  0.00    -0.014 A 
ATOM     38  C   UNL A   1      42.663  26.051  34.335  1.00  0.00     0.009 A 
ATOM     39  C   UNL A   1      41.875  27.639  35.948  1.00  0.00     0.009 A 
ATOM     40  C   UNL A   1      42.499  25.024  35.271  1.00  0.00     0.001 A 
ATOM     41  C   UNL A   1      41.748  26.621  36.897  1.00  0.00     0.001 A 
ATOM     42  C   UNL A   1      42.029  25.308  36.548  1.00  0.00     0.000 A 
ENDBRANCH  23  37
BRANCH  24  43
ATOM     43  C   UNL A   1      42.515  23.448  27.038  1.00  0.00    -0.014 A 
ATOM     44  C   UNL A   1      43.387  23.009  26.029  1.00  0.00     0.009 A 
ATOM     45  C   UNL A   1      41.751  22.474  27.708  1.00  0.00     0.009 A 
ATOM     46  C   UNL A   1      43.512  21.644  25.726  1.00  0.00     0.001 A 
ATOM     47  C   UNL A   1      41.876  21.113  27.406  1.00  0.00     0.001 A 
ATOM     48  C   UNL A   1      42.767  20.697  26.424  1.00  0.00     0.000 A 
ENDBRANCH  24  43
BRANCH  36  49
ATOM     49  C   UNL A   1      45.062  28.951  28.641  1.00  0.00    -0.014 A 
ATOM     50  C   UNL A   1      44.088  29.561  27.830  1.00  0.00     0.009 A 
ATOM     51  C   UNL A   1      46.408  29.275  28.422  1.00  0.00     0.009 A 
ATOM     52  C   UNL A   1      44.456  30.457  26.820  1.00  0.00     0.001 A 
ATOM     53  C   UNL A   1      46.775  30.184  27.429  1.00  0.00     0.001 A 
ATOM     54  C   UNL A   1      45.800  30.773  26.627  1.00  0.00     0.000 A 
ENDBRANCH  36  49
ENDBRANCH  10  11
ENDBRANCH   3   5
ENDBRANCH   2   3
ENDBRANCH   1   2
BRANCH   1  55
ATOM     55  C   UNL A   1      31.914  28.717  27.061  1.00  0.00     0.275 C 
BRANCH  55  56
ATOM     56  O   UNL A   1      31.437  27.422  27.454  1.00  0.00    -0.457 OA
BRANCH  56  57
ATOM     57  C   UNL A   1      31.056  26.588  26.440  1.00  0.00     0.361 C 
ATOM     58  O   UNL A   1      30.076  26.732  25.734  1.00  0.00    -0.244 OA
BRANCH  57  59
ATOM     59  C   UNL A   1      31.924  25.436  26.372  1.00  0.00     0.198 A 
ATOM     60  N   UNL A   1      31.907  24.398  27.264  1.00  0.00    -0.122 NA
ATOM     61  C   UNL A   1      32.862  25.193  25.386  1.00  0.00     0.109 A 
ATOM     62  N   UNL A   1      32.811  23.509  26.873  1.00  0.00    -0.061 NA
ATOM     63  N   UNL A   1      33.512  24.067  25.861  1.00  0.00    -0.211 N 
BRANCH  61  64
ATOM     64  C   UNL A   1      33.189  25.941  24.177  1.00  0.00     0.004 A 
ATOM     65  C   UNL A   1      33.818  27.190  24.250  1.00  0.00     0.010 A 
ATOM     66  C   UNL A   1      32.850  25.416  22.923  1.00  0.00     0.031 A 
ATOM     67  C   UNL A   1      34.051  27.929  23.089  1.00  0.00     0.002 A 
ATOM     68  C   UNL A   1      33.079  26.162  21.770  1.00  0.00     0.041 A 
ATOM     69  C   UNL A   1      33.667  27.420  21.849  1.00  0.00     0.020 A 
ATOM     70  Cl  UNL A   1      32.595  25.533  20.244  1.00  0.00    -0.084 Cl
ENDBRANCH  61  64
BRANCH  63  71
ATOM     71  C   UNL A   1      34.719  23.495  25.411  1.00  0.00     0.079 A 
ATOM     72  C   UNL A   1      35.913  24.097  25.836  1.00  0.00     0.029 A 
ATOM     73  C   UNL A   1      34.735  22.337  24.605  1.00  0.00     0.081 A 
ATOM     74  C   UNL A   1      37.133  23.491  25.543  1.00  0.00     0.002 A 
ATOM     75  C   UNL A   1      35.981  21.740  24.342  1.00  0.00     0.015 A 
ATOM     76  C   UNL A   1      37.166  22.305  24.816  1.00  0.00     0.001 A 
BRANCH  73  77
ATOM     77  C   UNL A   1      33.526  21.744  23.912  1.00  0.00     0.418 C 
ATOM     78  F   UNL A   1      33.369  22.240  22.652  1.00  0.00    -0.166 F 
ATOM     79  F   UNL A   1      33.628  20.396  23.761  1.00  0.00    -0.166 F 
ATOM     80  F   UNL A   1      32.338  21.974  24.531  1.00  0.00    -0.166 F 
ENDBRANCH  73  77
ENDBRANCH  63  71
ENDBRANCH  57  59
ENDBRANCH  56  57
ENDBRANCH  55  56
ENDBRANCH   1  55
TORSDOF 14
ENDMDL
MODEL 2
REMARK VINA RESULT:     -11.9      3.313      7.704
REMARK SMILES O=C(OCCOC(=O)c1nnn(-c2ccccc2C(F)(F)F)c1-c1cccc(Cl)c1)c1ccc(-c2c3nc(c(-c4ccccc4)c4ccc([nH]4)c(-c4ccccc4)c4nc(c(-c5ccccc5)c5ccc2[nH]5)C=C4)C=C3)cc1
REMARK SMILES IDX 4 1 3 2 2 3 1 4 31 5 32 6 78 7 33 8 77 9 34 10 35 11 36 12
REMARK SMILES IDX 71 13 37 14 76 15 70 16 72 17 38 18 75 19 69 20 68 21 39 23
REMARK SMILES IDX 61 24 46 25 60 26 47 27 50 28 59 29 73 30 48 31 49 32 58 34
REMARK SMILES IDX 74 35 51 36 40 37 41 38 45 39 42 40 44 41 43 42 62 43 63 44
REMARK SMILES IDX 67 45 64 46 66 47 65 48 52 49 53 50 57 51 54 52 56 53 55 54
REMARK SMILES IDX 5 55 6 56 7 57 8 58 9 59 10 60 23 61 11 62 12 63 24 64 25 65
REMARK SMILES IDX 30 66 26 67 28 68 27 69 29 70 13 71 14 72 18 73 15 74 17 75
REMARK SMILES IDX 16 76 19 77 20 78 21 79 22 80
REMARK H PARENT 72 22 50 33
REMARK Flexibility Score: inf
ROOT
ATOM      1  C   UNL A   1      38.650  21.079  25.689  1.00  0.00     0.275 C 
ENDROOT
BRANCH   1   2
ATOM      2  O   UNL A   1      39.589  22.141  25.960  1.00  0.00    -0.458 OA
BRANCH   2   3
ATOM      3  C   UNL A   1      40.141  22.284  27.184  1.00  0.00     0.338 C 
ATOM      4  O   UNL A   1      40.610  21.354  27.821  1.00  0.00    -0.246 OA
BRANCH   3   5
ATOM      5  C   UNL A   1      40.366  23.702  27.568  1.00  0.00     0.060 A 
ATOM      6  C   UNL A   1      41.552  24.152  28.158  1.00  0.00     0.016 A 
ATOM      7  C   UNL A   1      39.315  24.604  27.346  1.00  0.00     0.016 A 
ATOM      8  C   UNL A   1      41.645  25.459  28.618  1.00  0.00     0.010 A 
ATOM      9  C   UNL A   1      39.410  25.913  27.797  1.00  0.00     0.010 A 
ATOM     10  C   UNL A   1      40.550  26.318  28.487  1.00  0.00    -0.014 A 
BRANCH  10  11
ATOM     11  C   UNL A   1      40.651  27.657  29.057  1.00  0.00     0.031 A 
ATOM     12  C   UNL A   1      41.645  28.556  28.405  1.00  0.00     0.074 A 
ATOM     13  C   UNL A   1      39.833  28.091  30.039  1.00  0.00     0.049 A 
ATOM     14  N   UNL A   1      42.692  29.101  28.934  1.00  0.00    -0.248 NA
ATOM     15  C   UNL A   1      41.504  28.811  26.962  1.00  0.00     0.031 C 
ATOM     16  C   UNL A   1      38.646  27.432  30.593  1.00  0.00     0.029 A 
ATOM     17  N   UNL A   1      39.839  29.288  30.690  1.00  0.00    -0.354 N 
ATOM     18  C   UNL A   1      43.259  29.903  27.945  1.00  0.00     0.074 A 
ATOM     19  C   UNL A   1      42.553  29.603  26.725  1.00  0.00     0.031 C 
ATOM     20  C   UNL A   1      37.921  28.330  31.299  1.00  0.00     0.029 A 
ATOM     21  C   UNL A   1      38.668  29.572  31.381  1.00  0.00     0.049 A 
ATOM     22  H   UNL A   1      40.610  29.901  30.672  1.00  0.00     0.167 HD
ATOM     23  C   UNL A   1      44.141  30.898  28.244  1.00  0.00     0.031 A 
ATOM     24  C   UNL A   1      38.317  30.759  31.940  1.00  0.00     0.031 A 
ATOM     25  C   UNL A   1      44.696  30.745  29.561  1.00  0.00     0.049 A 
ATOM     26  C   UNL A   1      39.557  31.547  32.120  1.00  0.00     0.074 A 
ATOM     27  C   UNL A   1      45.476  29.792  30.185  1.00  0.00     0.029 A 
ATOM     28  N   UNL A   1      44.146  31.499  30.569  1.00  0.00    -0.354 N 
ATOM     29  N   UNL A   1      40.498  31.214  32.957  1.00  0.00    -0.248 NA
ATOM     30  C   UNL A   1      39.958  32.440  31.045  1.00  0.00     0.031 C 
ATOM     31  C   UNL A   1      44.947  29.703  31.507  1.00  0.00     0.029 A 
ATOM     32  C   UNL A   1      43.937  30.658  31.629  1.00  0.00     0.049 A 
ATOM     33  H   UNL A   1      43.941  32.462  30.535  1.00  0.00     0.167 HD
ATOM     34  C   UNL A   1      41.678  31.478  32.277  1.00  0.00     0.074 A 
ATOM     35  C   UNL A   1      41.285  32.313  31.141  1.00  0.00     0.031 C 
ATOM     36  C   UNL A   1      42.814  30.767  32.532  1.00  0.00     0.031 A 
BRANCH  23  37
ATOM     37  C   UNL A   1      44.199  32.218  27.516  1.00  0.00    -0.014 A 
ATOM     38  C   UNL A   1      43.728  33.373  28.173  1.00  0.00     0.009 A 
ATOM     39  C   UNL A   1      44.402  32.319  26.128  1.00  0.00     0.009 A 
ATOM     40  C   UNL A   1      43.387  34.529  27.461  1.00  0.00     0.001 A 
ATOM     41  C   UNL A   1      44.098  33.485  25.420  1.00  0.00     0.001 A 
ATOM     42  C   UNL A   1      43.559  34.579  26.082  1.00  0.00     0.000 A 
ENDBRANCH  23  37
BRANCH  24  43
ATOM     43  C   UNL A   1      36.975  31.377  32.025  1.00  0.00    -0.014 A 
ATOM     44  C   UNL A   1      36.512  31.953  33.219  1.00  0.00     0.009 A 
ATOM     45  C   UNL A   1      36.256  31.655  30.847  1.00  0.00     0.009 A 
ATOM     46  C   UNL A   1      35.393  32.800  33.226  1.00  0.00     0.001 A 
ATOM     47  C   UNL A   1      35.141  32.500  30.853  1.00  0.00     0.001 A 
ATOM     48  C   UNL A   1      34.717  33.084  32.042  1.00  0.00     0.000 A 
ENDBRANCH  24  43
BRANCH  36  49
ATOM     49  C   UNL A   1      42.813  29.814  33.703  1.00  0.00    -0.014 A 
ATOM     50  C   UNL A   1      43.206  30.194  34.999  1.00  0.00     0.009 A 
ATOM     51  C   UNL A   1      42.219  28.557  33.528  1.00  0.00     0.009 A 
ATOM     52  C   UNL A   1      43.020  29.330  36.084  1.00  0.00     0.001 A 
ATOM     53  C   UNL A   1      42.015  27.704  34.613  1.00  0.00     0.001 A 
ATOM     54  C   UNL A   1      42.417  28.088  35.890  1.00  0.00     0.000 A 
ENDBRANCH  36  49
ENDBRANCH  10  11
ENDBRANCH   3   5
ENDBRANCH   2   3
ENDBRANCH   1   2
BRANCH   1  55
ATOM     55  C   UNL A   1      37.213  21.466  25.350  1.00  0.00     0.275 C 
BRANCH  55  56
ATOM     56  O   UNL A   1      37.164  22.848  24.970  1.00  0.00    -0.457 OA
BRANCH  56  57
ATOM     57  C   UNL A   1      36.290  23.166  23.967  1.00  0.00     0.361 C 
ATOM     58  O   UNL A   1      36.483  22.996  22.778  1.00  0.00    -0.244 OA
BRANCH  57  59
ATOM     59  C   UNL A   1      35.125  23.834  24.497  1.00  0.00     0.198 A 
ATOM     60  N   UNL A   1      35.145  25.052  25.121  1.00  0.00    -0.122 NA
ATOM     61  C   UNL A   1      33.826  23.366  24.419  1.00  0.00     0.109 A 
ATOM     62  N   UNL A   1      33.896  25.365  25.443  1.00  0.00    -0.061 NA
ATOM     63  N   UNL A   1      33.132  24.279  25.195  1.00  0.00    -0.211 N 
BRANCH  61  64
ATOM     64  C   UNL A   1      33.278  22.180  23.772  1.00  0.00     0.004 A 
ATOM     65  C   UNL A   1      32.578  22.276  22.563  1.00  0.00     0.010 A 
ATOM     66  C   UNL A   1      33.432  20.925  24.377  1.00  0.00     0.031 A 
ATOM     67  C   UNL A   1      31.990  21.143  21.997  1.00  0.00     0.002 A 
ATOM     68  C   UNL A   1      32.837  19.801  23.812  1.00  0.00     0.041 A 
ATOM     69  C   UNL A   1      32.107  19.907  22.631  1.00  0.00     0.020 A 
ATOM     70  Cl  UNL A   1      32.977  18.280  24.602  1.00  0.00    -0.084 Cl
ENDBRANCH  61  64
BRANCH  63  71
ATOM     71  C   UNL A   1      31.814  24.190  25.686  1.00  0.00     0.079 A 
ATOM     72  C   UNL A   1      31.527  23.137  26.567  1.00  0.00     0.029 A 
ATOM     73  C   UNL A   1      30.831  25.143  25.348  1.00  0.00     0.081 A 
ATOM     74  C   UNL A   1      30.285  23.082  27.197  1.00  0.00     0.002 A 
ATOM     75  C   UNL A   1      29.594  25.071  26.014  1.00  0.00     0.015 A 
ATOM     76  C   UNL A   1      29.328  24.059  26.936  1.00  0.00     0.001 A 
BRANCH  73  77
ATOM     77  C   UNL A   1      30.963  26.175  24.248  1.00  0.00     0.418 C 
ATOM     78  F   UNL A   1      29.747  26.619  23.818  1.00  0.00    -0.166 F 
ATOM     79  F   UNL A   1      31.629  27.287  24.660  1.00  0.00    -0.166 F 
ATOM     80  F   UNL A   1      31.595  25.741  23.126  1.00  0.00    -0.166 F 
ENDBRANCH  73  77
ENDBRANCH  63  71
ENDBRANCH  57  59
ENDBRANCH  56  57
ENDBRANCH  55  56
ENDBRANCH   1  55
TORSDOF 14
ENDMDL
MODEL 3
REMARK VINA RESULT:     -11.9      3.373      6.238
REMARK SMILES O=C(OCCOC(=O)c1nnn(-c2ccccc2C(F)(F)F)c1-c1cccc(Cl)c1)c1ccc(-c2c3nc(c(-c4ccccc4)c4ccc([nH]4)c(-c4ccccc4)c4nc(c(-c5ccccc5)c5ccc2[nH]5)C=C4)C=C3)cc1
REMARK SMILES IDX 4 1 3 2 2 3 1 4 31 5 32 6 78 7 33 8 77 9 34 10 35 11 36 12
REMARK SMILES IDX 71 13 37 14 76 15 70 16 72 17 38 18 75 19 69 20 68 21 39 23
REMARK SMILES IDX 61 24 46 25 60 26 47 27 50 28 59 29 73 30 48 31 49 32 58 34
REMARK SMILES IDX 74 35 51 36 40 37 41 38 45 39 42 40 44 41 43 42 62 43 63 44
REMARK SMILES IDX 67 45 64 46 66 47 65 48 52 49 53 50 57 51 54 52 56 53 55 54
REMARK SMILES IDX 5 55 6 56 7 57 8 58 9 59 10 60 23 61 11 62 12 63 24 64 25 65
REMARK SMILES IDX 30 66 26 67 28 68 27 69 29 70 13 71 14 72 18 73 15 74 17 75
REMARK SMILES IDX 16 76 19 77 20 78 21 79 22 80
REMARK H PARENT 72 22 50 33
REMARK Flexibility Score: inf
ROOT
ATOM      1  C   UNL A   1      35.612  22.279  24.306  1.00  0.00     0.275 C 
ENDROOT
BRANCH   1   2
ATOM      2  O   UNL A   1      37.007  22.028  24.035  1.00  0.00    -0.458 OA
BRANCH   2   3
ATOM      3  C   UNL A   1      37.768  21.327  24.903  1.00  0.00     0.338 C 
ATOM      4  O   UNL A   1      38.005  20.136  24.775  1.00  0.00    -0.246 OA
BRANCH   3   5
ATOM      5  C   UNL A   1      38.503  22.184  25.869  1.00  0.00     0.060 A 
ATOM      6  C   UNL A   1      38.157  23.515  26.124  1.00  0.00     0.016 A 
ATOM      7  C   UNL A   1      39.609  21.617  26.521  1.00  0.00     0.016 A 
ATOM      8  C   UNL A   1      38.967  24.299  26.934  1.00  0.00     0.010 A 
ATOM      9  C   UNL A   1      40.414  22.398  27.338  1.00  0.00     0.010 A 
ATOM     10  C   UNL A   1      40.126  23.752  27.491  1.00  0.00    -0.014 A 
BRANCH  10  11
ATOM     11  C   UNL A   1      41.000  24.625  28.267  1.00  0.00     0.031 A 
ATOM     12  C   UNL A   1      40.515  26.024  28.439  1.00  0.00     0.074 A 
ATOM     13  C   UNL A   1      42.120  24.178  28.873  1.00  0.00     0.049 A 
ATOM     14  N   UNL A   1      41.079  27.116  28.037  1.00  0.00    -0.248 NA
ATOM     15  C   UNL A   1      39.196  26.227  29.059  1.00  0.00     0.031 C 
ATOM     16  C   UNL A   1      42.584  22.795  29.023  1.00  0.00     0.029 A 
ATOM     17  N   UNL A   1      43.044  24.881  29.586  1.00  0.00    -0.354 N 
ATOM     18  C   UNL A   1      40.278  28.162  28.494  1.00  0.00     0.074 A 
ATOM     19  C   UNL A   1      39.081  27.557  29.020  1.00  0.00     0.031 C 
ATOM     20  C   UNL A   1      43.544  22.744  29.974  1.00  0.00     0.029 A 
ATOM     21  C   UNL A   1      43.873  24.098  30.380  1.00  0.00     0.049 A 
ATOM     22  H   UNL A   1      43.118  25.862  29.542  1.00  0.00     0.167 HD
ATOM     23  C   UNL A   1      40.744  29.440  28.581  1.00  0.00     0.031 A 
ATOM     24  C   UNL A   1      44.733  24.531  31.337  1.00  0.00     0.031 A 
ATOM     25  C   UNL A   1      41.935  29.631  27.799  1.00  0.00     0.049 A 
ATOM     26  C   UNL A   1      45.006  25.962  31.072  1.00  0.00     0.074 A 
ATOM     27  C   UNL A   1      42.241  29.554  26.455  1.00  0.00     0.029 A 
ATOM     28  N   UNL A   1      43.138  29.590  28.461  1.00  0.00    -0.354 N 
ATOM     29  N   UNL A   1      45.658  26.382  30.026  1.00  0.00    -0.248 NA
ATOM     30  C   UNL A   1      44.157  26.947  31.722  1.00  0.00     0.031 C 
ATOM     31  C   UNL A   1      43.537  28.959  26.415  1.00  0.00     0.029 A 
ATOM     32  C   UNL A   1      43.971  28.786  27.730  1.00  0.00     0.049 A 
ATOM     33  H   UNL A   1      43.360  30.052  29.303  1.00  0.00     0.167 HD
ATOM     34  C   UNL A   1      44.975  27.520  29.623  1.00  0.00     0.074 A 
ATOM     35  C   UNL A   1      44.115  27.869  30.755  1.00  0.00     0.031 C 
ATOM     36  C   UNL A   1      44.956  27.907  28.314  1.00  0.00     0.031 A 
BRANCH  23  37
ATOM     37  C   UNL A   1      40.364  30.401  29.680  1.00  0.00    -0.014 A 
ATOM     38  C   UNL A   1      40.802  30.135  30.993  1.00  0.00     0.009 A 
ATOM     39  C   UNL A   1      39.353  31.368  29.535  1.00  0.00     0.009 A 
ATOM     40  C   UNL A   1      40.190  30.732  32.101  1.00  0.00     0.001 A 
ATOM     41  C   UNL A   1      38.766  31.995  30.639  1.00  0.00     0.001 A 
ATOM     42  C   UNL A   1      39.162  31.651  31.923  1.00  0.00     0.000 A 
ENDBRANCH  23  37
BRANCH  24  43
ATOM     43  C   UNL A   1      45.074  23.894  32.628  1.00  0.00    -0.014 A 
ATOM     44  C   UNL A   1      46.161  24.338  33.397  1.00  0.00     0.009 A 
ATOM     45  C   UNL A   1      44.151  23.027  33.245  1.00  0.00     0.009 A 
ATOM     46  C   UNL A   1      46.301  23.956  34.740  1.00  0.00     0.001 A 
ATOM     47  C   UNL A   1      44.289  22.647  34.585  1.00  0.00     0.001 A 
ATOM     48  C   UNL A   1      45.358  23.122  35.336  1.00  0.00     0.000 A 
ENDBRANCH  24  43
BRANCH  36  49
ATOM     49  C   UNL A   1      45.852  27.178  27.342  1.00  0.00    -0.014 A 
ATOM     50  C   UNL A   1      45.473  25.987  26.697  1.00  0.00     0.009 A 
ATOM     51  C   UNL A   1      47.027  27.817  26.924  1.00  0.00     0.009 A 
ATOM     52  C   UNL A   1      46.260  25.446  25.674  1.00  0.00     0.001 A 
ATOM     53  C   UNL A   1      47.802  27.289  25.890  1.00  0.00     0.001 A 
ATOM     54  C   UNL A   1      47.420  26.103  25.267  1.00  0.00     0.000 A 
ENDBRANCH  36  49
ENDBRANCH  10  11
ENDBRANCH   3   5
ENDBRANCH   2   3
ENDBRANCH   1   2
BRANCH   1  55
ATOM     55  C   UNL A   1      34.701  22.600  23.124  1.00  0.00     0.275 C 
BRANCH  55  56
ATOM     56  O   UNL A   1      34.844  23.983  22.768  1.00  0.00    -0.457 OA
BRANCH  56  57
ATOM     57  C   UNL A   1      33.779  24.554  22.129  1.00  0.00     0.361 C 
ATOM     58  O   UNL A   1      33.148  24.053  21.218  1.00  0.00    -0.244 OA
BRANCH  57  59
ATOM     59  C   UNL A   1      33.551  25.895  22.613  1.00  0.00     0.198 A 
ATOM     60  N   UNL A   1      33.920  27.033  21.949  1.00  0.00    -0.122 NA
ATOM     61  C   UNL A   1      32.898  26.226  23.786  1.00  0.00     0.109 A 
ATOM     62  N   UNL A   1      33.524  28.073  22.670  1.00  0.00    -0.061 NA
ATOM     63  N   UNL A   1      33.082  27.596  23.855  1.00  0.00    -0.211 N 
BRANCH  61  64
ATOM     64  C   UNL A   1      32.240  25.386  24.780  1.00  0.00     0.004 A 
ATOM     65  C   UNL A   1      30.851  25.429  24.954  1.00  0.00     0.010 A 
ATOM     66  C   UNL A   1      33.006  24.537  25.590  1.00  0.00     0.031 A 
ATOM     67  C   UNL A   1      30.244  24.679  25.963  1.00  0.00     0.002 A 
ATOM     68  C   UNL A   1      32.396  23.798  26.599  1.00  0.00     0.041 A 
ATOM     69  C   UNL A   1      31.021  23.874  26.796  1.00  0.00     0.020 A 
ATOM     70  Cl  UNL A   1      33.359  22.814  27.629  1.00  0.00    -0.084 Cl
ENDBRANCH  61  64
BRANCH  63  71
ATOM     71  C   UNL A   1      32.852  28.459  24.945  1.00  0.00     0.079 A 
ATOM     72  C   UNL A   1      33.746  28.382  26.024  1.00  0.00     0.029 A 
ATOM     73  C   UNL A   1      31.798  29.396  24.939  1.00  0.00     0.081 A 
ATOM     74  C   UNL A   1      33.656  29.307  27.063  1.00  0.00     0.002 A 
ATOM     75  C   UNL A   1      31.745  30.327  25.993  1.00  0.00     0.015 A 
ATOM     76  C   UNL A   1      32.670  30.290  27.037  1.00  0.00     0.001 A 
BRANCH  73  77
ATOM     77  C   UNL A   1      30.656  29.414  23.945  1.00  0.00     0.418 C 
ATOM     78  F   UNL A   1      29.949  28.249  23.962  1.00  0.00    -0.166 F 
ATOM     79  F   UNL A   1      29.751  30.392  24.216  1.00  0.00    -0.166 F 
ATOM     80  F   UNL A   1      31.027  29.581  22.648  1.00  0.00    -0.166 F 
ENDBRANCH  73  77
ENDBRANCH  63  71
ENDBRANCH  57  59
ENDBRANCH  56  57
ENDBRANCH  55  56
ENDBRANCH   1  55
TORSDOF 14
ENDMDL
