MODEL 1
REMARK VINA RESULT:     -13.9      0.000      0.000
REMARK SMILES Cc1ccc(C[C@@H](Cc2cc(F)cc(Br)c2)C(=O)OCCOC(=O)c2ccc(-c3c4nc(c(-c5ccccc5)c5ccc([nH]5)c(-c5ccccc5)c5nc(c(-c6ccccc6)c6ccc3[nH]6)C=C5)C=C4)cc2)cc1
REMARK SMILES IDX 20 1 19 2 17 3 18 4 7 5 6 6 5 7 1 8 2 9 3 10 74 11 4 12
REMARK SMILES IDX 73 13 8 14 9 15 10 16 16 17 11 18 14 19 12 20 13 21 15 22
REMARK SMILES IDX 21 23 22 24 23 25 24 26 25 27 26 28 72 29 27 30 71 31 28 32
REMARK SMILES IDX 29 33 30 34 65 35 31 36 70 37 64 38 66 39 32 40 69 41 63 42
REMARK SMILES IDX 62 43 33 45 55 46 40 47 54 48 41 49 44 50 53 51 67 52 42 53
REMARK SMILES IDX 43 54 52 56 68 57 45 58 34 59 35 60 39 61 36 62 38 63 37 64
REMARK SMILES IDX 56 65 57 66 61 67 58 68 60 69 59 70 46 71 47 72 51 73 48 74
REMARK SMILES IDX 50 75 49 76
REMARK H PARENT 66 44 44 55
REMARK Flexibility Score: inf
ROOT
ATOM      1  C   UNL A   1      33.154  30.079  26.141  1.00  0.00     0.274 C 
ENDROOT
BRANCH   1   2
ATOM      2  O   UNL A   1      32.044  29.250  25.849  1.00  0.00    -0.462 OA
BRANCH   2   3
ATOM      3  C   UNL A   1      32.313  27.845  25.584  1.00  0.00     0.309 C 
ATOM      4  O   UNL A   1      33.462  27.660  26.094  1.00  0.00    -0.252 OA
BRANCH   3   5
ATOM      5  C   UNL A   1      30.954  26.554  24.466  1.00  0.00     0.108 C 
BRANCH   5   6
ATOM      6  C   UNL A   1      29.393  26.862  23.623  1.00  0.00     0.051 C 
BRANCH   6   7
ATOM      7  C   UNL A   1      29.028  28.263  23.081  1.00  0.00    -0.047 A 
ATOM      8  C   UNL A   1      28.056  31.980  21.010  1.00  0.00     0.044 C 
ATOM      9  C   UNL A   1      28.401  30.707  21.727  1.00  0.00    -0.051 A 
ATOM     10  C   UNL A   1      27.431  30.032  22.469  1.00  0.00     0.004 A 
ATOM     11  C   UNL A   1      29.685  30.161  21.671  1.00  0.00     0.004 A 
ATOM     12  C   UNL A   1      27.734  28.821  23.116  1.00  0.00     0.004 A 
ATOM     13  C   UNL A   1      29.994  28.967  22.344  1.00  0.00     0.004 A 
ENDBRANCH   6   7
ENDBRANCH   5   6
BRANCH   5  14
ATOM     14  C   UNL A   1      31.401  25.395  23.135  1.00  0.00     0.051 C 
BRANCH  14  15
ATOM     15  C   UNL A   1      32.560  24.426  23.269  1.00  0.00    -0.043 A 
ATOM     16  C   UNL A   1      31.982  22.731  23.056  1.00  0.00     0.043 A 
ATOM     17  C   UNL A   1      34.140  24.743  24.243  1.00  0.00     0.019 A 
ATOM     18  C   UNL A   1      32.911  21.396  23.745  1.00  0.00     0.124 A 
ATOM     19  C   UNL A   1      35.105  23.360  24.845  1.00  0.00     0.021 A 
ATOM     20  F   UNL A   1      32.524  20.174  23.366  1.00  0.00    -0.207 F 
ATOM     21  C   UNL A   1      34.496  21.692  24.572  1.00  0.00     0.055 A 
ATOM     22  Br  UNL A   1      36.628  23.746  25.903  1.00  0.00    -0.051 Br
ENDBRANCH  14  15
ENDBRANCH   5  14
ENDBRANCH   3   5
ENDBRANCH   2   3
ENDBRANCH   1   2
BRANCH   1  23
ATOM     23  C   UNL A   1      32.787  31.003  27.309  1.00  0.00     0.275 C 
BRANCH  23  24
ATOM     24  O   UNL A   1      33.691  32.129  27.666  1.00  0.00    -0.458 OA
BRANCH  24  25
ATOM     25  C   UNL A   1      33.630  33.283  28.411  1.00  0.00     0.338 C 
ATOM     26  O   UNL A   1      32.751  34.115  28.225  1.00  0.00    -0.246 OA
BRANCH  25  27
ATOM     27  C   UNL A   1      34.727  33.621  29.392  1.00  0.00     0.060 A 
ATOM     28  C   UNL A   1      36.231  34.270  28.657  1.00  0.00     0.016 A 
ATOM     29  C   UNL A   1      34.801  32.412  30.660  1.00  0.00     0.016 A 
ATOM     30  C   UNL A   1      37.829  33.470  29.009  1.00  0.00     0.010 A 
ATOM     31  C   UNL A   1      36.357  31.691  31.109  1.00  0.00     0.010 A 
ATOM     32  C   UNL A   1      37.899  32.070  30.137  1.00  0.00    -0.014 A 
BRANCH  32  33
ATOM     33  C   UNL A   1      39.399  31.188  30.411  1.00  0.00     0.031 A 
ATOM     34  C   UNL A   1      39.783  29.281  29.484  1.00  0.00     0.074 A 
ATOM     35  C   UNL A   1      40.122  32.241  31.125  1.00  0.00     0.049 A 
ATOM     36  N   UNL A   1      40.451  28.168  29.886  1.00  0.00    -0.248 NA
ATOM     37  C   UNL A   1      39.234  28.618  28.010  1.00  0.00     0.031 C 
ATOM     38  C   UNL A   1      41.598  32.556  31.269  1.00  0.00     0.029 A 
ATOM     39  N   UNL A   1      39.661  32.822  32.337  1.00  0.00    -0.354 N 
ATOM     40  C   UNL A   1      40.878  27.381  28.855  1.00  0.00     0.074 A 
ATOM     41  C   UNL A   1      39.907  27.497  27.828  1.00  0.00     0.031 C 
ATOM     42  C   UNL A   1      41.934  32.791  32.538  1.00  0.00     0.029 A 
ATOM     43  C   UNL A   1      40.722  32.781  33.285  1.00  0.00     0.049 A 
ATOM     44  H   UNL A   1      38.762  33.191  32.494  1.00  0.00     0.167 HD
ATOM     45  C   UNL A   1      42.155  26.908  28.876  1.00  0.00     0.031 A 
ATOM     46  C   UNL A   1      40.638  32.357  34.566  1.00  0.00     0.031 A 
ATOM     47  C   UNL A   1      42.927  27.390  30.060  1.00  0.00     0.049 A 
ATOM     48  C   UNL A   1      41.450  31.074  34.792  1.00  0.00     0.074 A 
ATOM     49  C   UNL A   1      44.000  28.265  30.177  1.00  0.00     0.029 A 
ATOM     50  N   UNL A   1      42.438  27.245  31.370  1.00  0.00    -0.354 N 
ATOM     51  N   UNL A   1      41.995  30.324  33.847  1.00  0.00    -0.248 NA
ATOM     52  C   UNL A   1      41.750  30.563  36.129  1.00  0.00     0.031 C 
ATOM     53  C   UNL A   1      44.141  28.651  31.546  1.00  0.00     0.029 A 
ATOM     54  C   UNL A   1      43.140  28.043  32.287  1.00  0.00     0.049 A 
ATOM     55  H   UNL A   1      41.691  26.654  31.616  1.00  0.00     0.167 HD
ATOM     56  C   UNL A   1      42.494  29.156  34.412  1.00  0.00     0.074 A 
ATOM     57  C   UNL A   1      42.429  29.440  35.841  1.00  0.00     0.031 C 
ATOM     58  C   UNL A   1      42.855  28.001  33.738  1.00  0.00     0.031 A 
BRANCH  45  59
ATOM     59  C   UNL A   1      42.792  26.306  27.628  1.00  0.00    -0.014 A 
ATOM     60  C   UNL A   1      43.384  27.152  26.679  1.00  0.00     0.009 A 
ATOM     61  C   UNL A   1      42.841  24.931  27.309  1.00  0.00     0.009 A 
ATOM     62  C   UNL A   1      43.922  26.668  25.476  1.00  0.00     0.001 A 
ATOM     63  C   UNL A   1      43.336  24.439  26.094  1.00  0.00     0.001 A 
ATOM     64  C   UNL A   1      43.883  25.314  25.174  1.00  0.00     0.000 A 
ENDBRANCH  45  59
BRANCH  46  65
ATOM     65  C   UNL A   1      39.387  32.908  35.175  1.00  0.00    -0.014 A 
ATOM     66  C   UNL A   1      38.470  31.909  35.617  1.00  0.00     0.009 A 
ATOM     67  C   UNL A   1      39.404  34.126  35.858  1.00  0.00     0.009 A 
ATOM     68  C   UNL A   1      37.860  32.005  36.873  1.00  0.00     0.001 A 
ATOM     69  C   UNL A   1      38.700  34.250  37.070  1.00  0.00     0.001 A 
ATOM     70  C   UNL A   1      38.019  33.160  37.621  1.00  0.00     0.000 A 
ENDBRANCH  46  65
BRANCH  58  71
ATOM     71  C   UNL A   1      43.054  26.643  34.424  1.00  0.00    -0.014 A 
ATOM     72  C   UNL A   1      42.034  25.868  34.994  1.00  0.00     0.009 A 
ATOM     73  C   UNL A   1      44.339  26.045  34.428  1.00  0.00     0.009 A 
ATOM     74  C   UNL A   1      42.297  24.651  35.642  1.00  0.00     0.001 A 
ATOM     75  C   UNL A   1      44.594  24.793  34.995  1.00  0.00     0.001 A 
ATOM     76  C   UNL A   1      43.577  24.114  35.641  1.00  0.00     0.000 A 
ENDBRANCH  58  71
ENDBRANCH  32  33
ENDBRANCH  25  27
ENDBRANCH  24  25
ENDBRANCH  23  24
ENDBRANCH   1  23
TORSDOF 15
ENDMDL
MODEL 2
REMARK VINA RESULT:     -13.6      4.284     10.299
REMARK SMILES Cc1ccc(C[C@@H](Cc2cc(F)cc(Br)c2)C(=O)OCCOC(=O)c2ccc(-c3c4nc(c(-c5ccccc5)c5ccc([nH]5)c(-c5ccccc5)c5nc(c(-c6ccccc6)c6ccc3[nH]6)C=C5)C=C4)cc2)cc1
REMARK SMILES IDX 20 1 19 2 17 3 18 4 7 5 6 6 5 7 1 8 2 9 3 10 74 11 4 12
REMARK SMILES IDX 73 13 8 14 9 15 10 16 16 17 11 18 14 19 12 20 13 21 15 22
REMARK SMILES IDX 21 23 22 24 23 25 24 26 25 27 26 28 72 29 27 30 71 31 28 32
REMARK SMILES IDX 29 33 30 34 65 35 31 36 70 37 64 38 66 39 32 40 69 41 63 42
REMARK SMILES IDX 62 43 33 45 55 46 40 47 54 48 41 49 44 50 53 51 67 52 42 53
REMARK SMILES IDX 43 54 52 56 68 57 45 58 34 59 35 60 39 61 36 62 38 63 37 64
REMARK SMILES IDX 56 65 57 66 61 67 58 68 60 69 59 70 46 71 47 72 51 73 48 74
REMARK SMILES IDX 50 75 49 76
REMARK H PARENT 66 44 44 55
REMARK Flexibility Score: inf
ROOT
ATOM      1  C   UNL A   1      37.845  23.007  25.890  1.00  0.00     0.274 C 
ENDROOT
BRANCH   1   2
ATOM      2  O   UNL A   1      37.577  22.294  24.695  1.00  0.00    -0.462 OA
BRANCH   2   3
ATOM      3  C   UNL A   1      36.560  21.256  24.753  1.00  0.00     0.309 C 
ATOM      4  O   UNL A   1      37.226  20.200  24.996  1.00  0.00    -0.252 OA
BRANCH   3   5
ATOM      5  C   UNL A   1      34.441  21.630  24.388  1.00  0.00     0.108 C 
BRANCH   5   6
ATOM      6  C   UNL A   1      33.052  20.540  24.035  1.00  0.00     0.051 C 
BRANCH   6   7
ATOM      7  C   UNL A   1      33.109  19.027  24.349  1.00  0.00    -0.047 A 
ATOM      8  C   UNL A   1      32.694  14.804  25.374  1.00  0.00     0.044 C 
ATOM      9  C   UNL A   1      32.845  16.259  25.031  1.00  0.00    -0.051 A 
ATOM     10  C   UNL A   1      33.073  16.651  23.712  1.00  0.00     0.004 A 
ATOM     11  C   UNL A   1      32.757  17.253  26.007  1.00  0.00     0.004 A 
ATOM     12  C   UNL A   1      33.181  18.011  23.374  1.00  0.00     0.004 A 
ATOM     13  C   UNL A   1      32.896  18.611  25.673  1.00  0.00     0.004 A 
ENDBRANCH   6   7
ENDBRANCH   5   6
BRANCH   5  14
ATOM     14  C   UNL A   1      33.328  22.662  25.394  1.00  0.00     0.051 C 
BRANCH  14  15
ATOM     15  C   UNL A   1      32.900  24.048  24.952  1.00  0.00    -0.043 A 
ATOM     16  C   UNL A   1      33.906  25.301  25.772  1.00  0.00     0.043 A 
ATOM     17  C   UNL A   1      31.189  24.512  24.321  1.00  0.00     0.019 A 
ATOM     18  C   UNL A   1      33.282  26.943  25.955  1.00  0.00     0.124 A 
ATOM     19  C   UNL A   1      30.628  26.208  24.440  1.00  0.00     0.021 A 
ATOM     20  F   UNL A   1      34.168  27.848  26.384  1.00  0.00    -0.207 F 
ATOM     21  C   UNL A   1      31.689  27.419  25.236  1.00  0.00     0.055 A 
ATOM     22  Br  UNL A   1      28.859  26.590  23.879  1.00  0.00    -0.051 Br
ENDBRANCH  14  15
ENDBRANCH   5  14
ENDBRANCH   3   5
ENDBRANCH   2   3
ENDBRANCH   1   2
BRANCH   1  23
ATOM     23  C   UNL A   1      39.149  22.477  26.498  1.00  0.00     0.275 C 
BRANCH  23  24
ATOM     24  O   UNL A   1      39.842  21.326  25.859  1.00  0.00    -0.458 OA
BRANCH  24  25
ATOM     25  C   UNL A   1      41.031  20.649  26.003  1.00  0.00     0.338 C 
ATOM     26  O   UNL A   1      41.105  19.443  25.807  1.00  0.00    -0.246 OA
BRANCH  25  27
ATOM     27  C   UNL A   1      42.253  21.355  26.540  1.00  0.00     0.060 A 
ATOM     28  C   UNL A   1      42.309  21.529  28.326  1.00  0.00     0.016 A 
ATOM     29  C   UNL A   1      42.686  22.697  25.497  1.00  0.00     0.016 A 
ATOM     30  C   UNL A   1      42.527  23.178  29.069  1.00  0.00     0.010 A 
ATOM     31  C   UNL A   1      43.016  24.293  26.195  1.00  0.00     0.010 A 
ATOM     32  C   UNL A   1      42.743  24.615  28.008  1.00  0.00    -0.014 A 
BRANCH  32  33
ATOM     33  C   UNL A   1      42.832  26.242  28.677  1.00  0.00     0.031 A 
ATOM     34  C   UNL A   1      41.086  27.488  28.877  1.00  0.00     0.074 A 
ATOM     35  C   UNL A   1      44.218  26.189  29.146  1.00  0.00     0.049 A 
ATOM     36  N   UNL A   1      40.882  28.827  28.775  1.00  0.00    -0.248 NA
ATOM     37  C   UNL A   1      39.442  27.089  29.107  1.00  0.00     0.031 C 
ATOM     38  C   UNL A   1      44.951  26.903  30.265  1.00  0.00     0.029 A 
ATOM     39  N   UNL A   1      45.325  25.945  28.289  1.00  0.00    -0.354 N 
ATOM     40  C   UNL A   1      39.768  29.264  29.434  1.00  0.00     0.074 A 
ATOM     41  C   UNL A   1      38.810  28.222  29.346  1.00  0.00     0.031 C 
ATOM     42  C   UNL A   1      46.118  27.403  29.854  1.00  0.00     0.029 A 
ATOM     43  C   UNL A   1      46.298  26.958  28.514  1.00  0.00     0.049 A 
ATOM     44  H   UNL A   1      45.405  25.201  27.649  1.00  0.00     0.167 HD
ATOM     45  C   UNL A   1      39.864  30.374  30.218  1.00  0.00     0.031 A 
ATOM     46  C   UNL A   1      46.940  27.680  27.568  1.00  0.00     0.031 A 
ATOM     47  C   UNL A   1      41.248  30.929  30.263  1.00  0.00     0.049 A 
ATOM     48  C   UNL A   1      46.544  29.162  27.621  1.00  0.00     0.074 A 
ATOM     49  C   UNL A   1      42.192  30.993  31.282  1.00  0.00     0.029 A 
ATOM     50  N   UNL A   1      41.967  31.220  29.090  1.00  0.00    -0.354 N 
ATOM     51  N   UNL A   1      45.551  29.675  28.330  1.00  0.00    -0.248 NA
ATOM     52  C   UNL A   1      47.286  30.196  26.900  1.00  0.00     0.031 C 
ATOM     53  C   UNL A   1      43.468  31.306  30.717  1.00  0.00     0.029 A 
ATOM     54  C   UNL A   1      43.335  31.410  29.342  1.00  0.00     0.049 A 
ATOM     55  H   UNL A   1      41.559  31.283  28.197  1.00  0.00     0.167 HD
ATOM     56  C   UNL A   1      45.381  31.012  27.991  1.00  0.00     0.074 A 
ATOM     57  C   UNL A   1      46.576  31.296  27.205  1.00  0.00     0.031 C 
ATOM     58  C   UNL A   1      44.279  31.803  28.272  1.00  0.00     0.031 A 
BRANCH  45  59
ATOM     59  C   UNL A   1      38.769  30.725  31.220  1.00  0.00    -0.014 A 
ATOM     60  C   UNL A   1      37.819  31.703  30.890  1.00  0.00     0.009 A 
ATOM     61  C   UNL A   1      38.610  30.154  32.502  1.00  0.00     0.009 A 
ATOM     62  C   UNL A   1      36.831  32.122  31.794  1.00  0.00     0.001 A 
ATOM     63  C   UNL A   1      37.656  30.593  33.430  1.00  0.00     0.001 A 
ATOM     64  C   UNL A   1      36.759  31.581  33.071  1.00  0.00     0.000 A 
ENDBRANCH  45  59
BRANCH  46  65
ATOM     65  C   UNL A   1      47.359  26.762  26.463  1.00  0.00    -0.014 A 
ATOM     66  C   UNL A   1      46.773  27.070  25.200  1.00  0.00     0.009 A 
ATOM     67  C   UNL A   1      48.625  26.172  26.468  1.00  0.00     0.009 A 
ATOM     68  C   UNL A   1      47.553  27.103  24.039  1.00  0.00     0.001 A 
ATOM     69  C   UNL A   1      49.365  26.111  25.272  1.00  0.00     0.001 A 
ATOM     70  C   UNL A   1      48.868  26.668  24.090  1.00  0.00     0.000 A 
ENDBRANCH  46  65
BRANCH  58  71
ATOM     71  C   UNL A   1      43.991  33.139  27.576  1.00  0.00    -0.014 A 
ATOM     72  C   UNL A   1      43.833  33.313  26.194  1.00  0.00     0.009 A 
ATOM     73  C   UNL A   1      43.772  34.300  28.359  1.00  0.00     0.009 A 
ATOM     74  C   UNL A   1      43.611  34.576  25.624  1.00  0.00     0.001 A 
ATOM     75  C   UNL A   1      43.464  35.546  27.804  1.00  0.00     0.001 A 
ATOM     76  C   UNL A   1      43.425  35.691  26.429  1.00  0.00     0.000 A 
ENDBRANCH  58  71
ENDBRANCH  32  33
ENDBRANCH  25  27
ENDBRANCH  24  25
ENDBRANCH  23  24
ENDBRANCH   1  23
TORSDOF 15
ENDMDL
MODEL 3
REMARK VINA RESULT:     -12.7      4.081      8.390
REMARK SMILES Cc1ccc(C[C@@H](Cc2cc(F)cc(Br)c2)C(=O)OCCOC(=O)c2ccc(-c3c4nc(c(-c5ccccc5)c5ccc([nH]5)c(-c5ccccc5)c5nc(c(-c6ccccc6)c6ccc3[nH]6)C=C5)C=C4)cc2)cc1
REMARK SMILES IDX 20 1 19 2 17 3 18 4 7 5 6 6 5 7 1 8 2 9 3 10 74 11 4 12
REMARK SMILES IDX 73 13 8 14 9 15 10 16 16 17 11 18 14 19 12 20 13 21 15 22
REMARK SMILES IDX 21 23 22 24 23 25 24 26 25 27 26 28 72 29 27 30 71 31 28 32
REMARK SMILES IDX 29 33 30 34 65 35 31 36 70 37 64 38 66 39 32 40 69 41 63 42
REMARK SMILES IDX 62 43 33 45 55 46 40 47 54 48 41 49 44 50 53 51 67 52 42 53
REMARK SMILES IDX 43 54 52 56 68 57 45 58 34 59 35 60 39 61 36 62 38 63 37 64
REMARK SMILES IDX 56 65 57 66 61 67 58 68 60 69 59 70 46 71 47 72 51 73 48 74
REMARK SMILES IDX 50 75 49 76
REMARK H PARENT 66 44 44 55
REMARK Flexibility Score: inf
ROOT
ATOM      1  C   UNL A   1      33.543  30.204  27.270  1.00  0.00     0.274 C 
ENDROOT
BRANCH   1   2
ATOM      2  O   UNL A   1      33.021  30.686  26.045  1.00  0.00    -0.462 OA
BRANCH   2   3
ATOM      3  C   UNL A   1      32.046  29.850  25.362  1.00  0.00     0.309 C 
ATOM      4  O   UNL A   1      31.007  30.579  25.319  1.00  0.00    -0.252 OA
BRANCH   3   5
ATOM      5  C   UNL A   1      32.459  27.804  24.722  1.00  0.00     0.108 C 
BRANCH   5   6
ATOM      6  C   UNL A   1      32.668  27.050  23.101  1.00  0.00     0.051 C 
BRANCH   6   7
ATOM      7  C   UNL A   1      32.436  25.538  22.875  1.00  0.00    -0.047 A 
ATOM      8  C   UNL A   1      32.154  21.186  22.694  1.00  0.00     0.044 C 
ATOM      9  C   UNL A   1      32.256  22.683  22.745  1.00  0.00    -0.051 A 
ATOM     10  C   UNL A   1      31.158  23.451  23.131  1.00  0.00     0.004 A 
ATOM     11  C   UNL A   1      33.440  23.346  22.416  1.00  0.00     0.004 A 
ATOM     12  C   UNL A   1      31.253  24.851  23.217  1.00  0.00     0.004 A 
ATOM     13  C   UNL A   1      33.524  24.748  22.471  1.00  0.00     0.004 A 
ENDBRANCH   6   7
ENDBRANCH   5   6
BRANCH   5  14
ATOM     14  C   UNL A   1      33.766  26.708  25.359  1.00  0.00     0.051 C 
BRANCH  14  15
ATOM     15  C   UNL A   1      33.447  25.417  26.089  1.00  0.00    -0.043 A 
ATOM     16  C   UNL A   1      34.727  24.187  25.767  1.00  0.00     0.043 A 
ATOM     17  C   UNL A   1      31.725  24.843  26.587  1.00  0.00     0.019 A 
ATOM     18  C   UNL A   1      34.354  22.469  25.942  1.00  0.00     0.124 A 
ATOM     19  C   UNL A   1      31.410  23.100  26.845  1.00  0.00     0.021 A 
ATOM     20  F   UNL A   1      35.406  21.647  25.886  1.00  0.00    -0.207 F 
ATOM     21  C   UNL A   1      32.734  21.924  26.543  1.00  0.00     0.055 A 
ATOM     22  Br  UNL A   1      29.634  22.578  27.248  1.00  0.00    -0.051 Br
ENDBRANCH  14  15
ENDBRANCH   5  14
ENDBRANCH   3   5
ENDBRANCH   2   3
ENDBRANCH   1   2
BRANCH   1  23
ATOM     23  C   UNL A   1      34.338  31.329  27.945  1.00  0.00     0.275 C 
BRANCH  23  24
ATOM     24  O   UNL A   1      35.434  30.987  28.891  1.00  0.00    -0.458 OA
BRANCH  24  25
ATOM     25  C   UNL A   1      36.803  31.114  28.947  1.00  0.00     0.338 C 
ATOM     26  O   UNL A   1      37.351  32.190  28.742  1.00  0.00    -0.246 OA
BRANCH  25  27
ATOM     27  C   UNL A   1      37.678  29.898  29.130  1.00  0.00     0.060 A 
ATOM     28  C   UNL A   1      38.791  29.966  30.538  1.00  0.00     0.016 A 
ATOM     29  C   UNL A   1      38.237  29.312  27.575  1.00  0.00     0.016 A 
ATOM     30  C   UNL A   1      40.578  29.711  30.292  1.00  0.00     0.010 A 
ATOM     31  C   UNL A   1      39.954  28.945  27.331  1.00  0.00     0.010 A 
ATOM     32  C   UNL A   1      41.210  29.333  28.649  1.00  0.00    -0.014 A 
BRANCH  32  33
ATOM     33  C   UNL A   1      42.938  29.202  28.341  1.00  0.00     0.031 A 
ATOM     34  C   UNL A   1      44.084  30.850  27.560  1.00  0.00     0.074 A 
ATOM     35  C   UNL A   1      43.156  27.901  28.977  1.00  0.00     0.049 A 
ATOM     36  N   UNL A   1      45.152  30.928  26.722  1.00  0.00    -0.248 NA
ATOM     37  C   UNL A   1      43.868  32.537  27.705  1.00  0.00     0.031 C 
ATOM     38  C   UNL A   1      44.367  27.270  29.635  1.00  0.00     0.029 A 
ATOM     39  N   UNL A   1      42.489  26.713  28.575  1.00  0.00    -0.354 N 
ATOM     40  C   UNL A   1      45.872  32.081  26.856  1.00  0.00     0.074 A 
ATOM     41  C   UNL A   1      44.946  33.101  27.193  1.00  0.00     0.031 C 
ATOM     42  C   UNL A   1      44.568  26.021  29.211  1.00  0.00     0.029 A 
ATOM     43  C   UNL A   1      43.467  25.699  28.370  1.00  0.00     0.049 A 
ATOM     44  H   UNL A   1      41.517  26.608  28.458  1.00  0.00     0.167 HD
ATOM     45  C   UNL A   1      47.230  32.001  26.923  1.00  0.00     0.031 A 
ATOM     46  C   UNL A   1      43.560  24.878  27.300  1.00  0.00     0.031 A 
ATOM     47  C   UNL A   1      47.726  30.594  26.881  1.00  0.00     0.049 A 
ATOM     48  C   UNL A   1      44.829  25.153  26.482  1.00  0.00     0.074 A 
ATOM     49  C   UNL A   1      48.339  29.794  27.839  1.00  0.00     0.029 A 
ATOM     50  N   UNL A   1      47.335  29.701  25.867  1.00  0.00    -0.354 N 
ATOM     51  N   UNL A   1      45.641  26.188  26.636  1.00  0.00    -0.248 NA
ATOM     52  C   UNL A   1      45.308  24.239  25.446  1.00  0.00     0.031 C 
ATOM     53  C   UNL A   1      48.300  28.432  27.405  1.00  0.00     0.029 A 
ATOM     54  C   UNL A   1      47.638  28.369  26.189  1.00  0.00     0.049 A 
ATOM     55  H   UNL A   1      46.899  29.979  25.029  1.00  0.00     0.167 HD
ATOM     56  C   UNL A   1      46.577  26.200  25.609  1.00  0.00     0.074 A 
ATOM     57  C   UNL A   1      46.393  24.890  24.994  1.00  0.00     0.031 C 
ATOM     58  C   UNL A   1      47.388  27.260  25.242  1.00  0.00     0.031 A 
BRANCH  45  59
ATOM     59  C   UNL A   1      48.066  33.188  27.390  1.00  0.00    -0.014 A 
ATOM     60  C   UNL A   1      48.213  34.301  26.550  1.00  0.00     0.009 A 
ATOM     61  C   UNL A   1      48.742  33.285  28.626  1.00  0.00     0.009 A 
ATOM     62  C   UNL A   1      49.026  35.394  26.890  1.00  0.00     0.001 A 
ATOM     63  C   UNL A   1      49.590  34.350  28.960  1.00  0.00     0.001 A 
ATOM     64  C   UNL A   1      49.729  35.412  28.087  1.00  0.00     0.000 A 
ENDBRANCH  45  59
BRANCH  46  65
ATOM     65  C   UNL A   1      42.190  24.390  26.945  1.00  0.00    -0.014 A 
ATOM     66  C   UNL A   1      41.505  23.752  28.022  1.00  0.00     0.009 A 
ATOM     67  C   UNL A   1      41.422  25.057  25.988  1.00  0.00     0.009 A 
ATOM     68  C   UNL A   1      40.170  24.060  28.302  1.00  0.00     0.001 A 
ATOM     69  C   UNL A   1      40.051  25.272  26.227  1.00  0.00     0.001 A 
ATOM     70  C   UNL A   1      39.458  24.864  27.426  1.00  0.00     0.000 A 
ENDBRANCH  46  65
BRANCH  58  71
ATOM     71  C   UNL A   1      48.129  27.341  23.901  1.00  0.00    -0.014 A 
ATOM     72  C   UNL A   1      47.585  27.828  22.705  1.00  0.00     0.009 A 
ATOM     73  C   UNL A   1      49.501  26.989  23.840  1.00  0.00     0.009 A 
ATOM     74  C   UNL A   1      48.311  27.833  21.503  1.00  0.00     0.001 A 
ATOM     75  C   UNL A   1      50.256  27.074  22.666  1.00  0.00     0.001 A 
ATOM     76  C   UNL A   1      49.647  27.458  21.485  1.00  0.00     0.000 A 
ENDBRANCH  58  71
ENDBRANCH  32  33
ENDBRANCH  25  27
ENDBRANCH  24  25
ENDBRANCH  23  24
ENDBRANCH   1  23
TORSDOF 15
ENDMDL
