MODEL 1
REMARK VINA RESULT:     -11.0      0.000      0.000
REMARK SMILES CC[C@](C)(NC(=O)Cc1cccc(F)c1)C(=O)OCCOC(=O)c1ccc(-c2c3nc(c(-c4ccccc4)c4ccc([nH]4)c(-c4ccccc4)c4nc(c(-c5ccccc5)c5ccc2[nH]5)C=C4)C=C3)cc1
REMARK SMILES IDX 19 1 18 2 16 3 17 4 3 5 4 6 2 7 1 8 5 9 6 10 7 12 8 13 9 14
REMARK SMILES IDX 10 15 15 16 11 17 13 18 12 19 14 20 20 21 21 22 22 23 23 24
REMARK SMILES IDX 24 25 25 26 71 27 26 28 70 29 27 30 28 31 29 32 64 33 30 34
REMARK SMILES IDX 69 35 63 36 65 37 31 38 68 39 62 40 61 41 32 43 54 44 39 45
REMARK SMILES IDX 53 46 40 47 43 48 52 49 66 50 41 51 42 52 51 54 67 55 44 56
REMARK SMILES IDX 33 57 34 58 38 59 35 60 37 61 36 62 55 63 56 64 60 65 57 66
REMARK SMILES IDX 59 67 58 68 45 69 46 70 50 71 47 72 49 73 48 74
REMARK H PARENT 5 11 65 42 43 53
REMARK Flexibility Score: inf
ROOT
ATOM      1  C   UNL A   1      36.505  19.313  24.893  1.00  0.00     0.274 C 
ENDROOT
BRANCH   1   2
ATOM      2  O   UNL A   1      35.509  20.310  25.239  1.00  0.00    -0.460 OA
BRANCH   2   3
ATOM      3  C   UNL A   1      34.222  19.964  24.955  1.00  0.00     0.331 C 
ATOM      4  O   UNL A   1      33.852  18.805  24.774  1.00  0.00    -0.249 OA
BRANCH   3   5
ATOM      5  C   UNL A   1      33.249  21.181  24.796  1.00  0.00     0.135 C 
ATOM      6  C   UNL A   1      32.432  21.185  23.475  1.00  0.00     0.047 C 
BRANCH   5   7
ATOM      7  C   UNL A   1      34.222  22.405  24.718  1.00  0.00     0.037 C 
ATOM      8  C   UNL A   1      34.261  23.115  23.357  1.00  0.00     0.007 C 
ENDBRANCH   5   7
BRANCH   5   9
ATOM      9  N   UNL A   1      32.278  21.418  25.903  1.00  0.00    -0.340 N 
ATOM     10  C   UNL A   1      31.846  22.639  26.362  1.00  0.00     0.225 C 
ATOM     11  H   UNL A   1      31.910  20.621  26.347  1.00  0.00     0.164 HD
ATOM     12  O   UNL A   1      32.066  22.888  27.552  1.00  0.00    -0.275 OA
BRANCH  10  13
ATOM     13  C   UNL A   1      30.947  23.539  25.546  1.00  0.00     0.135 C 
BRANCH  13  14
ATOM     14  C   UNL A   1      31.402  24.865  24.937  1.00  0.00    -0.036 A 
ATOM     15  C   UNL A   1      30.919  25.355  23.237  1.00  0.00     0.004 A 
ATOM     16  C   UNL A   1      31.757  26.169  26.164  1.00  0.00     0.043 A 
ATOM     17  C   UNL A   1      30.728  27.114  22.783  1.00  0.00     0.003 A 
ATOM     18  C   UNL A   1      31.357  27.901  25.764  1.00  0.00     0.123 A 
ATOM     19  C   UNL A   1      30.817  28.364  24.084  1.00  0.00     0.039 A 
ATOM     20  F   UNL A   1      31.426  28.845  26.712  1.00  0.00    -0.207 F 
ENDBRANCH  13  14
ENDBRANCH  10  13
ENDBRANCH   5   9
ENDBRANCH   3   5
ENDBRANCH   2   3
ENDBRANCH   1   2
BRANCH   1  21
ATOM     21  C   UNL A   1      37.884  19.916  24.633  1.00  0.00     0.275 C 
BRANCH  21  22
ATOM     22  O   UNL A   1      38.880  19.135  25.331  1.00  0.00    -0.458 OA
BRANCH  22  23
ATOM     23  C   UNL A   1      40.097  19.772  25.929  1.00  0.00     0.338 C 
ATOM     24  O   UNL A   1      40.960  18.874  25.711  1.00  0.00    -0.246 OA
BRANCH  23  25
ATOM     25  C   UNL A   1      40.191  21.700  26.875  1.00  0.00     0.060 A 
ATOM     26  C   UNL A   1      41.151  22.225  27.949  1.00  0.00     0.016 A 
ATOM     27  C   UNL A   1      39.436  22.979  26.582  1.00  0.00     0.016 A 
ATOM     28  C   UNL A   1      41.606  23.541  28.167  1.00  0.00     0.010 A 
ATOM     29  C   UNL A   1      39.845  24.312  26.817  1.00  0.00     0.010 A 
ATOM     30  C   UNL A   1      41.013  24.581  27.501  1.00  0.00    -0.014 A 
BRANCH  30  31
ATOM     31  C   UNL A   1      41.475  25.960  27.689  1.00  0.00     0.031 A 
ATOM     32  C   UNL A   1      42.754  26.346  27.031  1.00  0.00     0.074 A 
ATOM     33  C   UNL A   1      40.755  26.825  28.426  1.00  0.00     0.049 A 
ATOM     34  N   UNL A   1      43.452  27.438  27.161  1.00  0.00    -0.248 NA
ATOM     35  C   UNL A   1      43.328  25.356  26.102  1.00  0.00     0.031 C 
ATOM     36  C   UNL A   1      39.447  26.550  29.028  1.00  0.00     0.029 A 
ATOM     37  N   UNL A   1      41.024  28.118  28.792  1.00  0.00    -0.354 N 
ATOM     38  C   UNL A   1      44.566  27.253  26.355  1.00  0.00     0.074 A 
ATOM     39  C   UNL A   1      44.459  25.946  25.751  1.00  0.00     0.031 C 
ATOM     40  C   UNL A   1      39.029  27.646  29.687  1.00  0.00     0.029 A 
ATOM     41  C   UNL A   1      40.062  28.673  29.603  1.00  0.00     0.049 A 
ATOM     42  H   UNL A   1      41.830  28.603  28.503  1.00  0.00     0.167 HD
ATOM     43  C   UNL A   1      45.591  28.108  26.149  1.00  0.00     0.031 A 
ATOM     44  C   UNL A   1      40.051  29.869  30.226  1.00  0.00     0.031 A 
ATOM     45  C   UNL A   1      45.674  29.396  26.778  1.00  0.00     0.049 A 
ATOM     46  C   UNL A   1      41.251  30.766  30.046  1.00  0.00     0.074 A 
ATOM     47  C   UNL A   1      46.677  30.339  26.683  1.00  0.00     0.029 A 
ATOM     48  N   UNL A   1      44.703  29.915  27.623  1.00  0.00    -0.354 N 
ATOM     49  N   UNL A   1      42.322  30.578  29.309  1.00  0.00    -0.248 NA
ATOM     50  C   UNL A   1      41.248  32.033  30.789  1.00  0.00     0.031 C 
ATOM     51  C   UNL A   1      46.335  31.412  27.512  1.00  0.00     0.029 A 
ATOM     52  C   UNL A   1      45.089  31.163  28.071  1.00  0.00     0.049 A 
ATOM     53  H   UNL A   1      43.863  29.461  27.865  1.00  0.00     0.167 HD
ATOM     54  C   UNL A   1      43.105  31.713  29.476  1.00  0.00     0.074 A 
ATOM     55  C   UNL A   1      42.375  32.592  30.369  1.00  0.00     0.031 C 
ATOM     56  C   UNL A   1      44.319  32.007  28.949  1.00  0.00     0.031 A 
BRANCH  43  57
ATOM     57  C   UNL A   1      46.708  27.626  25.275  1.00  0.00    -0.014 A 
ATOM     58  C   UNL A   1      47.765  26.856  25.790  1.00  0.00     0.009 A 
ATOM     59  C   UNL A   1      46.726  27.987  23.920  1.00  0.00     0.009 A 
ATOM     60  C   UNL A   1      48.837  26.495  24.972  1.00  0.00     0.001 A 
ATOM     61  C   UNL A   1      47.784  27.597  23.097  1.00  0.00     0.001 A 
ATOM     62  C   UNL A   1      48.844  26.863  23.627  1.00  0.00     0.000 A 
ENDBRANCH  43  57
BRANCH  44  63
ATOM     63  C   UNL A   1      38.922  30.272  31.111  1.00  0.00    -0.014 A 
ATOM     64  C   UNL A   1      37.860  31.047  30.618  1.00  0.00     0.009 A 
ATOM     65  C   UNL A   1      38.926  29.935  32.475  1.00  0.00     0.009 A 
ATOM     66  C   UNL A   1      36.854  31.508  31.476  1.00  0.00     0.001 A 
ATOM     67  C   UNL A   1      37.903  30.368  33.323  1.00  0.00     0.001 A 
ATOM     68  C   UNL A   1      36.876  31.166  32.826  1.00  0.00     0.000 A 
ENDBRANCH  44  63
BRANCH  56  69
ATOM     69  C   UNL A   1      44.902  33.350  29.285  1.00  0.00    -0.014 A 
ATOM     70  C   UNL A   1      45.767  33.520  30.376  1.00  0.00     0.009 A 
ATOM     71  C   UNL A   1      44.626  34.445  28.451  1.00  0.00     0.009 A 
ATOM     72  C   UNL A   1      46.323  34.771  30.641  1.00  0.00     0.001 A 
ATOM     73  C   UNL A   1      45.211  35.686  28.699  1.00  0.00     0.001 A 
ATOM     74  C   UNL A   1      46.051  35.850  29.799  1.00  0.00     0.000 A 
ENDBRANCH  56  69
ENDBRANCH  30  31
ENDBRANCH  23  25
ENDBRANCH  22  23
ENDBRANCH  21  22
ENDBRANCH   1  21
TORSDOF 15
ENDMDL
MODEL 2
REMARK VINA RESULT:     -11.0      4.261      7.646
REMARK SMILES CC[C@](C)(NC(=O)Cc1cccc(F)c1)C(=O)OCCOC(=O)c1ccc(-c2c3nc(c(-c4ccccc4)c4ccc([nH]4)c(-c4ccccc4)c4nc(c(-c5ccccc5)c5ccc2[nH]5)C=C4)C=C3)cc1
REMARK SMILES IDX 19 1 18 2 16 3 17 4 3 5 4 6 2 7 1 8 5 9 6 10 7 12 8 13 9 14
REMARK SMILES IDX 10 15 15 16 11 17 13 18 12 19 14 20 20 21 21 22 22 23 23 24
REMARK SMILES IDX 24 25 25 26 71 27 26 28 70 29 27 30 28 31 29 32 64 33 30 34
REMARK SMILES IDX 69 35 63 36 65 37 31 38 68 39 62 40 61 41 32 43 54 44 39 45
REMARK SMILES IDX 53 46 40 47 43 48 52 49 66 50 41 51 42 52 51 54 67 55 44 56
REMARK SMILES IDX 33 57 34 58 38 59 35 60 37 61 36 62 55 63 56 64 60 65 57 66
REMARK SMILES IDX 59 67 58 68 45 69 46 70 50 71 47 72 49 73 48 74
REMARK H PARENT 5 11 65 42 43 53
REMARK Flexibility Score: inf
ROOT
ATOM      1  C   UNL A   1      31.684  29.214  26.213  1.00  0.00     0.274 C 
ENDROOT
BRANCH   1   2
ATOM      2  O   UNL A   1      32.467  28.399  25.305  1.00  0.00    -0.460 OA
BRANCH   2   3
ATOM      3  C   UNL A   1      31.797  27.354  24.741  1.00  0.00     0.331 C 
ATOM      4  O   UNL A   1      31.258  26.460  25.392  1.00  0.00    -0.249 OA
BRANCH   3   5
ATOM      5  C   UNL A   1      31.832  27.337  23.176  1.00  0.00     0.135 C 
ATOM      6  C   UNL A   1      32.884  28.290  22.544  1.00  0.00     0.047 C 
BRANCH   5   7
ATOM      7  C   UNL A   1      30.428  27.906  22.784  1.00  0.00     0.037 C 
ATOM      8  C   UNL A   1      30.428  29.370  22.320  1.00  0.00     0.007 C 
ENDBRANCH   5   7
BRANCH   5   9
ATOM      9  N   UNL A   1      32.006  26.010  22.519  1.00  0.00    -0.340 N 
ATOM     10  C   UNL A   1      33.200  25.397  22.220  1.00  0.00     0.225 C 
ATOM     11  H   UNL A   1      31.185  25.525  22.275  1.00  0.00     0.164 HD
ATOM     12  O   UNL A   1      33.402  25.137  21.029  1.00  0.00    -0.275 OA
BRANCH  10  13
ATOM     13  C   UNL A   1      34.117  24.849  23.289  1.00  0.00     0.135 C 
BRANCH  13  14
ATOM     14  C   UNL A   1      34.672  23.426  23.281  1.00  0.00    -0.036 A 
ATOM     15  C   UNL A   1      36.463  23.093  23.499  1.00  0.00     0.004 A 
ATOM     16  C   UNL A   1      33.470  22.150  23.794  1.00  0.00     0.043 A 
ATOM     17  C   UNL A   1      37.047  21.545  24.274  1.00  0.00     0.003 A 
ATOM     18  C   UNL A   1      34.049  20.716  24.757  1.00  0.00     0.123 A 
ATOM     19  C   UNL A   1      35.833  20.433  25.017  1.00  0.00     0.039 A 
ATOM     20  F   UNL A   1      33.166  19.873  25.307  1.00  0.00    -0.207 F 
ENDBRANCH  13  14
ENDBRANCH  10  13
ENDBRANCH   5   9
ENDBRANCH   3   5
ENDBRANCH   2   3
ENDBRANCH   1   2
BRANCH   1  21
ATOM     21  C   UNL A   1      31.381  30.603  25.654  1.00  0.00     0.275 C 
BRANCH  21  22
ATOM     22  O   UNL A   1      31.259  31.537  26.750  1.00  0.00    -0.458 OA
BRANCH  22  23
ATOM     23  C   UNL A   1      32.415  32.381  27.192  1.00  0.00     0.338 C 
ATOM     24  O   UNL A   1      31.862  33.517  27.258  1.00  0.00    -0.246 OA
BRANCH  23  25
ATOM     25  C   UNL A   1      34.419  31.701  27.567  1.00  0.00     0.060 A 
ATOM     26  C   UNL A   1      35.707  32.504  27.791  1.00  0.00     0.016 A 
ATOM     27  C   UNL A   1      34.954  30.310  27.833  1.00  0.00     0.016 A 
ATOM     28  C   UNL A   1      36.840  32.169  28.560  1.00  0.00     0.010 A 
ATOM     29  C   UNL A   1      36.102  29.939  28.570  1.00  0.00     0.010 A 
ATOM     30  C   UNL A   1      36.974  30.896  29.046  1.00  0.00    -0.014 A 
BRANCH  30  31
ATOM     31  C   UNL A   1      38.130  30.520  29.867  1.00  0.00     0.031 A 
ATOM     32  C   UNL A   1      39.152  29.636  29.242  1.00  0.00     0.074 A 
ATOM     33  C   UNL A   1      38.244  30.971  31.130  1.00  0.00     0.049 A 
ATOM     34  N   UNL A   1      40.174  29.040  29.789  1.00  0.00    -0.248 NA
ATOM     35  C   UNL A   1      38.992  29.382  27.799  1.00  0.00     0.031 C 
ATOM     36  C   UNL A   1      37.332  31.913  31.785  1.00  0.00     0.029 A 
ATOM     37  N   UNL A   1      39.182  30.696  32.090  1.00  0.00    -0.354 N 
ATOM     38  C   UNL A   1      40.761  28.315  28.762  1.00  0.00     0.074 A 
ATOM     39  C   UNL A   1      39.979  28.532  27.568  1.00  0.00     0.031 C 
ATOM     40  C   UNL A   1      37.761  32.138  33.040  1.00  0.00     0.029 A 
ATOM     41  C   UNL A   1      38.938  31.313  33.294  1.00  0.00     0.049 A 
ATOM     42  H   UNL A   1      39.958  30.111  31.932  1.00  0.00     0.167 HD
ATOM     43  C   UNL A   1      41.858  27.529  28.825  1.00  0.00     0.031 A 
ATOM     44  C   UNL A   1      39.585  31.186  34.470  1.00  0.00     0.031 A 
ATOM     45  C   UNL A   1      42.604  27.322  30.033  1.00  0.00     0.049 A 
ATOM     46  C   UNL A   1      40.754  30.234  34.530  1.00  0.00     0.074 A 
ATOM     47  C   UNL A   1      43.709  26.521  30.239  1.00  0.00     0.029 A 
ATOM     48  N   UNL A   1      42.310  27.932  31.245  1.00  0.00    -0.354 N 
ATOM     49  N   UNL A   1      41.290  29.520  33.567  1.00  0.00    -0.248 NA
ATOM     50  C   UNL A   1      41.400  30.060  35.837  1.00  0.00     0.031 C 
ATOM     51  C   UNL A   1      44.055  26.608  31.591  1.00  0.00     0.029 A 
ATOM     52  C   UNL A   1      43.204  27.513  32.211  1.00  0.00     0.049 A 
ATOM     53  H   UNL A   1      41.573  28.568  31.394  1.00  0.00     0.167 HD
ATOM     54  C   UNL A   1      42.353  28.837  34.143  1.00  0.00     0.074 A 
ATOM     55  C   UNL A   1      42.396  29.238  35.536  1.00  0.00     0.031 C 
ATOM     56  C   UNL A   1      43.215  27.953  33.582  1.00  0.00     0.031 A 
BRANCH  43  57
ATOM     57  C   UNL A   1      42.240  26.801  27.573  1.00  0.00    -0.014 A 
ATOM     58  C   UNL A   1      43.125  27.362  26.636  1.00  0.00     0.009 A 
ATOM     59  C   UNL A   1      41.667  25.549  27.303  1.00  0.00     0.009 A 
ATOM     60  C   UNL A   1      43.394  26.700  25.437  1.00  0.00     0.001 A 
ATOM     61  C   UNL A   1      41.964  24.876  26.117  1.00  0.00     0.001 A 
ATOM     62  C   UNL A   1      42.817  25.458  25.180  1.00  0.00     0.000 A 
ENDBRANCH  43  57
BRANCH  44  63
ATOM     63  C   UNL A   1      39.129  31.914  35.688  1.00  0.00    -0.014 A 
ATOM     64  C   UNL A   1      38.156  31.362  36.537  1.00  0.00     0.009 A 
ATOM     65  C   UNL A   1      39.620  33.197  35.981  1.00  0.00     0.009 A 
ATOM     66  C   UNL A   1      37.659  32.092  37.623  1.00  0.00     0.001 A 
ATOM     67  C   UNL A   1      39.147  33.911  37.085  1.00  0.00     0.001 A 
ATOM     68  C   UNL A   1      38.156  33.364  37.896  1.00  0.00     0.000 A 
ENDBRANCH  44  63
BRANCH  56  69
ATOM     69  C   UNL A   1      44.301  27.407  34.464  1.00  0.00    -0.014 A 
ATOM     70  C   UNL A   1      45.526  28.075  34.615  1.00  0.00     0.009 A 
ATOM     71  C   UNL A   1      44.061  26.238  35.204  1.00  0.00     0.009 A 
ATOM     72  C   UNL A   1      46.502  27.563  35.470  1.00  0.00     0.001 A 
ATOM     73  C   UNL A   1      45.026  25.749  36.084  1.00  0.00     0.001 A 
ATOM     74  C   UNL A   1      46.248  26.407  36.209  1.00  0.00     0.000 A 
ENDBRANCH  56  69
ENDBRANCH  30  31
ENDBRANCH  23  25
ENDBRANCH  22  23
ENDBRANCH  21  22
ENDBRANCH   1  21
TORSDOF 15
ENDMDL
MODEL 3
REMARK VINA RESULT:     -10.8      2.975      4.039
REMARK SMILES CC[C@](C)(NC(=O)Cc1cccc(F)c1)C(=O)OCCOC(=O)c1ccc(-c2c3nc(c(-c4ccccc4)c4ccc([nH]4)c(-c4ccccc4)c4nc(c(-c5ccccc5)c5ccc2[nH]5)C=C4)C=C3)cc1
REMARK SMILES IDX 19 1 18 2 16 3 17 4 3 5 4 6 2 7 1 8 5 9 6 10 7 12 8 13 9 14
REMARK SMILES IDX 10 15 15 16 11 17 13 18 12 19 14 20 20 21 21 22 22 23 23 24
REMARK SMILES IDX 24 25 25 26 71 27 26 28 70 29 27 30 28 31 29 32 64 33 30 34
REMARK SMILES IDX 69 35 63 36 65 37 31 38 68 39 62 40 61 41 32 43 54 44 39 45
REMARK SMILES IDX 53 46 40 47 43 48 52 49 66 50 41 51 42 52 51 54 67 55 44 56
REMARK SMILES IDX 33 57 34 58 38 59 35 60 37 61 36 62 55 63 56 64 60 65 57 66
REMARK SMILES IDX 59 67 58 68 45 69 46 70 50 71 47 72 49 73 48 74
REMARK H PARENT 5 11 65 42 43 53
REMARK Flexibility Score: inf
ROOT
ATOM      1  C   UNL A   1      34.795  21.114  24.638  1.00  0.00     0.274 C 
ENDROOT
BRANCH   1   2
ATOM      2  O   UNL A   1      34.265  22.260  23.924  1.00  0.00    -0.460 OA
BRANCH   2   3
ATOM      3  C   UNL A   1      32.927  22.213  23.667  1.00  0.00     0.331 C 
ATOM      4  O   UNL A   1      32.380  21.285  23.074  1.00  0.00    -0.249 OA
BRANCH   3   5
ATOM      5  C   UNL A   1      32.140  23.488  24.122  1.00  0.00     0.135 C 
ATOM      6  C   UNL A   1      31.371  24.211  22.983  1.00  0.00     0.047 C 
BRANCH   5   7
ATOM      7  C   UNL A   1      33.277  24.463  24.577  1.00  0.00     0.037 C 
ATOM      8  C   UNL A   1      33.698  25.502  23.526  1.00  0.00     0.007 C 
ENDBRANCH   5   7
BRANCH   5   9
ATOM      9  N   UNL A   1      31.179  23.321  25.251  1.00  0.00    -0.340 N 
ATOM     10  C   UNL A   1      30.905  24.244  26.232  1.00  0.00     0.225 C 
ATOM     11  H   UNL A   1      30.694  22.466  25.296  1.00  0.00     0.164 HD
ATOM     12  O   UNL A   1      31.123  23.890  27.395  1.00  0.00    -0.275 OA
BRANCH  10  13
ATOM     13  C   UNL A   1      30.160  25.528  25.949  1.00  0.00     0.135 C 
BRANCH  13  14
ATOM     14  C   UNL A   1      30.836  26.893  25.835  1.00  0.00    -0.036 A 
ATOM     15  C   UNL A   1      32.325  27.310  26.823  1.00  0.00     0.004 A 
ATOM     16  C   UNL A   1      30.581  27.725  24.230  1.00  0.00     0.043 A 
ATOM     17  C   UNL A   1      33.574  28.486  26.193  1.00  0.00     0.003 A 
ATOM     18  C   UNL A   1      31.930  28.724  23.520  1.00  0.00     0.123 A 
ATOM     19  C   UNL A   1      33.432  29.078  24.492  1.00  0.00     0.039 A 
ATOM     20  F   UNL A   1      31.840  29.181  22.265  1.00  0.00    -0.207 F 
ENDBRANCH  13  14
ENDBRANCH  10  13
ENDBRANCH   5   9
ENDBRANCH   3   5
ENDBRANCH   2   3
ENDBRANCH   1   2
BRANCH   1  21
ATOM     21  C   UNL A   1      35.590  21.503  25.883  1.00  0.00     0.275 C 
BRANCH  21  22
ATOM     22  O   UNL A   1      36.389  22.671  25.587  1.00  0.00    -0.458 OA
BRANCH  22  23
ATOM     23  C   UNL A   1      37.883  22.643  25.685  1.00  0.00     0.338 C 
ATOM     24  O   UNL A   1      38.138  21.595  25.025  1.00  0.00    -0.246 OA
BRANCH  23  25
ATOM     25  C   UNL A   1      39.120  24.070  26.712  1.00  0.00     0.060 A 
ATOM     26  C   UNL A   1      40.075  25.131  26.150  1.00  0.00     0.016 A 
ATOM     27  C   UNL A   1      39.201  24.426  28.180  1.00  0.00     0.016 A 
ATOM     28  C   UNL A   1      40.434  26.380  26.695  1.00  0.00     0.010 A 
ATOM     29  C   UNL A   1      39.588  25.654  28.764  1.00  0.00     0.010 A 
ATOM     30  C   UNL A   1      40.082  26.681  27.985  1.00  0.00    -0.014 A 
BRANCH  30  31
ATOM     31  C   UNL A   1      40.422  27.979  28.576  1.00  0.00     0.031 A 
ATOM     32  C   UNL A   1      41.814  28.159  29.073  1.00  0.00     0.074 A 
ATOM     33  C   UNL A   1      39.499  28.955  28.653  1.00  0.00     0.049 A 
ATOM     34  N   UNL A   1      42.323  29.138  29.767  1.00  0.00    -0.248 NA
ATOM     35  C   UNL A   1      42.762  27.078  28.748  1.00  0.00     0.031 C 
ATOM     36  C   UNL A   1      38.140  28.888  28.108  1.00  0.00     0.029 A 
ATOM     37  N   UNL A   1      39.567  30.200  29.221  1.00  0.00    -0.354 N 
ATOM     38  C   UNL A   1      43.643  28.775  29.988  1.00  0.00     0.074 A 
ATOM     39  C   UNL A   1      43.855  27.487  29.370  1.00  0.00     0.031 C 
ATOM     40  C   UNL A   1      37.506  30.046  28.367  1.00  0.00     0.029 A 
ATOM     41  C   UNL A   1      38.390  30.907  29.146  1.00  0.00     0.049 A 
ATOM     42  H   UNL A   1      40.382  30.554  29.644  1.00  0.00     0.167 HD
ATOM     43  C   UNL A   1      44.591  29.464  30.660  1.00  0.00     0.031 A 
ATOM     44  C   UNL A   1      38.072  32.102  29.683  1.00  0.00     0.031 A 
ATOM     45  C   UNL A   1      44.343  30.736  31.277  1.00  0.00     0.049 A 
ATOM     46  C   UNL A   1      39.125  32.807  30.502  1.00  0.00     0.074 A 
ATOM     47  C   UNL A   1      45.205  31.518  32.019  1.00  0.00     0.029 A 
ATOM     48  N   UNL A   1      43.130  31.410  31.215  1.00  0.00    -0.354 N 
ATOM     49  N   UNL A   1      40.365  32.449  30.741  1.00  0.00    -0.248 NA
ATOM     50  C   UNL A   1      38.733  34.075  31.133  1.00  0.00     0.031 C 
ATOM     51  C   UNL A   1      44.497  32.645  32.449  1.00  0.00     0.029 A 
ATOM     52  C   UNL A   1      43.215  32.595  31.920  1.00  0.00     0.049 A 
ATOM     53  H   UNL A   1      42.330  31.090  30.739  1.00  0.00     0.167 HD
ATOM     54  C   UNL A   1      40.911  33.458  31.524  1.00  0.00     0.074 A 
ATOM     55  C   UNL A   1      39.870  34.452  31.702  1.00  0.00     0.031 C 
ATOM     56  C   UNL A   1      42.154  33.559  32.056  1.00  0.00     0.031 A 
BRANCH  43  57
ATOM     57  C   UNL A   1      45.928  28.805  30.809  1.00  0.00    -0.014 A 
ATOM     58  C   UNL A   1      46.954  29.004  29.870  1.00  0.00     0.009 A 
ATOM     59  C   UNL A   1      46.150  27.934  31.886  1.00  0.00     0.009 A 
ATOM     60  C   UNL A   1      48.159  28.309  29.986  1.00  0.00     0.001 A 
ATOM     61  C   UNL A   1      47.368  27.265  32.016  1.00  0.00     0.001 A 
ATOM     62  C   UNL A   1      48.366  27.444  31.059  1.00  0.00     0.000 A 
ENDBRANCH  43  57
BRANCH  44  63
ATOM     63  C   UNL A   1      36.709  32.684  29.525  1.00  0.00    -0.014 A 
ATOM     64  C   UNL A   1      36.389  33.481  28.414  1.00  0.00     0.009 A 
ATOM     65  C   UNL A   1      35.732  32.498  30.516  1.00  0.00     0.009 A 
ATOM     66  C   UNL A   1      35.141  34.108  28.321  1.00  0.00     0.001 A 
ATOM     67  C   UNL A   1      34.474  33.097  30.405  1.00  0.00     0.001 A 
ATOM     68  C   UNL A   1      34.185  33.914  29.315  1.00  0.00     0.000 A 
ENDBRANCH  44  63
BRANCH  56  69
ATOM     69  C   UNL A   1      42.464  34.807  32.833  1.00  0.00    -0.014 A 
ATOM     70  C   UNL A   1      42.153  34.916  34.197  1.00  0.00     0.009 A 
ATOM     71  C   UNL A   1      43.138  35.861  32.196  1.00  0.00     0.009 A 
ATOM     72  C   UNL A   1      42.488  36.073  34.901  1.00  0.00     0.001 A 
ATOM     73  C   UNL A   1      43.502  37.000  32.912  1.00  0.00     0.001 A 
ATOM     74  C   UNL A   1      43.168  37.109  34.261  1.00  0.00     0.000 A 
ENDBRANCH  56  69
ENDBRANCH  30  31
ENDBRANCH  23  25
ENDBRANCH  22  23
ENDBRANCH  21  22
ENDBRANCH   1  21
TORSDOF 15
ENDMDL
