MODEL 1
REMARK VINA RESULT:     -13.4      0.000      0.000
REMARK SMILES CC(=O)Nc1cnc(N2CC=C(c3ccccc3C)CC2)c(C(=O)OCCOC(=O)c2ccc(-c3c4nc(c(-c5ccccc5)c5ccc([nH]5)c(-c5ccccc5)c5nc(c(-c6ccccc6)c6ccc3[nH]6)C=C5)C=C4)cc2)c1
REMARK SMILES IDX 26 1 25 2 23 3 24 4 22 5 5 6 6 7 79 8 7 9 8 10 4 11 1 12
REMARK SMILES IDX 2 13 3 14 9 16 10 17 21 18 11 19 20 20 12 21 13 22 14 23
REMARK SMILES IDX 18 24 15 25 17 26 19 27 16 28 27 29 28 30 29 31 30 32 31 33
REMARK SMILES IDX 32 34 78 35 33 36 77 37 34 38 35 39 36 40 71 41 37 42 76 43
REMARK SMILES IDX 70 44 72 45 38 46 75 47 69 48 68 49 39 51 61 52 46 53 60 54
REMARK SMILES IDX 47 55 50 56 59 57 73 58 48 59 49 60 58 62 74 63 51 64 40 65
REMARK SMILES IDX 41 66 45 67 42 68 44 69 43 70 62 71 63 72 67 73 64 74 66 75
REMARK SMILES IDX 65 76 52 77 53 78 57 79 54 80 56 81 55 82
REMARK H PARENT 4 15 72 50 50 61
REMARK Flexibility Score: inf
ROOT
ATOM      1  C   UNL A   1      32.815  30.846  26.907  1.00  0.00     0.275 C 
ENDROOT
BRANCH   1   2
ATOM      2  O   UNL A   1      32.088  29.607  26.694  1.00  0.00    -0.458 OA
BRANCH   2   3
ATOM      3  C   UNL A   1      32.403  29.033  25.497  1.00  0.00     0.342 C 
ATOM      4  O   UNL A   1      33.529  29.055  25.001  1.00  0.00    -0.246 OA
BRANCH   3   5
ATOM      5  C   UNL A   1      31.288  28.676  24.598  1.00  0.00     0.104 A 
ATOM      6  C   UNL A   1      29.925  30.007  23.084  1.00  0.00     0.060 A 
ATOM      7  C   UNL A   1      29.755  28.861  22.344  1.00  0.00     0.139 A 
ATOM      8  C   UNL A   1      30.614  29.874  24.271  1.00  0.00     0.047 A 
ATOM      9  N   UNL A   1      30.329  27.676  22.665  1.00  0.00    -0.236 NA
ATOM     10  C   UNL A   1      31.145  27.557  23.755  1.00  0.00     0.143 A 
BRANCH   6  11
ATOM     11  N   UNL A   1      29.459  31.248  22.633  1.00  0.00    -0.325 N 
ATOM     12  C   UNL A   1      27.278  31.210  23.843  1.00  0.00     0.114 C 
ATOM     13  C   UNL A   1      28.202  31.783  22.788  1.00  0.00     0.221 C 
ATOM     14  O   UNL A   1      27.880  32.774  22.133  1.00  0.00    -0.275 OA
ATOM     15  H   UNL A   1      30.111  31.805  22.148  1.00  0.00     0.169 HD
ENDBRANCH   6  11
BRANCH  10  16
ATOM     16  N   UNL A   1      31.765  26.321  23.860  1.00  0.00    -0.352 N 
ATOM     17  C   UNL A   1      31.787  25.715  25.209  1.00  0.00     0.146 C 
ATOM     18  C   UNL A   1      32.700  25.843  22.839  1.00  0.00     0.123 C 
ATOM     19  C   UNL A   1      32.760  24.570  25.359  1.00  0.00    -0.002 C 
ATOM     20  C   UNL A   1      34.028  25.338  23.407  1.00  0.00     0.057 C 
ATOM     21  C   UNL A   1      33.816  24.382  24.552  1.00  0.00    -0.041 C 
BRANCH  21  22
ATOM     22  C   UNL A   1      34.838  23.336  24.783  1.00  0.00    -0.020 A 
ATOM     23  C   UNL A   1      36.129  23.674  25.221  1.00  0.00     0.008 A 
ATOM     24  C   UNL A   1      34.524  21.973  24.620  1.00  0.00    -0.044 A 
ATOM     25  C   UNL A   1      37.058  22.689  25.577  1.00  0.00     0.001 A 
ATOM     26  C   UNL A   1      35.458  20.991  24.998  1.00  0.00     0.004 A 
ATOM     27  C   UNL A   1      33.195  21.527  24.076  1.00  0.00     0.045 C 
ATOM     28  C   UNL A   1      36.714  21.347  25.484  1.00  0.00     0.000 A 
ENDBRANCH  21  22
ENDBRANCH  10  16
ENDBRANCH   3   5
ENDBRANCH   2   3
ENDBRANCH   1   2
BRANCH   1  29
ATOM     29  C   UNL A   1      31.948  32.070  27.244  1.00  0.00     0.275 C 
BRANCH  29  30
ATOM     30  O   UNL A   1      32.514  33.402  27.285  1.00  0.00    -0.458 OA
BRANCH  30  31
ATOM     31  C   UNL A   1      33.043  33.934  28.405  1.00  0.00     0.338 C 
ATOM     32  O   UNL A   1      32.526  34.859  29.016  1.00  0.00    -0.246 OA
BRANCH  31  33
ATOM     33  C   UNL A   1      34.344  33.356  28.765  1.00  0.00     0.060 A 
ATOM     34  C   UNL A   1      35.484  33.697  28.021  1.00  0.00     0.016 A 
ATOM     35  C   UNL A   1      34.443  32.588  29.921  1.00  0.00     0.016 A 
ATOM     36  C   UNL A   1      36.744  33.353  28.445  1.00  0.00     0.010 A 
ATOM     37  C   UNL A   1      35.690  32.280  30.388  1.00  0.00     0.010 A 
ATOM     38  C   UNL A   1      36.809  32.623  29.614  1.00  0.00    -0.014 A 
BRANCH  38  39
ATOM     39  C   UNL A   1      37.980  31.847  29.909  1.00  0.00     0.031 A 
ATOM     40  C   UNL A   1      38.006  30.446  29.468  1.00  0.00     0.074 A 
ATOM     41  C   UNL A   1      38.925  32.655  30.449  1.00  0.00     0.049 A 
ATOM     42  N   UNL A   1      38.694  29.521  30.037  1.00  0.00    -0.248 NA
ATOM     43  C   UNL A   1      37.154  29.910  28.393  1.00  0.00     0.031 C 
ATOM     44  C   UNL A   1      40.358  32.514  30.560  1.00  0.00     0.029 A 
ATOM     45  N   UNL A   1      38.677  33.857  31.150  1.00  0.00    -0.354 N 
ATOM     46  C   UNL A   1      38.771  28.500  29.110  1.00  0.00     0.074 A 
ATOM     47  C   UNL A   1      37.632  28.666  28.249  1.00  0.00     0.031 C 
ATOM     48  C   UNL A   1      40.797  33.344  31.531  1.00  0.00     0.029 A 
ATOM     49  C   UNL A   1      39.626  33.934  32.166  1.00  0.00     0.049 A 
ATOM     50  H   UNL A   1      37.970  34.515  30.956  1.00  0.00     0.167 HD
ATOM     51  C   UNL A   1      39.955  27.840  28.979  1.00  0.00     0.031 A 
ATOM     52  C   UNL A   1      39.260  33.769  33.474  1.00  0.00     0.031 A 
ATOM     53  C   UNL A   1      40.928  28.412  29.906  1.00  0.00     0.049 A 
ATOM     54  C   UNL A   1      39.806  32.453  33.986  1.00  0.00     0.074 A 
ATOM     55  C   UNL A   1      41.896  29.388  29.732  1.00  0.00     0.029 A 
ATOM     56  N   UNL A   1      40.676  28.338  31.266  1.00  0.00    -0.354 N 
ATOM     57  N   UNL A   1      40.022  31.400  33.239  1.00  0.00    -0.248 NA
ATOM     58  C   UNL A   1      40.234  32.267  35.364  1.00  0.00     0.031 C 
ATOM     59  C   UNL A   1      42.199  29.927  31.014  1.00  0.00     0.029 A 
ATOM     60  C   UNL A   1      41.390  29.303  31.948  1.00  0.00     0.049 A 
ATOM     61  H   UNL A   1      40.070  27.686  31.689  1.00  0.00     0.167 HD
ATOM     62  C   UNL A   1      40.754  30.485  33.955  1.00  0.00     0.074 A 
ATOM     63  C   UNL A   1      40.823  31.061  35.289  1.00  0.00     0.031 C 
ATOM     64  C   UNL A   1      41.300  29.359  33.401  1.00  0.00     0.031 A 
BRANCH  51  65
ATOM     65  C   UNL A   1      40.349  26.960  27.821  1.00  0.00    -0.014 A 
ATOM     66  C   UNL A   1      39.788  25.670  27.725  1.00  0.00     0.009 A 
ATOM     67  C   UNL A   1      41.229  27.332  26.792  1.00  0.00     0.009 A 
ATOM     68  C   UNL A   1      40.103  24.787  26.685  1.00  0.00     0.001 A 
ATOM     69  C   UNL A   1      41.561  26.446  25.751  1.00  0.00     0.001 A 
ATOM     70  C   UNL A   1      40.996  25.175  25.697  1.00  0.00     0.000 A 
ENDBRANCH  51  65
BRANCH  52  71
ATOM     71  C   UNL A   1      37.924  34.346  33.820  1.00  0.00    -0.014 A 
ATOM     72  C   UNL A   1      37.164  34.931  32.780  1.00  0.00     0.009 A 
ATOM     73  C   UNL A   1      37.259  33.963  34.987  1.00  0.00     0.009 A 
ATOM     74  C   UNL A   1      35.767  34.949  32.824  1.00  0.00     0.001 A 
ATOM     75  C   UNL A   1      35.862  34.000  35.025  1.00  0.00     0.001 A 
ATOM     76  C   UNL A   1      35.115  34.424  33.928  1.00  0.00     0.000 A 
ENDBRANCH  52  71
BRANCH  64  77
ATOM     77  C   UNL A   1      41.883  28.176  34.144  1.00  0.00    -0.014 A 
ATOM     78  C   UNL A   1      41.351  27.631  35.313  1.00  0.00     0.009 A 
ATOM     79  C   UNL A   1      42.964  27.465  33.561  1.00  0.00     0.009 A 
ATOM     80  C   UNL A   1      41.890  26.473  35.888  1.00  0.00     0.001 A 
ATOM     81  C   UNL A   1      43.452  26.270  34.082  1.00  0.00     0.001 A 
ATOM     82  C   UNL A   1      42.923  25.783  35.263  1.00  0.00     0.000 A 
ENDBRANCH  64  77
ENDBRANCH  38  39
ENDBRANCH  31  33
ENDBRANCH  30  31
ENDBRANCH  29  30
ENDBRANCH   1  29
TORSDOF 14
ENDMDL
MODEL 2
REMARK VINA RESULT:     -13.3      4.600     10.325
REMARK SMILES CC(=O)Nc1cnc(N2CC=C(c3ccccc3C)CC2)c(C(=O)OCCOC(=O)c2ccc(-c3c4nc(c(-c5ccccc5)c5ccc([nH]5)c(-c5ccccc5)c5nc(c(-c6ccccc6)c6ccc3[nH]6)C=C5)C=C4)cc2)c1
REMARK SMILES IDX 26 1 25 2 23 3 24 4 22 5 5 6 6 7 79 8 7 9 8 10 4 11 1 12
REMARK SMILES IDX 2 13 3 14 9 16 10 17 21 18 11 19 20 20 12 21 13 22 14 23
REMARK SMILES IDX 18 24 15 25 17 26 19 27 16 28 27 29 28 30 29 31 30 32 31 33
REMARK SMILES IDX 32 34 78 35 33 36 77 37 34 38 35 39 36 40 71 41 37 42 76 43
REMARK SMILES IDX 70 44 72 45 38 46 75 47 69 48 68 49 39 51 61 52 46 53 60 54
REMARK SMILES IDX 47 55 50 56 59 57 73 58 48 59 49 60 58 62 74 63 51 64 40 65
REMARK SMILES IDX 41 66 45 67 42 68 44 69 43 70 62 71 63 72 67 73 64 74 66 75
REMARK SMILES IDX 65 76 52 77 53 78 57 79 54 80 56 81 55 82
REMARK H PARENT 4 15 72 50 50 61
REMARK Flexibility Score: inf
ROOT
ATOM      1  C   UNL A   1      38.416  21.318  25.508  1.00  0.00     0.275 C 
ENDROOT
BRANCH   1   2
ATOM      2  O   UNL A   1      37.294  21.322  24.586  1.00  0.00    -0.458 OA
BRANCH   2   3
ATOM      3  C   UNL A   1      36.121  21.617  25.215  1.00  0.00     0.342 C 
ATOM      4  O   UNL A   1      36.048  22.043  26.368  1.00  0.00    -0.246 OA
BRANCH   3   5
ATOM      5  C   UNL A   1      34.878  21.083  24.626  1.00  0.00     0.104 A 
ATOM      6  C   UNL A   1      33.709  18.970  24.924  1.00  0.00     0.060 A 
ATOM      7  C   UNL A   1      32.556  19.644  24.603  1.00  0.00     0.139 A 
ATOM      8  C   UNL A   1      34.884  19.685  24.831  1.00  0.00     0.047 A 
ATOM      9  N   UNL A   1      32.520  20.971  24.331  1.00  0.00    -0.236 NA
ATOM     10  C   UNL A   1      33.653  21.734  24.385  1.00  0.00     0.143 A 
BRANCH   6  11
ATOM     11  N   UNL A   1      33.686  17.640  25.363  1.00  0.00    -0.325 N 
ATOM     12  C   UNL A   1      34.030  16.578  23.133  1.00  0.00     0.114 C 
ATOM     13  C   UNL A   1      33.647  16.500  24.596  1.00  0.00     0.221 C 
ATOM     14  O   UNL A   1      33.389  15.420  25.128  1.00  0.00    -0.275 OA
ATOM     15  H   UNL A   1      33.699  17.506  26.339  1.00  0.00     0.169 HD
ENDBRANCH   6  11
BRANCH  10  16
ATOM     16  N   UNL A   1      33.421  23.092  24.224  1.00  0.00    -0.352 N 
ATOM     17  C   UNL A   1      32.653  23.755  25.300  1.00  0.00     0.146 C 
ATOM     18  C   UNL A   1      33.534  23.740  22.914  1.00  0.00     0.123 C 
ATOM     19  C   UNL A   1      32.119  25.118  24.932  1.00  0.00    -0.002 C 
ATOM     20  C   UNL A   1      32.323  24.599  22.545  1.00  0.00     0.057 C 
ATOM     21  C   UNL A   1      31.938  25.529  23.667  1.00  0.00    -0.041 C 
BRANCH  21  22
ATOM     22  C   UNL A   1      31.291  26.813  23.315  1.00  0.00    -0.020 A 
ATOM     23  C   UNL A   1      29.893  26.941  23.317  1.00  0.00     0.008 A 
ATOM     24  C   UNL A   1      32.066  27.953  23.021  1.00  0.00    -0.044 A 
ATOM     25  C   UNL A   1      29.275  28.182  23.124  1.00  0.00     0.001 A 
ATOM     26  C   UNL A   1      31.436  29.198  22.847  1.00  0.00     0.004 A 
ATOM     27  C   UNL A   1      33.564  27.885  22.916  1.00  0.00     0.045 C 
ATOM     28  C   UNL A   1      30.049  29.315  22.909  1.00  0.00     0.000 A 
ENDBRANCH  21  22
ENDBRANCH  10  16
ENDBRANCH   3   5
ENDBRANCH   2   3
ENDBRANCH   1   2
BRANCH   1  29
ATOM     29  C   UNL A   1      39.215  20.006  25.570  1.00  0.00     0.275 C 
BRANCH  29  30
ATOM     30  O   UNL A   1      40.373  19.873  26.430  1.00  0.00    -0.458 OA
BRANCH  30  31
ATOM     31  C   UNL A   1      41.583  20.369  26.103  1.00  0.00     0.338 C 
ATOM     32  O   UNL A   1      42.430  19.724  25.499  1.00  0.00    -0.246 OA
BRANCH  31  33
ATOM     33  C   UNL A   1      41.816  21.723  26.621  1.00  0.00     0.060 A 
ATOM     34  C   UNL A   1      41.725  21.961  28.001  1.00  0.00     0.016 A 
ATOM     35  C   UNL A   1      42.257  22.712  25.747  1.00  0.00     0.016 A 
ATOM     36  C   UNL A   1      42.139  23.151  28.550  1.00  0.00     0.010 A 
ATOM     37  C   UNL A   1      42.722  23.882  26.278  1.00  0.00     0.010 A 
ATOM     38  C   UNL A   1      42.603  24.097  27.660  1.00  0.00    -0.014 A 
BRANCH  38  39
ATOM     39  C   UNL A   1      42.637  25.480  28.038  1.00  0.00     0.031 A 
ATOM     40  C   UNL A   1      41.429  26.286  27.812  1.00  0.00     0.074 A 
ATOM     41  C   UNL A   1      43.801  25.737  28.685  1.00  0.00     0.049 A 
ATOM     42  N   UNL A   1      41.432  27.558  27.628  1.00  0.00    -0.248 NA
ATOM     43  C   UNL A   1      40.081  25.713  27.651  1.00  0.00     0.031 C 
ATOM     44  C   UNL A   1      44.182  26.795  29.592  1.00  0.00     0.029 A 
ATOM     45  N   UNL A   1      45.007  25.017  28.525  1.00  0.00    -0.354 N 
ATOM     46  C   UNL A   1      40.133  27.964  27.866  1.00  0.00     0.074 A 
ATOM     47  C   UNL A   1      39.311  26.809  27.627  1.00  0.00     0.031 C 
ATOM     48  C   UNL A   1      45.530  26.865  29.627  1.00  0.00     0.029 A 
ATOM     49  C   UNL A   1      46.044  25.941  28.624  1.00  0.00     0.049 A 
ATOM     50  H   UNL A   1      45.097  24.048  28.374  1.00  0.00     0.167 HD
ATOM     51  C   UNL A   1      39.939  29.125  28.552  1.00  0.00     0.031 A 
ATOM     52  C   UNL A   1      46.775  26.287  27.521  1.00  0.00     0.031 A 
ATOM     53  C   UNL A   1      41.236  29.698  28.901  1.00  0.00     0.049 A 
ATOM     54  C   UNL A   1      46.446  27.712  27.127  1.00  0.00     0.074 A 
ATOM     55  C   UNL A   1      42.003  29.598  30.051  1.00  0.00     0.029 A 
ATOM     56  N   UNL A   1      42.095  30.075  27.881  1.00  0.00    -0.354 N 
ATOM     57  N   UNL A   1      45.295  28.294  27.346  1.00  0.00    -0.248 NA
ATOM     58  C   UNL A   1      47.432  28.608  26.542  1.00  0.00     0.031 C 
ATOM     59  C   UNL A   1      43.350  29.891  29.697  1.00  0.00     0.029 A 
ATOM     60  C   UNL A   1      43.398  30.127  28.334  1.00  0.00     0.049 A 
ATOM     61  H   UNL A   1      41.814  30.277  26.959  1.00  0.00     0.167 HD
ATOM     62  C   UNL A   1      45.421  29.641  27.109  1.00  0.00     0.074 A 
ATOM     63  C   UNL A   1      46.766  29.775  26.570  1.00  0.00     0.031 C 
ATOM     64  C   UNL A   1      44.451  30.554  27.422  1.00  0.00     0.031 A 
BRANCH  51  65
ATOM     65  C   UNL A   1      38.652  29.557  29.206  1.00  0.00    -0.014 A 
ATOM     66  C   UNL A   1      38.029  30.743  28.765  1.00  0.00     0.009 A 
ATOM     67  C   UNL A   1      37.992  28.851  30.224  1.00  0.00     0.009 A 
ATOM     68  C   UNL A   1      36.835  31.218  29.321  1.00  0.00     0.001 A 
ATOM     69  C   UNL A   1      36.800  29.329  30.797  1.00  0.00     0.001 A 
ATOM     70  C   UNL A   1      36.221  30.511  30.344  1.00  0.00     0.000 A 
ENDBRANCH  51  65
BRANCH  52  71
ATOM     71  C   UNL A   1      47.028  25.162  26.568  1.00  0.00    -0.014 A 
ATOM     72  C   UNL A   1      46.414  23.916  26.835  1.00  0.00     0.009 A 
ATOM     73  C   UNL A   1      47.478  25.411  25.270  1.00  0.00     0.009 A 
ATOM     74  C   UNL A   1      46.082  23.034  25.802  1.00  0.00     0.001 A 
ATOM     75  C   UNL A   1      47.154  24.514  24.248  1.00  0.00     0.001 A 
ATOM     76  C   UNL A   1      46.402  23.367  24.496  1.00  0.00     0.000 A 
ENDBRANCH  52  71
BRANCH  64  77
ATOM     77  C   UNL A   1      44.383  31.995  26.965  1.00  0.00    -0.014 A 
ATOM     78  C   UNL A   1      44.302  32.404  25.634  1.00  0.00     0.009 A 
ATOM     79  C   UNL A   1      44.254  33.018  27.940  1.00  0.00     0.009 A 
ATOM     80  C   UNL A   1      44.142  33.754  25.294  1.00  0.00     0.001 A 
ATOM     81  C   UNL A   1      44.014  34.350  27.611  1.00  0.00     0.001 A 
ATOM     82  C   UNL A   1      43.977  34.721  26.280  1.00  0.00     0.000 A 
ENDBRANCH  64  77
ENDBRANCH  38  39
ENDBRANCH  31  33
ENDBRANCH  30  31
ENDBRANCH  29  30
ENDBRANCH   1  29
TORSDOF 14
ENDMDL
MODEL 3
REMARK VINA RESULT:     -12.8      2.182      3.722
REMARK SMILES CC(=O)Nc1cnc(N2CC=C(c3ccccc3C)CC2)c(C(=O)OCCOC(=O)c2ccc(-c3c4nc(c(-c5ccccc5)c5ccc([nH]5)c(-c5ccccc5)c5nc(c(-c6ccccc6)c6ccc3[nH]6)C=C5)C=C4)cc2)c1
REMARK SMILES IDX 26 1 25 2 23 3 24 4 22 5 5 6 6 7 79 8 7 9 8 10 4 11 1 12
REMARK SMILES IDX 2 13 3 14 9 16 10 17 21 18 11 19 20 20 12 21 13 22 14 23
REMARK SMILES IDX 18 24 15 25 17 26 19 27 16 28 27 29 28 30 29 31 30 32 31 33
REMARK SMILES IDX 32 34 78 35 33 36 77 37 34 38 35 39 36 40 71 41 37 42 76 43
REMARK SMILES IDX 70 44 72 45 38 46 75 47 69 48 68 49 39 51 61 52 46 53 60 54
REMARK SMILES IDX 47 55 50 56 59 57 73 58 48 59 49 60 58 62 74 63 51 64 40 65
REMARK SMILES IDX 41 66 45 67 42 68 44 69 43 70 62 71 63 72 67 73 64 74 66 75
REMARK SMILES IDX 65 76 52 77 53 78 57 79 54 80 56 81 55 82
REMARK H PARENT 4 15 72 50 50 61
REMARK Flexibility Score: inf
ROOT
ATOM      1  C   UNL A   1      32.942  29.338  26.944  1.00  0.00     0.275 C 
ENDROOT
BRANCH   1   2
ATOM      2  O   UNL A   1      32.690  28.114  26.206  1.00  0.00    -0.458 OA
BRANCH   2   3
ATOM      3  C   UNL A   1      32.440  28.358  24.888  1.00  0.00     0.342 C 
ATOM      4  O   UNL A   1      33.247  28.888  24.124  1.00  0.00    -0.246 OA
BRANCH   3   5
ATOM      5  C   UNL A   1      31.036  28.306  24.437  1.00  0.00     0.104 A 
ATOM      6  C   UNL A   1      29.665  29.883  23.190  1.00  0.00     0.060 A 
ATOM      7  C   UNL A   1      28.948  28.799  22.746  1.00  0.00     0.139 A 
ATOM      8  C   UNL A   1      30.648  29.628  24.122  1.00  0.00     0.047 A 
ATOM      9  N   UNL A   1      29.246  27.520  23.082  1.00  0.00    -0.236 NA
ATOM     10  C   UNL A   1      30.315  27.231  23.883  1.00  0.00     0.143 A 
BRANCH   6  11
ATOM     11  N   UNL A   1      29.436  31.171  22.690  1.00  0.00    -0.325 N 
ATOM     12  C   UNL A   1      27.279  31.577  23.876  1.00  0.00     0.114 C 
ATOM     13  C   UNL A   1      28.297  31.932  22.812  1.00  0.00     0.221 C 
ATOM     14  O   UNL A   1      28.164  32.940  22.117  1.00  0.00    -0.275 OA
ATOM     15  H   UNL A   1      30.180  31.581  22.193  1.00  0.00     0.169 HD
ENDBRANCH   6  11
BRANCH  10  16
ATOM     16  N   UNL A   1      30.568  25.873  24.012  1.00  0.00    -0.352 N 
ATOM     17  C   UNL A   1      30.722  25.367  25.393  1.00  0.00     0.146 C 
ATOM     18  C   UNL A   1      31.076  25.078  22.891  1.00  0.00     0.123 C 
ATOM     19  C   UNL A   1      31.339  23.992  25.485  1.00  0.00    -0.002 C 
ATOM     20  C   UNL A   1      32.300  24.230  23.242  1.00  0.00     0.057 C 
ATOM     21  C   UNL A   1      32.090  23.449  24.513  1.00  0.00    -0.041 C 
BRANCH  21  22
ATOM     22  C   UNL A   1      32.801  22.159  24.662  1.00  0.00    -0.020 A 
ATOM     23  C   UNL A   1      32.152  20.943  24.394  1.00  0.00     0.008 A 
ATOM     24  C   UNL A   1      34.161  22.124  25.025  1.00  0.00    -0.044 A 
ATOM     25  C   UNL A   1      32.850  19.729  24.395  1.00  0.00     0.001 A 
ATOM     26  C   UNL A   1      34.858  20.901  25.005  1.00  0.00     0.004 A 
ATOM     27  C   UNL A   1      34.910  23.370  25.410  1.00  0.00     0.045 C 
ATOM     28  C   UNL A   1      34.209  19.713  24.681  1.00  0.00     0.000 A 
ENDBRANCH  21  22
ENDBRANCH  10  16
ENDBRANCH   3   5
ENDBRANCH   2   3
ENDBRANCH   1   2
BRANCH   1  29
ATOM     29  C   UNL A   1      34.419  29.624  27.265  1.00  0.00     0.275 C 
BRANCH  29  30
ATOM     30  O   UNL A   1      34.856  30.941  27.678  1.00  0.00    -0.458 OA
BRANCH  30  31
ATOM     31  C   UNL A   1      35.515  31.161  28.832  1.00  0.00     0.338 C 
ATOM     32  O   UNL A   1      35.152  31.980  29.666  1.00  0.00    -0.246 OA
BRANCH  31  33
ATOM     33  C   UNL A   1      36.757  30.386  28.948  1.00  0.00     0.060 A 
ATOM     34  C   UNL A   1      36.848  29.361  29.902  1.00  0.00     0.016 A 
ATOM     35  C   UNL A   1      37.770  30.595  28.017  1.00  0.00     0.016 A 
ATOM     36  C   UNL A   1      37.900  28.478  29.904  1.00  0.00     0.010 A 
ATOM     37  C   UNL A   1      38.798  29.697  27.969  1.00  0.00     0.010 A 
ATOM     38  C   UNL A   1      38.869  28.691  28.946  1.00  0.00    -0.014 A 
BRANCH  38  39
ATOM     39  C   UNL A   1      40.184  28.143  29.122  1.00  0.00     0.031 A 
ATOM     40  C   UNL A   1      40.421  26.765  28.671  1.00  0.00     0.074 A 
ATOM     41  C   UNL A   1      41.016  29.115  29.572  1.00  0.00     0.049 A 
ATOM     42  N   UNL A   1      41.316  25.986  29.165  1.00  0.00    -0.248 NA
ATOM     43  C   UNL A   1      39.579  26.071  27.680  1.00  0.00     0.031 C 
ATOM     44  C   UNL A   1      42.454  29.236  29.543  1.00  0.00     0.029 A 
ATOM     45  N   UNL A   1      40.623  30.260  30.301  1.00  0.00    -0.354 N 
ATOM     46  C   UNL A   1      41.486  24.985  28.228  1.00  0.00     0.074 A 
ATOM     47  C   UNL A   1      40.258  24.933  27.483  1.00  0.00     0.031 C 
ATOM     48  C   UNL A   1      42.827  30.143  30.471  1.00  0.00     0.029 A 
ATOM     49  C   UNL A   1      41.636  30.519  31.220  1.00  0.00     0.049 A 
ATOM     50  H   UNL A   1      39.793  30.778  30.181  1.00  0.00     0.167 HD
ATOM     51  C   UNL A   1      42.752  24.548  27.978  1.00  0.00     0.031 A 
ATOM     52  C   UNL A   1      41.434  30.306  32.557  1.00  0.00     0.031 A 
ATOM     53  C   UNL A   1      43.690  25.297  28.810  1.00  0.00     0.049 A 
ATOM     54  C   UNL A   1      42.256  29.115  33.005  1.00  0.00     0.074 A 
ATOM     55  C   UNL A   1      44.444  26.430  28.550  1.00  0.00     0.029 A 
ATOM     56  N   UNL A   1      43.589  25.194  30.188  1.00  0.00    -0.354 N 
ATOM     57  N   UNL A   1      42.585  28.111  32.234  1.00  0.00    -0.248 NA
ATOM     58  C   UNL A   1      42.842  29.026  34.334  1.00  0.00     0.031 C 
ATOM     59  C   UNL A   1      44.767  27.029  29.799  1.00  0.00     0.029 A 
ATOM     60  C   UNL A   1      44.178  26.280  30.804  1.00  0.00     0.049 A 
ATOM     61  H   UNL A   1      43.154  24.449  30.663  1.00  0.00     0.167 HD
ATOM     62  C   UNL A   1      43.537  27.351  32.870  1.00  0.00     0.074 A 
ATOM     63  C   UNL A   1      43.629  27.945  34.195  1.00  0.00     0.031 C 
ATOM     64  C   UNL A   1      44.221  26.336  32.258  1.00  0.00     0.031 A 
BRANCH  51  65
ATOM     65  C   UNL A   1      43.185  23.741  26.783  1.00  0.00    -0.014 A 
ATOM     66  C   UNL A   1      43.051  22.337  26.824  1.00  0.00     0.009 A 
ATOM     67  C   UNL A   1      43.699  24.280  25.593  1.00  0.00     0.009 A 
ATOM     68  C   UNL A   1      43.432  21.513  25.759  1.00  0.00     0.001 A 
ATOM     69  C   UNL A   1      44.098  23.457  24.523  1.00  0.00     0.001 A 
ATOM     70  C   UNL A   1      43.962  22.075  24.607  1.00  0.00     0.000 A 
ENDBRANCH  51  65
BRANCH  52  71
ATOM     71  C   UNL A   1      40.055  30.636  33.035  1.00  0.00    -0.014 A 
ATOM     72  C   UNL A   1      39.528  31.907  32.710  1.00  0.00     0.009 A 
ATOM     73  C   UNL A   1      39.164  29.625  33.401  1.00  0.00     0.009 A 
ATOM     74  C   UNL A   1      38.151  32.105  32.564  1.00  0.00     0.001 A 
ATOM     75  C   UNL A   1      37.789  29.840  33.265  1.00  0.00     0.001 A 
ATOM     76  C   UNL A   1      37.285  31.048  32.784  1.00  0.00     0.000 A 
ENDBRANCH  52  71
BRANCH  64  77
ATOM     77  C   UNL A   1      45.077  25.286  32.934  1.00  0.00    -0.014 A 
ATOM     78  C   UNL A   1      46.424  25.447  33.260  1.00  0.00     0.009 A 
ATOM     79  C   UNL A   1      44.459  24.098  33.405  1.00  0.00     0.009 A 
ATOM     80  C   UNL A   1      47.123  24.465  33.974  1.00  0.00     0.001 A 
ATOM     81  C   UNL A   1      45.126  23.158  34.185  1.00  0.00     0.001 A 
ATOM     82  C   UNL A   1      46.471  23.334  34.454  1.00  0.00     0.000 A 
ENDBRANCH  64  77
ENDBRANCH  38  39
ENDBRANCH  31  33
ENDBRANCH  30  31
ENDBRANCH  29  30
ENDBRANCH   1  29
TORSDOF 14
ENDMDL
