MODEL 1
REMARK VINA RESULT:     -11.4      0.000      0.000
REMARK SMILES O=C(OCCOC(=O)c1cc(Br)cc2c1N[C@H](c1cccc([N+](=O)[O-])c1)[C@H]1CC=C[C@@H]21)c1ccc(-c2c3nc(c(-c4ccccc4)c4ccc([nH]4)c(-c4ccccc4)c4nc(c(-c5ccccc5)c5ccc2[nH]5)C=C4)C=C3)cc1
REMARK SMILES IDX 4 1 3 2 2 3 1 4 32 5 33 6 79 7 34 8 78 9 35 10 36 11 37 12
REMARK SMILES IDX 72 13 38 14 77 15 71 16 73 17 39 18 76 19 70 20 69 21 40 23
REMARK SMILES IDX 62 24 47 25 61 26 48 27 51 28 60 29 74 30 49 31 50 32 59 34
REMARK SMILES IDX 75 35 52 36 41 37 42 38 46 39 43 40 45 41 44 42 63 43 64 44
REMARK SMILES IDX 68 45 65 46 67 47 66 48 53 49 54 50 58 51 55 52 57 53 56 54
REMARK SMILES IDX 5 55 6 56 7 57 8 58 9 59 10 60 15 61 11 62 14 63 16 64 12 65
REMARK SMILES IDX 13 66 31 67 17 68 27 70 30 71 28 72 29 73 18 74 19 75 26 76
REMARK SMILES IDX 20 77 22 78 21 79 23 80 24 81 25 82
REMARK H PARENT 73 22 51 33 16 69
REMARK Flexibility Score: inf
ROOT
ATOM      1  C   UNL A   1      39.729  28.223  28.950  1.00  0.00     0.275 C 
ENDROOT
BRANCH   1   2
ATOM      2  O   UNL A   1      41.120  28.123  29.246  1.00  0.00    -0.458 OA
BRANCH   2   3
ATOM      3  C   UNL A   1      41.826  28.909  30.089  1.00  0.00     0.338 C 
ATOM      4  O   UNL A   1      42.339  28.374  31.073  1.00  0.00    -0.246 OA
BRANCH   3   5
ATOM      5  C   UNL A   1      41.964  30.410  29.948  1.00  0.00     0.060 A 
ATOM      6  C   UNL A   1      43.239  30.860  29.589  1.00  0.00     0.016 A 
ATOM      7  C   UNL A   1      41.022  31.400  30.271  1.00  0.00     0.016 A 
ATOM      8  C   UNL A   1      43.596  32.205  29.752  1.00  0.00     0.010 A 
ATOM      9  C   UNL A   1      41.346  32.756  30.350  1.00  0.00     0.010 A 
ATOM     10  C   UNL A   1      42.659  33.164  30.189  1.00  0.00    -0.014 A 
BRANCH  10  11
ATOM     11  C   UNL A   1      43.029  34.581  30.513  1.00  0.00     0.031 A 
ATOM     12  C   UNL A   1      43.144  35.679  29.433  1.00  0.00     0.074 A 
ATOM     13  C   UNL A   1      43.003  34.884  31.808  1.00  0.00     0.049 A 
ATOM     14  N   UNL A   1      43.107  37.078  29.493  1.00  0.00    -0.248 NA
ATOM     15  C   UNL A   1      42.724  34.969  27.953  1.00  0.00     0.031 C 
ATOM     16  C   UNL A   1      42.779  33.919  32.885  1.00  0.00     0.029 A 
ATOM     17  N   UNL A   1      43.140  36.088  32.419  1.00  0.00    -0.354 N 
ATOM     18  C   UNL A   1      42.523  37.841  28.048  1.00  0.00     0.074 A 
ATOM     19  C   UNL A   1      42.016  36.158  26.835  1.00  0.00     0.031 C 
ATOM     20  C   UNL A   1      42.786  34.579  34.043  1.00  0.00     0.029 A 
ATOM     21  C   UNL A   1      43.110  35.977  33.776  1.00  0.00     0.049 A 
ATOM     22  H   UNL A   1      43.246  36.941  31.937  1.00  0.00     0.167 HD
ATOM     23  C   UNL A   1      42.897  39.304  27.855  1.00  0.00     0.031 A 
ATOM     24  C   UNL A   1      43.371  36.891  34.716  1.00  0.00     0.031 A 
ATOM     25  C   UNL A   1      43.341  40.170  28.971  1.00  0.00     0.049 A 
ATOM     26  C   UNL A   1      43.609  38.309  34.327  1.00  0.00     0.074 A 
ATOM     27  C   UNL A   1      43.674  41.520  28.858  1.00  0.00     0.029 A 
ATOM     28  N   UNL A   1      43.486  39.871  30.324  1.00  0.00    -0.354 N 
ATOM     29  N   UNL A   1      43.580  38.860  33.140  1.00  0.00    -0.248 NA
ATOM     30  C   UNL A   1      43.863  39.238  35.430  1.00  0.00     0.031 C 
ATOM     31  C   UNL A   1      43.983  42.039  30.101  1.00  0.00     0.029 A 
ATOM     32  C   UNL A   1      43.775  41.044  31.032  1.00  0.00     0.049 A 
ATOM     33  H   UNL A   1      43.399  38.974  30.722  1.00  0.00     0.167 HD
ATOM     34  C   UNL A   1      43.757  40.215  33.364  1.00  0.00     0.074 A 
ATOM     35  C   UNL A   1      43.865  40.399  34.795  1.00  0.00     0.031 C 
ATOM     36  C   UNL A   1      43.830  41.219  32.462  1.00  0.00     0.031 A 
BRANCH  23  37
ATOM     37  C   UNL A   1      43.090  40.264  26.415  1.00  0.00    -0.014 A 
ATOM     38  C   UNL A   1      41.929  40.711  25.712  1.00  0.00     0.009 A 
ATOM     39  C   UNL A   1      44.285  40.800  25.875  1.00  0.00     0.009 A 
ATOM     40  C   UNL A   1      41.987  41.695  24.690  1.00  0.00     0.001 A 
ATOM     41  C   UNL A   1      44.326  41.917  25.020  1.00  0.00     0.001 A 
ATOM     42  C   UNL A   1      43.175  42.356  24.405  1.00  0.00     0.000 A 
ENDBRANCH  23  37
BRANCH  24  43
ATOM     43  C   UNL A   1      43.355  36.433  36.115  1.00  0.00    -0.014 A 
ATOM     44  C   UNL A   1      44.497  35.828  36.671  1.00  0.00     0.009 A 
ATOM     45  C   UNL A   1      42.156  36.451  36.832  1.00  0.00     0.009 A 
ATOM     46  C   UNL A   1      44.413  35.182  37.898  1.00  0.00     0.001 A 
ATOM     47  C   UNL A   1      42.099  35.868  38.092  1.00  0.00     0.001 A 
ATOM     48  C   UNL A   1      43.217  35.215  38.612  1.00  0.00     0.000 A 
ENDBRANCH  24  43
BRANCH  36  49
ATOM     49  C   UNL A   1      43.982  42.637  32.977  1.00  0.00    -0.014 A 
ATOM     50  C   UNL A   1      42.840  43.441  33.152  1.00  0.00     0.009 A 
ATOM     51  C   UNL A   1      45.246  43.227  33.140  1.00  0.00     0.009 A 
ATOM     52  C   UNL A   1      42.960  44.805  33.428  1.00  0.00     0.001 A 
ATOM     53  C   UNL A   1      45.362  44.578  33.479  1.00  0.00     0.001 A 
ATOM     54  C   UNL A   1      44.222  45.371  33.599  1.00  0.00     0.000 A 
ENDBRANCH  36  49
ENDBRANCH  10  11
ENDBRANCH   3   5
ENDBRANCH   2   3
ENDBRANCH   1   2
BRANCH   1  55
ATOM     55  C   UNL A   1      38.848  27.315  29.839  1.00  0.00     0.275 C 
BRANCH  55  56
ATOM     56  O   UNL A   1      38.587  27.799  31.191  1.00  0.00    -0.458 OA
BRANCH  56  57
ATOM     57  C   UNL A   1      37.833  28.927  31.368  1.00  0.00     0.340 C 
ATOM     58  O   UNL A   1      36.783  29.157  30.794  1.00  0.00    -0.246 OA
BRANCH  57  59
ATOM     59  C   UNL A   1      38.362  29.757  32.512  1.00  0.00     0.084 A 
ATOM     60  C   UNL A   1      39.623  29.356  33.038  1.00  0.00     0.033 A 
ATOM     61  C   UNL A   1      37.838  30.992  32.940  1.00  0.00     0.053 A 
ATOM     62  C   UNL A   1      40.427  30.159  33.911  1.00  0.00     0.019 A 
ATOM     63  C   UNL A   1      38.854  31.904  33.890  1.00  0.00    -0.016 A 
ATOM     64  N   UNL A   1      36.525  31.482  32.271  1.00  0.00    -0.377 N 
ATOM     65  Br  UNL A   1      42.174  29.548  34.355  1.00  0.00    -0.051 Br
ATOM     66  C   UNL A   1      40.071  31.435  34.348  1.00  0.00     0.022 A 
ATOM     67  C   UNL A   1      38.598  33.813  34.148  1.00  0.00     0.049 C 
ATOM     68  C   UNL A   1      35.740  33.035  32.187  1.00  0.00     0.114 C 
ATOM     69  H   UNL A   1      36.036  30.771  31.798  1.00  0.00     0.161 HD
ATOM     70  C   UNL A   1      36.689  34.508  33.012  1.00  0.00     0.031 C 
ATOM     71  C   UNL A   1      38.029  33.653  35.907  1.00  0.00    -0.023 C 
ATOM     72  C   UNL A   1      35.497  34.258  34.608  1.00  0.00     0.034 C 
ATOM     73  C   UNL A   1      36.638  33.848  36.077  1.00  0.00    -0.030 C 
BRANCH  68  74
ATOM     74  C   UNL A   1      35.054  33.423  30.898  1.00  0.00    -0.019 A 
ATOM     75  C   UNL A   1      34.984  32.575  29.790  1.00  0.00     0.006 A 
ATOM     76  C   UNL A   1      34.235  34.560  30.887  1.00  0.00     0.091 A 
ATOM     77  C   UNL A   1      34.174  32.911  28.690  1.00  0.00     0.007 A 
ATOM     78  C   UNL A   1      33.510  34.950  29.766  1.00  0.00     0.269 A 
ATOM     79  C   UNL A   1      33.464  34.118  28.656  1.00  0.00     0.085 A 
BRANCH  78  80
ATOM     80  N   UNL A   1      32.839  36.256  29.795  1.00  0.00     0.062 N 
ATOM     81  O   UNL A   1      32.807  36.909  28.746  1.00  0.00    -0.258 OA
ATOM     82  O   UNL A   1      32.378  36.644  30.879  1.00  0.00    -0.258 OA
ENDBRANCH  78  80
ENDBRANCH  68  74
ENDBRANCH  57  59
ENDBRANCH  56  57
ENDBRANCH  55  56
ENDBRANCH   1  55
TORSDOF 13
ENDMDL
MODEL 2
REMARK VINA RESULT:     -10.9      6.663     14.410
REMARK SMILES O=C(OCCOC(=O)c1cc(Br)cc2c1N[C@H](c1cccc([N+](=O)[O-])c1)[C@H]1CC=C[C@@H]21)c1ccc(-c2c3nc(c(-c4ccccc4)c4ccc([nH]4)c(-c4ccccc4)c4nc(c(-c5ccccc5)c5ccc2[nH]5)C=C4)C=C3)cc1
REMARK SMILES IDX 4 1 3 2 2 3 1 4 32 5 33 6 79 7 34 8 78 9 35 10 36 11 37 12
REMARK SMILES IDX 72 13 38 14 77 15 71 16 73 17 39 18 76 19 70 20 69 21 40 23
REMARK SMILES IDX 62 24 47 25 61 26 48 27 51 28 60 29 74 30 49 31 50 32 59 34
REMARK SMILES IDX 75 35 52 36 41 37 42 38 46 39 43 40 45 41 44 42 63 43 64 44
REMARK SMILES IDX 68 45 65 46 67 47 66 48 53 49 54 50 58 51 55 52 57 53 56 54
REMARK SMILES IDX 5 55 6 56 7 57 8 58 9 59 10 60 15 61 11 62 14 63 16 64 12 65
REMARK SMILES IDX 13 66 31 67 17 68 27 70 30 71 28 72 29 73 18 74 19 75 26 76
REMARK SMILES IDX 20 77 22 78 21 79 23 80 24 81 25 82
REMARK H PARENT 73 22 51 33 16 69
REMARK Flexibility Score: inf
ROOT
ATOM      1  C   UNL A   1      42.361  42.647  20.919  1.00  0.00     0.275 C 
ENDROOT
BRANCH   1   2
ATOM      2  O   UNL A   1      43.235  42.657  22.046  1.00  0.00    -0.458 OA
BRANCH   2   3
ATOM      3  C   UNL A   1      42.885  42.842  23.339  1.00  0.00     0.338 C 
ATOM      4  O   UNL A   1      42.563  43.979  23.686  1.00  0.00    -0.246 OA
BRANCH   3   5
ATOM      5  C   UNL A   1      42.937  41.766  24.403  1.00  0.00     0.060 A 
ATOM      6  C   UNL A   1      41.692  41.342  24.881  1.00  0.00     0.016 A 
ATOM      7  C   UNL A   1      44.065  41.254  25.062  1.00  0.00     0.016 A 
ATOM      8  C   UNL A   1      41.594  40.619  26.078  1.00  0.00     0.010 A 
ATOM      9  C   UNL A   1      43.978  40.458  26.206  1.00  0.00     0.010 A 
ATOM     10  C   UNL A   1      42.745  40.214  26.786  1.00  0.00    -0.014 A 
BRANCH  10  11
ATOM     11  C   UNL A   1      42.688  39.566  28.137  1.00  0.00     0.031 A 
ATOM     12  C   UNL A   1      42.470  38.048  28.324  1.00  0.00     0.074 A 
ATOM     13  C   UNL A   1      43.086  40.337  29.144  1.00  0.00     0.049 A 
ATOM     14  N   UNL A   1      42.733  37.174  29.387  1.00  0.00    -0.248 NA
ATOM     15  C   UNL A   1      42.389  37.361  26.776  1.00  0.00     0.031 C 
ATOM     16  C   UNL A   1      43.427  41.754  29.024  1.00  0.00     0.029 A 
ATOM     17  N   UNL A   1      43.293  40.020  30.448  1.00  0.00    -0.354 N 
ATOM     18  C   UNL A   1      43.041  35.535  28.907  1.00  0.00     0.074 A 
ATOM     19  C   UNL A   1      42.963  35.677  26.778  1.00  0.00     0.031 C 
ATOM     20  C   UNL A   1      43.813  42.193  30.222  1.00  0.00     0.029 A 
ATOM     21  C   UNL A   1      43.648  41.108  31.186  1.00  0.00     0.049 A 
ATOM     22  H   UNL A   1      43.198  39.111  30.816  1.00  0.00     0.167 HD
ATOM     23  C   UNL A   1      42.856  34.469  29.977  1.00  0.00     0.031 A 
ATOM     24  C   UNL A   1      43.776  41.241  32.510  1.00  0.00     0.031 A 
ATOM     25  C   UNL A   1      42.846  34.782  31.425  1.00  0.00     0.049 A 
ATOM     26  C   UNL A   1      43.665  40.045  33.390  1.00  0.00     0.074 A 
ATOM     27  C   UNL A   1      42.703  33.846  32.450  1.00  0.00     0.029 A 
ATOM     28  N   UNL A   1      43.004  36.007  32.070  1.00  0.00    -0.354 N 
ATOM     29  N   UNL A   1      43.474  38.791  33.065  1.00  0.00    -0.248 NA
ATOM     30  C   UNL A   1      43.842  40.289  34.823  1.00  0.00     0.031 C 
ATOM     31  C   UNL A   1      42.801  34.469  33.679  1.00  0.00     0.029 A 
ATOM     32  C   UNL A   1      43.085  35.799  33.452  1.00  0.00     0.049 A 
ATOM     33  H   UNL A   1      43.052  36.884  31.624  1.00  0.00     0.167 HD
ATOM     34  C   UNL A   1      43.567  38.089  34.256  1.00  0.00     0.074 A 
ATOM     35  C   UNL A   1      43.855  39.053  35.297  1.00  0.00     0.031 C 
ATOM     36  C   UNL A   1      43.422  36.763  34.471  1.00  0.00     0.031 A 
BRANCH  23  37
ATOM     37  C   UNL A   1      42.452  32.778  29.864  1.00  0.00    -0.014 A 
ATOM     38  C   UNL A   1      43.480  31.833  29.564  1.00  0.00     0.009 A 
ATOM     39  C   UNL A   1      41.216  32.153  30.161  1.00  0.00     0.009 A 
ATOM     40  C   UNL A   1      43.293  30.432  29.700  1.00  0.00     0.001 A 
ATOM     41  C   UNL A   1      41.088  30.793  30.500  1.00  0.00     0.001 A 
ATOM     42  C   UNL A   1      42.123  29.921  30.249  1.00  0.00     0.000 A 
ENDBRANCH  23  37
BRANCH  24  43
ATOM     43  C   UNL A   1      44.076  42.589  33.020  1.00  0.00    -0.014 A 
ATOM     44  C   UNL A   1      43.033  43.506  33.245  1.00  0.00     0.009 A 
ATOM     45  C   UNL A   1      45.405  43.007  33.122  1.00  0.00     0.009 A 
ATOM     46  C   UNL A   1      43.323  44.842  33.492  1.00  0.00     0.001 A 
ATOM     47  C   UNL A   1      45.689  44.328  33.444  1.00  0.00     0.001 A 
ATOM     48  C   UNL A   1      44.651  45.247  33.603  1.00  0.00     0.000 A 
ENDBRANCH  24  43
BRANCH  36  49
ATOM     49  C   UNL A   1      43.621  36.236  35.879  1.00  0.00    -0.014 A 
ATOM     50  C   UNL A   1      42.552  36.274  36.794  1.00  0.00     0.009 A 
ATOM     51  C   UNL A   1      44.888  35.853  36.347  1.00  0.00     0.009 A 
ATOM     52  C   UNL A   1      42.756  35.989  38.145  1.00  0.00     0.001 A 
ATOM     53  C   UNL A   1      45.076  35.505  37.687  1.00  0.00     0.001 A 
ATOM     54  C   UNL A   1      44.017  35.597  38.589  1.00  0.00     0.000 A 
ENDBRANCH  36  49
ENDBRANCH  10  11
ENDBRANCH   3   5
ENDBRANCH   2   3
ENDBRANCH   1   2
BRANCH   1  55
ATOM     55  C   UNL A   1      43.094  42.874  19.577  1.00  0.00     0.275 C 
BRANCH  55  56
ATOM     56  O   UNL A   1      42.500  43.860  18.679  1.00  0.00    -0.458 OA
BRANCH  56  57
ATOM     57  C   UNL A   1      43.122  44.156  17.497  1.00  0.00     0.340 C 
ATOM     58  O   UNL A   1      43.331  43.354  16.603  1.00  0.00    -0.246 OA
BRANCH  57  59
ATOM     59  C   UNL A   1      43.338  45.643  17.357  1.00  0.00     0.084 A 
ATOM     60  C   UNL A   1      42.348  46.345  16.613  1.00  0.00     0.033 A 
ATOM     61  C   UNL A   1      44.284  46.404  18.069  1.00  0.00     0.053 A 
ATOM     62  C   UNL A   1      42.205  47.771  16.603  1.00  0.00     0.019 A 
ATOM     63  C   UNL A   1      44.014  48.046  18.077  1.00  0.00    -0.016 A 
ATOM     64  N   UNL A   1      45.283  45.638  18.977  1.00  0.00    -0.377 N 
ATOM     65  Br  UNL A   1      40.703  48.527  15.711  1.00  0.00    -0.051 Br
ATOM     66  C   UNL A   1      43.018  48.644  17.327  1.00  0.00     0.022 A 
ATOM     67  C   UNL A   1      44.826  49.225  19.391  1.00  0.00     0.049 C 
ATOM     68  C   UNL A   1      46.327  46.132  20.281  1.00  0.00     0.114 C 
ATOM     69  H   UNL A   1      45.337  44.676  18.776  1.00  0.00     0.161 HD
ATOM     70  C   UNL A   1      46.206  47.993  20.802  1.00  0.00     0.031 C 
ATOM     71  C   UNL A   1      46.007  50.001  18.189  1.00  0.00    -0.023 C 
ATOM     72  C   UNL A   1      47.844  48.314  19.686  1.00  0.00     0.034 C 
ATOM     73  C   UNL A   1      47.345  49.566  18.340  1.00  0.00    -0.030 C 
BRANCH  68  74
ATOM     74  C   UNL A   1      46.496  45.199  21.458  1.00  0.00    -0.019 A 
ATOM     75  C   UNL A   1      46.222  45.579  22.773  1.00  0.00     0.006 A 
ATOM     76  C   UNL A   1      46.682  43.831  21.212  1.00  0.00     0.091 A 
ATOM     77  C   UNL A   1      46.214  44.619  23.802  1.00  0.00     0.007 A 
ATOM     78  C   UNL A   1      46.775  42.892  22.233  1.00  0.00     0.269 A 
ATOM     79  C   UNL A   1      46.529  43.279  23.543  1.00  0.00     0.085 A 
BRANCH  78  80
ATOM     80  N   UNL A   1      47.162  41.521  21.879  1.00  0.00     0.062 N 
ATOM     81  O   UNL A   1      46.803  40.609  22.634  1.00  0.00    -0.258 OA
ATOM     82  O   UNL A   1      47.857  41.361  20.865  1.00  0.00    -0.258 OA
ENDBRANCH  78  80
ENDBRANCH  68  74
ENDBRANCH  57  59
ENDBRANCH  56  57
ENDBRANCH  55  56
ENDBRANCH   1  55
TORSDOF 13
ENDMDL
MODEL 3
REMARK VINA RESULT:     -10.9      5.788     12.175
REMARK SMILES O=C(OCCOC(=O)c1cc(Br)cc2c1N[C@H](c1cccc([N+](=O)[O-])c1)[C@H]1CC=C[C@@H]21)c1ccc(-c2c3nc(c(-c4ccccc4)c4ccc([nH]4)c(-c4ccccc4)c4nc(c(-c5ccccc5)c5ccc2[nH]5)C=C4)C=C3)cc1
REMARK SMILES IDX 4 1 3 2 2 3 1 4 32 5 33 6 79 7 34 8 78 9 35 10 36 11 37 12
REMARK SMILES IDX 72 13 38 14 77 15 71 16 73 17 39 18 76 19 70 20 69 21 40 23
REMARK SMILES IDX 62 24 47 25 61 26 48 27 51 28 60 29 74 30 49 31 50 32 59 34
REMARK SMILES IDX 75 35 52 36 41 37 42 38 46 39 43 40 45 41 44 42 63 43 64 44
REMARK SMILES IDX 68 45 65 46 67 47 66 48 53 49 54 50 58 51 55 52 57 53 56 54
REMARK SMILES IDX 5 55 6 56 7 57 8 58 9 59 10 60 15 61 11 62 14 63 16 64 12 65
REMARK SMILES IDX 13 66 31 67 17 68 27 70 30 71 28 72 29 73 18 74 19 75 26 76
REMARK SMILES IDX 20 77 22 78 21 79 23 80 24 81 25 82
REMARK H PARENT 73 22 51 33 16 69
REMARK Flexibility Score: inf
ROOT
ATOM      1  C   UNL A   1      35.402  33.032  29.093  1.00  0.00     0.275 C 
ENDROOT
BRANCH   1   2
ATOM      2  O   UNL A   1      35.212  31.648  29.376  1.00  0.00    -0.458 OA
BRANCH   2   3
ATOM      3  C   UNL A   1      35.935  30.891  30.231  1.00  0.00     0.338 C 
ATOM      4  O   UNL A   1      35.722  31.031  31.436  1.00  0.00    -0.246 OA
BRANCH   3   5
ATOM      5  C   UNL A   1      37.040  29.943  29.814  1.00  0.00     0.060 A 
ATOM      6  C   UNL A   1      37.722  29.325  30.867  1.00  0.00     0.016 A 
ATOM      7  C   UNL A   1      37.551  29.723  28.525  1.00  0.00     0.016 A 
ATOM      8  C   UNL A   1      38.960  28.704  30.651  1.00  0.00     0.010 A 
ATOM      9  C   UNL A   1      38.739  29.028  28.291  1.00  0.00     0.010 A 
ATOM     10  C   UNL A   1      39.510  28.596  29.357  1.00  0.00    -0.014 A 
BRANCH  10  11
ATOM     11  C   UNL A   1      40.889  28.070  29.095  1.00  0.00     0.031 A 
ATOM     12  C   UNL A   1      41.162  26.593  28.733  1.00  0.00     0.074 A 
ATOM     13  C   UNL A   1      41.826  29.003  28.948  1.00  0.00     0.049 A 
ATOM     14  N   UNL A   1      42.240  25.952  28.109  1.00  0.00    -0.248 NA
ATOM     15  C   UNL A   1      39.659  25.815  28.648  1.00  0.00     0.031 C 
ATOM     16  C   UNL A   1      41.614  30.436  29.155  1.00  0.00     0.029 A 
ATOM     17  N   UNL A   1      43.122  28.876  28.565  1.00  0.00    -0.354 N 
ATOM     18  C   UNL A   1      41.812  24.503  27.253  1.00  0.00     0.074 A 
ATOM     19  C   UNL A   1      39.692  24.455  27.500  1.00  0.00     0.031 C 
ATOM     20  C   UNL A   1      42.756  31.068  28.886  1.00  0.00     0.029 A 
ATOM     21  C   UNL A   1      43.779  30.069  28.589  1.00  0.00     0.049 A 
ATOM     22  H   UNL A   1      43.537  28.023  28.300  1.00  0.00     0.167 HD
ATOM     23  C   UNL A   1      42.942  23.522  26.975  1.00  0.00     0.031 A 
ATOM     24  C   UNL A   1      45.081  30.334  28.442  1.00  0.00     0.031 A 
ATOM     25  C   UNL A   1      44.370  23.913  27.014  1.00  0.00     0.049 A 
ATOM     26  C   UNL A   1      46.021  29.244  28.058  1.00  0.00     0.074 A 
ATOM     27  C   UNL A   1      45.445  23.065  26.746  1.00  0.00     0.029 A 
ATOM     28  N   UNL A   1      44.944  25.156  27.277  1.00  0.00    -0.354 N 
ATOM     29  N   UNL A   1      45.770  27.986  27.797  1.00  0.00    -0.248 NA
ATOM     30  C   UNL A   1      47.422  29.637  27.899  1.00  0.00     0.031 C 
ATOM     31  C   UNL A   1      46.632  23.767  26.811  1.00  0.00     0.029 A 
ATOM     32  C   UNL A   1      46.323  25.091  27.046  1.00  0.00     0.049 A 
ATOM     33  H   UNL A   1      44.455  25.957  27.577  1.00  0.00     0.167 HD
ATOM     34  C   UNL A   1      46.980  27.452  27.386  1.00  0.00     0.074 A 
ATOM     35  C   UNL A   1      47.949  28.526  27.410  1.00  0.00     0.031 C 
ATOM     36  C   UNL A   1      47.266  26.181  27.025  1.00  0.00     0.031 A 
BRANCH  23  37
ATOM     37  C   UNL A   1      42.939  21.796  26.740  1.00  0.00    -0.014 A 
ATOM     38  C   UNL A   1      42.164  20.974  27.615  1.00  0.00     0.009 A 
ATOM     39  C   UNL A   1      43.522  21.057  25.683  1.00  0.00     0.009 A 
ATOM     40  C   UNL A   1      41.906  19.604  27.345  1.00  0.00     0.001 A 
ATOM     41  C   UNL A   1      43.101  19.769  25.302  1.00  0.00     0.001 A 
ATOM     42  C   UNL A   1      42.305  19.027  26.146  1.00  0.00     0.000 A 
ENDBRANCH  23  37
BRANCH  24  43
ATOM     43  C   UNL A   1      45.503  31.732  28.625  1.00  0.00    -0.014 A 
ATOM     44  C   UNL A   1      45.476  32.625  27.539  1.00  0.00     0.009 A 
ATOM     45  C   UNL A   1      46.085  32.122  29.834  1.00  0.00     0.009 A 
ATOM     46  C   UNL A   1      46.093  33.865  27.643  1.00  0.00     0.001 A 
ATOM     47  C   UNL A   1      46.635  33.392  29.956  1.00  0.00     0.001 A 
ATOM     48  C   UNL A   1      46.660  34.251  28.856  1.00  0.00     0.000 A 
ENDBRANCH  24  43
BRANCH  36  49
ATOM     49  C   UNL A   1      48.676  25.864  26.567  1.00  0.00    -0.014 A 
ATOM     50  C   UNL A   1      49.605  25.337  27.484  1.00  0.00     0.009 A 
ATOM     51  C   UNL A   1      49.132  26.226  25.289  1.00  0.00     0.009 A 
ATOM     52  C   UNL A   1      50.956  25.226  27.151  1.00  0.00     0.001 A 
ATOM     53  C   UNL A   1      50.473  26.053  24.936  1.00  0.00     0.001 A 
ATOM     54  C   UNL A   1      51.387  25.577  25.874  1.00  0.00     0.000 A 
ENDBRANCH  36  49
ENDBRANCH  10  11
ENDBRANCH   3   5
ENDBRANCH   2   3
ENDBRANCH   1   2
BRANCH   1  55
ATOM     55  C   UNL A   1      36.862  33.386  28.727  1.00  0.00     0.275 C 
BRANCH  55  56
ATOM     56  O   UNL A   1      37.624  34.103  29.745  1.00  0.00    -0.458 OA
BRANCH  56  57
ATOM     57  C   UNL A   1      38.265  33.398  30.726  1.00  0.00     0.340 C 
ATOM     58  O   UNL A   1      39.212  32.653  30.540  1.00  0.00    -0.246 OA
BRANCH  57  59
ATOM     59  C   UNL A   1      37.782  33.812  32.094  1.00  0.00     0.084 A 
ATOM     60  C   UNL A   1      36.548  34.522  32.127  1.00  0.00     0.033 A 
ATOM     61  C   UNL A   1      38.317  33.373  33.321  1.00  0.00     0.053 A 
ATOM     62  C   UNL A   1      35.778  34.750  33.314  1.00  0.00     0.019 A 
ATOM     63  C   UNL A   1      37.337  33.603  34.646  1.00  0.00    -0.016 A 
ATOM     64  N   UNL A   1      39.595  32.494  33.270  1.00  0.00    -0.377 N 
ATOM     65  Br  UNL A   1      34.056  35.542  33.142  1.00  0.00    -0.051 Br
ATOM     66  C   UNL A   1      36.144  34.299  34.582  1.00  0.00     0.022 A 
ATOM     67  C   UNL A   1      37.593  32.627  36.306  1.00  0.00     0.049 C 
ATOM     68  C   UNL A   1      40.366  31.445  34.428  1.00  0.00     0.114 C 
ATOM     69  H   UNL A   1      40.067  32.537  32.407  1.00  0.00     0.161 HD
ATOM     70  C   UNL A   1      39.445  31.231  36.118  1.00  0.00     0.031 C 
ATOM     71  C   UNL A   1      38.239  34.091  37.245  1.00  0.00    -0.023 C 
ATOM     72  C   UNL A   1      40.708  32.598  36.872  1.00  0.00     0.034 C 
ATOM     73  C   UNL A   1      39.635  34.053  37.472  1.00  0.00    -0.030 C 
BRANCH  68  74
ATOM     74  C   UNL A   1      40.992  30.164  33.930  1.00  0.00    -0.019 A 
ATOM     75  C   UNL A   1      41.676  30.074  32.716  1.00  0.00     0.006 A 
ATOM     76  C   UNL A   1      41.124  29.088  34.819  1.00  0.00     0.091 A 
ATOM     77  C   UNL A   1      42.399  28.911  32.392  1.00  0.00     0.007 A 
ATOM     78  C   UNL A   1      41.751  27.898  34.468  1.00  0.00     0.269 A 
ATOM     79  C   UNL A   1      42.407  27.803  33.249  1.00  0.00     0.085 A 
BRANCH  78  80
ATOM     80  N   UNL A   1      41.666  26.768  35.403  1.00  0.00     0.062 N 
ATOM     81  O   UNL A   1      41.161  26.977  36.512  1.00  0.00    -0.258 OA
ATOM     82  O   UNL A   1      42.139  25.681  35.039  1.00  0.00    -0.258 OA
ENDBRANCH  78  80
ENDBRANCH  68  74
ENDBRANCH  57  59
ENDBRANCH  56  57
ENDBRANCH  55  56
ENDBRANCH   1  55
TORSDOF 13
ENDMDL
