MODEL 1
REMARK VINA RESULT:     -12.6      0.000      0.000
REMARK SMILES O=C(OCCOC(=O)c1ccc(-c2c3nc(c(-c4ccccc4)c4ccc([nH]4)c(-c4ccccc4)c4nc(c(-c5ccccc5)c5ccc2[nH]5)C=C4)C=C3)cc1)c1ccc(NC(=O)[C@@H]2CC=CC[C@H]2C(=O)Nc2cccc([N+](=O)[O-])c2)cc1
REMARK SMILES IDX 3 1 2 2 1 3 57 4 58 5 83 6 59 7 82 8 60 9 61 10 62 11 63 13
REMARK SMILES IDX 64 14 65 15 69 16 66 17 68 18 67 19 70 20 71 21 72 22 73 24
REMARK SMILES IDX 74 25 81 26 75 27 77 28 76 29 78 30 79 31 80 32 4 33 5 34
REMARK SMILES IDX 6 35 7 36 8 37 9 38 10 39 56 40 11 41 55 42 12 43 13 44
REMARK SMILES IDX 14 45 49 46 15 47 54 48 48 49 50 50 16 51 53 52 47 53 46 54
REMARK SMILES IDX 17 56 39 57 24 58 38 59 25 60 28 61 37 62 51 63 26 64 27 65
REMARK SMILES IDX 36 67 52 68 29 69 18 70 19 71 23 72 20 73 22 74 21 75 40 76
REMARK SMILES IDX 41 77 45 78 42 79 44 80 43 81 30 82 31 83 35 84 32 85 34 86
REMARK SMILES IDX 33 87
REMARK H PARENT 61 12 72 23 50 55 28 66
REMARK Flexibility Score: inf
ROOT
ATOM      1  O   UNL A   1      32.926  30.240  27.286  1.00  0.00    -0.458 OA
ENDROOT
BRANCH   1   2
ATOM      2  C   UNL A   1      33.845  29.328  26.876  1.00  0.00     0.338 C 
ATOM      3  O   UNL A   1      34.964  29.343  27.388  1.00  0.00    -0.246 OA
BRANCH   2   4
ATOM      4  C   UNL A   1      33.571  28.253  25.867  1.00  0.00     0.060 A 
ATOM      5  C   UNL A   1      33.778  28.395  24.507  1.00  0.00     0.018 A 
ATOM      6  C   UNL A   1      33.242  26.963  26.324  1.00  0.00     0.018 A 
ATOM      7  C   UNL A   1      33.688  27.303  23.648  1.00  0.00     0.027 A 
ATOM      8  C   UNL A   1      33.102  25.870  25.434  1.00  0.00     0.027 A 
ATOM      9  C   UNL A   1      33.305  26.044  24.068  1.00  0.00     0.041 A 
BRANCH   9  10
ATOM     10  N   UNL A   1      33.253  24.963  23.163  1.00  0.00    -0.326 N 
ATOM     11  C   UNL A   1      33.480  23.610  23.369  1.00  0.00     0.228 C 
ATOM     12  H   UNL A   1      33.018  25.208  22.238  1.00  0.00     0.169 HD
ATOM     13  O   UNL A   1      33.068  22.798  22.540  1.00  0.00    -0.274 OA
BRANCH  11  14
ATOM     14  C   UNL A   1      34.420  23.169  24.505  1.00  0.00     0.095 C 
ATOM     15  C   UNL A   1      35.834  23.686  24.174  1.00  0.00     0.041 C 
ATOM     16  C   UNL A   1      34.430  21.653  24.833  1.00  0.00     0.095 C 
ATOM     17  C   UNL A   1      36.830  23.276  25.218  1.00  0.00    -0.030 C 
ATOM     18  C   UNL A   1      35.762  21.056  25.349  1.00  0.00     0.041 C 
ATOM     19  C   UNL A   1      36.785  22.059  25.768  1.00  0.00    -0.030 C 
BRANCH  16  20
ATOM     20  C   UNL A   1      33.321  21.099  25.733  1.00  0.00     0.228 C 
ATOM     21  O   UNL A   1      32.831  21.861  26.581  1.00  0.00    -0.274 OA
ATOM     22  N   UNL A   1      32.724  19.871  25.643  1.00  0.00    -0.326 N 
ATOM     23  H   UNL A   1      31.840  19.869  26.077  1.00  0.00     0.169 HD
BRANCH  22  24
ATOM     24  C   UNL A   1      33.030  18.609  25.096  1.00  0.00     0.048 A 
ATOM     25  C   UNL A   1      33.362  18.553  23.736  1.00  0.00     0.026 A 
ATOM     26  C   UNL A   1      32.886  17.401  25.762  1.00  0.00     0.111 A 
ATOM     27  C   UNL A   1      33.564  17.326  23.082  1.00  0.00     0.009 A 
ATOM     28  C   UNL A   1      33.016  16.170  25.105  1.00  0.00     0.271 A 
ATOM     29  C   UNL A   1      33.377  16.123  23.761  1.00  0.00     0.086 A 
BRANCH  28  30
ATOM     30  N   UNL A   1      32.674  14.936  25.830  1.00  0.00     0.062 N 
ATOM     31  O   UNL A   1      33.297  13.908  25.537  1.00  0.00    -0.258 OA
ATOM     32  O   UNL A   1      31.757  14.990  26.662  1.00  0.00    -0.258 OA
ENDBRANCH  28  30
ENDBRANCH  22  24
ENDBRANCH  16  20
ENDBRANCH  11  14
ENDBRANCH   9  10
ENDBRANCH   2   4
ENDBRANCH   1   2
BRANCH   1  33
ATOM     33  C   UNL A   1      31.836  30.830  26.545  1.00  0.00     0.275 C 
BRANCH  33  34
ATOM     34  C   UNL A   1      31.534  32.255  27.038  1.00  0.00     0.275 C 
BRANCH  34  35
ATOM     35  O   UNL A   1      32.737  33.047  27.004  1.00  0.00    -0.458 OA
BRANCH  35  36
ATOM     36  C   UNL A   1      33.004  33.805  28.096  1.00  0.00     0.338 C 
ATOM     37  O   UNL A   1      32.399  34.792  28.453  1.00  0.00    -0.246 OA
BRANCH  36  38
ATOM     38  C   UNL A   1      34.364  33.429  28.569  1.00  0.00     0.060 A 
ATOM     39  C   UNL A   1      35.542  34.056  28.148  1.00  0.00     0.016 A 
ATOM     40  C   UNL A   1      34.412  32.505  29.613  1.00  0.00     0.016 A 
ATOM     41  C   UNL A   1      36.769  33.723  28.751  1.00  0.00     0.010 A 
ATOM     42  C   UNL A   1      35.613  32.255  30.274  1.00  0.00     0.010 A 
ATOM     43  C   UNL A   1      36.820  32.811  29.817  1.00  0.00    -0.014 A 
BRANCH  43  44
ATOM     44  C   UNL A   1      38.101  32.294  30.384  1.00  0.00     0.031 A 
ATOM     45  C   UNL A   1      38.648  30.987  29.857  1.00  0.00     0.074 A 
ATOM     46  C   UNL A   1      38.750  32.903  31.397  1.00  0.00     0.049 A 
ATOM     47  N   UNL A   1      39.698  30.305  30.243  1.00  0.00    -0.248 NA
ATOM     48  C   UNL A   1      37.895  30.353  28.761  1.00  0.00     0.031 C 
ATOM     49  C   UNL A   1      38.361  34.159  32.030  1.00  0.00     0.029 A 
ATOM     50  N   UNL A   1      39.873  32.516  32.093  1.00  0.00    -0.354 N 
ATOM     51  C   UNL A   1      39.706  29.158  29.460  1.00  0.00     0.074 A 
ATOM     52  C   UNL A   1      38.521  29.196  28.636  1.00  0.00     0.031 C 
ATOM     53  C   UNL A   1      39.204  34.422  33.044  1.00  0.00     0.029 A 
ATOM     54  C   UNL A   1      40.201  33.356  33.130  1.00  0.00     0.049 A 
ATOM     55  H   UNL A   1      40.395  31.712  31.868  1.00  0.00     0.167 HD
ATOM     56  C   UNL A   1      40.633  28.172  29.389  1.00  0.00     0.031 A 
ATOM     57  C   UNL A   1      41.188  33.284  34.046  1.00  0.00     0.031 A 
ATOM     58  C   UNL A   1      41.827  28.123  30.181  1.00  0.00     0.049 A 
ATOM     59  C   UNL A   1      42.202  32.171  33.976  1.00  0.00     0.074 A 
ATOM     60  C   UNL A   1      42.868  27.215  30.113  1.00  0.00     0.029 A 
ATOM     61  N   UNL A   1      42.132  29.014  31.197  1.00  0.00    -0.354 N 
ATOM     62  N   UNL A   1      42.264  31.161  33.144  1.00  0.00    -0.248 NA
ATOM     63  C   UNL A   1      43.305  32.212  34.951  1.00  0.00     0.031 C 
ATOM     64  C   UNL A   1      43.779  27.524  31.128  1.00  0.00     0.029 A 
ATOM     65  C   UNL A   1      43.332  28.659  31.786  1.00  0.00     0.049 A 
ATOM     66  H   UNL A   1      41.578  29.784  31.459  1.00  0.00     0.167 HD
ATOM     67  C   UNL A   1      43.430  30.474  33.464  1.00  0.00     0.074 A 
ATOM     68  C   UNL A   1      44.045  31.178  34.568  1.00  0.00     0.031 C 
ATOM     69  C   UNL A   1      43.948  29.366  32.878  1.00  0.00     0.031 A 
BRANCH  56  70
ATOM     70  C   UNL A   1      40.368  27.066  28.406  1.00  0.00    -0.014 A 
ATOM     71  C   UNL A   1      40.896  27.104  27.105  1.00  0.00     0.009 A 
ATOM     72  C   UNL A   1      39.558  25.983  28.779  1.00  0.00     0.009 A 
ATOM     73  C   UNL A   1      40.566  26.116  26.177  1.00  0.00     0.001 A 
ATOM     74  C   UNL A   1      39.260  24.975  27.860  1.00  0.00     0.001 A 
ATOM     75  C   UNL A   1      39.749  25.051  26.557  1.00  0.00     0.000 A 
ENDBRANCH  56  70
BRANCH  57  76
ATOM     76  C   UNL A   1      41.295  34.328  35.100  1.00  0.00    -0.014 A 
ATOM     77  C   UNL A   1      42.083  35.471  34.899  1.00  0.00     0.009 A 
ATOM     78  C   UNL A   1      40.606  34.182  36.315  1.00  0.00     0.009 A 
ATOM     79  C   UNL A   1      42.195  36.439  35.901  1.00  0.00     0.001 A 
ATOM     80  C   UNL A   1      40.703  35.163  37.305  1.00  0.00     0.001 A 
ATOM     81  C   UNL A   1      41.501  36.288  37.100  1.00  0.00     0.000 A 
ENDBRANCH  57  76
BRANCH  69  82
ATOM     82  C   UNL A   1      45.273  28.858  33.374  1.00  0.00    -0.014 A 
ATOM     83  C   UNL A   1      45.356  27.876  34.372  1.00  0.00     0.009 A 
ATOM     84  C   UNL A   1      46.456  29.306  32.762  1.00  0.00     0.009 A 
ATOM     85  C   UNL A   1      46.598  27.364  34.758  1.00  0.00     0.001 A 
ATOM     86  C   UNL A   1      47.693  28.774  33.131  1.00  0.00     0.001 A 
ATOM     87  C   UNL A   1      47.763  27.808  34.132  1.00  0.00     0.000 A 
ENDBRANCH  69  82
ENDBRANCH  43  44
ENDBRANCH  36  38
ENDBRANCH  35  36
ENDBRANCH  34  35
ENDBRANCH  33  34
ENDBRANCH   1  33
TORSDOF 16
ENDMDL
MODEL 2
REMARK VINA RESULT:     -12.5      0.652      5.616
REMARK SMILES O=C(OCCOC(=O)c1ccc(-c2c3nc(c(-c4ccccc4)c4ccc([nH]4)c(-c4ccccc4)c4nc(c(-c5ccccc5)c5ccc2[nH]5)C=C4)C=C3)cc1)c1ccc(NC(=O)[C@@H]2CC=CC[C@H]2C(=O)Nc2cccc([N+](=O)[O-])c2)cc1
REMARK SMILES IDX 3 1 2 2 1 3 57 4 58 5 83 6 59 7 82 8 60 9 61 10 62 11 63 13
REMARK SMILES IDX 64 14 65 15 69 16 66 17 68 18 67 19 70 20 71 21 72 22 73 24
REMARK SMILES IDX 74 25 81 26 75 27 77 28 76 29 78 30 79 31 80 32 4 33 5 34
REMARK SMILES IDX 6 35 7 36 8 37 9 38 10 39 56 40 11 41 55 42 12 43 13 44
REMARK SMILES IDX 14 45 49 46 15 47 54 48 48 49 50 50 16 51 53 52 47 53 46 54
REMARK SMILES IDX 17 56 39 57 24 58 38 59 25 60 28 61 37 62 51 63 26 64 27 65
REMARK SMILES IDX 36 67 52 68 29 69 18 70 19 71 23 72 20 73 22 74 21 75 40 76
REMARK SMILES IDX 41 77 45 78 42 79 44 80 43 81 30 82 31 83 35 84 32 85 34 86
REMARK SMILES IDX 33 87
REMARK H PARENT 61 12 72 23 50 55 28 66
REMARK Flexibility Score: inf
ROOT
ATOM      1  O   UNL A   1      32.651  30.180  27.343  1.00  0.00    -0.458 OA
ENDROOT
BRANCH   1   2
ATOM      2  C   UNL A   1      33.523  29.177  27.063  1.00  0.00     0.338 C 
ATOM      3  O   UNL A   1      34.565  29.097  27.712  1.00  0.00    -0.246 OA
BRANCH   2   4
ATOM      4  C   UNL A   1      33.274  28.109  26.039  1.00  0.00     0.060 A 
ATOM      5  C   UNL A   1      33.813  28.117  24.765  1.00  0.00     0.018 A 
ATOM      6  C   UNL A   1      32.594  26.940  26.429  1.00  0.00     0.018 A 
ATOM      7  C   UNL A   1      33.702  27.008  23.930  1.00  0.00     0.027 A 
ATOM      8  C   UNL A   1      32.442  25.838  25.552  1.00  0.00     0.027 A 
ATOM      9  C   UNL A   1      32.985  25.878  24.272  1.00  0.00     0.041 A 
BRANCH   9  10
ATOM     10  N   UNL A   1      32.923  24.769  23.401  1.00  0.00    -0.326 N 
ATOM     11  C   UNL A   1      33.298  23.449  23.604  1.00  0.00     0.228 C 
ATOM     12  H   UNL A   1      32.556  24.963  22.508  1.00  0.00     0.169 HD
ATOM     13  O   UNL A   1      32.865  22.578  22.848  1.00  0.00    -0.274 OA
BRANCH  11  14
ATOM     14  C   UNL A   1      34.405  23.129  24.624  1.00  0.00     0.095 C 
ATOM     15  C   UNL A   1      35.719  23.745  24.101  1.00  0.00     0.041 C 
ATOM     16  C   UNL A   1      34.584  21.632  24.990  1.00  0.00     0.095 C 
ATOM     17  C   UNL A   1      36.868  23.457  25.020  1.00  0.00    -0.030 C 
ATOM     18  C   UNL A   1      36.015  21.165  25.348  1.00  0.00     0.041 C 
ATOM     19  C   UNL A   1      36.995  22.262  25.606  1.00  0.00    -0.030 C 
BRANCH  16  20
ATOM     20  C   UNL A   1      33.646  21.026  26.039  1.00  0.00     0.228 C 
ATOM     21  O   UNL A   1      33.326  21.735  27.004  1.00  0.00    -0.274 OA
ATOM     22  N   UNL A   1      33.028  19.807  25.983  1.00  0.00    -0.326 N 
ATOM     23  H   UNL A   1      32.236  19.780  26.567  1.00  0.00     0.169 HD
BRANCH  22  24
ATOM     24  C   UNL A   1      33.215  18.580  25.315  1.00  0.00     0.048 A 
ATOM     25  C   UNL A   1      33.436  18.620  23.933  1.00  0.00     0.026 A 
ATOM     26  C   UNL A   1      33.052  17.331  25.893  1.00  0.00     0.111 A 
ATOM     27  C   UNL A   1      33.514  17.443  23.170  1.00  0.00     0.009 A 
ATOM     28  C   UNL A   1      33.058  16.153  25.133  1.00  0.00     0.271 A 
ATOM     29  C   UNL A   1      33.310  16.199  23.765  1.00  0.00     0.086 A 
BRANCH  28  30
ATOM     30  N   UNL A   1      32.700  14.883  25.786  1.00  0.00     0.062 N 
ATOM     31  O   UNL A   1      31.800  14.910  26.634  1.00  0.00    -0.258 OA
ATOM     32  O   UNL A   1      33.347  13.873  25.478  1.00  0.00    -0.258 OA
ENDBRANCH  28  30
ENDBRANCH  22  24
ENDBRANCH  16  20
ENDBRANCH  11  14
ENDBRANCH   9  10
ENDBRANCH   2   4
ENDBRANCH   1   2
BRANCH   1  33
ATOM     33  C   UNL A   1      31.789  30.913  26.447  1.00  0.00     0.275 C 
BRANCH  33  34
ATOM     34  C   UNL A   1      31.438  32.297  27.020  1.00  0.00     0.275 C 
BRANCH  34  35
ATOM     35  O   UNL A   1      32.572  33.177  26.894  1.00  0.00    -0.458 OA
BRANCH  35  36
ATOM     36  C   UNL A   1      32.973  33.826  28.014  1.00  0.00     0.338 C 
ATOM     37  O   UNL A   1      32.497  34.845  28.465  1.00  0.00    -0.246 OA
BRANCH  36  38
ATOM     38  C   UNL A   1      34.305  33.278  28.388  1.00  0.00     0.060 A 
ATOM     39  C   UNL A   1      35.512  33.692  27.814  1.00  0.00     0.016 A 
ATOM     40  C   UNL A   1      34.325  32.423  29.490  1.00  0.00     0.016 A 
ATOM     41  C   UNL A   1      36.733  33.215  28.325  1.00  0.00     0.010 A 
ATOM     42  C   UNL A   1      35.538  32.034  30.055  1.00  0.00     0.010 A 
ATOM     43  C   UNL A   1      36.760  32.372  29.448  1.00  0.00    -0.014 A 
BRANCH  43  44
ATOM     44  C   UNL A   1      38.003  31.702  29.933  1.00  0.00     0.031 A 
ATOM     45  C   UNL A   1      38.881  32.438  30.920  1.00  0.00     0.074 A 
ATOM     46  C   UNL A   1      38.414  30.504  29.474  1.00  0.00     0.049 A 
ATOM     47  N   UNL A   1      40.039  32.094  31.425  1.00  0.00    -0.248 NA
ATOM     48  C   UNL A   1      38.396  33.750  31.379  1.00  0.00     0.031 C 
ATOM     49  C   UNL A   1      37.700  29.663  28.518  1.00  0.00     0.029 A 
ATOM     50  N   UNL A   1      39.566  29.797  29.738  1.00  0.00    -0.354 N 
ATOM     51  C   UNL A   1      40.426  33.157  32.231  1.00  0.00     0.074 A 
ATOM     52  C   UNL A   1      39.424  34.186  32.087  1.00  0.00     0.031 C 
ATOM     53  C   UNL A   1      38.442  28.575  28.246  1.00  0.00     0.029 A 
ATOM     54  C   UNL A   1      39.685  28.636  29.013  1.00  0.00     0.049 A 
ATOM     55  H   UNL A   1      40.242  30.096  30.388  1.00  0.00     0.167 HD
ATOM     56  C   UNL A   1      41.494  33.266  33.057  1.00  0.00     0.031 A 
ATOM     57  C   UNL A   1      40.675  27.721  28.969  1.00  0.00     0.031 A 
ATOM     58  C   UNL A   1      42.491  32.250  33.231  1.00  0.00     0.049 A 
ATOM     59  C   UNL A   1      41.872  27.860  29.873  1.00  0.00     0.074 A 
ATOM     60  C   UNL A   1      43.556  32.231  34.113  1.00  0.00     0.029 A 
ATOM     61  N   UNL A   1      42.552  31.076  32.499  1.00  0.00    -0.354 N 
ATOM     62  N   UNL A   1      42.159  28.814  30.724  1.00  0.00    -0.248 NA
ATOM     63  C   UNL A   1      42.865  26.773  29.836  1.00  0.00     0.031 C 
ATOM     64  C   UNL A   1      44.297  31.069  33.875  1.00  0.00     0.029 A 
ATOM     65  C   UNL A   1      43.657  30.339  32.886  1.00  0.00     0.049 A 
ATOM     66  H   UNL A   1      41.906  30.807  31.806  1.00  0.00     0.167 HD
ATOM     67  C   UNL A   1      43.335  28.424  31.353  1.00  0.00     0.074 A 
ATOM     68  C   UNL A   1      43.714  27.148  30.786  1.00  0.00     0.031 C 
ATOM     69  C   UNL A   1      44.027  29.064  32.328  1.00  0.00     0.031 A 
BRANCH  56  70
ATOM     70  C   UNL A   1      41.622  34.548  33.830  1.00  0.00    -0.014 A 
ATOM     71  C   UNL A   1      42.431  35.600  33.370  1.00  0.00     0.009 A 
ATOM     72  C   UNL A   1      40.944  34.696  35.050  1.00  0.00     0.009 A 
ATOM     73  C   UNL A   1      42.611  36.746  34.145  1.00  0.00     0.001 A 
ATOM     74  C   UNL A   1      41.096  35.859  35.805  1.00  0.00     0.001 A 
ATOM     75  C   UNL A   1      41.942  36.875  35.362  1.00  0.00     0.000 A 
ENDBRANCH  56  70
BRANCH  57  76
ATOM     76  C   UNL A   1      40.561  26.555  28.052  1.00  0.00    -0.014 A 
ATOM     77  C   UNL A   1      39.944  25.369  28.475  1.00  0.00     0.009 A 
ATOM     78  C   UNL A   1      41.072  26.626  26.746  1.00  0.00     0.009 A 
ATOM     79  C   UNL A   1      39.857  24.270  27.616  1.00  0.00     0.001 A 
ATOM     80  C   UNL A   1      40.964  25.533  25.883  1.00  0.00     0.001 A 
ATOM     81  C   UNL A   1      40.362  24.354  26.320  1.00  0.00     0.000 A 
ENDBRANCH  57  76
BRANCH  69  82
ATOM     82  C   UNL A   1      45.244  28.387  32.893  1.00  0.00    -0.014 A 
ATOM     83  C   UNL A   1      45.150  27.469  33.949  1.00  0.00     0.009 A 
ATOM     84  C   UNL A   1      46.495  28.606  32.293  1.00  0.00     0.009 A 
ATOM     85  C   UNL A   1      46.288  26.796  34.402  1.00  0.00     0.001 A 
ATOM     86  C   UNL A   1      47.625  27.913  32.730  1.00  0.00     0.001 A 
ATOM     87  C   UNL A   1      47.521  27.012  33.787  1.00  0.00     0.000 A 
ENDBRANCH  69  82
ENDBRANCH  43  44
ENDBRANCH  36  38
ENDBRANCH  35  36
ENDBRANCH  34  35
ENDBRANCH  33  34
ENDBRANCH   1  33
TORSDOF 16
ENDMDL
MODEL 3
REMARK VINA RESULT:     -12.3      2.842      6.676
REMARK SMILES O=C(OCCOC(=O)c1ccc(-c2c3nc(c(-c4ccccc4)c4ccc([nH]4)c(-c4ccccc4)c4nc(c(-c5ccccc5)c5ccc2[nH]5)C=C4)C=C3)cc1)c1ccc(NC(=O)[C@@H]2CC=CC[C@H]2C(=O)Nc2cccc([N+](=O)[O-])c2)cc1
REMARK SMILES IDX 3 1 2 2 1 3 57 4 58 5 83 6 59 7 82 8 60 9 61 10 62 11 63 13
REMARK SMILES IDX 64 14 65 15 69 16 66 17 68 18 67 19 70 20 71 21 72 22 73 24
REMARK SMILES IDX 74 25 81 26 75 27 77 28 76 29 78 30 79 31 80 32 4 33 5 34
REMARK SMILES IDX 6 35 7 36 8 37 9 38 10 39 56 40 11 41 55 42 12 43 13 44
REMARK SMILES IDX 14 45 49 46 15 47 54 48 48 49 50 50 16 51 53 52 47 53 46 54
REMARK SMILES IDX 17 56 39 57 24 58 38 59 25 60 28 61 37 62 51 63 26 64 27 65
REMARK SMILES IDX 36 67 52 68 29 69 18 70 19 71 23 72 20 73 22 74 21 75 40 76
REMARK SMILES IDX 41 77 45 78 42 79 44 80 43 81 30 82 31 83 35 84 32 85 34 86
REMARK SMILES IDX 33 87
REMARK H PARENT 61 12 72 23 50 55 28 66
REMARK Flexibility Score: inf
ROOT
ATOM      1  O   UNL A   1      31.729  30.211  25.279  1.00  0.00    -0.458 OA
ENDROOT
BRANCH   1   2
ATOM      2  C   UNL A   1      30.999  29.459  24.415  1.00  0.00     0.338 C 
ATOM      3  O   UNL A   1      29.979  29.942  23.924  1.00  0.00    -0.246 OA
BRANCH   2   4
ATOM      4  C   UNL A   1      31.385  28.082  23.966  1.00  0.00     0.060 A 
ATOM      5  C   UNL A   1      30.731  26.928  24.357  1.00  0.00     0.018 A 
ATOM      6  C   UNL A   1      32.360  27.944  22.960  1.00  0.00     0.018 A 
ATOM      7  C   UNL A   1      31.014  25.703  23.758  1.00  0.00     0.027 A 
ATOM      8  C   UNL A   1      32.676  26.684  22.396  1.00  0.00     0.027 A 
ATOM      9  C   UNL A   1      32.010  25.538  22.816  1.00  0.00     0.041 A 
BRANCH   9  10
ATOM     10  N   UNL A   1      32.242  24.279  22.220  1.00  0.00    -0.326 N 
ATOM     11  C   UNL A   1      32.728  23.103  22.773  1.00  0.00     0.228 C 
ATOM     12  H   UNL A   1      32.025  24.228  21.261  1.00  0.00     0.169 HD
ATOM     13  O   UNL A   1      32.547  22.040  22.178  1.00  0.00    -0.274 OA
BRANCH  11  14
ATOM     14  C   UNL A   1      33.658  23.173  23.996  1.00  0.00     0.095 C 
ATOM     15  C   UNL A   1      34.920  23.957  23.583  1.00  0.00     0.041 C 
ATOM     16  C   UNL A   1      34.020  21.818  24.658  1.00  0.00     0.095 C 
ATOM     17  C   UNL A   1      35.905  24.052  24.709  1.00  0.00    -0.030 C 
ATOM     18  C   UNL A   1      35.416  21.712  25.319  1.00  0.00     0.041 C 
ATOM     19  C   UNL A   1      36.123  23.011  25.520  1.00  0.00    -0.030 C 
BRANCH  16  20
ATOM     20  C   UNL A   1      33.019  21.200  25.639  1.00  0.00     0.228 C 
ATOM     21  O   UNL A   1      32.488  21.952  26.470  1.00  0.00    -0.274 OA
ATOM     22  N   UNL A   1      32.557  19.913  25.642  1.00  0.00    -0.326 N 
ATOM     23  H   UNL A   1      31.699  19.841  26.119  1.00  0.00     0.169 HD
BRANCH  22  24
ATOM     24  C   UNL A   1      32.975  18.661  25.146  1.00  0.00     0.048 A 
ATOM     25  C   UNL A   1      33.509  18.621  23.852  1.00  0.00     0.026 A 
ATOM     26  C   UNL A   1      32.763  17.447  25.780  1.00  0.00     0.111 A 
ATOM     27  C   UNL A   1      33.839  17.403  23.233  1.00  0.00     0.009 A 
ATOM     28  C   UNL A   1      33.023  16.223  25.149  1.00  0.00     0.271 A 
ATOM     29  C   UNL A   1      33.583  16.193  23.875  1.00  0.00     0.086 A 
BRANCH  28  30
ATOM     30  N   UNL A   1      32.607  14.978  25.813  1.00  0.00     0.062 N 
ATOM     31  O   UNL A   1      33.281  13.962  25.597  1.00  0.00    -0.258 OA
ATOM     32  O   UNL A   1      31.586  15.009  26.515  1.00  0.00    -0.258 OA
ENDBRANCH  28  30
ENDBRANCH  22  24
ENDBRANCH  16  20
ENDBRANCH  11  14
ENDBRANCH   9  10
ENDBRANCH   2   4
ENDBRANCH   1   2
BRANCH   1  33
ATOM     33  C   UNL A   1      32.222  29.867  26.592  1.00  0.00     0.275 C 
BRANCH  33  34
ATOM     34  C   UNL A   1      32.907  31.070  27.262  1.00  0.00     0.275 C 
BRANCH  34  35
ATOM     35  O   UNL A   1      34.265  30.728  27.603  1.00  0.00    -0.458 OA
BRANCH  35  36
ATOM     36  C   UNL A   1      34.770  31.274  28.736  1.00  0.00     0.338 C 
ATOM     37  O   UNL A   1      34.362  32.264  29.303  1.00  0.00    -0.246 OA
BRANCH  36  38
ATOM     38  C   UNL A   1      36.109  30.664  28.958  1.00  0.00     0.060 A 
ATOM     39  C   UNL A   1      36.529  30.116  30.176  1.00  0.00     0.016 A 
ATOM     40  C   UNL A   1      36.902  30.502  27.822  1.00  0.00     0.016 A 
ATOM     41  C   UNL A   1      37.761  29.441  30.255  1.00  0.00     0.010 A 
ATOM     42  C   UNL A   1      38.071  29.747  27.883  1.00  0.00     0.010 A 
ATOM     43  C   UNL A   1      38.552  29.256  29.110  1.00  0.00    -0.014 A 
BRANCH  43  44
ATOM     44  C   UNL A   1      39.936  28.700  29.158  1.00  0.00     0.031 A 
ATOM     45  C   UNL A   1      41.079  29.635  29.488  1.00  0.00     0.074 A 
ATOM     46  C   UNL A   1      40.221  27.420  28.849  1.00  0.00     0.049 A 
ATOM     47  N   UNL A   1      42.367  29.401  29.517  1.00  0.00    -0.248 NA
ATOM     48  C   UNL A   1      40.718  31.027  29.804  1.00  0.00     0.031 C 
ATOM     49  C   UNL A   1      39.249  26.387  28.501  1.00  0.00     0.029 A 
ATOM     50  N   UNL A   1      41.435  26.777  28.751  1.00  0.00    -0.354 N 
ATOM     51  C   UNL A   1      42.960  30.618  29.823  1.00  0.00     0.074 A 
ATOM     52  C   UNL A   1      41.905  31.601  29.891  1.00  0.00     0.031 C 
ATOM     53  C   UNL A   1      39.902  25.253  28.190  1.00  0.00     0.029 A 
ATOM     54  C   UNL A   1      41.341  25.474  28.323  1.00  0.00     0.049 A 
ATOM     55  H   UNL A   1      42.291  27.210  28.968  1.00  0.00     0.167 HD
ATOM     56  C   UNL A   1      44.261  30.903  30.071  1.00  0.00     0.031 A 
ATOM     57  C   UNL A   1      42.297  24.558  28.069  1.00  0.00     0.031 A 
ATOM     58  C   UNL A   1      45.324  29.941  30.029  1.00  0.00     0.049 A 
ATOM     59  C   UNL A   1      43.745  24.887  28.324  1.00  0.00     0.074 A 
ATOM     60  C   UNL A   1      46.657  30.115  30.355  1.00  0.00     0.029 A 
ATOM     61  N   UNL A   1      45.176  28.625  29.622  1.00  0.00    -0.354 N 
ATOM     62  N   UNL A   1      44.276  26.012  28.736  1.00  0.00    -0.248 NA
ATOM     63  C   UNL A   1      44.723  23.806  28.114  1.00  0.00     0.031 C 
ATOM     64  C   UNL A   1      47.328  28.917  30.092  1.00  0.00     0.029 A 
ATOM     65  C   UNL A   1      46.401  27.983  29.659  1.00  0.00     0.049 A 
ATOM     66  H   UNL A   1      44.327  28.210  29.348  1.00  0.00     0.167 HD
ATOM     67  C   UNL A   1      45.637  25.763  28.878  1.00  0.00     0.074 A 
ATOM     68  C   UNL A   1      45.853  24.382  28.504  1.00  0.00     0.031 C 
ATOM     69  C   UNL A   1      46.613  26.606  29.297  1.00  0.00     0.031 A 
BRANCH  56  70
ATOM     70  C   UNL A   1      44.589  32.330  30.409  1.00  0.00    -0.014 A 
ATOM     71  C   UNL A   1      44.936  33.255  29.411  1.00  0.00     0.009 A 
ATOM     72  C   UNL A   1      44.574  32.750  31.748  1.00  0.00     0.009 A 
ATOM     73  C   UNL A   1      45.326  34.551  29.751  1.00  0.00     0.001 A 
ATOM     74  C   UNL A   1      44.928  34.057  32.082  1.00  0.00     0.001 A 
ATOM     75  C   UNL A   1      45.320  34.951  31.086  1.00  0.00     0.000 A 
ENDBRANCH  56  70
BRANCH  57  76
ATOM     76  C   UNL A   1      41.913  23.209  27.574  1.00  0.00    -0.014 A 
ATOM     77  C   UNL A   1      41.696  22.983  26.206  1.00  0.00     0.009 A 
ATOM     78  C   UNL A   1      41.761  22.140  28.471  1.00  0.00     0.009 A 
ATOM     79  C   UNL A   1      41.316  21.719  25.749  1.00  0.00     0.001 A 
ATOM     80  C   UNL A   1      41.402  20.872  28.007  1.00  0.00     0.001 A 
ATOM     81  C   UNL A   1      41.175  20.663  26.648  1.00  0.00     0.000 A 
ENDBRANCH  57  76
BRANCH  69  82
ATOM     82  C   UNL A   1      48.008  26.062  29.428  1.00  0.00    -0.014 A 
ATOM     83  C   UNL A   1      48.873  25.984  28.327  1.00  0.00     0.009 A 
ATOM     84  C   UNL A   1      48.493  25.709  30.699  1.00  0.00     0.009 A 
ATOM     85  C   UNL A   1      50.191  25.548  28.494  1.00  0.00     0.001 A 
ATOM     86  C   UNL A   1      49.817  25.299  30.867  1.00  0.00     0.001 A 
ATOM     87  C   UNL A   1      50.663  25.214  29.764  1.00  0.00     0.000 A 
ENDBRANCH  69  82
ENDBRANCH  43  44
ENDBRANCH  36  38
ENDBRANCH  35  36
ENDBRANCH  34  35
ENDBRANCH  33  34
ENDBRANCH   1  33
TORSDOF 16
ENDMDL
