MODEL 1
REMARK VINA RESULT:     -12.7      0.000      0.000
REMARK SMILES CC1=C(C(=O)Nc2ccccc2)[C@@H](c2ccc(C(=O)OCCOC(=O)c3ccc(-c4c5nc(c(-c6ccccc6)c6ccc([nH]6)c(-c6ccccc6)c6nc(c(-c7ccccc7)c7ccc4[nH]7)C=C6)C=C5)cc3)cc2)n2ncnc2N1
REMARK SMILES IDX 21 1 20 2 18 3 19 4 17 5 14 6 15 7 75 8 16 9 74 10 13 11
REMARK SMILES IDX 1 12 2 13 3 14 81 15 80 16 76 18 79 19 77 20 78 21 4 22 5 23
REMARK SMILES IDX 6 24 7 26 8 27 12 28 9 29 11 30 10 31 22 32 23 33 24 34
REMARK SMILES IDX 25 35 26 36 27 37 73 38 28 39 72 40 29 41 30 42 31 43 66 44
REMARK SMILES IDX 32 45 71 46 65 47 67 48 33 49 70 50 64 51 63 52 34 54 56 55
REMARK SMILES IDX 41 56 55 57 42 58 45 59 54 60 68 61 43 62 44 63 53 65 69 66
REMARK SMILES IDX 46 67 35 68 36 69 40 70 37 71 39 72 38 73 57 74 58 75 62 76
REMARK SMILES IDX 59 77 61 78 60 79 47 80 48 81 52 82 49 83 51 84 50 85
REMARK H PARENT 81 17 6 25 67 53 45 64
REMARK Flexibility Score: inf
ROOT
ATOM      1  C   UNL A   1      32.379  29.957  25.750  1.00  0.00     0.275 C 
ENDROOT
BRANCH   1   2
ATOM      2  O   UNL A   1      33.269  29.016  25.129  1.00  0.00    -0.458 OA
BRANCH   2   3
ATOM      3  C   UNL A   1      32.811  28.431  23.985  1.00  0.00     0.338 C 
ATOM      4  O   UNL A   1      32.128  28.953  23.137  1.00  0.00    -0.246 OA
BRANCH   3   5
ATOM      5  C   UNL A   1      33.367  27.053  23.864  1.00  0.00     0.060 A 
ATOM      6  C   UNL A   1      34.288  24.415  23.547  1.00  0.00    -0.019 A 
ATOM      7  C   UNL A   1      33.956  25.182  22.422  1.00  0.00     0.007 A 
ATOM      8  C   UNL A   1      34.220  25.012  24.822  1.00  0.00     0.007 A 
ATOM      9  C   UNL A   1      33.493  26.492  22.584  1.00  0.00     0.016 A 
ATOM     10  C   UNL A   1      33.763  26.318  24.982  1.00  0.00     0.016 A 
BRANCH   6  11
ATOM     11  C   UNL A   1      34.553  22.915  23.470  1.00  0.00     0.179 C 
ATOM     12  C   UNL A   1      32.723  19.554  24.307  1.00  0.00     0.065 C 
ATOM     13  C   UNL A   1      33.564  20.805  24.377  1.00  0.00     0.026 C 
ATOM     14  C   UNL A   1      33.363  21.954  23.671  1.00  0.00     0.065 C 
ATOM     15  N   UNL A   1      34.708  20.643  25.152  1.00  0.00    -0.328 N 
ATOM     16  C   UNL A   1      35.743  21.494  25.149  1.00  0.00     0.226 A 
ATOM     17  H   UNL A   1      34.760  19.855  25.739  1.00  0.00     0.169 HD
ATOM     18  N   UNL A   1      35.696  22.587  24.337  1.00  0.00    -0.219 N 
ATOM     19  N   UNL A   1      36.891  21.458  25.777  1.00  0.00    -0.200 NA
ATOM     20  N   UNL A   1      36.870  23.258  24.357  1.00  0.00    -0.157 NA
ATOM     21  C   UNL A   1      37.542  22.552  25.272  1.00  0.00     0.248 A 
BRANCH  14  22
ATOM     22  C   UNL A   1      32.220  22.269  22.760  1.00  0.00     0.255 C 
ATOM     23  O   UNL A   1      32.153  21.664  21.685  1.00  0.00    -0.269 OA
ATOM     24  N   UNL A   1      31.206  23.135  23.041  1.00  0.00    -0.322 N 
ATOM     25  H   UNL A   1      30.548  23.215  22.313  1.00  0.00     0.170 HD
BRANCH  24  26
ATOM     26  C   UNL A   1      30.908  23.935  24.149  1.00  0.00     0.041 A 
ATOM     27  C   UNL A   1      30.380  25.201  23.862  1.00  0.00     0.026 A 
ATOM     28  C   UNL A   1      31.025  23.520  25.475  1.00  0.00     0.026 A 
ATOM     29  C   UNL A   1      29.839  25.987  24.878  1.00  0.00     0.002 A 
ATOM     30  C   UNL A   1      30.526  24.335  26.499  1.00  0.00     0.002 A 
ATOM     31  C   UNL A   1      29.902  25.548  26.197  1.00  0.00     0.000 A 
ENDBRANCH  24  26
ENDBRANCH  14  22
ENDBRANCH   6  11
ENDBRANCH   3   5
ENDBRANCH   2   3
ENDBRANCH   1   2
BRANCH   1  32
ATOM     32  C   UNL A   1      32.980  30.501  27.039  1.00  0.00     0.275 C 
BRANCH  32  33
ATOM     33  O   UNL A   1      34.403  30.591  26.953  1.00  0.00    -0.458 OA
BRANCH  33  34
ATOM     34  C   UNL A   1      34.976  31.558  27.703  1.00  0.00     0.338 C 
ATOM     35  O   UNL A   1      34.786  32.762  27.626  1.00  0.00    -0.246 OA
BRANCH  34  36
ATOM     36  C   UNL A   1      36.050  30.968  28.516  1.00  0.00     0.060 A 
ATOM     37  C   UNL A   1      37.165  31.769  28.785  1.00  0.00     0.016 A 
ATOM     38  C   UNL A   1      36.063  29.590  28.768  1.00  0.00     0.016 A 
ATOM     39  C   UNL A   1      38.354  31.157  29.133  1.00  0.00     0.010 A 
ATOM     40  C   UNL A   1      37.251  28.980  29.112  1.00  0.00     0.010 A 
ATOM     41  C   UNL A   1      38.401  29.760  29.208  1.00  0.00    -0.014 A 
BRANCH  41  42
ATOM     42  C   UNL A   1      39.698  29.131  29.370  1.00  0.00     0.031 A 
ATOM     43  C   UNL A   1      40.140  28.910  30.766  1.00  0.00     0.074 A 
ATOM     44  C   UNL A   1      40.402  28.664  28.322  1.00  0.00     0.049 A 
ATOM     45  N   UNL A   1      41.226  29.318  31.336  1.00  0.00    -0.248 NA
ATOM     46  C   UNL A   1      39.219  28.191  31.658  1.00  0.00     0.031 C 
ATOM     47  C   UNL A   1      39.968  28.523  26.927  1.00  0.00     0.029 A 
ATOM     48  N   UNL A   1      41.636  28.091  28.324  1.00  0.00    -0.354 N 
ATOM     49  C   UNL A   1      41.196  28.802  32.629  1.00  0.00     0.074 A 
ATOM     50  C   UNL A   1      39.900  28.196  32.802  1.00  0.00     0.031 C 
ATOM     51  C   UNL A   1      40.821  27.695  26.283  1.00  0.00     0.029 A 
ATOM     52  C   UNL A   1      41.921  27.371  27.176  1.00  0.00     0.049 A 
ATOM     53  H   UNL A   1      42.267  28.180  29.074  1.00  0.00     0.167 HD
ATOM     54  C   UNL A   1      42.296  28.765  33.426  1.00  0.00     0.031 A 
ATOM     55  C   UNL A   1      42.950  26.507  27.007  1.00  0.00     0.031 A 
ATOM     56  C   UNL A   1      43.335  29.645  32.974  1.00  0.00     0.049 A 
ATOM     57  C   UNL A   1      43.961  26.788  28.051  1.00  0.00     0.074 A 
ATOM     58  C   UNL A   1      43.455  31.012  32.826  1.00  0.00     0.029 A 
ATOM     59  N   UNL A   1      44.374  29.096  32.263  1.00  0.00    -0.354 N 
ATOM     60  N   UNL A   1      44.680  27.873  28.088  1.00  0.00    -0.248 NA
ATOM     61  C   UNL A   1      43.900  26.040  29.297  1.00  0.00     0.031 C 
ATOM     62  C   UNL A   1      44.263  31.189  31.666  1.00  0.00     0.029 A 
ATOM     63  C   UNL A   1      44.607  29.921  31.192  1.00  0.00     0.049 A 
ATOM     64  H   UNL A   1      44.861  28.268  32.481  1.00  0.00     0.167 HD
ATOM     65  C   UNL A   1      44.812  28.168  29.438  1.00  0.00     0.074 A 
ATOM     66  C   UNL A   1      44.418  26.946  30.132  1.00  0.00     0.031 C 
ATOM     67  C   UNL A   1      44.958  29.457  29.868  1.00  0.00     0.031 A 
BRANCH  54  68
ATOM     68  C   UNL A   1      42.541  27.689  34.448  1.00  0.00    -0.014 A 
ATOM     69  C   UNL A   1      43.041  26.445  34.029  1.00  0.00     0.009 A 
ATOM     70  C   UNL A   1      42.052  27.767  35.767  1.00  0.00     0.009 A 
ATOM     71  C   UNL A   1      43.011  25.328  34.871  1.00  0.00     0.001 A 
ATOM     72  C   UNL A   1      42.058  26.665  36.624  1.00  0.00     0.001 A 
ATOM     73  C   UNL A   1      42.516  25.438  36.168  1.00  0.00     0.000 A 
ENDBRANCH  54  68
BRANCH  55  74
ATOM     74  C   UNL A   1      42.970  25.279  26.189  1.00  0.00    -0.014 A 
ATOM     75  C   UNL A   1      43.991  25.051  25.256  1.00  0.00     0.009 A 
ATOM     76  C   UNL A   1      42.114  24.207  26.504  1.00  0.00     0.009 A 
ATOM     77  C   UNL A   1      44.166  23.784  24.682  1.00  0.00     0.001 A 
ATOM     78  C   UNL A   1      42.285  22.946  25.928  1.00  0.00     0.001 A 
ATOM     79  C   UNL A   1      43.321  22.731  25.027  1.00  0.00     0.000 A 
ENDBRANCH  55  74
BRANCH  67  80
ATOM     80  C   UNL A   1      45.197  30.523  28.826  1.00  0.00    -0.014 A 
ATOM     81  C   UNL A   1      46.488  30.964  28.482  1.00  0.00     0.009 A 
ATOM     82  C   UNL A   1      44.114  30.972  28.057  1.00  0.00     0.009 A 
ATOM     83  C   UNL A   1      46.684  31.854  27.422  1.00  0.00     0.001 A 
ATOM     84  C   UNL A   1      44.313  31.844  26.983  1.00  0.00     0.001 A 
ATOM     85  C   UNL A   1      45.596  32.289  26.669  1.00  0.00     0.000 A 
ENDBRANCH  67  80
ENDBRANCH  41  42
ENDBRANCH  34  36
ENDBRANCH  33  34
ENDBRANCH  32  33
ENDBRANCH   1  32
TORSDOF 14
ENDMDL
MODEL 2
REMARK VINA RESULT:     -12.6      2.045      3.771
REMARK SMILES CC1=C(C(=O)Nc2ccccc2)[C@@H](c2ccc(C(=O)OCCOC(=O)c3ccc(-c4c5nc(c(-c6ccccc6)c6ccc([nH]6)c(-c6ccccc6)c6nc(c(-c7ccccc7)c7ccc4[nH]7)C=C6)C=C5)cc3)cc2)n2ncnc2N1
REMARK SMILES IDX 21 1 20 2 18 3 19 4 17 5 14 6 15 7 75 8 16 9 74 10 13 11
REMARK SMILES IDX 1 12 2 13 3 14 81 15 80 16 76 18 79 19 77 20 78 21 4 22 5 23
REMARK SMILES IDX 6 24 7 26 8 27 12 28 9 29 11 30 10 31 22 32 23 33 24 34
REMARK SMILES IDX 25 35 26 36 27 37 73 38 28 39 72 40 29 41 30 42 31 43 66 44
REMARK SMILES IDX 32 45 71 46 65 47 67 48 33 49 70 50 64 51 63 52 34 54 56 55
REMARK SMILES IDX 41 56 55 57 42 58 45 59 54 60 68 61 43 62 44 63 53 65 69 66
REMARK SMILES IDX 46 67 35 68 36 69 40 70 37 71 39 72 38 73 57 74 58 75 62 76
REMARK SMILES IDX 59 77 61 78 60 79 47 80 48 81 52 82 49 83 51 84 50 85
REMARK H PARENT 81 17 6 25 67 53 45 64
REMARK Flexibility Score: inf
ROOT
ATOM      1  C   UNL A   1      34.450  32.559  28.351  1.00  0.00     0.275 C 
ENDROOT
BRANCH   1   2
ATOM      2  O   UNL A   1      34.024  31.189  28.292  1.00  0.00    -0.458 OA
BRANCH   2   3
ATOM      3  C   UNL A   1      34.833  30.344  27.590  1.00  0.00     0.338 C 
ATOM      4  O   UNL A   1      36.030  30.440  27.462  1.00  0.00    -0.246 OA
BRANCH   3   5
ATOM      5  C   UNL A   1      34.037  29.194  27.074  1.00  0.00     0.060 A 
ATOM      6  C   UNL A   1      32.576  27.070  25.950  1.00  0.00    -0.019 A 
ATOM      7  C   UNL A   1      33.924  27.250  25.613  1.00  0.00     0.007 A 
ATOM      8  C   UNL A   1      31.995  27.923  26.910  1.00  0.00     0.007 A 
ATOM      9  C   UNL A   1      34.646  28.311  26.169  1.00  0.00     0.016 A 
ATOM     10  C   UNL A   1      32.717  28.977  27.468  1.00  0.00     0.016 A 
BRANCH   6  11
ATOM     11  C   UNL A   1      31.663  26.105  25.202  1.00  0.00     0.179 C 
ATOM     12  C   UNL A   1      31.787  22.479  23.723  1.00  0.00     0.065 C 
ATOM     13  C   UNL A   1      31.871  23.975  23.910  1.00  0.00     0.026 C 
ATOM     14  C   UNL A   1      32.102  24.631  25.082  1.00  0.00     0.065 C 
ATOM     15  N   UNL A   1      31.534  24.681  22.759  1.00  0.00    -0.328 N 
ATOM     16  C   UNL A   1      31.263  25.993  22.735  1.00  0.00     0.226 A 
ATOM     17  H   UNL A   1      31.493  24.185  21.909  1.00  0.00     0.169 HD
ATOM     18  N   UNL A   1      31.306  26.696  23.902  1.00  0.00    -0.219 N 
ATOM     19  N   UNL A   1      30.893  26.780  21.758  1.00  0.00    -0.200 NA
ATOM     20  N   UNL A   1      30.876  27.965  23.721  1.00  0.00    -0.157 NA
ATOM     21  C   UNL A   1      30.675  27.970  22.399  1.00  0.00     0.248 A 
BRANCH  14  22
ATOM     22  C   UNL A   1      32.427  24.026  26.410  1.00  0.00     0.255 C 
ATOM     23  O   UNL A   1      31.576  24.101  27.304  1.00  0.00    -0.269 OA
ATOM     24  N   UNL A   1      33.569  23.344  26.706  1.00  0.00    -0.322 N 
ATOM     25  H   UNL A   1      33.603  23.025  27.637  1.00  0.00     0.170 HD
BRANCH  24  26
ATOM     26  C   UNL A   1      34.703  23.004  25.960  1.00  0.00     0.041 A 
ATOM     27  C   UNL A   1      35.640  24.030  25.774  1.00  0.00     0.026 A 
ATOM     28  C   UNL A   1      34.978  21.723  25.483  1.00  0.00     0.026 A 
ATOM     29  C   UNL A   1      36.900  23.748  25.249  1.00  0.00     0.002 A 
ATOM     30  C   UNL A   1      36.227  21.455  24.909  1.00  0.00     0.002 A 
ATOM     31  C   UNL A   1      37.198  22.456  24.827  1.00  0.00     0.000 A 
ENDBRANCH  24  26
ENDBRANCH  14  22
ENDBRANCH   6  11
ENDBRANCH   3   5
ENDBRANCH   2   3
ENDBRANCH   1   2
BRANCH   1  32
ATOM     32  C   UNL A   1      34.402  33.082  29.780  1.00  0.00     0.275 C 
BRANCH  32  33
ATOM     33  O   UNL A   1      34.773  32.069  30.717  1.00  0.00    -0.458 OA
BRANCH  33  34
ATOM     34  C   UNL A   1      35.997  32.206  31.274  1.00  0.00     0.338 C 
ATOM     35  O   UNL A   1      36.351  33.055  32.077  1.00  0.00    -0.246 OA
BRANCH  34  36
ATOM     36  C   UNL A   1      36.937  31.293  30.608  1.00  0.00     0.060 A 
ATOM     37  C   UNL A   1      36.688  29.921  30.722  1.00  0.00     0.016 A 
ATOM     38  C   UNL A   1      38.160  31.776  30.123  1.00  0.00     0.016 A 
ATOM     39  C   UNL A   1      37.732  29.037  30.522  1.00  0.00     0.010 A 
ATOM     40  C   UNL A   1      39.202  30.894  29.927  1.00  0.00     0.010 A 
ATOM     41  C   UNL A   1      38.999  29.545  30.211  1.00  0.00    -0.014 A 
BRANCH  41  42
ATOM     42  C   UNL A   1      40.119  28.623  30.210  1.00  0.00     0.031 A 
ATOM     43  C   UNL A   1      40.790  28.420  31.515  1.00  0.00     0.074 A 
ATOM     44  C   UNL A   1      40.451  27.903  29.122  1.00  0.00     0.049 A 
ATOM     45  N   UNL A   1      42.038  28.587  31.807  1.00  0.00    -0.248 NA
ATOM     46  C   UNL A   1      39.945  28.040  32.655  1.00  0.00     0.031 C 
ATOM     47  C   UNL A   1      39.705  27.755  27.868  1.00  0.00     0.029 A 
ATOM     48  N   UNL A   1      41.490  27.037  28.971  1.00  0.00    -0.354 N 
ATOM     49  C   UNL A   1      42.172  28.212  33.141  1.00  0.00     0.074 A 
ATOM     50  C   UNL A   1      40.840  27.973  33.638  1.00  0.00     0.031 C 
ATOM     51  C   UNL A   1      40.183  26.684  27.195  1.00  0.00     0.029 A 
ATOM     52  C   UNL A   1      41.346  26.171  27.901  1.00  0.00     0.049 A 
ATOM     53  H   UNL A   1      42.272  27.028  29.569  1.00  0.00     0.167 HD
ATOM     54  C   UNL A   1      43.380  27.966  33.714  1.00  0.00     0.031 A 
ATOM     55  C   UNL A   1      42.086  25.062  27.661  1.00  0.00     0.031 A 
ATOM     56  C   UNL A   1      44.470  28.510  32.955  1.00  0.00     0.049 A 
ATOM     57  C   UNL A   1      43.336  25.168  28.446  1.00  0.00     0.074 A 
ATOM     58  C   UNL A   1      44.867  29.783  32.600  1.00  0.00     0.029 A 
ATOM     59  N   UNL A   1      45.175  27.654  32.144  1.00  0.00    -0.354 N 
ATOM     60  N   UNL A   1      44.276  26.034  28.197  1.00  0.00    -0.248 NA
ATOM     61  C   UNL A   1      43.376  24.572  29.773  1.00  0.00     0.031 C 
ATOM     62  C   UNL A   1      45.422  29.647  31.295  1.00  0.00     0.029 A 
ATOM     63  C   UNL A   1      45.354  28.297  30.945  1.00  0.00     0.049 A 
ATOM     64  H   UNL A   1      45.493  26.753  32.378  1.00  0.00     0.167 HD
ATOM     65  C   UNL A   1      44.763  26.402  29.443  1.00  0.00     0.074 A 
ATOM     66  C   UNL A   1      44.258  25.386  30.361  1.00  0.00     0.031 C 
ATOM     67  C   UNL A   1      45.292  27.644  29.656  1.00  0.00     0.031 A 
BRANCH  54  68
ATOM     68  C   UNL A   1      43.586  26.957  34.809  1.00  0.00    -0.014 A 
ATOM     69  C   UNL A   1      43.432  25.590  34.522  1.00  0.00     0.009 A 
ATOM     70  C   UNL A   1      43.670  27.317  36.168  1.00  0.00     0.009 A 
ATOM     71  C   UNL A   1      43.321  24.641  35.545  1.00  0.00     0.001 A 
ATOM     72  C   UNL A   1      43.600  26.368  37.190  1.00  0.00     0.001 A 
ATOM     73  C   UNL A   1      43.402  25.031  36.879  1.00  0.00     0.000 A 
ENDBRANCH  54  68
BRANCH  55  74
ATOM     74  C   UNL A   1      41.645  23.803  27.032  1.00  0.00    -0.014 A 
ATOM     75  C   UNL A   1      42.499  23.081  26.188  1.00  0.00     0.009 A 
ATOM     76  C   UNL A   1      40.460  23.176  27.462  1.00  0.00     0.009 A 
ATOM     77  C   UNL A   1      42.190  21.766  25.811  1.00  0.00     0.001 A 
ATOM     78  C   UNL A   1      40.149  21.868  27.084  1.00  0.00     0.001 A 
ATOM     79  C   UNL A   1      41.023  21.157  26.269  1.00  0.00     0.000 A 
ENDBRANCH  55  74
BRANCH  67  80
ATOM     80  C   UNL A   1      45.538  28.519  28.450  1.00  0.00    -0.014 A 
ATOM     81  C   UNL A   1      44.539  29.341  27.899  1.00  0.00     0.009 A 
ATOM     82  C   UNL A   1      46.847  28.646  27.961  1.00  0.00     0.009 A 
ATOM     83  C   UNL A   1      44.834  30.239  26.869  1.00  0.00     0.001 A 
ATOM     84  C   UNL A   1      47.146  29.559  26.946  1.00  0.00     0.001 A 
ATOM     85  C   UNL A   1      46.139  30.350  26.397  1.00  0.00     0.000 A 
ENDBRANCH  67  80
ENDBRANCH  41  42
ENDBRANCH  34  36
ENDBRANCH  33  34
ENDBRANCH  32  33
ENDBRANCH   1  32
TORSDOF 14
ENDMDL
MODEL 3
REMARK VINA RESULT:     -12.5      2.959      7.560
REMARK SMILES CC1=C(C(=O)Nc2ccccc2)[C@@H](c2ccc(C(=O)OCCOC(=O)c3ccc(-c4c5nc(c(-c6ccccc6)c6ccc([nH]6)c(-c6ccccc6)c6nc(c(-c7ccccc7)c7ccc4[nH]7)C=C6)C=C5)cc3)cc2)n2ncnc2N1
REMARK SMILES IDX 21 1 20 2 18 3 19 4 17 5 14 6 15 7 75 8 16 9 74 10 13 11
REMARK SMILES IDX 1 12 2 13 3 14 81 15 80 16 76 18 79 19 77 20 78 21 4 22 5 23
REMARK SMILES IDX 6 24 7 26 8 27 12 28 9 29 11 30 10 31 22 32 23 33 24 34
REMARK SMILES IDX 25 35 26 36 27 37 73 38 28 39 72 40 29 41 30 42 31 43 66 44
REMARK SMILES IDX 32 45 71 46 65 47 67 48 33 49 70 50 64 51 63 52 34 54 56 55
REMARK SMILES IDX 41 56 55 57 42 58 45 59 54 60 68 61 43 62 44 63 53 65 69 66
REMARK SMILES IDX 46 67 35 68 36 69 40 70 37 71 39 72 38 73 57 74 58 75 62 76
REMARK SMILES IDX 59 77 61 78 60 79 47 80 48 81 52 82 49 83 51 84 50 85
REMARK H PARENT 81 17 6 25 67 53 45 64
REMARK Flexibility Score: inf
ROOT
ATOM      1  C   UNL A   1      36.612  21.196  25.374  1.00  0.00     0.275 C 
ENDROOT
BRANCH   1   2
ATOM      2  O   UNL A   1      35.878  22.325  25.873  1.00  0.00    -0.458 OA
BRANCH   2   3
ATOM      3  C   UNL A   1      34.555  22.110  26.124  1.00  0.00     0.338 C 
ATOM      4  O   UNL A   1      34.034  21.047  26.362  1.00  0.00    -0.246 OA
BRANCH   3   5
ATOM      5  C   UNL A   1      33.831  23.413  26.172  1.00  0.00     0.060 A 
ATOM      6  C   UNL A   1      32.337  25.795  26.202  1.00  0.00    -0.019 A 
ATOM      7  C   UNL A   1      31.835  24.645  26.823  1.00  0.00     0.007 A 
ATOM      8  C   UNL A   1      33.625  25.753  25.630  1.00  0.00     0.007 A 
ATOM      9  C   UNL A   1      32.578  23.459  26.802  1.00  0.00     0.016 A 
ATOM     10  C   UNL A   1      34.367  24.573  25.614  1.00  0.00     0.016 A 
BRANCH   6  11
ATOM     11  C   UNL A   1      31.487  27.038  25.963  1.00  0.00     0.179 C 
ATOM     12  C   UNL A   1      29.441  28.695  23.062  1.00  0.00     0.065 C 
ATOM     13  C   UNL A   1      30.535  28.292  24.020  1.00  0.00     0.026 C 
ATOM     14  C   UNL A   1      30.635  27.103  24.678  1.00  0.00     0.065 C 
ATOM     15  N   UNL A   1      31.407  29.337  24.312  1.00  0.00    -0.328 N 
ATOM     16  C   UNL A   1      32.281  29.324  25.327  1.00  0.00     0.226 A 
ATOM     17  H   UNL A   1      31.381  30.134  23.734  1.00  0.00     0.169 HD
ATOM     18  N   UNL A   1      32.328  28.233  26.143  1.00  0.00    -0.219 N 
ATOM     19  N   UNL A   1      33.124  30.230  25.751  1.00  0.00    -0.200 NA
ATOM     20  N   UNL A   1      33.160  28.443  27.188  1.00  0.00    -0.157 NA
ATOM     21  C   UNL A   1      33.642  29.652  26.880  1.00  0.00     0.248 A 
BRANCH  14  22
ATOM     22  C   UNL A   1      29.756  25.904  24.521  1.00  0.00     0.255 C 
ATOM     23  O   UNL A   1      28.618  25.953  25.000  1.00  0.00    -0.269 OA
ATOM     24  N   UNL A   1      30.085  24.770  23.839  1.00  0.00    -0.322 N 
ATOM     25  H   UNL A   1      29.377  24.087  23.852  1.00  0.00     0.170 HD
BRANCH  24  26
ATOM     26  C   UNL A   1      31.223  24.377  23.126  1.00  0.00     0.041 A 
ATOM     27  C   UNL A   1      31.860  25.387  22.391  1.00  0.00     0.026 A 
ATOM     28  C   UNL A   1      31.784  23.102  23.176  1.00  0.00     0.026 A 
ATOM     29  C   UNL A   1      33.119  25.167  21.832  1.00  0.00     0.002 A 
ATOM     30  C   UNL A   1      33.024  22.870  22.570  1.00  0.00     0.002 A 
ATOM     31  C   UNL A   1      33.706  23.909  21.932  1.00  0.00     0.000 A 
ENDBRANCH  24  26
ENDBRANCH  14  22
ENDBRANCH   6  11
ENDBRANCH   3   5
ENDBRANCH   2   3
ENDBRANCH   1   2
BRANCH   1  32
ATOM     32  C   UNL A   1      38.111  21.461  25.418  1.00  0.00     0.275 C 
BRANCH  32  33
ATOM     33  O   UNL A   1      38.424  22.534  26.307  1.00  0.00    -0.458 OA
BRANCH  33  34
ATOM     34  C   UNL A   1      39.652  22.490  26.870  1.00  0.00     0.338 C 
ATOM     35  O   UNL A   1      40.205  21.517  27.359  1.00  0.00    -0.246 OA
BRANCH  34  36
ATOM     36  C   UNL A   1      40.171  23.859  27.008  1.00  0.00     0.060 A 
ATOM     37  C   UNL A   1      41.254  24.051  27.872  1.00  0.00     0.016 A 
ATOM     38  C   UNL A   1      39.436  24.942  26.506  1.00  0.00     0.016 A 
ATOM     39  C   UNL A   1      41.485  25.316  28.377  1.00  0.00     0.010 A 
ATOM     40  C   UNL A   1      39.665  26.203  27.013  1.00  0.00     0.010 A 
ATOM     41  C   UNL A   1      40.631  26.361  28.005  1.00  0.00    -0.014 A 
BRANCH  41  42
ATOM     42  C   UNL A   1      40.760  27.627  28.702  1.00  0.00     0.031 A 
ATOM     43  C   UNL A   1      41.763  28.568  28.151  1.00  0.00     0.074 A 
ATOM     44  C   UNL A   1      39.938  27.976  29.709  1.00  0.00     0.049 A 
ATOM     45  N   UNL A   1      42.765  29.114  28.757  1.00  0.00    -0.248 NA
ATOM     46  C   UNL A   1      41.667  28.892  26.721  1.00  0.00     0.031 C 
ATOM     47  C   UNL A   1      38.715  27.302  30.157  1.00  0.00     0.029 A 
ATOM     48  N   UNL A   1      39.969  29.105  30.468  1.00  0.00    -0.354 N 
ATOM     49  C   UNL A   1      43.362  29.957  27.824  1.00  0.00     0.074 A 
ATOM     50  C   UNL A   1      42.704  29.713  26.566  1.00  0.00     0.031 C 
ATOM     51  C   UNL A   1      38.004  28.152  30.933  1.00  0.00     0.029 A 
ATOM     52  C   UNL A   1      38.787  29.358  31.143  1.00  0.00     0.049 A 
ATOM     53  H   UNL A   1      40.760  29.687  30.531  1.00  0.00     0.167 HD
ATOM     54  C   UNL A   1      44.255  30.920  28.175  1.00  0.00     0.031 A 
ATOM     55  C   UNL A   1      38.449  30.514  31.761  1.00  0.00     0.031 A 
ATOM     56  C   UNL A   1      44.803  30.712  29.485  1.00  0.00     0.049 A 
ATOM     57  C   UNL A   1      39.689  31.288  31.995  1.00  0.00     0.074 A 
ATOM     58  C   UNL A   1      45.586  29.736  30.067  1.00  0.00     0.029 A 
ATOM     59  N   UNL A   1      44.277  31.442  30.523  1.00  0.00    -0.354 N 
ATOM     60  N   UNL A   1      40.617  30.931  32.837  1.00  0.00    -0.248 NA
ATOM     61  C   UNL A   1      40.099  32.264  30.997  1.00  0.00     0.031 C 
ATOM     62  C   UNL A   1      45.117  29.637  31.409  1.00  0.00     0.029 A 
ATOM     63  C   UNL A   1      44.095  30.576  31.571  1.00  0.00     0.049 A 
ATOM     64  H   UNL A   1      44.070  32.405  30.516  1.00  0.00     0.167 HD
ATOM     65  C   UNL A   1      41.809  31.302  32.233  1.00  0.00     0.074 A 
ATOM     66  C   UNL A   1      41.423  32.221  31.167  1.00  0.00     0.031 C 
ATOM     67  C   UNL A   1      42.966  30.616  32.473  1.00  0.00     0.031 A 
BRANCH  54  68
ATOM     68  C   UNL A   1      44.395  32.225  27.443  1.00  0.00    -0.014 A 
ATOM     69  C   UNL A   1      43.778  33.375  27.965  1.00  0.00     0.009 A 
ATOM     70  C   UNL A   1      44.889  32.310  26.127  1.00  0.00     0.009 A 
ATOM     71  C   UNL A   1      43.625  34.532  27.192  1.00  0.00     0.001 A 
ATOM     72  C   UNL A   1      44.774  33.475  25.367  1.00  0.00     0.001 A 
ATOM     73  C   UNL A   1      44.120  34.580  25.892  1.00  0.00     0.000 A 
ENDBRANCH  54  68
BRANCH  55  74
ATOM     74  C   UNL A   1      37.104  31.107  31.893  1.00  0.00    -0.014 A 
ATOM     75  C   UNL A   1      36.693  31.704  33.092  1.00  0.00     0.009 A 
ATOM     76  C   UNL A   1      36.308  31.308  30.749  1.00  0.00     0.009 A 
ATOM     77  C   UNL A   1      35.539  32.499  33.137  1.00  0.00     0.001 A 
ATOM     78  C   UNL A   1      35.155  32.096  30.795  1.00  0.00     0.001 A 
ATOM     79  C   UNL A   1      34.778  32.704  31.987  1.00  0.00     0.000 A 
ENDBRANCH  55  74
BRANCH  67  80
ATOM     80  C   UNL A   1      42.957  29.589  33.580  1.00  0.00    -0.014 A 
ATOM     81  C   UNL A   1      43.338  29.899  34.899  1.00  0.00     0.009 A 
ATOM     82  C   UNL A   1      42.395  28.328  33.330  1.00  0.00     0.009 A 
ATOM     83  C   UNL A   1      43.192  28.964  35.927  1.00  0.00     0.001 A 
ATOM     84  C   UNL A   1      42.229  27.401  34.363  1.00  0.00     0.001 A 
ATOM     85  C   UNL A   1      42.632  27.718  35.660  1.00  0.00     0.000 A 
ENDBRANCH  67  80
ENDBRANCH  41  42
ENDBRANCH  34  36
ENDBRANCH  33  34
ENDBRANCH  32  33
ENDBRANCH   1  32
TORSDOF 14
ENDMDL
