MODEL 1
REMARK VINA RESULT:     -12.1      0.000      0.000
REMARK SMILES CC1(C)Cc2c(c(N3CCOCC3)nc3sc(C(=O)OCCOC(=O)c4ccc(-c5c6nc(c(-c7ccccc7)c7ccc([nH]7)c(-c7ccccc7)c7nc(c(-c8ccccc8)c8ccc5[nH]8)C=C7)C=C6)cc4)c(N)c23)CS1
REMARK SMILES IDX 22 1 21 2 20 3 18 4 19 5 17 6 1 7 2 8 3 9 4 10 78 11 5 12
REMARK SMILES IDX 77 13 6 14 76 15 7 16 15 17 74 18 14 19 16 20 8 21 9 22
REMARK SMILES IDX 13 23 10 24 12 25 11 26 75 27 23 30 24 31 25 32 26 33 27 34
REMARK SMILES IDX 73 35 28 36 72 37 29 38 30 39 31 40 66 41 32 42 71 43 65 44
REMARK SMILES IDX 67 45 33 46 70 47 64 48 63 49 34 51 56 52 41 53 55 54 42 55
REMARK SMILES IDX 45 56 54 57 68 58 43 59 44 60 53 62 69 63 46 64 35 65 36 66
REMARK SMILES IDX 40 67 37 68 39 69 38 70 57 71 58 72 62 73 59 74 61 75 60 76
REMARK SMILES IDX 47 77 48 78 52 79 49 80 51 81 50 82
REMARK H PARENT 75 28 75 29 67 50 45 61
REMARK Flexibility Score: inf
ROOT
ATOM      1  C   UNL A   1      42.668  19.344  26.114  1.00  0.00     0.275 C 
ENDROOT
BRANCH   1   2
ATOM      2  C   UNL A   1      41.518  19.936  26.919  1.00  0.00     0.275 C 
BRANCH   2   3
ATOM      3  O   UNL A   1      40.370  20.180  26.088  1.00  0.00    -0.458 OA
BRANCH   3   4
ATOM      4  C   UNL A   1      39.987  21.486  25.956  1.00  0.00     0.350 C 
ATOM      5  O   UNL A   1      40.782  22.423  25.876  1.00  0.00    -0.245 OA
BRANCH   4   6
ATOM      6  C   UNL A   1      38.546  21.620  25.830  1.00  0.00     0.138 A 
ATOM      7  C   UNL A   1      33.667  17.053  23.746  1.00  0.00     0.023 C 
ATOM      8  C   UNL A   1      33.550  18.430  24.418  1.00  0.00     0.015 C 
ATOM      9  C   UNL A   1      32.850  18.256  25.776  1.00  0.00     0.023 C 
ATOM     10  C   UNL A   1      34.945  19.070  24.554  1.00  0.00     0.054 C 
ATOM     11  S   UNL A   1      32.570  19.473  23.293  1.00  0.00    -0.150 SA
ATOM     12  C   UNL A   1      35.035  20.529  24.966  1.00  0.00    -0.027 A 
ATOM     13  C   UNL A   1      32.595  20.984  24.267  1.00  0.00     0.109 C 
ATOM     14  C   UNL A   1      33.909  21.391  24.897  1.00  0.00     0.009 A 
ATOM     15  C   UNL A   1      36.277  21.122  25.356  1.00  0.00     0.039 A 
ATOM     16  C   UNL A   1      34.012  22.715  25.375  1.00  0.00     0.134 A 
ATOM     17  C   UNL A   1      36.231  22.445  25.780  1.00  0.00     0.128 A 
ATOM     18  C   UNL A   1      37.651  20.664  25.377  1.00  0.00     0.067 A 
ATOM     19  N   UNL A   1      35.154  23.246  25.826  1.00  0.00    -0.220 NA
ATOM     20  S   UNL A   1      37.740  23.061  26.258  1.00  0.00    -0.106 S 
BRANCH  16  21
ATOM     21  N   UNL A   1      32.934  23.562  25.289  1.00  0.00    -0.352 N 
ATOM     22  C   UNL A   1      32.109  23.930  26.436  1.00  0.00     0.146 C 
ATOM     23  C   UNL A   1      32.812  24.458  24.144  1.00  0.00     0.146 C 
ATOM     24  C   UNL A   1      30.643  23.976  25.963  1.00  0.00     0.181 C 
ATOM     25  C   UNL A   1      31.330  24.452  23.734  1.00  0.00     0.181 C 
ATOM     26  O   UNL A   1      30.474  24.848  24.827  1.00  0.00    -0.378 OA
ENDBRANCH  16  21
BRANCH  18  27
ATOM     27  N   UNL A   1      38.064  19.441  24.965  1.00  0.00    -0.397 N 
ATOM     28  H   UNL A   1      37.819  18.640  25.482  1.00  0.00     0.156 HD
ATOM     29  H   UNL A   1      38.609  19.354  24.150  1.00  0.00     0.156 HD
ENDBRANCH  18  27
ENDBRANCH   4   6
ENDBRANCH   3   4
ENDBRANCH   2   3
ENDBRANCH   1   2
BRANCH   1  30
ATOM     30  O   UNL A   1      43.024  20.179  25.010  1.00  0.00    -0.458 OA
BRANCH  30  31
ATOM     31  C   UNL A   1      44.329  20.527  24.946  1.00  0.00     0.338 C 
ATOM     32  O   UNL A   1      45.281  19.785  24.772  1.00  0.00    -0.246 OA
BRANCH  31  33
ATOM     33  C   UNL A   1      44.471  21.940  25.318  1.00  0.00     0.060 A 
ATOM     34  C   UNL A   1      45.041  22.226  26.561  1.00  0.00     0.016 A 
ATOM     35  C   UNL A   1      43.820  22.928  24.562  1.00  0.00     0.016 A 
ATOM     36  C   UNL A   1      44.819  23.469  27.118  1.00  0.00     0.010 A 
ATOM     37  C   UNL A   1      43.593  24.166  25.123  1.00  0.00     0.010 A 
ATOM     38  C   UNL A   1      44.033  24.398  26.422  1.00  0.00    -0.014 A 
BRANCH  38  39
ATOM     39  C   UNL A   1      43.725  25.649  27.078  1.00  0.00     0.031 A 
ATOM     40  C   UNL A   1      44.675  26.744  26.784  1.00  0.00     0.074 A 
ATOM     41  C   UNL A   1      42.628  25.840  27.833  1.00  0.00     0.049 A 
ATOM     42  N   UNL A   1      45.508  27.296  27.600  1.00  0.00    -0.248 NA
ATOM     43  C   UNL A   1      44.797  27.194  25.392  1.00  0.00     0.031 C 
ATOM     44  C   UNL A   1      41.458  24.974  27.997  1.00  0.00     0.029 A 
ATOM     45  N   UNL A   1      42.300  26.944  28.553  1.00  0.00    -0.354 N 
ATOM     46  C   UNL A   1      46.162  28.281  26.870  1.00  0.00     0.074 A 
ATOM     47  C   UNL A   1      45.784  28.085  25.493  1.00  0.00     0.031 C 
ATOM     48  C   UNL A   1      40.461  25.686  28.576  1.00  0.00     0.029 A 
ATOM     49  C   UNL A   1      40.974  26.994  28.949  1.00  0.00     0.049 A 
ATOM     50  H   UNL A   1      42.950  27.648  28.776  1.00  0.00     0.167 HD
ATOM     51  C   UNL A   1      46.807  29.310  27.484  1.00  0.00     0.031 A 
ATOM     52  C   UNL A   1      40.345  28.071  29.481  1.00  0.00     0.031 A 
ATOM     53  C   UNL A   1      47.043  29.042  28.878  1.00  0.00     0.049 A 
ATOM     54  C   UNL A   1      41.389  28.966  30.036  1.00  0.00     0.074 A 
ATOM     55  C   UNL A   1      47.744  28.080  29.577  1.00  0.00     0.029 A 
ATOM     56  N   UNL A   1      46.190  29.619  29.790  1.00  0.00    -0.354 N 
ATOM     57  N   UNL A   1      42.120  28.656  31.071  1.00  0.00    -0.248 NA
ATOM     58  C   UNL A   1      41.935  30.008  29.178  1.00  0.00     0.031 C 
ATOM     59  C   UNL A   1      46.937  27.793  30.716  1.00  0.00     0.029 A 
ATOM     60  C   UNL A   1      45.824  28.636  30.672  1.00  0.00     0.049 A 
ATOM     61  H   UNL A   1      45.898  30.559  29.806  1.00  0.00     0.167 HD
ATOM     62  C   UNL A   1      43.387  29.129  30.764  1.00  0.00     0.074 A 
ATOM     63  C   UNL A   1      43.191  30.037  29.635  1.00  0.00     0.031 C 
ATOM     64  C   UNL A   1      44.509  28.527  31.261  1.00  0.00     0.031 A 
BRANCH  51  65
ATOM     65  C   UNL A   1      46.866  30.704  26.920  1.00  0.00    -0.014 A 
ATOM     66  C   UNL A   1      48.079  31.411  27.000  1.00  0.00     0.009 A 
ATOM     67  C   UNL A   1      45.720  31.449  26.582  1.00  0.00     0.009 A 
ATOM     68  C   UNL A   1      48.124  32.800  26.837  1.00  0.00     0.001 A 
ATOM     69  C   UNL A   1      45.768  32.829  26.376  1.00  0.00     0.001 A 
ATOM     70  C   UNL A   1      46.965  33.510  26.536  1.00  0.00     0.000 A 
ENDBRANCH  51  65
BRANCH  52  71
ATOM     71  C   UNL A   1      38.955  28.520  29.249  1.00  0.00    -0.014 A 
ATOM     72  C   UNL A   1      38.062  28.670  30.320  1.00  0.00     0.009 A 
ATOM     73  C   UNL A   1      38.586  29.070  28.007  1.00  0.00     0.009 A 
ATOM     74  C   UNL A   1      36.865  29.384  30.165  1.00  0.00     0.001 A 
ATOM     75  C   UNL A   1      37.390  29.778  27.851  1.00  0.00     0.001 A 
ATOM     76  C   UNL A   1      36.537  29.949  28.935  1.00  0.00     0.000 A 
ENDBRANCH  52  71
BRANCH  64  77
ATOM     77  C   UNL A   1      44.337  27.450  32.305  1.00  0.00    -0.014 A 
ATOM     78  C   UNL A   1      44.169  26.093  31.975  1.00  0.00     0.009 A 
ATOM     79  C   UNL A   1      44.544  27.786  33.651  1.00  0.00     0.009 A 
ATOM     80  C   UNL A   1      44.189  25.105  32.966  1.00  0.00     0.001 A 
ATOM     81  C   UNL A   1      44.585  26.797  34.638  1.00  0.00     0.001 A 
ATOM     82  C   UNL A   1      44.406  25.459  34.296  1.00  0.00     0.000 A 
ENDBRANCH  64  77
ENDBRANCH  38  39
ENDBRANCH  31  33
ENDBRANCH  30  31
ENDBRANCH   1  30
TORSDOF 13
ENDMDL
MODEL 2
REMARK VINA RESULT:     -12.0      5.685     10.341
REMARK SMILES CC1(C)Cc2c(c(N3CCOCC3)nc3sc(C(=O)OCCOC(=O)c4ccc(-c5c6nc(c(-c7ccccc7)c7ccc([nH]7)c(-c7ccccc7)c7nc(c(-c8ccccc8)c8ccc5[nH]8)C=C7)C=C6)cc4)c(N)c23)CS1
REMARK SMILES IDX 22 1 21 2 20 3 18 4 19 5 17 6 1 7 2 8 3 9 4 10 78 11 5 12
REMARK SMILES IDX 77 13 6 14 76 15 7 16 15 17 74 18 14 19 16 20 8 21 9 22
REMARK SMILES IDX 13 23 10 24 12 25 11 26 75 27 23 30 24 31 25 32 26 33 27 34
REMARK SMILES IDX 73 35 28 36 72 37 29 38 30 39 31 40 66 41 32 42 71 43 65 44
REMARK SMILES IDX 67 45 33 46 70 47 64 48 63 49 34 51 56 52 41 53 55 54 42 55
REMARK SMILES IDX 45 56 54 57 68 58 43 59 44 60 53 62 69 63 46 64 35 65 36 66
REMARK SMILES IDX 40 67 37 68 39 69 38 70 57 71 58 72 62 73 59 74 61 75 60 76
REMARK SMILES IDX 47 77 48 78 52 79 49 80 51 81 50 82
REMARK H PARENT 75 28 75 29 67 50 45 61
REMARK Flexibility Score: inf
ROOT
ATOM      1  C   UNL A   1      33.049  35.747  30.198  1.00  0.00     0.275 C 
ENDROOT
BRANCH   1   2
ATOM      2  C   UNL A   1      33.973  35.025  29.224  1.00  0.00     0.275 C 
BRANCH   2   3
ATOM      3  O   UNL A   1      33.259  34.037  28.462  1.00  0.00    -0.458 OA
BRANCH   3   4
ATOM      4  C   UNL A   1      33.716  32.752  28.560  1.00  0.00     0.350 C 
ATOM      5  O   UNL A   1      34.532  32.384  29.406  1.00  0.00    -0.245 OA
BRANCH   4   6
ATOM      6  C   UNL A   1      33.056  31.867  27.616  1.00  0.00     0.138 A 
ATOM      7  C   UNL A   1      34.480  25.280  25.722  1.00  0.00     0.023 C 
ATOM      8  C   UNL A   1      33.262  26.176  25.448  1.00  0.00     0.015 C 
ATOM      9  C   UNL A   1      32.019  25.519  26.071  1.00  0.00     0.023 C 
ATOM     10  C   UNL A   1      33.515  27.592  25.999  1.00  0.00     0.054 C 
ATOM     11  S   UNL A   1      33.111  26.304  23.638  1.00  0.00    -0.150 SA
ATOM     12  C   UNL A   1      32.547  28.700  25.623  1.00  0.00    -0.027 A 
ATOM     13  C   UNL A   1      31.674  27.384  23.584  1.00  0.00     0.109 C 
ATOM     14  C   UNL A   1      31.641  28.558  24.539  1.00  0.00     0.009 A 
ATOM     15  C   UNL A   1      32.564  29.967  26.286  1.00  0.00     0.039 A 
ATOM     16  C   UNL A   1      30.696  29.574  24.280  1.00  0.00     0.134 A 
ATOM     17  C   UNL A   1      31.588  30.882  25.908  1.00  0.00     0.128 A 
ATOM     18  C   UNL A   1      33.427  30.575  27.278  1.00  0.00     0.067 A 
ATOM     19  N   UNL A   1      30.651  30.724  24.959  1.00  0.00    -0.220 NA
ATOM     20  S   UNL A   1      31.657  32.346  26.767  1.00  0.00    -0.106 S 
BRANCH  16  21
ATOM     21  N   UNL A   1      29.833  29.453  23.219  1.00  0.00    -0.352 N 
ATOM     22  C   UNL A   1      30.138  29.941  21.876  1.00  0.00     0.146 C 
ATOM     23  C   UNL A   1      28.757  28.470  23.274  1.00  0.00     0.146 C 
ATOM     24  C   UNL A   1      28.846  30.547  21.294  1.00  0.00     0.181 C 
ATOM     25  C   UNL A   1      27.510  29.144  22.677  1.00  0.00     0.181 C 
ATOM     26  O   UNL A   1      27.750  29.610  21.332  1.00  0.00    -0.378 OA
ENDBRANCH  16  21
BRANCH  18  27
ATOM     27  N   UNL A   1      34.521  29.984  27.817  1.00  0.00    -0.397 N 
ATOM     28  H   UNL A   1      34.832  30.250  28.712  1.00  0.00     0.156 HD
ATOM     29  H   UNL A   1      35.003  29.289  27.314  1.00  0.00     0.156 HD
ENDBRANCH  18  27
ENDBRANCH   4   6
ENDBRANCH   3   4
ENDBRANCH   2   3
ENDBRANCH   1   2
BRANCH   1  30
ATOM     30  O   UNL A   1      32.727  34.930  31.324  1.00  0.00    -0.458 OA
BRANCH  30  31
ATOM     31  C   UNL A   1      33.245  35.342  32.504  1.00  0.00     0.338 C 
ATOM     32  O   UNL A   1      32.882  36.295  33.173  1.00  0.00    -0.246 OA
BRANCH  31  33
ATOM     33  C   UNL A   1      34.466  34.579  32.789  1.00  0.00     0.060 A 
ATOM     34  C   UNL A   1      35.679  35.271  32.762  1.00  0.00     0.016 A 
ATOM     35  C   UNL A   1      34.420  33.176  32.823  1.00  0.00     0.016 A 
ATOM     36  C   UNL A   1      36.847  34.550  32.610  1.00  0.00     0.010 A 
ATOM     37  C   UNL A   1      35.585  32.459  32.664  1.00  0.00     0.010 A 
ATOM     38  C   UNL A   1      36.776  33.156  32.488  1.00  0.00    -0.014 A 
BRANCH  38  39
ATOM     39  C   UNL A   1      38.001  32.437  32.219  1.00  0.00     0.031 A 
ATOM     40  C   UNL A   1      38.854  32.215  33.407  1.00  0.00     0.074 A 
ATOM     41  C   UNL A   1      38.318  31.939  31.010  1.00  0.00     0.049 A 
ATOM     42  N   UNL A   1      40.006  32.740  33.652  1.00  0.00    -0.248 NA
ATOM     43  C   UNL A   1      38.306  31.409  34.505  1.00  0.00     0.031 C 
ATOM     44  C   UNL A   1      37.483  31.819  29.813  1.00  0.00     0.029 A 
ATOM     45  N   UNL A   1      39.475  31.330  30.643  1.00  0.00    -0.354 N 
ATOM     46  C   UNL A   1      40.415  32.213  34.870  1.00  0.00     0.074 A 
ATOM     47  C   UNL A   1      39.279  31.508  35.411  1.00  0.00     0.031 C 
ATOM     48  C   UNL A   1      38.083  30.975  28.940  1.00  0.00     0.029 A 
ATOM     49  C   UNL A   1      39.396  30.623  29.455  1.00  0.00     0.049 A 
ATOM     50  H   UNL A   1      40.301  31.388  31.175  1.00  0.00     0.167 HD
ATOM     51  C   UNL A   1      41.723  32.226  35.247  1.00  0.00     0.031 A 
ATOM     52  C   UNL A   1      40.328  29.759  28.982  1.00  0.00     0.031 A 
ATOM     53  C   UNL A   1      42.501  33.145  34.458  1.00  0.00     0.049 A 
ATOM     54  C   UNL A   1      41.615  30.087  29.644  1.00  0.00     0.074 A 
ATOM     55  C   UNL A   1      42.467  34.508  34.239  1.00  0.00     0.029 A 
ATOM     56  N   UNL A   1      43.261  32.621  33.439  1.00  0.00    -0.354 N 
ATOM     57  N   UNL A   1      42.269  31.194  29.425  1.00  0.00    -0.248 NA
ATOM     58  C   UNL A   1      41.951  29.400  30.882  1.00  0.00     0.031 C 
ATOM     59  C   UNL A   1      42.775  34.664  32.856  1.00  0.00     0.029 A 
ATOM     60  C   UNL A   1      43.032  33.396  32.331  1.00  0.00     0.049 A 
ATOM     61  H   UNL A   1      43.857  31.839  33.494  1.00  0.00     0.167 HD
ATOM     62  C   UNL A   1      42.760  31.567  30.667  1.00  0.00     0.074 A 
ATOM     63  C   UNL A   1      42.619  30.376  31.505  1.00  0.00     0.031 C 
ATOM     64  C   UNL A   1      42.968  32.880  30.983  1.00  0.00     0.031 A 
BRANCH  51  65
ATOM     65  C   UNL A   1      42.364  31.128  36.053  1.00  0.00    -0.014 A 
ATOM     66  C   UNL A   1      43.318  31.477  37.025  1.00  0.00     0.009 A 
ATOM     67  C   UNL A   1      42.284  29.767  35.703  1.00  0.00     0.009 A 
ATOM     68  C   UNL A   1      44.203  30.528  37.549  1.00  0.00     0.001 A 
ATOM     69  C   UNL A   1      43.137  28.810  36.256  1.00  0.00     0.001 A 
ATOM     70  C   UNL A   1      44.118  29.196  37.156  1.00  0.00     0.000 A 
ENDBRANCH  51  65
BRANCH  52  71
ATOM     71  C   UNL A   1      40.108  28.486  28.262  1.00  0.00    -0.014 A 
ATOM     72  C   UNL A   1      40.734  28.242  27.030  1.00  0.00     0.009 A 
ATOM     73  C   UNL A   1      39.503  27.396  28.916  1.00  0.00     0.009 A 
ATOM     74  C   UNL A   1      40.793  26.947  26.497  1.00  0.00     0.001 A 
ATOM     75  C   UNL A   1      39.558  26.105  28.382  1.00  0.00     0.001 A 
ATOM     76  C   UNL A   1      40.217  25.877  27.180  1.00  0.00     0.000 A 
ENDBRANCH  52  71
BRANCH  64  77
ATOM     77  C   UNL A   1      42.832  33.908  29.885  1.00  0.00    -0.014 A 
ATOM     78  C   UNL A   1      43.848  34.152  28.944  1.00  0.00     0.009 A 
ATOM     79  C   UNL A   1      41.579  34.504  29.681  1.00  0.00     0.009 A 
ATOM     80  C   UNL A   1      43.619  34.982  27.840  1.00  0.00     0.001 A 
ATOM     81  C   UNL A   1      41.345  35.316  28.569  1.00  0.00     0.001 A 
ATOM     82  C   UNL A   1      42.365  35.557  27.650  1.00  0.00     0.000 A 
ENDBRANCH  64  77
ENDBRANCH  38  39
ENDBRANCH  31  33
ENDBRANCH  30  31
ENDBRANCH   1  30
TORSDOF 13
ENDMDL
MODEL 3
REMARK VINA RESULT:     -12.0      1.503      2.575
REMARK SMILES CC1(C)Cc2c(c(N3CCOCC3)nc3sc(C(=O)OCCOC(=O)c4ccc(-c5c6nc(c(-c7ccccc7)c7ccc([nH]7)c(-c7ccccc7)c7nc(c(-c8ccccc8)c8ccc5[nH]8)C=C7)C=C6)cc4)c(N)c23)CS1
REMARK SMILES IDX 22 1 21 2 20 3 18 4 19 5 17 6 1 7 2 8 3 9 4 10 78 11 5 12
REMARK SMILES IDX 77 13 6 14 76 15 7 16 15 17 74 18 14 19 16 20 8 21 9 22
REMARK SMILES IDX 13 23 10 24 12 25 11 26 75 27 23 30 24 31 25 32 26 33 27 34
REMARK SMILES IDX 73 35 28 36 72 37 29 38 30 39 31 40 66 41 32 42 71 43 65 44
REMARK SMILES IDX 67 45 33 46 70 47 64 48 63 49 34 51 56 52 41 53 55 54 42 55
REMARK SMILES IDX 45 56 54 57 68 58 43 59 44 60 53 62 69 63 46 64 35 65 36 66
REMARK SMILES IDX 40 67 37 68 39 69 38 70 57 71 58 72 62 73 59 74 61 75 60 76
REMARK SMILES IDX 47 77 48 78 52 79 49 80 51 81 50 82
REMARK H PARENT 75 28 75 29 67 50 45 61
REMARK Flexibility Score: inf
ROOT
ATOM      1  C   UNL A   1      43.328  19.280  25.581  1.00  0.00     0.275 C 
ENDROOT
BRANCH   1   2
ATOM      2  C   UNL A   1      41.940  19.581  26.135  1.00  0.00     0.275 C 
BRANCH   2   3
ATOM      3  O   UNL A   1      41.325  20.675  25.436  1.00  0.00    -0.458 OA
BRANCH   3   4
ATOM      4  C   UNL A   1      40.554  21.517  26.190  1.00  0.00     0.350 C 
ATOM      5  O   UNL A   1      41.017  22.312  27.008  1.00  0.00    -0.245 OA
BRANCH   4   6
ATOM      6  C   UNL A   1      39.147  21.423  25.842  1.00  0.00     0.138 A 
ATOM      7  C   UNL A   1      34.152  26.317  25.522  1.00  0.00     0.023 C 
ATOM      8  C   UNL A   1      34.176  24.856  25.045  1.00  0.00     0.015 C 
ATOM      9  C   UNL A   1      33.977  24.835  23.520  1.00  0.00     0.023 C 
ATOM     10  C   UNL A   1      35.495  24.184  25.474  1.00  0.00     0.054 C 
ATOM     11  S   UNL A   1      32.816  24.008  25.907  1.00  0.00    -0.150 SA
ATOM     12  C   UNL A   1      35.624  22.679  25.319  1.00  0.00    -0.027 A 
ATOM     13  C   UNL A   1      33.066  22.368  25.213  1.00  0.00     0.109 C 
ATOM     14  C   UNL A   1      34.486  21.853  25.123  1.00  0.00     0.009 A 
ATOM     15  C   UNL A   1      36.884  22.018  25.453  1.00  0.00     0.039 A 
ATOM     16  C   UNL A   1      34.657  20.471  24.893  1.00  0.00     0.134 A 
ATOM     17  C   UNL A   1      36.897  20.647  25.224  1.00  0.00     0.128 A 
ATOM     18  C   UNL A   1      38.214  22.449  25.833  1.00  0.00     0.067 A 
ATOM     19  N   UNL A   1      35.848  19.863  24.928  1.00  0.00    -0.220 NA
ATOM     20  S   UNL A   1      38.438  19.945  25.369  1.00  0.00    -0.106 S 
BRANCH  16  21
ATOM     21  N   UNL A   1      33.560  19.662  24.727  1.00  0.00    -0.352 N 
ATOM     22  C   UNL A   1      32.865  19.012  25.835  1.00  0.00     0.146 C 
ATOM     23  C   UNL A   1      32.785  19.746  23.494  1.00  0.00     0.146 C 
ATOM     24  C   UNL A   1      32.465  17.598  25.372  1.00  0.00     0.181 C 
ATOM     25  C   UNL A   1      32.423  18.304  23.099  1.00  0.00     0.181 C 
ATOM     26  O   UNL A   1      31.699  17.630  24.150  1.00  0.00    -0.378 OA
ENDBRANCH  16  21
BRANCH  18  27
ATOM     27  N   UNL A   1      38.545  23.714  26.189  1.00  0.00    -0.397 N 
ATOM     28  H   UNL A   1      37.846  24.404  26.256  1.00  0.00     0.156 HD
ATOM     29  H   UNL A   1      39.483  23.942  26.380  1.00  0.00     0.156 HD
ENDBRANCH  18  27
ENDBRANCH   4   6
ENDBRANCH   3   4
ENDBRANCH   2   3
ENDBRANCH   1   2
BRANCH   1  30
ATOM     30  O   UNL A   1      43.756  20.283  24.659  1.00  0.00    -0.458 OA
BRANCH  30  31
ATOM     31  C   UNL A   1      45.009  20.753  24.858  1.00  0.00     0.338 C 
ATOM     32  O   UNL A   1      46.031  20.098  24.970  1.00  0.00    -0.246 OA
BRANCH  31  33
ATOM     33  C   UNL A   1      44.948  22.196  25.122  1.00  0.00     0.060 A 
ATOM     34  C   UNL A   1      45.814  22.712  26.090  1.00  0.00     0.016 A 
ATOM     35  C   UNL A   1      43.885  22.955  24.606  1.00  0.00     0.016 A 
ATOM     36  C   UNL A   1      45.516  23.936  26.656  1.00  0.00     0.010 A 
ATOM     37  C   UNL A   1      43.585  24.172  25.178  1.00  0.00     0.010 A 
ATOM     38  C   UNL A   1      44.362  24.615  26.243  1.00  0.00    -0.014 A 
BRANCH  38  39
ATOM     39  C   UNL A   1      44.015  25.839  26.931  1.00  0.00     0.031 A 
ATOM     40  C   UNL A   1      44.940  26.965  26.678  1.00  0.00     0.074 A 
ATOM     41  C   UNL A   1      42.907  25.979  27.680  1.00  0.00     0.049 A 
ATOM     42  N   UNL A   1      45.751  27.515  27.517  1.00  0.00    -0.248 NA
ATOM     43  C   UNL A   1      45.063  27.458  25.300  1.00  0.00     0.031 C 
ATOM     44  C   UNL A   1      41.758  25.080  27.808  1.00  0.00     0.029 A 
ATOM     45  N   UNL A   1      42.544  27.054  28.428  1.00  0.00    -0.354 N 
ATOM     46  C   UNL A   1      46.385  28.536  26.822  1.00  0.00     0.074 A 
ATOM     47  C   UNL A   1      46.025  28.371  25.436  1.00  0.00     0.031 C 
ATOM     48  C   UNL A   1      40.738  25.749  28.397  1.00  0.00     0.029 A 
ATOM     49  C   UNL A   1      41.214  27.059  28.812  1.00  0.00     0.049 A 
ATOM     50  H   UNL A   1      43.173  27.768  28.677  1.00  0.00     0.167 HD
ATOM     51  C   UNL A   1      46.997  29.564  27.471  1.00  0.00     0.031 A 
ATOM     52  C   UNL A   1      40.552  28.104  29.368  1.00  0.00     0.031 A 
ATOM     53  C   UNL A   1      47.228  29.263  28.859  1.00  0.00     0.049 A 
ATOM     54  C   UNL A   1      41.568  29.009  29.959  1.00  0.00     0.074 A 
ATOM     55  C   UNL A   1      47.947  28.299  29.538  1.00  0.00     0.029 A 
ATOM     56  N   UNL A   1      46.352  29.791  29.778  1.00  0.00    -0.354 N 
ATOM     57  N   UNL A   1      42.296  28.689  30.991  1.00  0.00    -0.248 NA
ATOM     58  C   UNL A   1      42.094  30.088  29.136  1.00  0.00     0.031 C 
ATOM     59  C   UNL A   1      47.137  27.960  30.660  1.00  0.00     0.029 A 
ATOM     60  C   UNL A   1      46.003  28.774  30.628  1.00  0.00     0.049 A 
ATOM     61  H   UNL A   1      46.036  30.723  29.818  1.00  0.00     0.167 HD
ATOM     62  C   UNL A   1      43.554  29.202  30.711  1.00  0.00     0.074 A 
ATOM     63  C   UNL A   1      43.345  30.137  29.606  1.00  0.00     0.031 C 
ATOM     64  C   UNL A   1      44.686  28.615  31.202  1.00  0.00     0.031 A 
BRANCH  51  65
ATOM     65  C   UNL A   1      47.026  30.975  26.947  1.00  0.00    -0.014 A 
ATOM     66  C   UNL A   1      48.237  31.687  26.998  1.00  0.00     0.009 A 
ATOM     67  C   UNL A   1      45.863  31.722  26.679  1.00  0.00     0.009 A 
ATOM     68  C   UNL A   1      48.268  33.081  26.876  1.00  0.00     0.001 A 
ATOM     69  C   UNL A   1      45.895  33.107  26.513  1.00  0.00     0.001 A 
ATOM     70  C   UNL A   1      47.094  33.791  26.644  1.00  0.00     0.000 A 
ENDBRANCH  51  65
BRANCH  52  71
ATOM     71  C   UNL A   1      39.153  28.524  29.135  1.00  0.00    -0.014 A 
ATOM     72  C   UNL A   1      38.241  28.600  30.199  1.00  0.00     0.009 A 
ATOM     73  C   UNL A   1      38.785  29.118  27.914  1.00  0.00     0.009 A 
ATOM     74  C   UNL A   1      37.027  29.286  30.057  1.00  0.00     0.001 A 
ATOM     75  C   UNL A   1      37.572  29.799  27.771  1.00  0.00     0.001 A 
ATOM     76  C   UNL A   1      36.699  29.897  28.849  1.00  0.00     0.000 A 
ENDBRANCH  52  71
BRANCH  64  77
ATOM     77  C   UNL A   1      44.533  27.504  32.213  1.00  0.00    -0.014 A 
ATOM     78  C   UNL A   1      44.345  26.161  31.842  1.00  0.00     0.009 A 
ATOM     79  C   UNL A   1      44.778  27.793  33.563  1.00  0.00     0.009 A 
ATOM     80  C   UNL A   1      44.383  25.140  32.799  1.00  0.00     0.001 A 
ATOM     81  C   UNL A   1      44.836  26.772  34.515  1.00  0.00     0.001 A 
ATOM     82  C   UNL A   1      44.637  25.447  34.133  1.00  0.00     0.000 A 
ENDBRANCH  64  77
ENDBRANCH  38  39
ENDBRANCH  31  33
ENDBRANCH  30  31
ENDBRANCH   1  30
TORSDOF 13
ENDMDL
