MODEL 1
REMARK VINA RESULT:     -12.2      0.000      0.000
REMARK SMILES COc1cc2c(CC(=O)OCCOC(=O)c3ccc(-c4c5nc(c(-c6ccccc6)c6ccc([nH]6)c(-c6ccccc6)c6nc(c(-c7ccccc7)c7ccc4[nH]7)C=C6)C=C5)cc3)c(C)n(C(=O)c3ccc(Cl)cc3)c2cc1Cl
REMARK SMILES IDX 11 1 10 2 8 3 9 4 7 5 6 6 3 7 4 8 78 9 5 10 77 11 79 12
REMARK SMILES IDX 76 13 64 14 66 15 65 16 2 17 1 18 67 19 68 20 69 21 70 22
REMARK SMILES IDX 75 23 71 24 74 25 72 26 73 27 12 28 13 29 14 30 15 31 16 32
REMARK SMILES IDX 17 33 63 34 18 35 62 36 19 37 20 38 21 39 56 40 22 41 61 42
REMARK SMILES IDX 55 43 57 44 23 45 60 46 54 47 53 48 24 50 46 51 31 52 45 53
REMARK SMILES IDX 32 54 35 55 44 56 58 57 33 58 34 59 43 61 59 62 36 63 25 64
REMARK SMILES IDX 26 65 30 66 27 67 29 68 28 69 47 70 48 71 52 72 49 73 51 74
REMARK SMILES IDX 50 75 37 76 38 77 42 78 39 79 41 80 40 81
REMARK H PARENT 57 49 35 60
REMARK Flexibility Score: inf
ROOT
ATOM      1  C   UNL A   1      33.197  22.262  26.597  1.00  0.00     0.274 C 
ENDROOT
BRANCH   1   2
ATOM      2  O   UNL A   1      31.859  22.347  26.050  1.00  0.00    -0.462 OA
BRANCH   2   3
ATOM      3  C   UNL A   1      31.300  23.571  26.164  1.00  0.00     0.310 C 
ATOM      4  O   UNL A   1      31.016  24.073  27.249  1.00  0.00    -0.252 OA
BRANCH   3   5
ATOM      5  C   UNL A   1      30.913  24.251  24.882  1.00  0.00     0.160 C 
BRANCH   5   6
ATOM      6  C   UNL A   1      31.236  25.696  24.617  1.00  0.00    -0.008 A 
ATOM      7  C   UNL A   1      28.534  28.176  23.307  1.00  0.00     0.138 A 
ATOM      8  C   UNL A   1      29.044  26.991  23.876  1.00  0.00     0.058 A 
ATOM      9  C   UNL A   1      29.403  29.227  23.086  1.00  0.00     0.085 A 
ATOM     10  C   UNL A   1      30.421  26.785  24.151  1.00  0.00     0.008 A 
ATOM     11  C   UNL A   1      30.770  29.064  23.342  1.00  0.00     0.051 A 
ATOM     12  Cl  UNL A   1      28.891  30.822  22.659  1.00  0.00    -0.080 Cl
ATOM     13  C   UNL A   1      31.274  27.869  23.912  1.00  0.00     0.058 A 
ATOM     14  C   UNL A   1      32.552  26.153  24.615  1.00  0.00     0.028 A 
ATOM     15  N   UNL A   1      32.550  27.527  24.396  1.00  0.00    -0.280 N 
ATOM     16  C   UNL A   1      33.782  25.330  24.865  1.00  0.00     0.065 C 
BRANCH   7  17
ATOM     17  O   UNL A   1      27.175  28.200  23.130  1.00  0.00    -0.495 OA
ATOM     18  C   UNL A   1      26.412  27.351  23.989  1.00  0.00     0.278 C 
ENDBRANCH   7  17
BRANCH  15  19
ATOM     19  C   UNL A   1      33.625  28.423  24.644  1.00  0.00     0.262 C 
ATOM     20  O   UNL A   1      34.500  28.579  23.796  1.00  0.00    -0.268 OA
BRANCH  19  21
ATOM     21  C   UNL A   1      33.781  29.180  25.889  1.00  0.00     0.040 A 
ATOM     22  C   UNL A   1      32.881  30.207  26.196  1.00  0.00     0.015 A 
ATOM     23  C   UNL A   1      34.920  28.948  26.664  1.00  0.00     0.015 A 
ATOM     24  C   UNL A   1      33.174  31.066  27.253  1.00  0.00     0.021 A 
ATOM     25  C   UNL A   1      35.202  29.809  27.723  1.00  0.00     0.021 A 
ATOM     26  C   UNL A   1      34.339  30.873  28.001  1.00  0.00     0.041 A 
ATOM     27  Cl  UNL A   1      34.740  31.985  29.249  1.00  0.00    -0.084 Cl
ENDBRANCH  19  21
ENDBRANCH  15  19
ENDBRANCH   5   6
ENDBRANCH   3   5
ENDBRANCH   2   3
ENDBRANCH   1   2
BRANCH   1  28
ATOM     28  C   UNL A   1      34.150  21.532  25.644  1.00  0.00     0.275 C 
BRANCH  28  29
ATOM     29  O   UNL A   1      35.490  22.030  25.814  1.00  0.00    -0.458 OA
BRANCH  29  30
ATOM     30  C   UNL A   1      36.504  21.185  25.501  1.00  0.00     0.338 C 
ATOM     31  O   UNL A   1      36.421  20.124  24.902  1.00  0.00    -0.246 OA
BRANCH  30  32
ATOM     32  C   UNL A   1      37.748  21.968  25.634  1.00  0.00     0.060 A 
ATOM     33  C   UNL A   1      38.970  21.380  25.963  1.00  0.00     0.016 A 
ATOM     34  C   UNL A   1      37.582  23.346  25.735  1.00  0.00     0.016 A 
ATOM     35  C   UNL A   1      39.938  22.158  26.596  1.00  0.00     0.010 A 
ATOM     36  C   UNL A   1      38.509  24.100  26.414  1.00  0.00     0.010 A 
ATOM     37  C   UNL A   1      39.643  23.486  26.923  1.00  0.00    -0.014 A 
BRANCH  37  38
ATOM     38  C   UNL A   1      40.540  24.315  27.703  1.00  0.00     0.031 A 
ATOM     39  C   UNL A   1      40.028  25.676  27.954  1.00  0.00     0.074 A 
ATOM     40  C   UNL A   1      41.634  23.902  28.371  1.00  0.00     0.049 A 
ATOM     41  N   UNL A   1      40.372  26.741  27.319  1.00  0.00    -0.248 NA
ATOM     42  C   UNL A   1      38.923  25.865  28.905  1.00  0.00     0.031 C 
ATOM     43  C   UNL A   1      42.147  22.554  28.593  1.00  0.00     0.029 A 
ATOM     44  N   UNL A   1      42.502  24.673  29.081  1.00  0.00    -0.354 N 
ATOM     45  C   UNL A   1      39.649  27.774  27.892  1.00  0.00     0.074 A 
ATOM     46  C   UNL A   1      38.641  27.154  28.712  1.00  0.00     0.031 C 
ATOM     47  C   UNL A   1      43.115  22.578  29.539  1.00  0.00     0.029 A 
ATOM     48  C   UNL A   1      43.413  23.965  29.846  1.00  0.00     0.049 A 
ATOM     49  H   UNL A   1      42.485  25.656  29.052  1.00  0.00     0.167 HD
ATOM     50  C   UNL A   1      40.080  29.061  27.814  1.00  0.00     0.031 A 
ATOM     51  C   UNL A   1      44.354  24.492  30.663  1.00  0.00     0.031 A 
ATOM     52  C   UNL A   1      41.191  29.191  26.901  1.00  0.00     0.049 A 
ATOM     53  C   UNL A   1      44.606  25.878  30.206  1.00  0.00     0.074 A 
ATOM     54  C   UNL A   1      41.369  28.953  25.552  1.00  0.00     0.029 A 
ATOM     55  N   UNL A   1      42.452  29.214  27.453  1.00  0.00    -0.354 N 
ATOM     56  N   UNL A   1      45.149  26.166  29.057  1.00  0.00    -0.248 NA
ATOM     57  C   UNL A   1      43.868  26.961  30.833  1.00  0.00     0.031 C 
ATOM     58  C   UNL A   1      42.676  28.390  25.446  1.00  0.00     0.029 A 
ATOM     59  C   UNL A   1      43.244  28.363  26.722  1.00  0.00     0.049 A 
ATOM     60  H   UNL A   1      42.735  29.744  28.231  1.00  0.00     0.167 HD
ATOM     61  C   UNL A   1      44.471  27.293  28.615  1.00  0.00     0.074 A 
ATOM     62  C   UNL A   1      43.785  27.804  29.799  1.00  0.00     0.031 C 
ATOM     63  C   UNL A   1      44.304  27.544  27.281  1.00  0.00     0.031 A 
BRANCH  50  64
ATOM     64  C   UNL A   1      39.738  30.130  28.815  1.00  0.00    -0.014 A 
ATOM     65  C   UNL A   1      38.558  30.897  28.779  1.00  0.00     0.009 A 
ATOM     66  C   UNL A   1      40.519  30.229  29.979  1.00  0.00     0.009 A 
ATOM     67  C   UNL A   1      38.174  31.717  29.842  1.00  0.00     0.001 A 
ATOM     68  C   UNL A   1      40.114  31.011  31.065  1.00  0.00     0.001 A 
ATOM     69  C   UNL A   1      38.939  31.754  30.996  1.00  0.00     0.000 A 
ENDBRANCH  50  64
BRANCH  51  70
ATOM     70  C   UNL A   1      44.804  23.988  31.976  1.00  0.00    -0.014 A 
ATOM     71  C   UNL A   1      43.999  23.075  32.683  1.00  0.00     0.009 A 
ATOM     72  C   UNL A   1      45.855  24.610  32.665  1.00  0.00     0.009 A 
ATOM     73  C   UNL A   1      44.203  22.832  34.045  1.00  0.00     0.001 A 
ATOM     74  C   UNL A   1      46.060  24.364  34.029  1.00  0.00     0.001 A 
ATOM     75  C   UNL A   1      45.224  23.490  34.721  1.00  0.00     0.000 A 
ENDBRANCH  51  70
BRANCH  63  76
ATOM     76  C   UNL A   1      45.086  26.705  26.291  1.00  0.00    -0.014 A 
ATOM     77  C   UNL A   1      44.607  25.423  25.976  1.00  0.00     0.009 A 
ATOM     78  C   UNL A   1      46.357  27.071  25.813  1.00  0.00     0.009 A 
ATOM     79  C   UNL A   1      45.376  24.531  25.223  1.00  0.00     0.001 A 
ATOM     80  C   UNL A   1      47.117  26.187  25.037  1.00  0.00     0.001 A 
ATOM     81  C   UNL A   1      46.630  24.913  24.752  1.00  0.00     0.000 A 
ENDBRANCH  63  76
ENDBRANCH  37  38
ENDBRANCH  30  32
ENDBRANCH  29  30
ENDBRANCH  28  29
ENDBRANCH   1  28
TORSDOF 15
ENDMDL
MODEL 2
REMARK VINA RESULT:     -12.0      1.265      3.391
REMARK SMILES COc1cc2c(CC(=O)OCCOC(=O)c3ccc(-c4c5nc(c(-c6ccccc6)c6ccc([nH]6)c(-c6ccccc6)c6nc(c(-c7ccccc7)c7ccc4[nH]7)C=C6)C=C5)cc3)c(C)n(C(=O)c3ccc(Cl)cc3)c2cc1Cl
REMARK SMILES IDX 11 1 10 2 8 3 9 4 7 5 6 6 3 7 4 8 78 9 5 10 77 11 79 12
REMARK SMILES IDX 76 13 64 14 66 15 65 16 2 17 1 18 67 19 68 20 69 21 70 22
REMARK SMILES IDX 75 23 71 24 74 25 72 26 73 27 12 28 13 29 14 30 15 31 16 32
REMARK SMILES IDX 17 33 63 34 18 35 62 36 19 37 20 38 21 39 56 40 22 41 61 42
REMARK SMILES IDX 55 43 57 44 23 45 60 46 54 47 53 48 24 50 46 51 31 52 45 53
REMARK SMILES IDX 32 54 35 55 44 56 58 57 33 58 34 59 43 61 59 62 36 63 25 64
REMARK SMILES IDX 26 65 30 66 27 67 29 68 28 69 47 70 48 71 52 72 49 73 51 74
REMARK SMILES IDX 50 75 37 76 38 77 42 78 39 79 41 80 40 81
REMARK H PARENT 57 49 35 60
REMARK Flexibility Score: inf
ROOT
ATOM      1  C   UNL A   1      33.861  22.165  24.850  1.00  0.00     0.274 C 
ENDROOT
BRANCH   1   2
ATOM      2  O   UNL A   1      34.195  22.746  23.567  1.00  0.00    -0.462 OA
BRANCH   2   3
ATOM      3  C   UNL A   1      34.223  24.097  23.571  1.00  0.00     0.310 C 
ATOM      4  O   UNL A   1      34.700  24.754  22.650  1.00  0.00    -0.252 OA
BRANCH   3   5
ATOM      5  C   UNL A   1      33.758  24.770  24.830  1.00  0.00     0.160 C 
BRANCH   5   6
ATOM      6  C   UNL A   1      32.735  25.874  24.813  1.00  0.00    -0.008 A 
ATOM      7  C   UNL A   1      33.437  29.322  26.481  1.00  0.00     0.138 A 
ATOM      8  C   UNL A   1      33.736  28.051  25.949  1.00  0.00     0.058 A 
ATOM      9  C   UNL A   1      32.158  29.818  26.323  1.00  0.00     0.085 A 
ATOM     10  C   UNL A   1      32.766  27.211  25.341  1.00  0.00     0.008 A 
ATOM     11  C   UNL A   1      31.172  29.021  25.729  1.00  0.00     0.051 A 
ATOM     12  Cl  UNL A   1      31.712  31.453  26.667  1.00  0.00    -0.080 Cl
ATOM     13  C   UNL A   1      31.480  27.742  25.200  1.00  0.00     0.058 A 
ATOM     14  C   UNL A   1      31.425  25.638  24.401  1.00  0.00     0.028 A 
ATOM     15  N   UNL A   1      30.721  26.838  24.436  1.00  0.00    -0.280 N 
ATOM     16  C   UNL A   1      30.860  24.329  23.934  1.00  0.00     0.065 C 
BRANCH   7  17
ATOM     17  O   UNL A   1      34.505  29.997  27.014  1.00  0.00    -0.495 OA
ATOM     18  C   UNL A   1      35.589  29.193  27.483  1.00  0.00     0.278 C 
ENDBRANCH   7  17
BRANCH  15  19
ATOM     19  C   UNL A   1      29.482  27.107  23.795  1.00  0.00     0.262 C 
ATOM     20  O   UNL A   1      28.615  26.238  23.746  1.00  0.00    -0.268 OA
BRANCH  19  21
ATOM     21  C   UNL A   1      29.163  28.383  23.147  1.00  0.00     0.040 A 
ATOM     22  C   UNL A   1      27.852  28.872  23.182  1.00  0.00     0.015 A 
ATOM     23  C   UNL A   1      30.155  29.001  22.383  1.00  0.00     0.015 A 
ATOM     24  C   UNL A   1      27.514  29.954  22.371  1.00  0.00     0.021 A 
ATOM     25  C   UNL A   1      29.810  30.086  21.579  1.00  0.00     0.021 A 
ATOM     26  C   UNL A   1      28.489  30.545  21.563  1.00  0.00     0.041 A 
ATOM     27  Cl  UNL A   1      28.050  31.823  20.501  1.00  0.00    -0.084 Cl
ENDBRANCH  19  21
ENDBRANCH  15  19
ENDBRANCH   5   6
ENDBRANCH   3   5
ENDBRANCH   2   3
ENDBRANCH   1   2
BRANCH   1  28
ATOM     28  C   UNL A   1      34.855  21.066  25.245  1.00  0.00     0.275 C 
BRANCH  28  29
ATOM     29  O   UNL A   1      36.110  21.657  25.632  1.00  0.00    -0.458 OA
BRANCH  29  30
ATOM     30  C   UNL A   1      37.226  20.911  25.437  1.00  0.00     0.338 C 
ATOM     31  O   UNL A   1      37.299  19.824  24.886  1.00  0.00    -0.246 OA
BRANCH  30  32
ATOM     32  C   UNL A   1      38.369  21.824  25.626  1.00  0.00     0.060 A 
ATOM     33  C   UNL A   1      39.657  21.364  25.903  1.00  0.00     0.016 A 
ATOM     34  C   UNL A   1      38.042  23.161  25.834  1.00  0.00     0.016 A 
ATOM     35  C   UNL A   1      40.535  22.201  26.590  1.00  0.00     0.010 A 
ATOM     36  C   UNL A   1      38.881  23.967  26.566  1.00  0.00     0.010 A 
ATOM     37  C   UNL A   1      40.087  23.455  27.021  1.00  0.00    -0.014 A 
BRANCH  37  38
ATOM     38  C   UNL A   1      40.890  24.324  27.859  1.00  0.00     0.031 A 
ATOM     39  C   UNL A   1      40.291  25.653  28.086  1.00  0.00     0.074 A 
ATOM     40  C   UNL A   1      41.963  23.963  28.590  1.00  0.00     0.049 A 
ATOM     41  N   UNL A   1      40.616  26.741  27.479  1.00  0.00    -0.248 NA
ATOM     42  C   UNL A   1      39.122  25.774  28.969  1.00  0.00     0.031 C 
ATOM     43  C   UNL A   1      42.533  22.643  28.834  1.00  0.00     0.029 A 
ATOM     44  N   UNL A   1      42.743  24.773  29.356  1.00  0.00    -0.354 N 
ATOM     45  C   UNL A   1      39.805  27.729  28.013  1.00  0.00     0.074 A 
ATOM     46  C   UNL A   1      38.783  27.048  28.767  1.00  0.00     0.031 C 
ATOM     47  C   UNL A   1      43.439  22.710  29.838  1.00  0.00     0.029 A 
ATOM     48  C   UNL A   1      43.642  24.108  30.170  1.00  0.00     0.049 A 
ATOM     49  H   UNL A   1      42.674  25.755  29.332  1.00  0.00     0.167 HD
ATOM     50  C   UNL A   1      40.170  29.038  27.970  1.00  0.00     0.031 A 
ATOM     51  C   UNL A   1      44.503  24.677  31.047  1.00  0.00     0.031 A 
ATOM     52  C   UNL A   1      41.325  29.235  27.127  1.00  0.00     0.049 A 
ATOM     53  C   UNL A   1      44.707  26.078  30.614  1.00  0.00     0.074 A 
ATOM     54  C   UNL A   1      41.598  29.019  25.790  1.00  0.00     0.029 A 
ATOM     55  N   UNL A   1      42.547  29.320  27.754  1.00  0.00    -0.354 N 
ATOM     56  N   UNL A   1      45.303  26.406  29.502  1.00  0.00    -0.248 NA
ATOM     57  C   UNL A   1      43.876  27.115  31.202  1.00  0.00     0.031 C 
ATOM     58  C   UNL A   1      42.936  28.528  25.760  1.00  0.00     0.029 A 
ATOM     59  C   UNL A   1      43.427  28.519  27.069  1.00  0.00     0.049 A 
ATOM     60  H   UNL A   1      42.754  29.858  28.552  1.00  0.00     0.167 HD
ATOM     61  C   UNL A   1      44.593  27.499  29.026  1.00  0.00     0.074 A 
ATOM     62  C   UNL A   1      43.810  27.962  30.170  1.00  0.00     0.031 C 
ATOM     63  C   UNL A   1      44.494  27.752  27.686  1.00  0.00     0.031 A 
BRANCH  50  64
ATOM     64  C   UNL A   1      39.710  30.077  28.954  1.00  0.00    -0.014 A 
ATOM     65  C   UNL A   1      38.506  30.796  28.839  1.00  0.00     0.009 A 
ATOM     66  C   UNL A   1      40.399  30.192  30.173  1.00  0.00     0.009 A 
ATOM     67  C   UNL A   1      38.010  31.584  29.881  1.00  0.00     0.001 A 
ATOM     68  C   UNL A   1      39.883  30.942  31.235  1.00  0.00     0.001 A 
ATOM     69  C   UNL A   1      38.687  31.637  31.088  1.00  0.00     0.000 A 
ENDBRANCH  50  64
BRANCH  51  70
ATOM     70  C   UNL A   1      44.898  24.185  32.381  1.00  0.00    -0.014 A 
ATOM     71  C   UNL A   1      44.036  23.328  33.090  1.00  0.00     0.009 A 
ATOM     72  C   UNL A   1      45.961  24.775  33.081  1.00  0.00     0.009 A 
ATOM     73  C   UNL A   1      44.198  23.109  34.462  1.00  0.00     0.001 A 
ATOM     74  C   UNL A   1      46.124  24.555  34.455  1.00  0.00     0.001 A 
ATOM     75  C   UNL A   1      45.232  23.737  35.147  1.00  0.00     0.000 A 
ENDBRANCH  51  70
BRANCH  63  76
ATOM     76  C   UNL A   1      45.378  26.966  26.741  1.00  0.00    -0.014 A 
ATOM     77  C   UNL A   1      46.507  27.599  26.198  1.00  0.00     0.009 A 
ATOM     78  C   UNL A   1      45.027  25.700  26.238  1.00  0.00     0.009 A 
ATOM     79  C   UNL A   1      47.252  26.998  25.180  1.00  0.00     0.001 A 
ATOM     80  C   UNL A   1      45.787  25.086  25.235  1.00  0.00     0.001 A 
ATOM     81  C   UNL A   1      46.893  25.742  24.699  1.00  0.00     0.000 A 
ENDBRANCH  63  76
ENDBRANCH  37  38
ENDBRANCH  30  32
ENDBRANCH  29  30
ENDBRANCH  28  29
ENDBRANCH   1  28
TORSDOF 15
ENDMDL
MODEL 3
REMARK VINA RESULT:     -11.6      3.551      7.745
REMARK SMILES COc1cc2c(CC(=O)OCCOC(=O)c3ccc(-c4c5nc(c(-c6ccccc6)c6ccc([nH]6)c(-c6ccccc6)c6nc(c(-c7ccccc7)c7ccc4[nH]7)C=C6)C=C5)cc3)c(C)n(C(=O)c3ccc(Cl)cc3)c2cc1Cl
REMARK SMILES IDX 11 1 10 2 8 3 9 4 7 5 6 6 3 7 4 8 78 9 5 10 77 11 79 12
REMARK SMILES IDX 76 13 64 14 66 15 65 16 2 17 1 18 67 19 68 20 69 21 70 22
REMARK SMILES IDX 75 23 71 24 74 25 72 26 73 27 12 28 13 29 14 30 15 31 16 32
REMARK SMILES IDX 17 33 63 34 18 35 62 36 19 37 20 38 21 39 56 40 22 41 61 42
REMARK SMILES IDX 55 43 57 44 23 45 60 46 54 47 53 48 24 50 46 51 31 52 45 53
REMARK SMILES IDX 32 54 35 55 44 56 58 57 33 58 34 59 43 61 59 62 36 63 25 64
REMARK SMILES IDX 26 65 30 66 27 67 29 68 28 69 47 70 48 71 52 72 49 73 51 74
REMARK SMILES IDX 50 75 37 76 38 77 42 78 39 79 41 80 40 81
REMARK H PARENT 57 49 35 60
REMARK Flexibility Score: inf
ROOT
ATOM      1  C   UNL A   1      32.210  29.458  26.893  1.00  0.00     0.274 C 
ENDROOT
BRANCH   1   2
ATOM      2  O   UNL A   1      32.666  28.709  25.741  1.00  0.00    -0.462 OA
BRANCH   2   3
ATOM      3  C   UNL A   1      32.655  27.370  25.923  1.00  0.00     0.310 C 
ATOM      4  O   UNL A   1      32.297  26.846  26.975  1.00  0.00    -0.252 OA
BRANCH   3   5
ATOM      5  C   UNL A   1      33.231  26.540  24.813  1.00  0.00     0.160 C 
BRANCH   5   6
ATOM      6  C   UNL A   1      33.395  25.049  24.933  1.00  0.00    -0.008 A 
ATOM      7  C   UNL A   1      36.912  23.411  25.259  1.00  0.00     0.138 A 
ATOM      8  C   UNL A   1      35.955  24.445  25.267  1.00  0.00     0.058 A 
ATOM      9  C   UNL A   1      36.471  22.106  25.147  1.00  0.00     0.085 A 
ATOM     10  C   UNL A   1      34.566  24.227  25.073  1.00  0.00     0.008 A 
ATOM     11  C   UNL A   1      35.109  21.848  24.952  1.00  0.00     0.051 A 
ATOM     12  Cl  UNL A   1      37.482  20.726  25.396  1.00  0.00    -0.080 Cl
ATOM     13  C   UNL A   1      34.153  22.895  24.959  1.00  0.00     0.058 A 
ATOM     14  C   UNL A   1      32.325  24.185  24.711  1.00  0.00     0.028 A 
ATOM     15  N   UNL A   1      32.747  22.880  24.942  1.00  0.00    -0.280 N 
ATOM     16  C   UNL A   1      30.924  24.578  24.343  1.00  0.00     0.065 C 
BRANCH   7  17
ATOM     17  O   UNL A   1      38.205  23.810  25.480  1.00  0.00    -0.495 OA
ATOM     18  C   UNL A   1      38.525  24.198  26.817  1.00  0.00     0.278 C 
ENDBRANCH   7  17
BRANCH  15  19
ATOM     19  C   UNL A   1      31.914  21.748  25.150  1.00  0.00     0.262 C 
ATOM     20  O   UNL A   1      30.856  21.870  25.764  1.00  0.00    -0.268 OA
BRANCH  19  21
ATOM     21  C   UNL A   1      32.249  20.396  24.692  1.00  0.00     0.040 A 
ATOM     22  C   UNL A   1      32.763  19.462  25.600  1.00  0.00     0.015 A 
ATOM     23  C   UNL A   1      32.183  20.128  23.323  1.00  0.00     0.015 A 
ATOM     24  C   UNL A   1      33.293  18.269  25.112  1.00  0.00     0.021 A 
ATOM     25  C   UNL A   1      32.710  18.929  22.845  1.00  0.00     0.021 A 
ATOM     26  C   UNL A   1      33.279  18.016  23.737  1.00  0.00     0.041 A 
ATOM     27  Cl  UNL A   1      34.010  16.583  23.130  1.00  0.00    -0.084 Cl
ENDBRANCH  19  21
ENDBRANCH  15  19
ENDBRANCH   5   6
ENDBRANCH   3   5
ENDBRANCH   2   3
ENDBRANCH   1   2
BRANCH   1  28
ATOM     28  C   UNL A   1      32.944  30.798  27.018  1.00  0.00     0.275 C 
BRANCH  28  29
ATOM     29  O   UNL A   1      34.340  30.569  27.287  1.00  0.00    -0.458 OA
BRANCH  29  30
ATOM     30  C   UNL A   1      35.075  31.640  27.677  1.00  0.00     0.338 C 
ATOM     31  O   UNL A   1      34.754  32.817  27.615  1.00  0.00    -0.246 OA
BRANCH  30  32
ATOM     32  C   UNL A   1      36.132  31.115  28.562  1.00  0.00     0.060 A 
ATOM     33  C   UNL A   1      37.253  31.865  28.918  1.00  0.00     0.016 A 
ATOM     34  C   UNL A   1      36.118  29.736  28.760  1.00  0.00     0.016 A 
ATOM     35  C   UNL A   1      38.425  31.196  29.264  1.00  0.00     0.010 A 
ATOM     36  C   UNL A   1      37.289  29.073  29.039  1.00  0.00     0.010 A 
ATOM     37  C   UNL A   1      38.459  29.799  29.201  1.00  0.00    -0.014 A 
BRANCH  37  38
ATOM     38  C   UNL A   1      39.676  29.038  29.409  1.00  0.00     0.031 A 
ATOM     39  C   UNL A   1      39.946  28.721  30.825  1.00  0.00     0.074 A 
ATOM     40  C   UNL A   1      40.415  28.435  28.457  1.00  0.00     0.049 A 
ATOM     41  N   UNL A   1      40.776  29.340  31.590  1.00  0.00    -0.248 NA
ATOM     42  C   UNL A   1      39.122  27.713  31.507  1.00  0.00     0.031 C 
ATOM     43  C   UNL A   1      40.163  28.279  27.029  1.00  0.00     0.029 A 
ATOM     44  N   UNL A   1      41.574  27.744  28.635  1.00  0.00    -0.354 N 
ATOM     45  C   UNL A   1      40.705  28.702  32.818  1.00  0.00     0.074 A 
ATOM     46  C   UNL A   1      39.542  27.854  32.765  1.00  0.00     0.031 C 
ATOM     47  C   UNL A   1      41.028  27.379  26.504  1.00  0.00     0.029 A 
ATOM     48  C   UNL A   1      42.007  27.045  27.521  1.00  0.00     0.049 A 
ATOM     49  H   UNL A   1      42.067  27.742  29.487  1.00  0.00     0.167 HD
ATOM     50  C   UNL A   1      41.737  28.761  33.701  1.00  0.00     0.031 A 
ATOM     51  C   UNL A   1      43.105  26.258  27.446  1.00  0.00     0.031 A 
ATOM     52  C   UNL A   1      42.732  29.721  33.286  1.00  0.00     0.049 A 
ATOM     53  C   UNL A   1      44.026  26.684  28.525  1.00  0.00     0.074 A 
ATOM     54  C   UNL A   1      42.728  31.084  33.059  1.00  0.00     0.029 A 
ATOM     55  N   UNL A   1      43.836  29.230  32.628  1.00  0.00    -0.354 N 
ATOM     56  N   UNL A   1      44.611  27.849  28.550  1.00  0.00    -0.248 NA
ATOM     57  C   UNL A   1      43.970  25.990  29.800  1.00  0.00     0.031 C 
ATOM     58  C   UNL A   1      43.553  31.269  31.910  1.00  0.00     0.029 A 
ATOM     59  C   UNL A   1      44.056  30.022  31.529  1.00  0.00     0.049 A 
ATOM     60  H   UNL A   1      44.373  28.450  32.897  1.00  0.00     0.167 HD
ATOM     61  C   UNL A   1      44.601  28.224  29.886  1.00  0.00     0.074 A 
ATOM     62  C   UNL A   1      44.308  26.993  30.617  1.00  0.00     0.031 C 
ATOM     63  C   UNL A   1      44.554  29.540  30.254  1.00  0.00     0.031 A 
BRANCH  50  64
ATOM     64  C   UNL A   1      42.021  27.713  34.741  1.00  0.00    -0.014 A 
ATOM     65  C   UNL A   1      41.560  27.774  36.070  1.00  0.00     0.009 A 
ATOM     66  C   UNL A   1      42.587  26.496  34.325  1.00  0.00     0.009 A 
ATOM     67  C   UNL A   1      41.654  26.683  36.938  1.00  0.00     0.001 A 
ATOM     68  C   UNL A   1      42.640  25.387  35.176  1.00  0.00     0.001 A 
ATOM     69  C   UNL A   1      42.171  25.481  36.482  1.00  0.00     0.000 A 
ENDBRANCH  50  64
BRANCH  51  70
ATOM     70  C   UNL A   1      43.262  24.984  26.717  1.00  0.00    -0.014 A 
ATOM     71  C   UNL A   1      44.161  24.908  25.636  1.00  0.00     0.009 A 
ATOM     72  C   UNL A   1      42.338  23.942  26.878  1.00  0.00     0.009 A 
ATOM     73  C   UNL A   1      44.103  23.854  24.718  1.00  0.00     0.001 A 
ATOM     74  C   UNL A   1      42.281  22.886  25.960  1.00  0.00     0.001 A 
ATOM     75  C   UNL A   1      43.151  22.853  24.871  1.00  0.00     0.000 A 
ENDBRANCH  51  70
BRANCH  63  76
ATOM     76  C   UNL A   1      44.765  30.591  29.184  1.00  0.00    -0.014 A 
ATOM     77  C   UNL A   1      46.000  31.258  29.136  1.00  0.00     0.009 A 
ATOM     78  C   UNL A   1      43.730  31.059  28.355  1.00  0.00     0.009 A 
ATOM     79  C   UNL A   1      46.190  32.364  28.302  1.00  0.00     0.001 A 
ATOM     80  C   UNL A   1      43.927  32.151  27.501  1.00  0.00     0.001 A 
ATOM     81  C   UNL A   1      45.155  32.809  27.484  1.00  0.00     0.000 A 
ENDBRANCH  63  76
ENDBRANCH  37  38
ENDBRANCH  30  32
ENDBRANCH  29  30
ENDBRANCH  28  29
ENDBRANCH   1  28
TORSDOF 15
ENDMDL
