MODEL 1
REMARK VINA RESULT:     -10.6      0.000      0.000
REMARK SMILES CCCCCCNC(=O)Oc1cccc(-c2ccc([C@@H](C)C(=O)OCCOC(=O)c3ccc(-c4c5nc(c(-c6ccccc6)c6ccc([nH]6)c(-c6ccccc6)c6nc(c(-c7ccccc7)c7ccc4[nH]7)C=C6)C=C5)cc3)cc2Cl)c1
REMARK SMILES IDX 20 1 21 2 19 3 16 4 17 5 79 6 18 7 78 8 80 9 15 10 11 11
REMARK SMILES IDX 12 12 81 13 13 14 14 15 10 16 8 17 7 18 9 20 6 21 5 22 4 23
REMARK SMILES IDX 3 24 2 25 1 26 22 27 23 28 24 29 25 30 26 31 27 32 28 33
REMARK SMILES IDX 29 34 30 35 31 36 77 37 32 38 76 39 33 40 34 41 35 42 70 43
REMARK SMILES IDX 36 44 75 45 69 46 71 47 37 48 74 49 68 50 67 51 38 53 60 54
REMARK SMILES IDX 45 55 59 56 46 57 49 58 58 59 72 60 47 61 48 62 57 64 73 65
REMARK SMILES IDX 50 66 39 67 40 68 44 69 41 70 43 71 42 72 61 73 62 74 66 75
REMARK SMILES IDX 63 76 65 77 64 78 51 79 52 80 56 81 53 82 55 83 54 84
REMARK H PARENT 7 19 71 52 49 63
REMARK Flexibility Score: inf
ROOT
ATOM      1  C   UNL A   1      41.255  22.138  27.362  1.00  0.00     0.126 C 
ATOM      2  C   UNL A   1      41.620  22.907  28.629  1.00  0.00     0.025 C 
ENDROOT
BRANCH   1   3
ATOM      3  C   UNL A   1      39.880  22.513  26.827  1.00  0.00    -0.033 A 
ATOM      4  C   UNL A   1      37.300  23.157  25.787  1.00  0.00     0.000 A 
ATOM      5  C   UNL A   1      38.065  24.098  26.501  1.00  0.00     0.010 A 
ATOM      6  C   UNL A   1      37.857  21.880  25.604  1.00  0.00     0.049 A 
ATOM      7  C   UNL A   1      39.333  23.786  27.005  1.00  0.00     0.005 A 
ATOM      8  C   UNL A   1      39.126  21.566  26.114  1.00  0.00     0.025 A 
ATOM      9  Cl  UNL A   1      37.055  20.635  24.701  1.00  0.00    -0.084 Cl
BRANCH   4  10
ATOM     10  C   UNL A   1      35.990  23.564  25.244  1.00  0.00    -0.013 A 
ATOM     11  C   UNL A   1      33.597  23.893  25.468  1.00  0.00     0.133 A 
ATOM     12  C   UNL A   1      33.503  24.325  24.147  1.00  0.00     0.047 A 
ATOM     13  C   UNL A   1      34.822  23.512  26.020  1.00  0.00     0.056 A 
ATOM     14  C   UNL A   1      34.655  24.399  23.371  1.00  0.00     0.004 A 
ATOM     15  C   UNL A   1      35.886  24.019  23.915  1.00  0.00     0.009 A 
BRANCH  11  16
ATOM     16  O   UNL A   1      32.392  23.732  26.170  1.00  0.00    -0.410 OA
BRANCH  16  17
ATOM     17  C   UNL A   1      32.255  22.611  26.974  1.00  0.00     0.412 C 
ATOM     18  N   UNL A   1      31.968  21.475  26.266  1.00  0.00    -0.321 N 
ATOM     19  H   UNL A   1      31.869  20.646  26.788  1.00  0.00     0.167 HD
ATOM     20  O   UNL A   1      32.351  22.580  28.195  1.00  0.00    -0.224 OA
BRANCH  18  21
ATOM     21  C   UNL A   1      31.796  21.361  24.832  1.00  0.00     0.119 C 
BRANCH  21  22
ATOM     22  C   UNL A   1      32.980  20.663  24.161  1.00  0.00     0.021 C 
BRANCH  22  23
ATOM     23  C   UNL A   1      33.403  19.338  24.810  1.00  0.00     0.002 C 
BRANCH  23  24
ATOM     24  C   UNL A   1      32.525  18.127  24.480  1.00  0.00    -0.000 C 
BRANCH  24  25
ATOM     25  C   UNL A   1      33.262  16.791  24.357  1.00  0.00    -0.003 C 
ATOM     26  C   UNL A   1      34.151  16.703  23.126  1.00  0.00     0.004 C 
ENDBRANCH  24  25
ENDBRANCH  23  24
ENDBRANCH  22  23
ENDBRANCH  21  22
ENDBRANCH  18  21
ENDBRANCH  16  17
ENDBRANCH  11  16
ENDBRANCH   4  10
ENDBRANCH   1   3
BRANCH   1  27
ATOM     27  C   UNL A   1      41.510  20.648  27.562  1.00  0.00     0.313 C 
ATOM     28  O   UNL A   1      40.856  19.976  28.355  1.00  0.00    -0.252 OA
BRANCH  27  29
ATOM     29  O   UNL A   1      42.481  20.147  26.755  1.00  0.00    -0.462 OA
BRANCH  29  30
ATOM     30  C   UNL A   1      42.444  18.731  26.492  1.00  0.00     0.274 C 
BRANCH  30  31
ATOM     31  C   UNL A   1      43.498  18.321  25.460  1.00  0.00     0.275 C 
BRANCH  31  32
ATOM     32  O   UNL A   1      43.630  19.311  24.422  1.00  0.00    -0.458 OA
BRANCH  32  33
ATOM     33  C   UNL A   1      44.905  19.620  24.094  1.00  0.00     0.338 C 
ATOM     34  O   UNL A   1      45.705  18.929  23.489  1.00  0.00    -0.246 OA
BRANCH  33  35
ATOM     35  C   UNL A   1      45.186  21.016  24.456  1.00  0.00     0.060 A 
ATOM     36  C   UNL A   1      45.653  21.269  25.748  1.00  0.00     0.016 A 
ATOM     37  C   UNL A   1      44.904  22.068  23.584  1.00  0.00     0.016 A 
ATOM     38  C   UNL A   1      45.815  22.577  26.190  1.00  0.00     0.010 A 
ATOM     39  C   UNL A   1      45.077  23.384  24.025  1.00  0.00     0.010 A 
ATOM     40  C   UNL A   1      45.513  23.645  25.337  1.00  0.00    -0.014 A 
BRANCH  40  41
ATOM     41  C   UNL A   1      45.601  25.030  25.855  1.00  0.00     0.031 A 
ATOM     42  C   UNL A   1      46.916  25.754  25.838  1.00  0.00     0.074 A 
ATOM     43  C   UNL A   1      44.494  25.650  26.299  1.00  0.00     0.049 A 
ATOM     44  N   UNL A   1      47.201  26.960  26.258  1.00  0.00    -0.248 NA
ATOM     45  C   UNL A   1      48.064  25.022  25.278  1.00  0.00     0.031 C 
ATOM     46  C   UNL A   1      43.153  25.064  26.332  1.00  0.00     0.029 A 
ATOM     47  N   UNL A   1      44.323  26.913  26.804  1.00  0.00    -0.354 N 
ATOM     48  C   UNL A   1      48.560  27.127  26.031  1.00  0.00     0.074 A 
ATOM     49  C   UNL A   1      49.048  25.892  25.454  1.00  0.00     0.031 C 
ATOM     50  C   UNL A   1      42.296  25.970  26.829  1.00  0.00     0.029 A 
ATOM     51  C   UNL A   1      43.032  27.182  27.180  1.00  0.00     0.049 A 
ATOM     52  H   UNL A   1      45.057  27.564  26.889  1.00  0.00     0.167 HD
ATOM     53  C   UNL A   1      49.332  28.212  26.278  1.00  0.00     0.031 A 
ATOM     54  C   UNL A   1      42.502  28.275  27.760  1.00  0.00     0.031 A 
ATOM     55  C   UNL A   1      48.848  29.441  26.849  1.00  0.00     0.049 A 
ATOM     56  C   UNL A   1      43.385  29.452  28.060  1.00  0.00     0.074 A 
ATOM     57  C   UNL A   1      49.550  30.603  27.119  1.00  0.00     0.029 A 
ATOM     58  N   UNL A   1      47.537  29.665  27.240  1.00  0.00    -0.354 N 
ATOM     59  N   UNL A   1      44.667  29.603  27.828  1.00  0.00    -0.248 NA
ATOM     60  C   UNL A   1      42.748  30.612  28.699  1.00  0.00     0.031 C 
ATOM     61  C   UNL A   1      48.671  31.516  27.715  1.00  0.00     0.029 A 
ATOM     62  C   UNL A   1      47.414  30.938  27.770  1.00  0.00     0.049 A 
ATOM     63  H   UNL A   1      46.802  29.015  27.152  1.00  0.00     0.167 HD
ATOM     64  C   UNL A   1      44.987  30.876  28.278  1.00  0.00     0.074 A 
ATOM     65  C   UNL A   1      43.762  31.464  28.781  1.00  0.00     0.031 C 
ATOM     66  C   UNL A   1      46.189  31.503  28.275  1.00  0.00     0.031 A 
BRANCH  53  67
ATOM     67  C   UNL A   1      50.796  28.095  25.963  1.00  0.00    -0.014 A 
ATOM     68  C   UNL A   1      51.298  28.401  24.688  1.00  0.00     0.009 A 
ATOM     69  C   UNL A   1      51.689  27.683  26.965  1.00  0.00     0.009 A 
ATOM     70  C   UNL A   1      52.660  28.259  24.413  1.00  0.00     0.001 A 
ATOM     71  C   UNL A   1      53.052  27.564  26.693  1.00  0.00     0.001 A 
ATOM     72  C   UNL A   1      53.535  27.843  25.415  1.00  0.00     0.000 A 
ENDBRANCH  53  67
BRANCH  54  73
ATOM     73  C   UNL A   1      41.061  28.291  28.116  1.00  0.00    -0.014 A 
ATOM     74  C   UNL A   1      40.606  27.680  29.294  1.00  0.00     0.009 A 
ATOM     75  C   UNL A   1      40.135  28.936  27.281  1.00  0.00     0.009 A 
ATOM     76  C   UNL A   1      39.248  27.705  29.621  1.00  0.00     0.001 A 
ATOM     77  C   UNL A   1      38.783  28.981  27.624  1.00  0.00     0.001 A 
ATOM     78  C   UNL A   1      38.340  28.360  28.790  1.00  0.00     0.000 A 
ENDBRANCH  54  73
BRANCH  66  79
ATOM     79  C   UNL A   1      46.231  32.902  28.820  1.00  0.00    -0.014 A 
ATOM     80  C   UNL A   1      46.518  33.146  30.171  1.00  0.00     0.009 A 
ATOM     81  C   UNL A   1      46.015  33.990  27.960  1.00  0.00     0.009 A 
ATOM     82  C   UNL A   1      46.561  34.454  30.657  1.00  0.00     0.001 A 
ATOM     83  C   UNL A   1      46.081  35.297  28.445  1.00  0.00     0.001 A 
ATOM     84  C   UNL A   1      46.346  35.528  29.794  1.00  0.00     0.000 A 
ENDBRANCH  66  79
ENDBRANCH  40  41
ENDBRANCH  33  35
ENDBRANCH  32  33
ENDBRANCH  31  32
ENDBRANCH  30  31
ENDBRANCH  29  30
ENDBRANCH  27  29
ENDBRANCH   1  27
TORSDOF 20
ENDMDL
MODEL 2
REMARK VINA RESULT:     -10.5      1.627      2.901
REMARK SMILES CCCCCCNC(=O)Oc1cccc(-c2ccc([C@@H](C)C(=O)OCCOC(=O)c3ccc(-c4c5nc(c(-c6ccccc6)c6ccc([nH]6)c(-c6ccccc6)c6nc(c(-c7ccccc7)c7ccc4[nH]7)C=C6)C=C5)cc3)cc2Cl)c1
REMARK SMILES IDX 20 1 21 2 19 3 16 4 17 5 79 6 18 7 78 8 80 9 15 10 11 11
REMARK SMILES IDX 12 12 81 13 13 14 14 15 10 16 8 17 7 18 9 20 6 21 5 22 4 23
REMARK SMILES IDX 3 24 2 25 1 26 22 27 23 28 24 29 25 30 26 31 27 32 28 33
REMARK SMILES IDX 29 34 30 35 31 36 77 37 32 38 76 39 33 40 34 41 35 42 70 43
REMARK SMILES IDX 36 44 75 45 69 46 71 47 37 48 74 49 68 50 67 51 38 53 60 54
REMARK SMILES IDX 45 55 59 56 46 57 49 58 58 59 72 60 47 61 48 62 57 64 73 65
REMARK SMILES IDX 50 66 39 67 40 68 44 69 41 70 43 71 42 72 61 73 62 74 66 75
REMARK SMILES IDX 63 76 65 77 64 78 51 79 52 80 56 81 53 82 55 83 54 84
REMARK H PARENT 7 19 71 52 49 63
REMARK Flexibility Score: inf
ROOT
ATOM      1  C   UNL A   1      41.178  22.030  27.055  1.00  0.00     0.126 C 
ATOM      2  C   UNL A   1      41.573  22.655  28.390  1.00  0.00     0.025 C 
ENDROOT
BRANCH   1   3
ATOM      3  C   UNL A   1      39.798  22.471  26.589  1.00  0.00    -0.033 A 
ATOM      4  C   UNL A   1      37.200  23.238  25.686  1.00  0.00     0.000 A 
ATOM      5  C   UNL A   1      38.082  24.165  26.272  1.00  0.00     0.010 A 
ATOM      6  C   UNL A   1      37.649  21.912  25.561  1.00  0.00     0.049 A 
ATOM      7  C   UNL A   1      39.358  23.792  26.710  1.00  0.00     0.005 A 
ATOM      8  C   UNL A   1      38.927  21.538  26.004  1.00  0.00     0.025 A 
ATOM      9  Cl  UNL A   1      36.695  20.672  24.812  1.00  0.00    -0.084 Cl
BRANCH   4  10
ATOM     10  C   UNL A   1      35.885  23.705  25.207  1.00  0.00    -0.013 A 
ATOM     11  C   UNL A   1      33.690  24.662  25.594  1.00  0.00     0.133 A 
ATOM     12  C   UNL A   1      33.372  24.556  24.242  1.00  0.00     0.047 A 
ATOM     13  C   UNL A   1      34.929  24.242  26.083  1.00  0.00     0.056 A 
ATOM     14  C   UNL A   1      34.317  24.042  23.359  1.00  0.00     0.004 A 
ATOM     15  C   UNL A   1      35.560  23.618  23.839  1.00  0.00     0.009 A 
BRANCH  11  16
ATOM     16  O   UNL A   1      32.664  25.082  26.456  1.00  0.00    -0.410 OA
BRANCH  16  17
ATOM     17  C   UNL A   1      31.664  24.173  26.765  1.00  0.00     0.412 C 
ATOM     18  N   UNL A   1      30.412  24.625  26.447  1.00  0.00    -0.321 N 
ATOM     19  H   UNL A   1      29.664  24.014  26.638  1.00  0.00     0.167 HD
ATOM     20  O   UNL A   1      31.821  23.075  27.284  1.00  0.00    -0.224 OA
BRANCH  18  21
ATOM     21  C   UNL A   1      30.068  25.904  25.859  1.00  0.00     0.119 C 
BRANCH  21  22
ATOM     22  C   UNL A   1      30.001  25.839  24.333  1.00  0.00     0.021 C 
BRANCH  22  23
ATOM     23  C   UNL A   1      29.234  26.991  23.669  1.00  0.00     0.002 C 
BRANCH  23  24
ATOM     24  C   UNL A   1      30.042  27.846  22.687  1.00  0.00    -0.000 C 
BRANCH  24  25
ATOM     25  C   UNL A   1      30.342  29.274  23.148  1.00  0.00    -0.003 C 
ATOM     26  C   UNL A   1      31.055  29.337  24.491  1.00  0.00     0.004 C 
ENDBRANCH  24  25
ENDBRANCH  23  24
ENDBRANCH  22  23
ENDBRANCH  21  22
ENDBRANCH  18  21
ENDBRANCH  16  17
ENDBRANCH  11  16
ENDBRANCH   4  10
ENDBRANCH   1   3
BRANCH   1  27
ATOM     27  C   UNL A   1      41.424  20.526  27.086  1.00  0.00     0.313 C 
ATOM     28  O   UNL A   1      41.062  19.828  28.030  1.00  0.00    -0.252 OA
BRANCH  27  29
ATOM     29  O   UNL A   1      42.025  20.047  25.967  1.00  0.00    -0.462 OA
BRANCH  29  30
ATOM     30  C   UNL A   1      42.406  18.657  25.976  1.00  0.00     0.274 C 
BRANCH  30  31
ATOM     31  C   UNL A   1      43.814  18.455  25.408  1.00  0.00     0.275 C 
BRANCH  31  32
ATOM     32  O   UNL A   1      44.048  19.306  24.270  1.00  0.00    -0.458 OA
BRANCH  32  33
ATOM     33  C   UNL A   1      45.263  19.899  24.247  1.00  0.00     0.338 C 
ATOM     34  O   UNL A   1      46.288  19.473  23.743  1.00  0.00    -0.246 OA
BRANCH  33  35
ATOM     35  C   UNL A   1      45.168  21.251  24.816  1.00  0.00     0.060 A 
ATOM     36  C   UNL A   1      44.965  22.313  23.933  1.00  0.00     0.016 A 
ATOM     37  C   UNL A   1      45.374  21.486  26.176  1.00  0.00     0.016 A 
ATOM     38  C   UNL A   1      44.994  23.623  24.396  1.00  0.00     0.010 A 
ATOM     39  C   UNL A   1      45.392  22.804  26.644  1.00  0.00     0.010 A 
ATOM     40  C   UNL A   1      45.223  23.879  25.753  1.00  0.00    -0.014 A 
BRANCH  40  41
ATOM     41  C   UNL A   1      45.345  25.282  26.213  1.00  0.00     0.031 A 
ATOM     42  C   UNL A   1      46.676  25.974  26.164  1.00  0.00     0.074 A 
ATOM     43  C   UNL A   1      44.253  25.946  26.633  1.00  0.00     0.049 A 
ATOM     44  N   UNL A   1      46.990  27.189  26.534  1.00  0.00    -0.248 NA
ATOM     45  C   UNL A   1      47.805  25.193  25.633  1.00  0.00     0.031 C 
ATOM     46  C   UNL A   1      42.900  25.394  26.693  1.00  0.00     0.029 A 
ATOM     47  N   UNL A   1      44.113  27.232  27.086  1.00  0.00    -0.354 N 
ATOM     48  C   UNL A   1      48.352  27.315  26.298  1.00  0.00     0.074 A 
ATOM     49  C   UNL A   1      48.809  26.046  25.772  1.00  0.00     0.031 C 
ATOM     50  C   UNL A   1      42.065  26.339  27.154  1.00  0.00     0.029 A 
ATOM     51  C   UNL A   1      42.830  27.546  27.453  1.00  0.00     0.049 A 
ATOM     52  H   UNL A   1      44.862  27.869  27.143  1.00  0.00     0.167 HD
ATOM     53  C   UNL A   1      49.149  28.391  26.498  1.00  0.00     0.031 A 
ATOM     54  C   UNL A   1      42.327  28.674  27.989  1.00  0.00     0.031 A 
ATOM     55  C   UNL A   1      48.696  29.654  27.019  1.00  0.00     0.049 A 
ATOM     56  C   UNL A   1      43.238  29.842  28.239  1.00  0.00     0.074 A 
ATOM     57  C   UNL A   1      49.425  30.809  27.240  1.00  0.00     0.029 A 
ATOM     58  N   UNL A   1      47.392  29.924  27.403  1.00  0.00    -0.354 N 
ATOM     59  N   UNL A   1      44.523  29.953  27.999  1.00  0.00    -0.248 NA
ATOM     60  C   UNL A   1      42.630  31.041  28.831  1.00  0.00     0.031 C 
ATOM     61  C   UNL A   1      48.570  31.766  27.800  1.00  0.00     0.029 A 
ATOM     62  C   UNL A   1      47.299  31.220  27.881  1.00  0.00     0.049 A 
ATOM     63  H   UNL A   1      46.642  29.288  27.344  1.00  0.00     0.167 HD
ATOM     64  C   UNL A   1      44.873  31.236  28.395  1.00  0.00     0.074 A 
ATOM     65  C   UNL A   1      43.664  31.872  28.876  1.00  0.00     0.031 C 
ATOM     66  C   UNL A   1      46.090  31.833  28.365  1.00  0.00     0.031 A 
BRANCH  53  67
ATOM     67  C   UNL A   1      50.609  28.227  26.187  1.00  0.00    -0.014 A 
ATOM     68  C   UNL A   1      51.523  27.798  27.162  1.00  0.00     0.009 A 
ATOM     69  C   UNL A   1      51.076  28.498  24.890  1.00  0.00     0.009 A 
ATOM     70  C   UNL A   1      52.880  27.679  26.855  1.00  0.00     0.001 A 
ATOM     71  C   UNL A   1      52.429  28.356  24.580  1.00  0.00     0.001 A 
ATOM     72  C   UNL A   1      53.332  27.957  25.565  1.00  0.00     0.000 A 
ENDBRANCH  53  67
BRANCH  54  73
ATOM     73  C   UNL A   1      40.888  28.738  28.347  1.00  0.00    -0.014 A 
ATOM     74  C   UNL A   1      40.448  28.354  29.622  1.00  0.00     0.009 A 
ATOM     75  C   UNL A   1      39.949  29.203  27.413  1.00  0.00     0.009 A 
ATOM     76  C   UNL A   1      39.091  28.423  29.949  1.00  0.00     0.001 A 
ATOM     77  C   UNL A   1      38.598  29.294  27.751  1.00  0.00     0.001 A 
ATOM     78  C   UNL A   1      38.170  28.898  29.017  1.00  0.00     0.000 A 
ENDBRANCH  54  73
BRANCH  66  79
ATOM     79  C   UNL A   1      46.166  33.252  28.851  1.00  0.00    -0.014 A 
ATOM     80  C   UNL A   1      45.950  34.330  27.979  1.00  0.00     0.009 A 
ATOM     81  C   UNL A   1      46.421  33.511  30.207  1.00  0.00     0.009 A 
ATOM     82  C   UNL A   1      46.016  35.642  28.452  1.00  0.00     0.001 A 
ATOM     83  C   UNL A   1      46.465  34.823  30.680  1.00  0.00     0.001 A 
ATOM     84  C   UNL A   1      46.270  35.888  29.800  1.00  0.00     0.000 A 
ENDBRANCH  66  79
ENDBRANCH  40  41
ENDBRANCH  33  35
ENDBRANCH  32  33
ENDBRANCH  31  32
ENDBRANCH  30  31
ENDBRANCH  29  30
ENDBRANCH  27  29
ENDBRANCH   1  27
TORSDOF 20
ENDMDL
MODEL 3
REMARK VINA RESULT:     -10.3      5.036     10.700
REMARK SMILES CCCCCCNC(=O)Oc1cccc(-c2ccc([C@@H](C)C(=O)OCCOC(=O)c3ccc(-c4c5nc(c(-c6ccccc6)c6ccc([nH]6)c(-c6ccccc6)c6nc(c(-c7ccccc7)c7ccc4[nH]7)C=C6)C=C5)cc3)cc2Cl)c1
REMARK SMILES IDX 20 1 21 2 19 3 16 4 17 5 79 6 18 7 78 8 80 9 15 10 11 11
REMARK SMILES IDX 12 12 81 13 13 14 14 15 10 16 8 17 7 18 9 20 6 21 5 22 4 23
REMARK SMILES IDX 3 24 2 25 1 26 22 27 23 28 24 29 25 30 26 31 27 32 28 33
REMARK SMILES IDX 29 34 30 35 31 36 77 37 32 38 76 39 33 40 34 41 35 42 70 43
REMARK SMILES IDX 36 44 75 45 69 46 71 47 37 48 74 49 68 50 67 51 38 53 60 54
REMARK SMILES IDX 45 55 59 56 46 57 49 58 58 59 72 60 47 61 48 62 57 64 73 65
REMARK SMILES IDX 50 66 39 67 40 68 44 69 41 70 43 71 42 72 61 73 62 74 66 75
REMARK SMILES IDX 63 76 65 77 64 78 51 79 52 80 56 81 53 82 55 83 54 84
REMARK H PARENT 7 19 71 52 49 63
REMARK Flexibility Score: inf
ROOT
ATOM      1  C   UNL A   1      34.456  34.587  29.011  1.00  0.00     0.126 C 
ATOM      2  C   UNL A   1      34.300  35.771  28.060  1.00  0.00     0.025 C 
ENDROOT
BRANCH   1   3
ATOM      3  C   UNL A   1      34.013  33.273  28.385  1.00  0.00    -0.033 A 
ATOM      4  C   UNL A   1      33.244  30.781  27.221  1.00  0.00     0.000 A 
ATOM      5  C   UNL A   1      32.412  31.914  27.159  1.00  0.00     0.010 A 
ATOM      6  C   UNL A   1      34.477  30.922  27.883  1.00  0.00     0.049 A 
ATOM      7  C   UNL A   1      32.789  33.138  27.723  1.00  0.00     0.005 A 
ATOM      8  C   UNL A   1      34.852  32.149  28.452  1.00  0.00     0.025 A 
ATOM      9  Cl  UNL A   1      35.628  29.631  27.993  1.00  0.00    -0.084 Cl
BRANCH   4  10
ATOM     10  C   UNL A   1      32.805  29.533  26.568  1.00  0.00    -0.013 A 
ATOM     11  C   UNL A   1      32.632  28.088  24.628  1.00  0.00     0.133 A 
ATOM     12  C   UNL A   1      31.913  27.144  25.358  1.00  0.00     0.047 A 
ATOM     13  C   UNL A   1      33.076  29.274  25.215  1.00  0.00     0.056 A 
ATOM     14  C   UNL A   1      31.652  27.380  26.704  1.00  0.00     0.004 A 
ATOM     15  C   UNL A   1      32.091  28.565  27.301  1.00  0.00     0.009 A 
BRANCH  11  16
ATOM     16  O   UNL A   1      32.771  27.852  23.251  1.00  0.00    -0.410 OA
BRANCH  16  17
ATOM     17  C   UNL A   1      32.063  26.796  22.699  1.00  0.00     0.412 C 
ATOM     18  N   UNL A   1      30.807  27.151  22.285  1.00  0.00    -0.321 N 
ATOM     19  H   UNL A   1      30.262  26.439  21.877  1.00  0.00     0.167 HD
ATOM     20  O   UNL A   1      32.458  25.643  22.582  1.00  0.00    -0.224 OA
BRANCH  18  21
ATOM     21  C   UNL A   1      30.193  28.459  22.383  1.00  0.00     0.119 C 
BRANCH  21  22
ATOM     22  C   UNL A   1      28.906  28.433  23.208  1.00  0.00     0.021 C 
BRANCH  22  23
ATOM     23  C   UNL A   1      27.674  29.020  22.506  1.00  0.00     0.002 C 
BRANCH  23  24
ATOM     24  C   UNL A   1      27.651  30.546  22.368  1.00  0.00    -0.000 C 
BRANCH  24  25
ATOM     25  C   UNL A   1      27.757  31.328  23.679  1.00  0.00    -0.003 C 
ATOM     26  C   UNL A   1      29.125  31.957  23.899  1.00  0.00     0.004 C 
ENDBRANCH  24  25
ENDBRANCH  23  24
ENDBRANCH  22  23
ENDBRANCH  21  22
ENDBRANCH  18  21
ENDBRANCH  16  17
ENDBRANCH  11  16
ENDBRANCH   4  10
ENDBRANCH   1   3
BRANCH   1  27
ATOM     27  C   UNL A   1      33.846  34.921  30.368  1.00  0.00     0.313 C 
ATOM     28  O   UNL A   1      32.718  35.395  30.475  1.00  0.00    -0.252 OA
BRANCH  27  29
ATOM     29  O   UNL A   1      34.642  34.599  31.420  1.00  0.00    -0.462 OA
BRANCH  29  30
ATOM     30  C   UNL A   1      34.013  34.515  32.713  1.00  0.00     0.274 C 
BRANCH  30  31
ATOM     31  C   UNL A   1      34.315  33.181  33.402  1.00  0.00     0.275 C 
BRANCH  31  32
ATOM     32  O   UNL A   1      35.263  32.403  32.646  1.00  0.00    -0.458 OA
BRANCH  32  33
ATOM     33  C   UNL A   1      36.425  32.147  33.289  1.00  0.00     0.338 C 
ATOM     34  O   UNL A   1      36.656  32.263  34.479  1.00  0.00    -0.246 OA
BRANCH  33  35
ATOM     35  C   UNL A   1      37.390  31.553  32.353  1.00  0.00     0.060 A 
ATOM     36  C   UNL A   1      38.412  30.767  32.888  1.00  0.00     0.016 A 
ATOM     37  C   UNL A   1      37.355  31.841  30.988  1.00  0.00     0.016 A 
ATOM     38  C   UNL A   1      39.426  30.285  32.068  1.00  0.00     0.010 A 
ATOM     39  C   UNL A   1      38.370  31.348  30.161  1.00  0.00     0.010 A 
ATOM     40  C   UNL A   1      39.421  30.585  30.701  1.00  0.00    -0.014 A 
BRANCH  40  41
ATOM     41  C   UNL A   1      40.558  30.144  29.860  1.00  0.00     0.031 A 
ATOM     42  C   UNL A   1      40.513  28.805  29.183  1.00  0.00     0.074 A 
ATOM     43  C   UNL A   1      41.609  30.962  29.672  1.00  0.00     0.049 A 
ATOM     44  N   UNL A   1      41.411  28.234  28.421  1.00  0.00    -0.248 NA
ATOM     45  C   UNL A   1      39.299  28.001  29.393  1.00  0.00     0.031 C 
ATOM     46  C   UNL A   1      41.751  32.299  30.248  1.00  0.00     0.029 A 
ATOM     47  N   UNL A   1      42.753  30.785  28.939  1.00  0.00    -0.354 N 
ATOM     48  C   UNL A   1      40.880  26.998  28.075  1.00  0.00     0.074 A 
ATOM     49  C   UNL A   1      39.592  26.894  28.726  1.00  0.00     0.031 C 
ATOM     50  C   UNL A   1      42.919  32.824  29.842  1.00  0.00     0.029 A 
ATOM     51  C   UNL A   1      43.617  31.848  29.010  1.00  0.00     0.049 A 
ATOM     52  H   UNL A   1      42.938  29.974  28.412  1.00  0.00     0.167 HD
ATOM     53  C   UNL A   1      41.417  26.039  27.285  1.00  0.00     0.031 A 
ATOM     54  C   UNL A   1      44.843  32.012  28.479  1.00  0.00     0.031 A 
ATOM     55  C   UNL A   1      42.697  26.142  26.635  1.00  0.00     0.049 A 
ATOM     56  C   UNL A   1      45.435  30.918  27.637  1.00  0.00     0.074 A 
ATOM     57  C   UNL A   1      43.318  25.230  25.800  1.00  0.00     0.029 A 
ATOM     58  N   UNL A   1      43.554  27.225  26.752  1.00  0.00    -0.354 N 
ATOM     59  N   UNL A   1      44.918  29.759  27.307  1.00  0.00    -0.248 NA
ATOM     60  C   UNL A   1      46.779  31.156  27.092  1.00  0.00     0.031 C 
ATOM     61  C   UNL A   1      44.571  25.744  25.445  1.00  0.00     0.029 A 
ATOM     62  C   UNL A   1      44.708  26.995  26.023  1.00  0.00     0.049 A 
ATOM     63  H   UNL A   1      43.369  28.039  27.276  1.00  0.00     0.167 HD
ATOM     64  C   UNL A   1      45.864  29.136  26.505  1.00  0.00     0.074 A 
ATOM     65  C   UNL A   1      46.980  30.052  26.384  1.00  0.00     0.031 C 
ATOM     66  C   UNL A   1      45.813  27.914  25.922  1.00  0.00     0.031 A 
BRANCH  53  67
ATOM     67  C   UNL A   1      40.628  24.773  27.115  1.00  0.00    -0.014 A 
ATOM     68  C   UNL A   1      41.063  23.559  27.671  1.00  0.00     0.009 A 
ATOM     69  C   UNL A   1      39.422  24.798  26.395  1.00  0.00     0.009 A 
ATOM     70  C   UNL A   1      40.325  22.389  27.476  1.00  0.00     0.001 A 
ATOM     71  C   UNL A   1      38.676  23.632  26.222  1.00  0.00     0.001 A 
ATOM     72  C   UNL A   1      39.132  22.427  26.754  1.00  0.00     0.000 A 
ENDBRANCH  53  67
BRANCH  54  73
ATOM     73  C   UNL A   1      45.601  33.259  28.754  1.00  0.00    -0.014 A 
ATOM     74  C   UNL A   1      45.474  34.375  27.915  1.00  0.00     0.009 A 
ATOM     75  C   UNL A   1      46.444  33.340  29.873  1.00  0.00     0.009 A 
ATOM     76  C   UNL A   1      46.188  35.545  28.186  1.00  0.00     0.001 A 
ATOM     77  C   UNL A   1      47.137  34.518  30.155  1.00  0.00     0.001 A 
ATOM     78  C   UNL A   1      47.012  35.617  29.307  1.00  0.00     0.000 A 
ENDBRANCH  54  73
BRANCH  66  79
ATOM     79  C   UNL A   1      46.993  27.505  25.087  1.00  0.00    -0.014 A 
ATOM     80  C   UNL A   1      47.085  27.869  23.735  1.00  0.00     0.009 A 
ATOM     81  C   UNL A   1      48.041  26.779  25.673  1.00  0.00     0.009 A 
ATOM     82  C   UNL A   1      48.195  27.487  22.978  1.00  0.00     0.001 A 
ATOM     83  C   UNL A   1      49.159  26.418  24.918  1.00  0.00     0.001 A 
ATOM     84  C   UNL A   1      49.231  26.766  23.569  1.00  0.00     0.000 A 
ENDBRANCH  66  79
ENDBRANCH  40  41
ENDBRANCH  33  35
ENDBRANCH  32  33
ENDBRANCH  31  32
ENDBRANCH  30  31
ENDBRANCH  29  30
ENDBRANCH  27  29
ENDBRANCH   1  27
TORSDOF 20
ENDMDL
