MODEL 1
REMARK VINA RESULT:     -10.4      0.000      0.000
REMARK SMILES CCOCCC(=O)N1[C@@H](C(=O)OCCOC(=O)c2ccc(-c3c4nc(c(-c5ccccc5)c5ccc([nH]5)c(-c5ccccc5)c5nc(c(-c6ccccc6)c6ccc3[nH]6)C=C5)C=C4)cc2)CC[C@H]2CCCC[C@@H]21
REMARK SMILES IDX 12 1 10 2 11 3 9 4 8 5 73 6 66 7 68 8 72 9 67 10 69 11 71 12
REMARK SMILES IDX 70 13 6 14 7 15 5 16 4 17 3 18 2 19 1 20 13 21 14 22 15 23
REMARK SMILES IDX 16 24 17 25 18 26 19 27 65 28 20 29 64 30 21 31 22 32 23 33
REMARK SMILES IDX 58 34 24 35 63 36 57 37 59 38 25 39 62 40 56 41 55 42 26 44
REMARK SMILES IDX 48 45 33 46 47 47 34 48 37 49 46 50 60 51 35 52 36 53 45 55
REMARK SMILES IDX 61 56 38 57 27 58 28 59 32 60 29 61 31 62 30 63 49 64 50 65
REMARK SMILES IDX 54 66 51 67 53 68 52 69 39 70 40 71 44 72 41 73 43 74 42 75
REMARK H PARENT 59 43 37 54
REMARK Flexibility Score: inf
ROOT
ATOM      1  O   UNL A   1      35.498  22.652  25.662  1.00  0.00    -0.461 OA
ENDROOT
BRANCH   1   2
ATOM      2  C   UNL A   1      34.597  23.288  26.459  1.00  0.00     0.328 C 
ATOM      3  O   UNL A   1      34.388  22.958  27.624  1.00  0.00    -0.250 OA
BRANCH   2   4
ATOM      4  C   UNL A   1      33.811  24.413  25.716  1.00  0.00     0.195 C 
ATOM      5  N   UNL A   1      32.372  24.206  25.385  1.00  0.00    -0.326 N 
ATOM      6  C   UNL A   1      31.743  25.209  24.500  1.00  0.00     0.089 C 
ATOM      7  C   UNL A   1      34.631  24.638  24.387  1.00  0.00     0.037 C 
ATOM      8  C   UNL A   1      32.735  25.970  23.607  1.00  0.00     0.012 C 
ATOM      9  C   UNL A   1      30.933  26.292  25.238  1.00  0.00     0.025 C 
ATOM     10  C   UNL A   1      33.810  25.016  23.153  1.00  0.00     0.008 C 
ATOM     11  C   UNL A   1      31.960  26.658  22.484  1.00  0.00     0.006 C 
ATOM     12  C   UNL A   1      30.142  27.134  24.226  1.00  0.00     0.002 C 
ATOM     13  C   UNL A   1      31.005  27.693  23.089  1.00  0.00     0.000 C 
BRANCH   5  14
ATOM     14  C   UNL A   1      31.520  23.523  26.264  1.00  0.00     0.225 C 
ATOM     15  O   UNL A   1      31.332  23.889  27.419  1.00  0.00    -0.275 OA
BRANCH  14  16
ATOM     16  C   UNL A   1      30.972  22.198  25.733  1.00  0.00     0.128 C 
BRANCH  16  17
ATOM     17  C   UNL A   1      31.898  21.437  24.794  1.00  0.00     0.170 C 
BRANCH  17  18
ATOM     18  O   UNL A   1      32.115  20.091  25.237  1.00  0.00    -0.381 OA
BRANCH  18  19
ATOM     19  C   UNL A   1      32.530  19.171  24.232  1.00  0.00     0.156 C 
ATOM     20  C   UNL A   1      32.516  17.730  24.709  1.00  0.00     0.035 C 
ENDBRANCH  18  19
ENDBRANCH  17  18
ENDBRANCH  16  17
ENDBRANCH  14  16
ENDBRANCH   5  14
ENDBRANCH   2   4
ENDBRANCH   1   2
BRANCH   1  21
ATOM     21  C   UNL A   1      35.459  21.212  25.737  1.00  0.00     0.274 C 
BRANCH  21  22
ATOM     22  C   UNL A   1      36.624  20.542  25.004  1.00  0.00     0.275 C 
BRANCH  22  23
ATOM     23  O   UNL A   1      37.750  21.432  24.893  1.00  0.00    -0.458 OA
BRANCH  23  24
ATOM     24  C   UNL A   1      38.765  21.176  25.746  1.00  0.00     0.338 C 
ATOM     25  O   UNL A   1      39.266  20.091  25.987  1.00  0.00    -0.246 OA
BRANCH  24  26
ATOM     26  C   UNL A   1      39.265  22.407  26.398  1.00  0.00     0.060 A 
ATOM     27  C   UNL A   1      38.724  23.667  26.122  1.00  0.00     0.016 A 
ATOM     28  C   UNL A   1      40.456  22.307  27.122  1.00  0.00     0.016 A 
ATOM     29  C   UNL A   1      39.432  24.820  26.471  1.00  0.00     0.010 A 
ATOM     30  C   UNL A   1      41.123  23.458  27.539  1.00  0.00     0.010 A 
ATOM     31  C   UNL A   1      40.636  24.725  27.186  1.00  0.00    -0.014 A 
BRANCH  31  32
ATOM     32  C   UNL A   1      41.364  25.933  27.639  1.00  0.00     0.031 A 
ATOM     33  C   UNL A   1      40.703  26.963  28.514  1.00  0.00     0.074 A 
ATOM     34  C   UNL A   1      42.615  26.134  27.187  1.00  0.00     0.049 A 
ATOM     35  N   UNL A   1      41.119  28.166  28.823  1.00  0.00    -0.248 NA
ATOM     36  C   UNL A   1      39.415  26.596  29.123  1.00  0.00     0.031 C 
ATOM     37  C   UNL A   1      43.377  25.194  26.363  1.00  0.00     0.029 A 
ATOM     38  N   UNL A   1      43.455  27.207  27.336  1.00  0.00    -0.354 N 
ATOM     39  C   UNL A   1      40.136  28.712  29.639  1.00  0.00     0.074 A 
ATOM     40  C   UNL A   1      39.101  27.707  29.779  1.00  0.00     0.031 C 
ATOM     41  C   UNL A   1      44.571  25.730  26.079  1.00  0.00     0.029 A 
ATOM     42  C   UNL A   1      44.625  27.077  26.629  1.00  0.00     0.049 A 
ATOM     43  H   UNL A   1      43.242  27.991  27.892  1.00  0.00     0.167 HD
ATOM     44  C   UNL A   1      40.102  29.941  30.211  1.00  0.00     0.031 A 
ATOM     45  C   UNL A   1      45.609  27.961  26.395  1.00  0.00     0.031 A 
ATOM     46  C   UNL A   1      41.131  30.939  30.058  1.00  0.00     0.049 A 
ATOM     47  C   UNL A   1      45.502  29.344  26.955  1.00  0.00     0.074 A 
ATOM     48  C   UNL A   1      41.191  32.209  30.606  1.00  0.00     0.029 A 
ATOM     49  N   UNL A   1      42.278  30.781  29.296  1.00  0.00    -0.354 N 
ATOM     50  N   UNL A   1      44.554  29.859  27.699  1.00  0.00    -0.248 NA
ATOM     51  C   UNL A   1      46.592  30.271  26.630  1.00  0.00     0.031 C 
ATOM     52  C   UNL A   1      42.353  32.835  30.140  1.00  0.00     0.029 A 
ATOM     53  C   UNL A   1      43.040  31.937  29.340  1.00  0.00     0.049 A 
ATOM     54  H   UNL A   1      42.517  29.966  28.797  1.00  0.00     0.167 HD
ATOM     55  C   UNL A   1      44.939  31.168  27.945  1.00  0.00     0.074 A 
ATOM     56  C   UNL A   1      46.213  31.363  27.281  1.00  0.00     0.031 C 
ATOM     57  C   UNL A   1      44.296  32.121  28.661  1.00  0.00     0.031 A 
BRANCH  44  58
ATOM     58  C   UNL A   1      38.895  30.300  31.034  1.00  0.00    -0.014 A 
ATOM     59  C   UNL A   1      37.687  30.676  30.428  1.00  0.00     0.009 A 
ATOM     60  C   UNL A   1      38.947  30.185  32.432  1.00  0.00     0.009 A 
ATOM     61  C   UNL A   1      36.559  30.948  31.210  1.00  0.00     0.001 A 
ATOM     62  C   UNL A   1      37.814  30.437  33.208  1.00  0.00     0.001 A 
ATOM     63  C   UNL A   1      36.623  30.823  32.598  1.00  0.00     0.000 A 
ENDBRANCH  44  58
BRANCH  45  64
ATOM     64  C   UNL A   1      46.755  27.557  25.546  1.00  0.00    -0.014 A 
ATOM     65  C   UNL A   1      47.820  26.828  26.092  1.00  0.00     0.009 A 
ATOM     66  C   UNL A   1      46.757  27.847  24.171  1.00  0.00     0.009 A 
ATOM     67  C   UNL A   1      48.869  26.399  25.276  1.00  0.00     0.001 A 
ATOM     68  C   UNL A   1      47.792  27.394  23.355  1.00  0.00     0.001 A 
ATOM     69  C   UNL A   1      48.849  26.674  23.908  1.00  0.00     0.000 A 
ENDBRANCH  45  64
BRANCH  57  70
ATOM     70  C   UNL A   1      44.982  33.450  28.779  1.00  0.00    -0.014 A 
ATOM     71  C   UNL A   1      44.723  34.482  27.864  1.00  0.00     0.009 A 
ATOM     72  C   UNL A   1      45.900  33.669  29.817  1.00  0.00     0.009 A 
ATOM     73  C   UNL A   1      45.400  35.699  27.968  1.00  0.00     0.001 A 
ATOM     74  C   UNL A   1      46.557  34.894  29.931  1.00  0.00     0.001 A 
ATOM     75  C   UNL A   1      46.314  35.904  29.001  1.00  0.00     0.000 A 
ENDBRANCH  57  70
ENDBRANCH  31  32
ENDBRANCH  24  26
ENDBRANCH  23  24
ENDBRANCH  22  23
ENDBRANCH  21  22
ENDBRANCH   1  21
TORSDOF 16
ENDMDL
MODEL 2
REMARK VINA RESULT:     -10.2      2.989      7.179
REMARK SMILES CCOCCC(=O)N1[C@@H](C(=O)OCCOC(=O)c2ccc(-c3c4nc(c(-c5ccccc5)c5ccc([nH]5)c(-c5ccccc5)c5nc(c(-c6ccccc6)c6ccc3[nH]6)C=C5)C=C4)cc2)CC[C@H]2CCCC[C@@H]21
REMARK SMILES IDX 12 1 10 2 11 3 9 4 8 5 73 6 66 7 68 8 72 9 67 10 69 11 71 12
REMARK SMILES IDX 70 13 6 14 7 15 5 16 4 17 3 18 2 19 1 20 13 21 14 22 15 23
REMARK SMILES IDX 16 24 17 25 18 26 19 27 65 28 20 29 64 30 21 31 22 32 23 33
REMARK SMILES IDX 58 34 24 35 63 36 57 37 59 38 25 39 62 40 56 41 55 42 26 44
REMARK SMILES IDX 48 45 33 46 47 47 34 48 37 49 46 50 60 51 35 52 36 53 45 55
REMARK SMILES IDX 61 56 38 57 27 58 28 59 32 60 29 61 31 62 30 63 49 64 50 65
REMARK SMILES IDX 54 66 51 67 53 68 52 69 39 70 40 71 44 72 41 73 43 74 42 75
REMARK H PARENT 59 43 37 54
REMARK Flexibility Score: inf
ROOT
ATOM      1  O   UNL A   1      32.575  28.711  25.656  1.00  0.00    -0.461 OA
ENDROOT
BRANCH   1   2
ATOM      2  C   UNL A   1      33.201  28.356  24.501  1.00  0.00     0.328 C 
ATOM      3  O   UNL A   1      33.551  29.173  23.654  1.00  0.00    -0.250 OA
BRANCH   2   4
ATOM      4  C   UNL A   1      33.348  26.811  24.336  1.00  0.00     0.195 C 
ATOM      5  N   UNL A   1      32.217  26.023  23.767  1.00  0.00    -0.326 N 
ATOM      6  C   UNL A   1      32.333  24.551  23.833  1.00  0.00     0.089 C 
ATOM      7  C   UNL A   1      33.666  26.299  25.794  1.00  0.00     0.037 C 
ATOM      8  C   UNL A   1      33.269  24.044  24.940  1.00  0.00     0.012 C 
ATOM      9  C   UNL A   1      32.830  23.892  22.533  1.00  0.00     0.025 C 
ATOM     10  C   UNL A   1      33.107  24.921  26.154  1.00  0.00     0.008 C 
ATOM     11  C   UNL A   1      32.998  22.557  25.172  1.00  0.00     0.006 C 
ATOM     12  C   UNL A   1      32.692  22.366  22.635  1.00  0.00     0.002 C 
ATOM     13  C   UNL A   1      33.335  21.777  23.896  1.00  0.00     0.000 C 
BRANCH   5  14
ATOM     14  C   UNL A   1      31.421  26.544  22.737  1.00  0.00     0.225 C 
ATOM     15  O   UNL A   1      31.834  26.689  21.592  1.00  0.00    -0.275 OA
BRANCH  14  16
ATOM     16  C   UNL A   1      30.057  27.073  23.181  1.00  0.00     0.128 C 
BRANCH  16  17
ATOM     17  C   UNL A   1      29.935  28.588  23.258  1.00  0.00     0.170 C 
BRANCH  17  18
ATOM     18  O   UNL A   1      29.932  29.188  21.955  1.00  0.00    -0.381 OA
BRANCH  18  19
ATOM     19  C   UNL A   1      29.396  30.505  21.885  1.00  0.00     0.156 C 
ATOM     20  C   UNL A   1      28.029  30.552  21.227  1.00  0.00     0.035 C 
ENDBRANCH  18  19
ENDBRANCH  17  18
ENDBRANCH  16  17
ENDBRANCH  14  16
ENDBRANCH   5  14
ENDBRANCH   2   4
ENDBRANCH   1   2
BRANCH   1  21
ATOM     21  C   UNL A   1      32.384  30.130  25.827  1.00  0.00     0.274 C 
BRANCH  21  22
ATOM     22  C   UNL A   1      32.904  30.649  27.170  1.00  0.00     0.275 C 
BRANCH  22  23
ATOM     23  O   UNL A   1      34.026  29.871  27.628  1.00  0.00    -0.458 OA
BRANCH  23  24
ATOM     24  C   UNL A   1      34.918  30.546  28.382  1.00  0.00     0.338 C 
ATOM     25  O   UNL A   1      34.754  31.627  28.922  1.00  0.00    -0.246 OA
BRANCH  24  26
ATOM     26  C   UNL A   1      36.194  29.810  28.524  1.00  0.00     0.060 A 
ATOM     27  C   UNL A   1      36.649  29.341  29.760  1.00  0.00     0.016 A 
ATOM     28  C   UNL A   1      37.052  29.803  27.421  1.00  0.00     0.016 A 
ATOM     29  C   UNL A   1      37.989  28.976  29.917  1.00  0.00     0.010 A 
ATOM     30  C   UNL A   1      38.368  29.363  27.559  1.00  0.00     0.010 A 
ATOM     31  C   UNL A   1      38.858  28.980  28.815  1.00  0.00    -0.014 A 
BRANCH  31  32
ATOM     32  C   UNL A   1      40.262  28.519  28.936  1.00  0.00     0.031 A 
ATOM     33  C   UNL A   1      41.377  29.480  29.241  1.00  0.00     0.074 A 
ATOM     34  C   UNL A   1      40.534  27.225  28.688  1.00  0.00     0.049 A 
ATOM     35  N   UNL A   1      42.671  29.284  29.172  1.00  0.00    -0.248 NA
ATOM     36  C   UNL A   1      40.995  30.830  29.685  1.00  0.00     0.031 C 
ATOM     37  C   UNL A   1      39.536  26.188  28.416  1.00  0.00     0.029 A 
ATOM     38  N   UNL A   1      41.734  26.568  28.600  1.00  0.00    -0.354 N 
ATOM     39  C   UNL A   1      43.259  30.490  29.536  1.00  0.00     0.074 A 
ATOM     40  C   UNL A   1      42.180  31.412  29.827  1.00  0.00     0.031 C 
ATOM     41  C   UNL A   1      40.163  25.027  28.191  1.00  0.00     0.029 A 
ATOM     42  C   UNL A   1      41.601  25.255  28.223  1.00  0.00     0.049 A 
ATOM     43  H   UNL A   1      42.601  26.994  28.788  1.00  0.00     0.167 HD
ATOM     44  C   UNL A   1      44.578  30.795  29.613  1.00  0.00     0.031 A 
ATOM     45  C   UNL A   1      42.528  24.344  27.880  1.00  0.00     0.031 A 
ATOM     46  C   UNL A   1      45.646  29.874  29.312  1.00  0.00     0.049 A 
ATOM     47  C   UNL A   1      43.973  24.734  27.876  1.00  0.00     0.074 A 
ATOM     48  C   UNL A   1      47.012  30.086  29.370  1.00  0.00     0.029 A 
ATOM     49  N   UNL A   1      45.465  28.565  28.890  1.00  0.00    -0.354 N 
ATOM     50  N   UNL A   1      44.515  25.884  28.192  1.00  0.00    -0.248 NA
ATOM     51  C   UNL A   1      44.930  23.704  27.455  1.00  0.00     0.031 C 
ATOM     52  C   UNL A   1      47.658  28.921  28.941  1.00  0.00     0.029 A 
ATOM     53  C   UNL A   1      46.693  27.966  28.662  1.00  0.00     0.049 A 
ATOM     54  H   UNL A   1      44.592  28.126  28.770  1.00  0.00     0.167 HD
ATOM     55  C   UNL A   1      45.880  25.714  28.023  1.00  0.00     0.074 A 
ATOM     56  C   UNL A   1      46.083  24.346  27.588  1.00  0.00     0.031 C 
ATOM     57  C   UNL A   1      46.877  26.611  28.214  1.00  0.00     0.031 A 
BRANCH  44  58
ATOM     58  C   UNL A   1      44.953  32.196  30.007  1.00  0.00    -0.014 A 
ATOM     59  C   UNL A   1      45.072  33.215  29.050  1.00  0.00     0.009 A 
ATOM     60  C   UNL A   1      45.115  32.518  31.364  1.00  0.00     0.009 A 
ATOM     61  C   UNL A   1      45.363  34.525  29.444  1.00  0.00     0.001 A 
ATOM     62  C   UNL A   1      45.386  33.830  31.756  1.00  0.00     0.001 A 
ATOM     63  C   UNL A   1      45.515  34.832  30.797  1.00  0.00     0.000 A 
ENDBRANCH  44  58
BRANCH  45  64
ATOM     64  C   UNL A   1      42.091  22.990  27.465  1.00  0.00    -0.014 A 
ATOM     65  C   UNL A   1      41.954  21.968  28.414  1.00  0.00     0.009 A 
ATOM     66  C   UNL A   1      41.751  22.732  26.127  1.00  0.00     0.009 A 
ATOM     67  C   UNL A   1      41.486  20.710  28.029  1.00  0.00     0.001 A 
ATOM     68  C   UNL A   1      41.258  21.483  25.751  1.00  0.00     0.001 A 
ATOM     69  C   UNL A   1      41.130  20.472  26.702  1.00  0.00     0.000 A 
ENDBRANCH  45  64
BRANCH  57  70
ATOM     70  C   UNL A   1      48.276  26.122  27.977  1.00  0.00    -0.014 A 
ATOM     71  C   UNL A   1      49.049  25.603  29.026  1.00  0.00     0.009 A 
ATOM     72  C   UNL A   1      48.825  26.185  26.687  1.00  0.00     0.009 A 
ATOM     73  C   UNL A   1      50.362  25.188  28.793  1.00  0.00     0.001 A 
ATOM     74  C   UNL A   1      50.129  25.747  26.454  1.00  0.00     0.001 A 
ATOM     75  C   UNL A   1      50.899  25.259  27.509  1.00  0.00     0.000 A 
ENDBRANCH  57  70
ENDBRANCH  31  32
ENDBRANCH  24  26
ENDBRANCH  23  24
ENDBRANCH  22  23
ENDBRANCH  21  22
ENDBRANCH   1  21
TORSDOF 16
ENDMDL
MODEL 3
REMARK VINA RESULT:     -10.0      4.543      9.054
REMARK SMILES CCOCCC(=O)N1[C@@H](C(=O)OCCOC(=O)c2ccc(-c3c4nc(c(-c5ccccc5)c5ccc([nH]5)c(-c5ccccc5)c5nc(c(-c6ccccc6)c6ccc3[nH]6)C=C5)C=C4)cc2)CC[C@H]2CCCC[C@@H]21
REMARK SMILES IDX 12 1 10 2 11 3 9 4 8 5 73 6 66 7 68 8 72 9 67 10 69 11 71 12
REMARK SMILES IDX 70 13 6 14 7 15 5 16 4 17 3 18 2 19 1 20 13 21 14 22 15 23
REMARK SMILES IDX 16 24 17 25 18 26 19 27 65 28 20 29 64 30 21 31 22 32 23 33
REMARK SMILES IDX 58 34 24 35 63 36 57 37 59 38 25 39 62 40 56 41 55 42 26 44
REMARK SMILES IDX 48 45 33 46 47 47 34 48 37 49 46 50 60 51 35 52 36 53 45 55
REMARK SMILES IDX 61 56 38 57 27 58 28 59 32 60 29 61 31 62 30 63 49 64 50 65
REMARK SMILES IDX 54 66 51 67 53 68 52 69 39 70 40 71 44 72 41 73 43 74 42 75
REMARK H PARENT 59 43 37 54
REMARK Flexibility Score: inf
ROOT
ATOM      1  O   UNL A   1      32.050  30.173  25.543  1.00  0.00    -0.461 OA
ENDROOT
BRANCH   1   2
ATOM      2  C   UNL A   1      31.925  28.957  26.142  1.00  0.00     0.328 C 
ATOM      3  O   UNL A   1      31.440  28.812  27.261  1.00  0.00    -0.250 OA
BRANCH   2   4
ATOM      4  C   UNL A   1      32.533  27.794  25.297  1.00  0.00     0.195 C 
ATOM      5  N   UNL A   1      31.628  26.910  24.508  1.00  0.00    -0.326 N 
ATOM      6  C   UNL A   1      32.237  25.707  23.902  1.00  0.00     0.089 C 
ATOM      7  C   UNL A   1      33.328  26.930  26.350  1.00  0.00     0.037 C 
ATOM      8  C   UNL A   1      33.515  25.228  24.606  1.00  0.00     0.012 C 
ATOM      9  C   UNL A   1      32.612  25.861  22.416  1.00  0.00     0.025 C 
ATOM     10  C   UNL A   1      33.355  25.422  26.091  1.00  0.00     0.008 C 
ATOM     11  C   UNL A   1      33.812  23.795  24.166  1.00  0.00     0.006 C 
ATOM     12  C   UNL A   1      33.014  24.498  21.835  1.00  0.00     0.002 C 
ATOM     13  C   UNL A   1      34.087  23.774  22.658  1.00  0.00     0.000 C 
BRANCH   5  14
ATOM     14  C   UNL A   1      30.491  27.426  23.870  1.00  0.00     0.225 C 
ATOM     15  O   UNL A   1      29.353  27.077  24.162  1.00  0.00    -0.275 OA
BRANCH  14  16
ATOM     16  C   UNL A   1      30.780  28.330  22.670  1.00  0.00     0.128 C 
BRANCH  16  17
ATOM     17  C   UNL A   1      30.072  29.677  22.680  1.00  0.00     0.170 C 
BRANCH  17  18
ATOM     18  O   UNL A   1      29.399  29.933  21.439  1.00  0.00    -0.381 OA
BRANCH  18  19
ATOM     19  C   UNL A   1      28.070  30.432  21.550  1.00  0.00     0.156 C 
ATOM     20  C   UNL A   1      27.644  30.660  22.989  1.00  0.00     0.035 C 
ENDBRANCH  18  19
ENDBRANCH  17  18
ENDBRANCH  16  17
ENDBRANCH  14  16
ENDBRANCH   5  14
ENDBRANCH   2   4
ENDBRANCH   1   2
BRANCH   1  21
ATOM     21  C   UNL A   1      31.437  31.264  26.259  1.00  0.00     0.274 C 
BRANCH  21  22
ATOM     22  C   UNL A   1      32.409  31.993  27.189  1.00  0.00     0.275 C 
BRANCH  22  23
ATOM     23  O   UNL A   1      32.096  33.396  27.271  1.00  0.00    -0.458 OA
BRANCH  23  24
ATOM     24  C   UNL A   1      32.851  34.099  28.142  1.00  0.00     0.338 C 
ATOM     25  O   UNL A   1      32.592  35.189  28.625  1.00  0.00    -0.246 OA
BRANCH  24  26
ATOM     26  C   UNL A   1      34.096  33.384  28.499  1.00  0.00     0.060 A 
ATOM     27  C   UNL A   1      34.158  32.489  29.572  1.00  0.00     0.016 A 
ATOM     28  C   UNL A   1      35.275  33.808  27.880  1.00  0.00     0.016 A 
ATOM     29  C   UNL A   1      35.399  32.113  30.094  1.00  0.00     0.010 A 
ATOM     30  C   UNL A   1      36.512  33.369  28.351  1.00  0.00     0.010 A 
ATOM     31  C   UNL A   1      36.586  32.547  29.484  1.00  0.00    -0.014 A 
BRANCH  31  32
ATOM     32  C   UNL A   1      37.913  32.096  29.967  1.00  0.00     0.031 A 
ATOM     33  C   UNL A   1      38.565  30.856  29.419  1.00  0.00     0.074 A 
ATOM     34  C   UNL A   1      38.495  32.779  30.969  1.00  0.00     0.049 A 
ATOM     35  N   UNL A   1      39.610  30.210  29.873  1.00  0.00    -0.248 NA
ATOM     36  C   UNL A   1      37.974  30.270  28.206  1.00  0.00     0.031 C 
ATOM     37  C   UNL A   1      37.980  34.015  31.561  1.00  0.00     0.029 A 
ATOM     38  N   UNL A   1      39.634  32.513  31.685  1.00  0.00    -0.354 N 
ATOM     39  C   UNL A   1      39.789  29.126  29.021  1.00  0.00     0.074 A 
ATOM     40  C   UNL A   1      38.743  29.203  28.021  1.00  0.00     0.031 C 
ATOM     41  C   UNL A   1      38.799  34.401  32.548  1.00  0.00     0.029 A 
ATOM     42  C   UNL A   1      39.845  33.401  32.710  1.00  0.00     0.049 A 
ATOM     43  H   UNL A   1      40.239  31.763  31.483  1.00  0.00     0.167 HD
ATOM     44  C   UNL A   1      40.735  28.157  29.077  1.00  0.00     0.031 A 
ATOM     45  C   UNL A   1      40.741  33.386  33.711  1.00  0.00     0.031 A 
ATOM     46  C   UNL A   1      41.765  28.083  30.082  1.00  0.00     0.049 A 
ATOM     47  C   UNL A   1      41.712  32.252  33.809  1.00  0.00     0.074 A 
ATOM     48  C   UNL A   1      42.775  27.145  30.216  1.00  0.00     0.029 A 
ATOM     49  N   UNL A   1      41.914  28.979  31.130  1.00  0.00    -0.354 N 
ATOM     50  N   UNL A   1      41.852  31.218  33.017  1.00  0.00    -0.248 NA
ATOM     51  C   UNL A   1      42.639  32.277  34.947  1.00  0.00     0.031 C 
ATOM     52  C   UNL A   1      43.508  27.448  31.370  1.00  0.00     0.029 A 
ATOM     53  C   UNL A   1      42.983  28.603  31.927  1.00  0.00     0.049 A 
ATOM     54  H   UNL A   1      41.344  29.767  31.284  1.00  0.00     0.167 HD
ATOM     55  C   UNL A   1      42.893  30.474  33.551  1.00  0.00     0.074 A 
ATOM     56  C   UNL A   1      43.356  31.183  34.728  1.00  0.00     0.031 C 
ATOM     57  C   UNL A   1      43.420  29.309  33.103  1.00  0.00     0.031 A 
BRANCH  44  58
ATOM     58  C   UNL A   1      40.688  27.069  28.041  1.00  0.00    -0.014 A 
ATOM     59  C   UNL A   1      39.943  25.898  28.247  1.00  0.00     0.009 A 
ATOM     60  C   UNL A   1      41.336  27.252  26.809  1.00  0.00     0.009 A 
ATOM     61  C   UNL A   1      39.864  24.925  27.246  1.00  0.00     0.001 A 
ATOM     62  C   UNL A   1      41.239  26.288  25.804  1.00  0.00     0.001 A 
ATOM     63  C   UNL A   1      40.507  25.123  26.024  1.00  0.00     0.000 A 
ENDBRANCH  44  58
BRANCH  45  64
ATOM     64  C   UNL A   1      40.712  34.469  34.722  1.00  0.00    -0.014 A 
ATOM     65  C   UNL A   1      39.954  34.327  35.892  1.00  0.00     0.009 A 
ATOM     66  C   UNL A   1      41.494  35.624  34.550  1.00  0.00     0.009 A 
ATOM     67  C   UNL A   1      39.976  35.324  36.869  1.00  0.00     0.001 A 
ATOM     68  C   UNL A   1      41.534  36.605  35.540  1.00  0.00     0.001 A 
ATOM     69  C   UNL A   1      40.772  36.456  36.697  1.00  0.00     0.000 A 
ENDBRANCH  45  64
BRANCH  57  70
ATOM     70  C   UNL A   1      44.574  28.751  33.882  1.00  0.00    -0.014 A 
ATOM     71  C   UNL A   1      44.369  27.837  34.927  1.00  0.00     0.009 A 
ATOM     72  C   UNL A   1      45.882  29.148  33.567  1.00  0.00     0.009 A 
ATOM     73  C   UNL A   1      45.453  27.358  35.665  1.00  0.00     0.001 A 
ATOM     74  C   UNL A   1      46.965  28.649  34.291  1.00  0.00     0.001 A 
ATOM     75  C   UNL A   1      46.749  27.763  35.346  1.00  0.00     0.000 A 
ENDBRANCH  57  70
ENDBRANCH  31  32
ENDBRANCH  24  26
ENDBRANCH  23  24
ENDBRANCH  22  23
ENDBRANCH  21  22
ENDBRANCH   1  21
TORSDOF 16
ENDMDL
