MODEL 1
REMARK VINA RESULT:     -10.8      0.000      0.000
REMARK SMILES C[C@H](NC(=O)N1CC[C@H](C(=O)OCCOC(=O)c2ccc(-c3c4nc(c(-c5ccccc5)c5ccc([nH]5)c(-c5ccccc5)c5nc(c(-c6ccccc6)c6ccc3[nH]6)C=C5)C=C4)cc2)[C@H]1C)c1ccsc1
REMARK SMILES IDX 13 1 12 2 10 3 11 4 9 5 6 6 7 7 66 8 8 9 67 10 4 11 3 12
REMARK SMILES IDX 5 14 2 15 1 16 68 17 69 18 72 19 70 20 71 21 14 22 15 23
REMARK SMILES IDX 16 24 17 25 18 26 19 27 65 28 20 29 64 30 21 31 22 32 23 33
REMARK SMILES IDX 58 34 24 35 63 36 57 37 59 38 25 39 62 40 56 41 55 42 26 44
REMARK SMILES IDX 48 45 33 46 47 47 34 48 37 49 46 50 60 51 35 52 36 53 45 55
REMARK SMILES IDX 61 56 38 57 27 58 28 59 32 60 29 61 31 62 30 63 49 64 50 65
REMARK SMILES IDX 54 66 51 67 53 68 52 69 39 70 40 71 44 72 41 73 43 74 42 75
REMARK H PARENT 3 13 59 43 37 54
REMARK Flexibility Score: inf
ROOT
ATOM      1  C   UNL A   1      31.439  28.399  25.240  1.00  0.00     0.274 C 
ENDROOT
BRANCH   1   2
ATOM      2  O   UNL A   1      32.387  27.504  25.854  1.00  0.00    -0.462 OA
BRANCH   2   3
ATOM      3  C   UNL A   1      32.011  26.197  25.945  1.00  0.00     0.311 C 
ATOM      4  O   UNL A   1      31.349  25.727  26.855  1.00  0.00    -0.252 OA
BRANCH   3   5
ATOM      5  C   UNL A   1      32.535  25.418  24.751  1.00  0.00     0.123 C 
ATOM      6  N   UNL A   1      33.147  23.184  25.384  1.00  0.00    -0.321 N 
ATOM      7  C   UNL A   1      34.257  24.077  25.684  1.00  0.00     0.122 C 
ATOM      8  C   UNL A   1      32.063  23.949  24.747  1.00  0.00     0.098 C 
ATOM      9  C   UNL A   1      34.052  25.292  24.796  1.00  0.00     0.039 C 
ATOM     10  C   UNL A   1      31.757  23.512  23.316  1.00  0.00     0.032 C 
BRANCH   6  11
ATOM     11  C   UNL A   1      32.858  22.231  26.334  1.00  0.00     0.318 C 
ATOM     12  N   UNL A   1      33.087  20.929  26.053  1.00  0.00    -0.331 N 
ATOM     13  H   UNL A   1      32.713  20.302  26.713  1.00  0.00     0.165 HD
ATOM     14  O   UNL A   1      32.469  22.510  27.467  1.00  0.00    -0.249 OA
BRANCH  12  15
ATOM     15  C   UNL A   1      33.786  20.289  24.951  1.00  0.00     0.112 C 
ATOM     16  C   UNL A   1      35.293  20.573  24.968  1.00  0.00     0.036 C 
BRANCH  15  17
ATOM     17  C   UNL A   1      33.539  18.781  24.941  1.00  0.00    -0.015 A 
ATOM     18  C   UNL A   1      34.282  17.887  24.083  1.00  0.00     0.017 A 
ATOM     19  C   UNL A   1      32.642  18.045  25.701  1.00  0.00     0.070 A 
ATOM     20  C   UNL A   1      33.960  16.560  24.258  1.00  0.00     0.065 A 
ATOM     21  S   UNL A   1      32.723  16.358  25.414  1.00  0.00    -0.152 S 
ENDBRANCH  15  17
ENDBRANCH  12  15
ENDBRANCH   6  11
ENDBRANCH   3   5
ENDBRANCH   2   3
ENDBRANCH   1   2
BRANCH   1  22
ATOM     22  C   UNL A   1      31.800  29.862  25.514  1.00  0.00     0.275 C 
BRANCH  22  23
ATOM     23  O   UNL A   1      32.299  30.045  26.852  1.00  0.00    -0.458 OA
BRANCH  23  24
ATOM     24  C   UNL A   1      32.908  31.227  27.082  1.00  0.00     0.338 C 
ATOM     25  O   UNL A   1      32.418  32.345  27.016  1.00  0.00    -0.246 OA
BRANCH  24  26
ATOM     26  C   UNL A   1      34.286  31.010  27.539  1.00  0.00     0.060 A 
ATOM     27  C   UNL A   1      34.678  29.706  27.824  1.00  0.00     0.016 A 
ATOM     28  C   UNL A   1      35.118  32.079  27.860  1.00  0.00     0.016 A 
ATOM     29  C   UNL A   1      35.841  29.462  28.545  1.00  0.00     0.010 A 
ATOM     30  C   UNL A   1      36.345  31.823  28.486  1.00  0.00     0.010 A 
ATOM     31  C   UNL A   1      36.702  30.516  28.873  1.00  0.00    -0.014 A 
BRANCH  31  32
ATOM     32  C   UNL A   1      37.952  30.266  29.645  1.00  0.00     0.031 A 
ATOM     33  C   UNL A   1      39.084  29.494  29.019  1.00  0.00     0.074 A 
ATOM     34  C   UNL A   1      38.090  30.724  30.906  1.00  0.00     0.049 A 
ATOM     35  N   UNL A   1      40.134  28.955  29.585  1.00  0.00    -0.248 NA
ATOM     36  C   UNL A   1      39.017  29.288  27.563  1.00  0.00     0.031 C 
ATOM     37  C   UNL A   1      37.121  31.551  31.628  1.00  0.00     0.029 A 
ATOM     38  N   UNL A   1      39.111  30.549  31.810  1.00  0.00    -0.354 N 
ATOM     39  C   UNL A   1      40.809  28.287  28.572  1.00  0.00     0.074 A 
ATOM     40  C   UNL A   1      40.059  28.497  27.353  1.00  0.00     0.031 C 
ATOM     41  C   UNL A   1      37.606  31.838  32.845  1.00  0.00     0.029 A 
ATOM     42  C   UNL A   1      38.868  31.133  33.029  1.00  0.00     0.049 A 
ATOM     43  H   UNL A   1      39.936  30.054  31.603  1.00  0.00     0.167 HD
ATOM     44  C   UNL A   1      41.947  27.554  28.655  1.00  0.00     0.031 A 
ATOM     45  C   UNL A   1      39.548  31.065  34.189  1.00  0.00     0.031 A 
ATOM     46  C   UNL A   1      42.720  27.390  29.856  1.00  0.00     0.049 A 
ATOM     47  C   UNL A   1      40.781  30.215  34.270  1.00  0.00     0.074 A 
ATOM     48  C   UNL A   1      43.885  26.663  30.041  1.00  0.00     0.029 A 
ATOM     49  N   UNL A   1      42.418  27.980  31.073  1.00  0.00    -0.354 N 
ATOM     50  N   UNL A   1      41.362  29.511  33.329  1.00  0.00    -0.248 NA
ATOM     51  C   UNL A   1      41.441  30.132  35.581  1.00  0.00     0.031 C 
ATOM     52  C   UNL A   1      44.271  26.791  31.380  1.00  0.00     0.029 A 
ATOM     53  C   UNL A   1      43.371  27.631  32.015  1.00  0.00     0.049 A 
ATOM     54  H   UNL A   1      41.642  28.561  31.243  1.00  0.00     0.167 HD
ATOM     55  C   UNL A   1      42.463  28.916  33.928  1.00  0.00     0.074 A 
ATOM     56  C   UNL A   1      42.477  29.350  35.310  1.00  0.00     0.031 C 
ATOM     57  C   UNL A   1      43.377  28.080  33.382  1.00  0.00     0.031 A 
BRANCH  44  58
ATOM     58  C   UNL A   1      42.397  26.829  27.418  1.00  0.00    -0.014 A 
ATOM     59  C   UNL A   1      43.350  27.378  26.547  1.00  0.00     0.009 A 
ATOM     60  C   UNL A   1      41.878  25.554  27.142  1.00  0.00     0.009 A 
ATOM     61  C   UNL A   1      43.751  26.674  25.408  1.00  0.00     0.001 A 
ATOM     62  C   UNL A   1      42.299  24.842  26.019  1.00  0.00     0.001 A 
ATOM     63  C   UNL A   1      43.229  25.406  25.147  1.00  0.00     0.000 A 
ENDBRANCH  44  58
BRANCH  45  64
ATOM     64  C   UNL A   1      39.034  31.776  35.389  1.00  0.00    -0.014 A 
ATOM     65  C   UNL A   1      38.195  31.120  36.302  1.00  0.00     0.009 A 
ATOM     66  C   UNL A   1      39.389  33.113  35.631  1.00  0.00     0.009 A 
ATOM     67  C   UNL A   1      37.713  31.794  37.427  1.00  0.00     0.001 A 
ATOM     68  C   UNL A   1      38.930  33.774  36.771  1.00  0.00     0.001 A 
ATOM     69  C   UNL A   1      38.087  33.117  37.664  1.00  0.00     0.000 A 
ENDBRANCH  45  64
BRANCH  57  70
ATOM     70  C   UNL A   1      44.499  27.620  34.266  1.00  0.00    -0.014 A 
ATOM     71  C   UNL A   1      44.405  26.429  34.999  1.00  0.00     0.009 A 
ATOM     72  C   UNL A   1      45.681  28.374  34.330  1.00  0.00     0.009 A 
ATOM     73  C   UNL A   1      45.470  26.012  35.801  1.00  0.00     0.001 A 
ATOM     74  C   UNL A   1      46.750  27.944  35.116  1.00  0.00     0.001 A 
ATOM     75  C   UNL A   1      46.641  26.767  35.855  1.00  0.00     0.000 A 
ENDBRANCH  57  70
ENDBRANCH  31  32
ENDBRANCH  24  26
ENDBRANCH  23  24
ENDBRANCH  22  23
ENDBRANCH   1  22
TORSDOF 14
ENDMDL
MODEL 2
REMARK VINA RESULT:     -10.6      1.446      2.108
REMARK SMILES C[C@H](NC(=O)N1CC[C@H](C(=O)OCCOC(=O)c2ccc(-c3c4nc(c(-c5ccccc5)c5ccc([nH]5)c(-c5ccccc5)c5nc(c(-c6ccccc6)c6ccc3[nH]6)C=C5)C=C4)cc2)[C@H]1C)c1ccsc1
REMARK SMILES IDX 13 1 12 2 10 3 11 4 9 5 6 6 7 7 66 8 8 9 67 10 4 11 3 12
REMARK SMILES IDX 5 14 2 15 1 16 68 17 69 18 72 19 70 20 71 21 14 22 15 23
REMARK SMILES IDX 16 24 17 25 18 26 19 27 65 28 20 29 64 30 21 31 22 32 23 33
REMARK SMILES IDX 58 34 24 35 63 36 57 37 59 38 25 39 62 40 56 41 55 42 26 44
REMARK SMILES IDX 48 45 33 46 47 47 34 48 37 49 46 50 60 51 35 52 36 53 45 55
REMARK SMILES IDX 61 56 38 57 27 58 28 59 32 60 29 61 31 62 30 63 49 64 50 65
REMARK SMILES IDX 54 66 51 67 53 68 52 69 39 70 40 71 44 72 41 73 43 74 42 75
REMARK H PARENT 3 13 59 43 37 54
REMARK Flexibility Score: inf
ROOT
ATOM      1  C   UNL A   1      31.250  29.452  24.710  1.00  0.00     0.274 C 
ENDROOT
BRANCH   1   2
ATOM      2  O   UNL A   1      31.243  28.115  24.171  1.00  0.00    -0.462 OA
BRANCH   2   3
ATOM      3  C   UNL A   1      30.913  27.997  22.853  1.00  0.00     0.311 C 
ATOM      4  O   UNL A   1      30.687  28.935  22.108  1.00  0.00    -0.252 OA
BRANCH   3   5
ATOM      5  C   UNL A   1      30.870  26.533  22.454  1.00  0.00     0.123 C 
ATOM      6  N   UNL A   1      32.854  25.387  23.175  1.00  0.00    -0.321 N 
ATOM      7  C   UNL A   1      33.128  26.047  21.906  1.00  0.00     0.122 C 
ATOM      8  C   UNL A   1      31.445  25.603  23.543  1.00  0.00     0.098 C 
ATOM      9  C   UNL A   1      31.771  26.260  21.257  1.00  0.00     0.039 C 
ATOM     10  C   UNL A   1      30.620  24.320  23.611  1.00  0.00     0.032 C 
BRANCH   6  11
ATOM     11  C   UNL A   1      33.841  25.469  24.129  1.00  0.00     0.318 C 
ATOM     12  N   UNL A   1      34.702  24.438  24.277  1.00  0.00    -0.331 N 
ATOM     13  H   UNL A   1      35.274  24.501  25.075  1.00  0.00     0.165 HD
ATOM     14  O   UNL A   1      34.031  26.473  24.813  1.00  0.00    -0.249 OA
BRANCH  12  15
ATOM     15  C   UNL A   1      34.934  23.252  23.469  1.00  0.00     0.112 C 
ATOM     16  C   UNL A   1      36.424  22.912  23.341  1.00  0.00     0.036 C 
BRANCH  15  17
ATOM     17  C   UNL A   1      34.169  22.049  24.019  1.00  0.00    -0.015 A 
ATOM     18  C   UNL A   1      32.899  21.631  23.472  1.00  0.00     0.017 A 
ATOM     19  C   UNL A   1      34.526  21.193  25.051  1.00  0.00     0.070 A 
ATOM     20  C   UNL A   1      32.393  20.493  24.059  1.00  0.00     0.065 A 
ATOM     21  S   UNL A   1      33.398  19.932  25.316  1.00  0.00    -0.152 S 
ENDBRANCH  15  17
ENDBRANCH  12  15
ENDBRANCH   6  11
ENDBRANCH   3   5
ENDBRANCH   2   3
ENDBRANCH   1   2
BRANCH   1  22
ATOM     22  C   UNL A   1      32.604  29.790  25.339  1.00  0.00     0.275 C 
BRANCH  22  23
ATOM     23  O   UNL A   1      32.476  30.107  26.739  1.00  0.00    -0.458 OA
BRANCH  23  24
ATOM     24  C   UNL A   1      33.043  31.271  27.119  1.00  0.00     0.338 C 
ATOM     25  O   UNL A   1      32.519  32.374  27.175  1.00  0.00    -0.246 OA
BRANCH  24  26
ATOM     26  C   UNL A   1      34.419  31.042  27.575  1.00  0.00     0.060 A 
ATOM     27  C   UNL A   1      34.786  29.742  27.907  1.00  0.00     0.016 A 
ATOM     28  C   UNL A   1      35.275  32.104  27.851  1.00  0.00     0.016 A 
ATOM     29  C   UNL A   1      35.948  29.500  28.630  1.00  0.00     0.010 A 
ATOM     30  C   UNL A   1      36.501  31.846  28.479  1.00  0.00     0.010 A 
ATOM     31  C   UNL A   1      36.833  30.546  28.913  1.00  0.00    -0.014 A 
BRANCH  31  32
ATOM     32  C   UNL A   1      38.083  30.299  29.687  1.00  0.00     0.031 A 
ATOM     33  C   UNL A   1      39.210  29.516  29.068  1.00  0.00     0.074 A 
ATOM     34  C   UNL A   1      38.224  30.770  30.943  1.00  0.00     0.049 A 
ATOM     35  N   UNL A   1      40.258  28.979  29.639  1.00  0.00    -0.248 NA
ATOM     36  C   UNL A   1      39.141  29.295  27.614  1.00  0.00     0.031 C 
ATOM     37  C   UNL A   1      37.258  31.610  31.657  1.00  0.00     0.029 A 
ATOM     38  N   UNL A   1      39.244  30.601  31.848  1.00  0.00    -0.354 N 
ATOM     39  C   UNL A   1      40.930  28.297  28.633  1.00  0.00     0.074 A 
ATOM     40  C   UNL A   1      40.180  28.497  27.412  1.00  0.00     0.031 C 
ATOM     41  C   UNL A   1      37.746  31.907  32.871  1.00  0.00     0.029 A 
ATOM     42  C   UNL A   1      39.005  31.199  33.061  1.00  0.00     0.049 A 
ATOM     43  H   UNL A   1      40.067  30.099  31.645  1.00  0.00     0.167 HD
ATOM     44  C   UNL A   1      42.064  27.560  28.722  1.00  0.00     0.031 A 
ATOM     45  C   UNL A   1      39.686  31.140  34.221  1.00  0.00     0.031 A 
ATOM     46  C   UNL A   1      42.838  27.405  29.925  1.00  0.00     0.049 A 
ATOM     47  C   UNL A   1      40.915  30.285  34.310  1.00  0.00     0.074 A 
ATOM     48  C   UNL A   1      44.000  26.675  30.116  1.00  0.00     0.029 A 
ATOM     49  N   UNL A   1      42.540  28.009  31.136  1.00  0.00    -0.354 N 
ATOM     50  N   UNL A   1      41.492  29.569  33.376  1.00  0.00    -0.248 NA
ATOM     51  C   UNL A   1      41.576  30.213  35.621  1.00  0.00     0.031 C 
ATOM     52  C   UNL A   1      44.388  26.815  31.453  1.00  0.00     0.029 A 
ATOM     53  C   UNL A   1      43.492  27.666  32.080  1.00  0.00     0.049 A 
ATOM     54  H   UNL A   1      41.767  28.595  31.300  1.00  0.00     0.167 HD
ATOM     55  C   UNL A   1      42.591  28.975  33.980  1.00  0.00     0.074 A 
ATOM     56  C   UNL A   1      42.608  29.424  35.358  1.00  0.00     0.031 C 
ATOM     57  C   UNL A   1      43.501  28.129  33.442  1.00  0.00     0.031 A 
BRANCH  44  58
ATOM     58  C   UNL A   1      42.510  26.820  27.493  1.00  0.00    -0.014 A 
ATOM     59  C   UNL A   1      42.059  25.523  27.207  1.00  0.00     0.009 A 
ATOM     60  C   UNL A   1      43.374  27.454  26.586  1.00  0.00     0.009 A 
ATOM     61  C   UNL A   1      42.489  24.866  26.051  1.00  0.00     0.001 A 
ATOM     62  C   UNL A   1      43.783  26.806  25.419  1.00  0.00     0.001 A 
ATOM     63  C   UNL A   1      43.347  25.509  25.157  1.00  0.00     0.000 A 
ENDBRANCH  44  58
BRANCH  45  64
ATOM     64  C   UNL A   1      39.176  31.866  35.413  1.00  0.00    -0.014 A 
ATOM     65  C   UNL A   1      39.572  33.187  35.667  1.00  0.00     0.009 A 
ATOM     66  C   UNL A   1      38.283  31.241  36.299  1.00  0.00     0.009 A 
ATOM     67  C   UNL A   1      39.090  33.864  36.791  1.00  0.00     0.001 A 
ATOM     68  C   UNL A   1      37.781  31.929  37.404  1.00  0.00     0.001 A 
ATOM     69  C   UNL A   1      38.191  33.238  37.654  1.00  0.00     0.000 A 
ENDBRANCH  45  64
BRANCH  57  70
ATOM     70  C   UNL A   1      44.622  27.674  34.330  1.00  0.00    -0.014 A 
ATOM     71  C   UNL A   1      44.522  26.493  35.079  1.00  0.00     0.009 A 
ATOM     72  C   UNL A   1      45.809  28.421  34.382  1.00  0.00     0.009 A 
ATOM     73  C   UNL A   1      45.585  26.080  35.885  1.00  0.00     0.001 A 
ATOM     74  C   UNL A   1      46.876  27.994  35.173  1.00  0.00     0.001 A 
ATOM     75  C   UNL A   1      46.761  26.828  35.927  1.00  0.00     0.000 A 
ENDBRANCH  57  70
ENDBRANCH  31  32
ENDBRANCH  24  26
ENDBRANCH  23  24
ENDBRANCH  22  23
ENDBRANCH   1  22
TORSDOF 14
ENDMDL
MODEL 3
REMARK VINA RESULT:     -10.6      4.238      9.318
REMARK SMILES C[C@H](NC(=O)N1CC[C@H](C(=O)OCCOC(=O)c2ccc(-c3c4nc(c(-c5ccccc5)c5ccc([nH]5)c(-c5ccccc5)c5nc(c(-c6ccccc6)c6ccc3[nH]6)C=C5)C=C4)cc2)[C@H]1C)c1ccsc1
REMARK SMILES IDX 13 1 12 2 10 3 11 4 9 5 6 6 7 7 66 8 8 9 67 10 4 11 3 12
REMARK SMILES IDX 5 14 2 15 1 16 68 17 69 18 72 19 70 20 71 21 14 22 15 23
REMARK SMILES IDX 16 24 17 25 18 26 19 27 65 28 20 29 64 30 21 31 22 32 23 33
REMARK SMILES IDX 58 34 24 35 63 36 57 37 59 38 25 39 62 40 56 41 55 42 26 44
REMARK SMILES IDX 48 45 33 46 47 47 34 48 37 49 46 50 60 51 35 52 36 53 45 55
REMARK SMILES IDX 61 56 38 57 27 58 28 59 32 60 29 61 31 62 30 63 49 64 50 65
REMARK SMILES IDX 54 66 51 67 53 68 52 69 39 70 40 71 44 72 41 73 43 74 42 75
REMARK H PARENT 3 13 59 43 37 54
REMARK Flexibility Score: inf
ROOT
ATOM      1  C   UNL A   1      34.958  21.356  24.585  1.00  0.00     0.274 C 
ENDROOT
BRANCH   1   2
ATOM      2  O   UNL A   1      34.952  22.793  24.479  1.00  0.00    -0.462 OA
BRANCH   2   3
ATOM      3  C   UNL A   1      34.098  23.327  23.560  1.00  0.00     0.311 C 
ATOM      4  O   UNL A   1      34.350  23.463  22.375  1.00  0.00    -0.252 OA
BRANCH   3   5
ATOM      5  C   UNL A   1      32.793  23.723  24.228  1.00  0.00     0.123 C 
ATOM      6  N   UNL A   1      32.335  26.058  23.904  1.00  0.00    -0.321 N 
ATOM      7  C   UNL A   1      33.233  25.909  25.041  1.00  0.00     0.122 C 
ATOM      8  C   UNL A   1      31.976  24.727  23.387  1.00  0.00     0.098 C 
ATOM      9  C   UNL A   1      33.043  24.481  25.524  1.00  0.00     0.039 C 
ATOM     10  C   UNL A   1      30.489  24.401  23.500  1.00  0.00     0.032 C 
BRANCH   6  11
ATOM     11  C   UNL A   1      32.619  27.086  23.035  1.00  0.00     0.318 C 
ATOM     12  N   UNL A   1      31.915  28.236  23.123  1.00  0.00    -0.331 N 
ATOM     13  H   UNL A   1      32.064  28.859  22.376  1.00  0.00     0.165 HD
ATOM     14  O   UNL A   1      33.540  27.042  22.222  1.00  0.00    -0.249 OA
BRANCH  12  15
ATOM     15  C   UNL A   1      30.976  28.718  24.123  1.00  0.00     0.112 C 
ATOM     16  C   UNL A   1      31.669  29.480  25.258  1.00  0.00     0.036 C 
BRANCH  15  17
ATOM     17  C   UNL A   1      29.895  29.594  23.489  1.00  0.00    -0.015 A 
ATOM     18  C   UNL A   1      29.059  29.121  22.410  1.00  0.00     0.017 A 
ATOM     19  C   UNL A   1      29.532  30.892  23.814  1.00  0.00     0.070 A 
ATOM     20  C   UNL A   1      28.106  30.031  22.012  1.00  0.00     0.065 A 
ATOM     21  S   UNL A   1      28.225  31.491  22.882  1.00  0.00    -0.152 S 
ENDBRANCH  15  17
ENDBRANCH  12  15
ENDBRANCH   6  11
ENDBRANCH   3   5
ENDBRANCH   2   3
ENDBRANCH   1   2
BRANCH   1  22
ATOM     22  C   UNL A   1      36.161  20.864  25.395  1.00  0.00     0.275 C 
BRANCH  22  23
ATOM     23  O   UNL A   1      37.376  21.533  25.002  1.00  0.00    -0.458 OA
BRANCH  23  24
ATOM     24  C   UNL A   1      38.489  21.130  25.651  1.00  0.00     0.338 C 
ATOM     25  O   UNL A   1      38.989  20.015  25.652  1.00  0.00    -0.246 OA
BRANCH  24  26
ATOM     26  C   UNL A   1      39.126  22.269  26.322  1.00  0.00     0.060 A 
ATOM     27  C   UNL A   1      38.579  23.532  26.122  1.00  0.00     0.016 A 
ATOM     28  C   UNL A   1      40.344  22.129  26.981  1.00  0.00     0.016 A 
ATOM     29  C   UNL A   1      39.297  24.673  26.461  1.00  0.00     0.010 A 
ATOM     30  C   UNL A   1      41.014  23.276  27.426  1.00  0.00     0.010 A 
ATOM     31  C   UNL A   1      40.519  24.564  27.134  1.00  0.00    -0.014 A 
BRANCH  31  32
ATOM     32  C   UNL A   1      41.296  25.780  27.503  1.00  0.00     0.031 A 
ATOM     33  C   UNL A   1      40.704  26.797  28.443  1.00  0.00     0.074 A 
ATOM     34  C   UNL A   1      42.534  25.987  27.007  1.00  0.00     0.049 A 
ATOM     35  N   UNL A   1      41.094  28.022  28.691  1.00  0.00    -0.248 NA
ATOM     36  C   UNL A   1      39.505  26.386  29.191  1.00  0.00     0.031 C 
ATOM     37  C   UNL A   1      43.279  25.064  26.148  1.00  0.00     0.029 A 
ATOM     38  N   UNL A   1      43.385  27.057  27.156  1.00  0.00    -0.354 N 
ATOM     39  C   UNL A   1      40.149  28.550  29.563  1.00  0.00     0.074 A 
ATOM     40  C   UNL A   1      39.174  27.510  29.811  1.00  0.00     0.031 C 
ATOM     41  C   UNL A   1      44.482  25.590  25.875  1.00  0.00     0.029 A 
ATOM     42  C   UNL A   1      44.555  26.927  26.450  1.00  0.00     0.049 A 
ATOM     43  H   UNL A   1      43.175  27.839  27.716  1.00  0.00     0.167 HD
ATOM     44  C   UNL A   1      40.095  29.794  30.098  1.00  0.00     0.031 A 
ATOM     45  C   UNL A   1      45.555  27.802  26.234  1.00  0.00     0.031 A 
ATOM     46  C   UNL A   1      41.092  30.809  29.893  1.00  0.00     0.049 A 
ATOM     47  C   UNL A   1      45.454  29.188  26.800  1.00  0.00     0.074 A 
ATOM     48  C   UNL A   1      41.123  32.102  30.389  1.00  0.00     0.029 A 
ATOM     49  N   UNL A   1      42.247  30.639  29.146  1.00  0.00    -0.354 N 
ATOM     50  N   UNL A   1      44.511  29.708  27.547  1.00  0.00    -0.248 NA
ATOM     51  C   UNL A   1      46.548  30.115  26.474  1.00  0.00     0.031 C 
ATOM     52  C   UNL A   1      42.285  32.723  29.917  1.00  0.00     0.029 A 
ATOM     53  C   UNL A   1      42.996  31.803  29.164  1.00  0.00     0.049 A 
ATOM     54  H   UNL A   1      42.498  29.813  28.674  1.00  0.00     0.167 HD
ATOM     55  C   UNL A   1      44.904  31.015  27.795  1.00  0.00     0.074 A 
ATOM     56  C   UNL A   1      46.177  31.207  27.129  1.00  0.00     0.031 C 
ATOM     57  C   UNL A   1      44.264  31.973  28.507  1.00  0.00     0.031 A 
BRANCH  44  58
ATOM     58  C   UNL A   1      38.886  30.144  30.919  1.00  0.00    -0.014 A 
ATOM     59  C   UNL A   1      37.712  30.638  30.331  1.00  0.00     0.009 A 
ATOM     60  C   UNL A   1      38.917  29.940  32.308  1.00  0.00     0.009 A 
ATOM     61  C   UNL A   1      36.604  30.947  31.124  1.00  0.00     0.001 A 
ATOM     62  C   UNL A   1      37.801  30.226  33.095  1.00  0.00     0.001 A 
ATOM     63  C   UNL A   1      36.647  30.738  32.503  1.00  0.00     0.000 A 
ENDBRANCH  44  58
BRANCH  45  64
ATOM     64  C   UNL A   1      46.709  27.410  25.383  1.00  0.00    -0.014 A 
ATOM     65  C   UNL A   1      46.785  27.828  24.047  1.00  0.00     0.009 A 
ATOM     66  C   UNL A   1      47.745  26.622  25.909  1.00  0.00     0.009 A 
ATOM     67  C   UNL A   1      47.872  27.455  23.252  1.00  0.00     0.001 A 
ATOM     68  C   UNL A   1      48.843  26.275  25.122  1.00  0.00     0.001 A 
ATOM     69  C   UNL A   1      48.902  26.685  23.791  1.00  0.00     0.000 A 
ENDBRANCH  45  64
BRANCH  57  70
ATOM     70  C   UNL A   1      44.954  33.299  28.645  1.00  0.00    -0.014 A 
ATOM     71  C   UNL A   1      45.873  33.535  29.677  1.00  0.00     0.009 A 
ATOM     72  C   UNL A   1      44.707  34.308  27.702  1.00  0.00     0.009 A 
ATOM     73  C   UNL A   1      46.517  34.770  29.775  1.00  0.00     0.001 A 
ATOM     74  C   UNL A   1      45.367  35.533  27.792  1.00  0.00     0.001 A 
ATOM     75  C   UNL A   1      46.267  35.765  28.831  1.00  0.00     0.000 A 
ENDBRANCH  57  70
ENDBRANCH  31  32
ENDBRANCH  24  26
ENDBRANCH  23  24
ENDBRANCH  22  23
ENDBRANCH   1  22
TORSDOF 14
ENDMDL
