MODEL 1
REMARK VINA RESULT:     -10.9      0.000      0.000
REMARK SMILES O=C(Cc1cccn1-c1ccccc1F)OCCOC(=O)c1ccc(-c2c3nc(c(-c4ccccc4)c4ccc([nH]4)c(-c4ccccc4)c4nc(c(-c5ccccc5)c5ccc2[nH]5)C=C4)C=C3)cc1
REMARK SMILES IDX 17 1 16 2 2 3 1 4 3 5 4 6 5 7 8 8 6 9 7 10 9 11 10 12 14 13
REMARK SMILES IDX 11 14 13 15 15 16 12 17 18 18 19 19 20 20 21 21 22 22 23 23
REMARK SMILES IDX 69 24 24 25 68 26 25 27 26 28 27 29 62 30 28 31 67 32 61 33
REMARK SMILES IDX 63 34 29 35 66 36 60 37 59 38 30 40 52 41 37 42 51 43 38 44
REMARK SMILES IDX 41 45 50 46 64 47 39 48 40 49 49 51 65 52 42 53 31 54 32 55
REMARK SMILES IDX 36 56 33 57 35 58 34 59 53 60 54 61 58 62 55 63 57 64 56 65
REMARK SMILES IDX 43 66 44 67 48 68 45 69 47 70 46 71
REMARK H PARENT 63 39 41 50
REMARK Flexibility Score: inf
ROOT
ATOM      1  C   UNL A   1      39.142  22.077  25.862  1.00  0.00     0.274 C 
ENDROOT
BRANCH   1   2
ATOM      2  O   UNL A   1      37.759  22.504  25.884  1.00  0.00    -0.462 OA
BRANCH   2   3
ATOM      3  C   UNL A   1      36.719  21.985  25.185  1.00  0.00     0.311 C 
ATOM      4  O   UNL A   1      36.728  22.028  23.954  1.00  0.00    -0.252 OA
BRANCH   3   5
ATOM      5  C   UNL A   1      35.526  21.403  25.903  1.00  0.00     0.177 C 
BRANCH   5   6
ATOM      6  C   UNL A   1      34.316  21.004  25.109  1.00  0.00     0.034 A 
ATOM      7  C   UNL A   1      33.958  19.699  24.795  1.00  0.00     0.024 A 
ATOM      8  N   UNL A   1      33.338  21.836  24.580  1.00  0.00    -0.318 N 
ATOM      9  C   UNL A   1      32.761  19.737  24.054  1.00  0.00     0.020 A 
ATOM     10  C   UNL A   1      32.410  21.060  23.925  1.00  0.00     0.091 A 
BRANCH   8  11
ATOM     11  C   UNL A   1      33.254  23.232  24.691  1.00  0.00     0.081 A 
ATOM     12  C   UNL A   1      32.747  23.795  25.861  1.00  0.00     0.030 A 
ATOM     13  C   UNL A   1      33.853  24.026  23.717  1.00  0.00     0.147 A 
ATOM     14  C   UNL A   1      32.912  25.164  26.074  1.00  0.00     0.002 A 
ATOM     15  C   UNL A   1      34.081  25.376  23.963  1.00  0.00     0.041 A 
ATOM     16  F   UNL A   1      34.312  23.484  22.579  1.00  0.00    -0.205 F 
ATOM     17  C   UNL A   1      33.615  25.943  25.149  1.00  0.00     0.003 A 
ENDBRANCH   8  11
ENDBRANCH   5   6
ENDBRANCH   3   5
ENDBRANCH   2   3
ENDBRANCH   1   2
BRANCH   1  18
ATOM     18  C   UNL A   1      39.260  20.573  25.808  1.00  0.00     0.275 C 
BRANCH  18  19
ATOM     19  O   UNL A   1      40.226  20.206  26.771  1.00  0.00    -0.458 OA
BRANCH  19  20
ATOM     20  C   UNL A   1      41.330  19.616  26.265  1.00  0.00     0.338 C 
ATOM     21  O   UNL A   1      41.429  18.529  25.741  1.00  0.00    -0.246 OA
BRANCH  20  22
ATOM     22  C   UNL A   1      42.465  20.466  26.628  1.00  0.00     0.060 A 
ATOM     23  C   UNL A   1      42.448  20.883  27.959  1.00  0.00     0.016 A 
ATOM     24  C   UNL A   1      42.979  21.241  25.581  1.00  0.00     0.016 A 
ATOM     25  C   UNL A   1      42.637  22.218  28.188  1.00  0.00     0.010 A 
ATOM     26  C   UNL A   1      43.031  22.587  25.779  1.00  0.00     0.010 A 
ATOM     27  C   UNL A   1      42.839  23.054  27.080  1.00  0.00    -0.014 A 
BRANCH  27  28
ATOM     28  C   UNL A   1      43.139  24.446  27.344  1.00  0.00     0.031 A 
ATOM     29  C   UNL A   1      41.797  25.185  27.506  1.00  0.00     0.074 A 
ATOM     30  C   UNL A   1      44.470  24.762  27.309  1.00  0.00     0.049 A 
ATOM     31  N   UNL A   1      41.528  26.430  27.304  1.00  0.00    -0.248 NA
ATOM     32  C   UNL A   1      40.549  24.439  27.879  1.00  0.00     0.031 C 
ATOM     33  C   UNL A   1      45.595  23.797  27.160  1.00  0.00     0.029 A 
ATOM     34  N   UNL A   1      45.159  25.947  27.373  1.00  0.00    -0.354 N 
ATOM     35  C   UNL A   1      40.192  26.651  27.692  1.00  0.00     0.074 A 
ATOM     36  C   UNL A   1      39.608  25.378  27.946  1.00  0.00     0.031 C 
ATOM     37  C   UNL A   1      46.781  24.442  27.040  1.00  0.00     0.029 A 
ATOM     38  C   UNL A   1      46.554  25.872  27.115  1.00  0.00     0.049 A 
ATOM     39  H   UNL A   1      44.714  26.798  27.587  1.00  0.00     0.167 HD
ATOM     40  C   UNL A   1      39.702  27.901  27.913  1.00  0.00     0.031 A 
ATOM     41  C   UNL A   1      47.431  26.907  26.923  1.00  0.00     0.031 A 
ATOM     42  C   UNL A   1      40.669  28.870  27.526  1.00  0.00     0.049 A 
ATOM     43  C   UNL A   1      46.639  28.114  27.198  1.00  0.00     0.074 A 
ATOM     44  C   UNL A   1      41.153  29.210  26.288  1.00  0.00     0.029 A 
ATOM     45  N   UNL A   1      41.584  29.225  28.490  1.00  0.00    -0.354 N 
ATOM     46  N   UNL A   1      46.257  28.495  28.377  1.00  0.00    -0.248 NA
ATOM     47  C   UNL A   1      46.149  28.907  26.065  1.00  0.00     0.031 C 
ATOM     48  C   UNL A   1      42.547  29.256  26.505  1.00  0.00     0.029 A 
ATOM     49  C   UNL A   1      42.812  29.245  27.880  1.00  0.00     0.049 A 
ATOM     50  H   UNL A   1      41.394  29.426  29.436  1.00  0.00     0.167 HD
ATOM     51  C   UNL A   1      45.179  29.290  28.082  1.00  0.00     0.074 A 
ATOM     52  C   UNL A   1      45.377  29.765  26.727  1.00  0.00     0.031 C 
ATOM     53  C   UNL A   1      43.987  29.065  28.696  1.00  0.00     0.031 A 
BRANCH  40  54
ATOM     54  C   UNL A   1      38.515  28.355  28.697  1.00  0.00    -0.014 A 
ATOM     55  C   UNL A   1      37.660  29.289  28.070  1.00  0.00     0.009 A 
ATOM     56  C   UNL A   1      38.397  28.194  30.082  1.00  0.00     0.009 A 
ATOM     57  C   UNL A   1      36.827  30.127  28.808  1.00  0.00     0.001 A 
ATOM     58  C   UNL A   1      37.528  29.009  30.820  1.00  0.00     0.001 A 
ATOM     59  C   UNL A   1      36.778  29.999  30.188  1.00  0.00     0.000 A 
ENDBRANCH  40  54
BRANCH  41  60
ATOM     60  C   UNL A   1      48.839  27.170  26.445  1.00  0.00    -0.014 A 
ATOM     61  C   UNL A   1      49.956  27.443  27.236  1.00  0.00     0.009 A 
ATOM     62  C   UNL A   1      49.101  27.045  25.047  1.00  0.00     0.009 A 
ATOM     63  C   UNL A   1      51.253  27.483  26.668  1.00  0.00     0.001 A 
ATOM     64  C   UNL A   1      50.381  27.026  24.489  1.00  0.00     0.001 A 
ATOM     65  C   UNL A   1      51.468  27.233  25.310  1.00  0.00     0.000 A 
ENDBRANCH  41  60
BRANCH  53  66
ATOM     66  C   UNL A   1      44.056  28.280  30.005  1.00  0.00    -0.014 A 
ATOM     67  C   UNL A   1      44.527  28.906  31.170  1.00  0.00     0.009 A 
ATOM     68  C   UNL A   1      43.786  26.901  30.098  1.00  0.00     0.009 A 
ATOM     69  C   UNL A   1      44.747  28.191  32.357  1.00  0.00     0.001 A 
ATOM     70  C   UNL A   1      44.010  26.176  31.283  1.00  0.00     0.001 A 
ATOM     71  C   UNL A   1      44.494  26.824  32.413  1.00  0.00     0.000 A 
ENDBRANCH  53  66
ENDBRANCH  27  28
ENDBRANCH  20  22
ENDBRANCH  19  20
ENDBRANCH  18  19
ENDBRANCH   1  18
TORSDOF 13
ENDMDL
MODEL 2
REMARK VINA RESULT:     -10.9      5.059     10.141
REMARK SMILES O=C(Cc1cccn1-c1ccccc1F)OCCOC(=O)c1ccc(-c2c3nc(c(-c4ccccc4)c4ccc([nH]4)c(-c4ccccc4)c4nc(c(-c5ccccc5)c5ccc2[nH]5)C=C4)C=C3)cc1
REMARK SMILES IDX 17 1 16 2 2 3 1 4 3 5 4 6 5 7 8 8 6 9 7 10 9 11 10 12 14 13
REMARK SMILES IDX 11 14 13 15 15 16 12 17 18 18 19 19 20 20 21 21 22 22 23 23
REMARK SMILES IDX 69 24 24 25 68 26 25 27 26 28 27 29 62 30 28 31 67 32 61 33
REMARK SMILES IDX 63 34 29 35 66 36 60 37 59 38 30 40 52 41 37 42 51 43 38 44
REMARK SMILES IDX 41 45 50 46 64 47 39 48 40 49 49 51 65 52 42 53 31 54 32 55
REMARK SMILES IDX 36 56 33 57 35 58 34 59 53 60 54 61 58 62 55 63 57 64 56 65
REMARK SMILES IDX 43 66 44 67 48 68 45 69 47 70 46 71
REMARK H PARENT 63 39 41 50
REMARK Flexibility Score: inf
ROOT
ATOM      1  C   UNL A   1      33.100  30.939  27.299  1.00  0.00     0.274 C 
ENDROOT
BRANCH   1   2
ATOM      2  O   UNL A   1      32.059  29.947  27.128  1.00  0.00    -0.462 OA
BRANCH   2   3
ATOM      3  C   UNL A   1      32.153  28.607  27.308  1.00  0.00     0.311 C 
ATOM      4  O   UNL A   1      31.261  28.007  27.911  1.00  0.00    -0.252 OA
BRANCH   3   5
ATOM      5  C   UNL A   1      33.365  27.850  26.823  1.00  0.00     0.177 C 
BRANCH   5   6
ATOM      6  C   UNL A   1      33.477  27.501  25.368  1.00  0.00     0.034 A 
ATOM      7  C   UNL A   1      33.728  28.405  24.344  1.00  0.00     0.024 A 
ATOM      8  N   UNL A   1      33.385  26.241  24.789  1.00  0.00    -0.318 N 
ATOM      9  C   UNL A   1      33.772  27.694  23.128  1.00  0.00     0.020 A 
ATOM     10  C   UNL A   1      33.546  26.371  23.429  1.00  0.00     0.091 A 
BRANCH   8  11
ATOM     11  C   UNL A   1      33.189  25.015  25.442  1.00  0.00     0.081 A 
ATOM     12  C   UNL A   1      34.291  24.217  25.740  1.00  0.00     0.030 A 
ATOM     13  C   UNL A   1      31.927  24.711  25.946  1.00  0.00     0.147 A 
ATOM     14  C   UNL A   1      34.125  23.142  26.614  1.00  0.00     0.002 A 
ATOM     15  C   UNL A   1      31.778  23.685  26.873  1.00  0.00     0.041 A 
ATOM     16  F   UNL A   1      30.864  25.465  25.631  1.00  0.00    -0.205 F 
ATOM     17  C   UNL A   1      32.883  22.903  27.213  1.00  0.00     0.003 A 
ENDBRANCH   8  11
ENDBRANCH   5   6
ENDBRANCH   3   5
ENDBRANCH   2   3
ENDBRANCH   1   2
BRANCH   1  18
ATOM     18  C   UNL A   1      32.531  32.336  27.365  1.00  0.00     0.275 C 
BRANCH  18  19
ATOM     19  O   UNL A   1      33.606  33.200  27.671  1.00  0.00    -0.458 OA
BRANCH  19  20
ATOM     20  C   UNL A   1      33.268  34.282  28.405  1.00  0.00     0.338 C 
ATOM     21  O   UNL A   1      32.337  35.039  28.244  1.00  0.00    -0.246 OA
BRANCH  20  22
ATOM     22  C   UNL A   1      34.358  34.502  29.357  1.00  0.00     0.060 A 
ATOM     23  C   UNL A   1      35.608  34.644  28.753  1.00  0.00     0.016 A 
ATOM     24  C   UNL A   1      34.168  33.915  30.615  1.00  0.00     0.016 A 
ATOM     25  C   UNL A   1      36.627  33.889  29.266  1.00  0.00     0.010 A 
ATOM     26  C   UNL A   1      35.133  33.057  31.046  1.00  0.00     0.010 A 
ATOM     27  C   UNL A   1      36.342  33.045  30.350  1.00  0.00    -0.014 A 
BRANCH  27  28
ATOM     28  C   UNL A   1      37.452  32.330  30.945  1.00  0.00     0.031 A 
ATOM     29  C   UNL A   1      37.629  31.016  30.160  1.00  0.00     0.074 A 
ATOM     30  C   UNL A   1      37.994  32.930  32.049  1.00  0.00     0.049 A 
ATOM     31  N   UNL A   1      38.138  29.899  30.555  1.00  0.00    -0.248 NA
ATOM     32  C   UNL A   1      37.111  30.882  28.758  1.00  0.00     0.031 C 
ATOM     33  C   UNL A   1      37.631  34.273  32.582  1.00  0.00     0.029 A 
ATOM     34  N   UNL A   1      38.942  32.542  32.962  1.00  0.00    -0.354 N 
ATOM     35  C   UNL A   1      38.179  29.029  29.449  1.00  0.00     0.074 A 
ATOM     36  C   UNL A   1      37.448  29.647  28.395  1.00  0.00     0.031 C 
ATOM     37  C   UNL A   1      38.263  34.520  33.756  1.00  0.00     0.029 A 
ATOM     38  C   UNL A   1      39.103  33.388  34.092  1.00  0.00     0.049 A 
ATOM     39  H   UNL A   1      39.480  31.727  32.840  1.00  0.00     0.167 HD
ATOM     40  C   UNL A   1      38.947  27.905  29.442  1.00  0.00     0.031 A 
ATOM     41  C   UNL A   1      39.823  33.142  35.232  1.00  0.00     0.031 A 
ATOM     42  C   UNL A   1      39.507  27.701  30.734  1.00  0.00     0.049 A 
ATOM     43  C   UNL A   1      40.519  31.877  34.959  1.00  0.00     0.074 A 
ATOM     44  C   UNL A   1      38.915  27.366  31.926  1.00  0.00     0.029 A 
ATOM     45  N   UNL A   1      40.705  28.332  30.977  1.00  0.00    -0.354 N 
ATOM     46  N   UNL A   1      41.523  31.745  34.149  1.00  0.00    -0.248 NA
ATOM     47  C   UNL A   1      39.996  30.643  35.557  1.00  0.00     0.031 C 
ATOM     48  C   UNL A   1      39.504  28.277  32.828  1.00  0.00     0.029 A 
ATOM     49  C   UNL A   1      40.609  28.892  32.225  1.00  0.00     0.049 A 
ATOM     50  H   UNL A   1      41.481  28.373  30.372  1.00  0.00     0.167 HD
ATOM     51  C   UNL A   1      41.464  30.410  33.841  1.00  0.00     0.074 A 
ATOM     52  C   UNL A   1      40.783  29.762  34.944  1.00  0.00     0.031 C 
ATOM     53  C   UNL A   1      41.451  30.019  32.538  1.00  0.00     0.031 A 
BRANCH  40  54
ATOM     54  C   UNL A   1      39.466  27.090  28.304  1.00  0.00    -0.014 A 
ATOM     55  C   UNL A   1      39.394  25.686  28.445  1.00  0.00     0.009 A 
ATOM     56  C   UNL A   1      40.306  27.601  27.309  1.00  0.00     0.009 A 
ATOM     57  C   UNL A   1      40.231  24.836  27.724  1.00  0.00     0.001 A 
ATOM     58  C   UNL A   1      41.118  26.743  26.554  1.00  0.00     0.001 A 
ATOM     59  C   UNL A   1      41.109  25.369  26.792  1.00  0.00     0.000 A 
ENDBRANCH  40  54
BRANCH  41  60
ATOM     60  C   UNL A   1      40.022  33.685  36.626  1.00  0.00    -0.014 A 
ATOM     61  C   UNL A   1      41.172  34.289  37.135  1.00  0.00     0.009 A 
ATOM     62  C   UNL A   1      38.900  33.673  37.511  1.00  0.00     0.009 A 
ATOM     63  C   UNL A   1      41.158  34.923  38.402  1.00  0.00     0.001 A 
ATOM     64  C   UNL A   1      38.862  34.344  38.735  1.00  0.00     0.001 A 
ATOM     65  C   UNL A   1      39.997  34.987  39.178  1.00  0.00     0.000 A 
ENDBRANCH  41  60
BRANCH  53  66
ATOM     66  C   UNL A   1      41.991  31.039  31.537  1.00  0.00    -0.014 A 
ATOM     67  C   UNL A   1      43.376  31.238  31.421  1.00  0.00     0.009 A 
ATOM     68  C   UNL A   1      41.168  31.902  30.790  1.00  0.00     0.009 A 
ATOM     69  C   UNL A   1      43.912  32.262  30.627  1.00  0.00     0.001 A 
ATOM     70  C   UNL A   1      41.698  32.935  29.995  1.00  0.00     0.001 A 
ATOM     71  C   UNL A   1      43.074  33.115  29.916  1.00  0.00     0.000 A 
ENDBRANCH  53  66
ENDBRANCH  27  28
ENDBRANCH  20  22
ENDBRANCH  19  20
ENDBRANCH  18  19
ENDBRANCH   1  18
TORSDOF 13
ENDMDL
MODEL 3
REMARK VINA RESULT:     -10.9      5.564     10.433
REMARK SMILES O=C(Cc1cccn1-c1ccccc1F)OCCOC(=O)c1ccc(-c2c3nc(c(-c4ccccc4)c4ccc([nH]4)c(-c4ccccc4)c4nc(c(-c5ccccc5)c5ccc2[nH]5)C=C4)C=C3)cc1
REMARK SMILES IDX 17 1 16 2 2 3 1 4 3 5 4 6 5 7 8 8 6 9 7 10 9 11 10 12 14 13
REMARK SMILES IDX 11 14 13 15 15 16 12 17 18 18 19 19 20 20 21 21 22 22 23 23
REMARK SMILES IDX 69 24 24 25 68 26 25 27 26 28 27 29 62 30 28 31 67 32 61 33
REMARK SMILES IDX 63 34 29 35 66 36 60 37 59 38 30 40 52 41 37 42 51 43 38 44
REMARK SMILES IDX 41 45 50 46 64 47 39 48 40 49 49 51 65 52 42 53 31 54 32 55
REMARK SMILES IDX 36 56 33 57 35 58 34 59 53 60 54 61 58 62 55 63 57 64 56 65
REMARK SMILES IDX 43 66 44 67 48 68 45 69 47 70 46 71
REMARK H PARENT 63 39 41 50
REMARK Flexibility Score: inf
ROOT
ATOM      1  C   UNL A   1      32.615  30.701  27.008  1.00  0.00     0.274 C 
ENDROOT
BRANCH   1   2
ATOM      2  O   UNL A   1      32.756  29.263  27.095  1.00  0.00    -0.462 OA
BRANCH   2   3
ATOM      3  C   UNL A   1      31.774  28.330  27.055  1.00  0.00     0.311 C 
ATOM      4  O   UNL A   1      31.079  28.129  28.052  1.00  0.00    -0.252 OA
BRANCH   3   5
ATOM      5  C   UNL A   1      31.557  27.497  25.815  1.00  0.00     0.177 C 
BRANCH   5   6
ATOM      6  C   UNL A   1      32.108  27.975  24.504  1.00  0.00     0.034 A 
ATOM      7  C   UNL A   1      33.380  27.699  24.020  1.00  0.00     0.024 A 
ATOM      8  N   UNL A   1      31.460  28.738  23.540  1.00  0.00    -0.318 N 
ATOM      9  C   UNL A   1      33.515  28.312  22.759  1.00  0.00     0.020 A 
ATOM     10  C   UNL A   1      32.328  28.953  22.495  1.00  0.00     0.091 A 
BRANCH   8  11
ATOM     11  C   UNL A   1      30.138  29.208  23.572  1.00  0.00     0.081 A 
ATOM     12  C   UNL A   1      29.901  30.560  23.814  1.00  0.00     0.030 A 
ATOM     13  C   UNL A   1      29.108  28.360  23.177  1.00  0.00     0.147 A 
ATOM     14  C   UNL A   1      28.622  31.068  23.582  1.00  0.00     0.002 A 
ATOM     15  C   UNL A   1      27.854  28.882  22.877  1.00  0.00     0.041 A 
ATOM     16  F   UNL A   1      29.335  27.054  22.976  1.00  0.00    -0.205 F 
ATOM     17  C   UNL A   1      27.614  30.242  23.074  1.00  0.00     0.003 A 
ENDBRANCH   8  11
ENDBRANCH   5   6
ENDBRANCH   3   5
ENDBRANCH   2   3
ENDBRANCH   1   2
BRANCH   1  18
ATOM     18  C   UNL A   1      33.690  31.415  27.792  1.00  0.00     0.275 C 
BRANCH  18  19
ATOM     19  O   UNL A   1      33.809  32.708  27.238  1.00  0.00    -0.458 OA
BRANCH  19  20
ATOM     20  C   UNL A   1      33.282  33.696  27.994  1.00  0.00     0.338 C 
ATOM     21  O   UNL A   1      32.227  34.273  27.849  1.00  0.00    -0.246 OA
BRANCH  20  22
ATOM     22  C   UNL A   1      34.318  34.093  28.948  1.00  0.00     0.060 A 
ATOM     23  C   UNL A   1      35.582  34.235  28.375  1.00  0.00     0.016 A 
ATOM     24  C   UNL A   1      34.109  33.651  30.261  1.00  0.00     0.016 A 
ATOM     25  C   UNL A   1      36.619  33.609  29.011  1.00  0.00     0.010 A 
ATOM     26  C   UNL A   1      35.101  32.910  30.827  1.00  0.00     0.010 A 
ATOM     27  C   UNL A   1      36.337  32.887  30.179  1.00  0.00    -0.014 A 
BRANCH  27  28
ATOM     28  C   UNL A   1      37.459  32.316  30.895  1.00  0.00     0.031 A 
ATOM     29  C   UNL A   1      37.775  30.954  30.248  1.00  0.00     0.074 A 
ATOM     30  C   UNL A   1      37.890  33.052  31.964  1.00  0.00     0.049 A 
ATOM     31  N   UNL A   1      38.338  29.920  30.771  1.00  0.00    -0.248 NA
ATOM     32  C   UNL A   1      37.350  30.655  28.839  1.00  0.00     0.031 C 
ATOM     33  C   UNL A   1      37.402  34.405  32.350  1.00  0.00     0.029 A 
ATOM     34  N   UNL A   1      38.810  32.822  32.957  1.00  0.00    -0.354 N 
ATOM     35  C   UNL A   1      38.507  28.959  29.755  1.00  0.00     0.074 A 
ATOM     36  C   UNL A   1      37.796  29.422  28.612  1.00  0.00     0.031 C 
ATOM     37  C   UNL A   1      37.945  34.805  33.526  1.00  0.00     0.029 A 
ATOM     38  C   UNL A   1      38.843  33.775  34.009  1.00  0.00     0.049 A 
ATOM     39  H   UNL A   1      39.411  32.043  32.940  1.00  0.00     0.167 HD
ATOM     40  C   UNL A   1      39.352  27.902  29.893  1.00  0.00     0.031 A 
ATOM     41  C   UNL A   1      39.511  33.689  35.202  1.00  0.00     0.031 A 
ATOM     42  C   UNL A   1      39.849  27.858  31.226  1.00  0.00     0.049 A 
ATOM     43  C   UNL A   1      40.312  32.462  35.086  1.00  0.00     0.074 A 
ATOM     44  C   UNL A   1      39.215  27.587  32.412  1.00  0.00     0.029 A 
ATOM     45  N   UNL A   1      40.983  28.598  31.469  1.00  0.00    -0.354 N 
ATOM     46  N   UNL A   1      41.368  32.335  34.344  1.00  0.00    -0.248 NA
ATOM     47  C   UNL A   1      39.845  31.251  35.769  1.00  0.00     0.031 C 
ATOM     48  C   UNL A   1      39.684  28.618  33.253  1.00  0.00     0.029 A 
ATOM     49  C   UNL A   1      40.774  29.260  32.653  1.00  0.00     0.049 A 
ATOM     50  H   UNL A   1      41.788  28.645  30.904  1.00  0.00     0.167 HD
ATOM     51  C   UNL A   1      41.423  30.978  34.160  1.00  0.00     0.074 A 
ATOM     52  C   UNL A   1      40.727  30.382  35.283  1.00  0.00     0.031 C 
ATOM     53  C   UNL A   1      41.514  30.471  32.901  1.00  0.00     0.031 A 
BRANCH  40  54
ATOM     54  C   UNL A   1      39.994  27.030  28.865  1.00  0.00    -0.014 A 
ATOM     55  C   UNL A   1      40.849  27.668  27.938  1.00  0.00     0.009 A 
ATOM     56  C   UNL A   1      39.545  25.742  28.555  1.00  0.00     0.009 A 
ATOM     57  C   UNL A   1      41.126  27.106  26.693  1.00  0.00     0.001 A 
ATOM     58  C   UNL A   1      39.858  25.159  27.320  1.00  0.00     0.001 A 
ATOM     59  C   UNL A   1      40.611  25.858  26.377  1.00  0.00     0.000 A 
ENDBRANCH  40  54
BRANCH  41  60
ATOM     60  C   UNL A   1      39.590  34.369  36.548  1.00  0.00    -0.014 A 
ATOM     61  C   UNL A   1      40.155  35.614  36.827  1.00  0.00     0.009 A 
ATOM     62  C   UNL A   1      38.945  33.733  37.653  1.00  0.00     0.009 A 
ATOM     63  C   UNL A   1      39.991  36.215  38.100  1.00  0.00     0.001 A 
ATOM     64  C   UNL A   1      38.731  34.344  38.890  1.00  0.00     0.001 A 
ATOM     65  C   UNL A   1      39.247  35.602  39.111  1.00  0.00     0.000 A 
ENDBRANCH  41  60
BRANCH  53  66
ATOM     66  C   UNL A   1      42.036  31.436  31.838  1.00  0.00    -0.014 A 
ATOM     67  C   UNL A   1      41.177  31.884  30.820  1.00  0.00     0.009 A 
ATOM     68  C   UNL A   1      43.386  31.821  31.735  1.00  0.00     0.009 A 
ATOM     69  C   UNL A   1      41.645  32.650  29.742  1.00  0.00     0.001 A 
ATOM     70  C   UNL A   1      43.864  32.584  30.654  1.00  0.00     0.001 A 
ATOM     71  C   UNL A   1      42.990  32.997  29.655  1.00  0.00     0.000 A 
ENDBRANCH  53  66
ENDBRANCH  27  28
ENDBRANCH  20  22
ENDBRANCH  19  20
ENDBRANCH  18  19
ENDBRANCH   1  18
TORSDOF 13
ENDMDL
