MODEL 1
REMARK VINA RESULT:     -10.9      0.000      0.000
REMARK SMILES CCOc1cc2c(cc1OCC)[C@@H](C(=O)OCCOC(=O)c1ccc(-c3c4nc(c(-c5ccccc5)c5ccc([nH]5)c(-c5ccccc5)c5nc(c(-c6ccccc6)c6ccc3[nH]6)C=C5)C=C4)cc1)[C@H](c1ccc(F)cc1Cl)N(C)C2=O
REMARK SMILES IDX 17 1 16 2 14 3 15 4 13 5 4 6 5 7 9 8 6 9 8 10 7 11 81 12
REMARK SMILES IDX 79 13 82 14 70 15 80 16 3 17 2 18 1 19 10 20 11 21 12 22
REMARK SMILES IDX 71 23 72 24 77 25 73 26 76 27 78 28 74 29 75 30 18 31 19 32
REMARK SMILES IDX 20 33 21 34 22 35 23 36 69 37 24 38 68 39 25 40 26 41 27 42
REMARK SMILES IDX 62 43 28 44 67 45 61 46 63 47 29 48 66 49 60 50 59 51 30 53
REMARK SMILES IDX 52 54 37 55 51 56 38 57 41 58 50 59 64 60 39 61 40 62 49 64
REMARK SMILES IDX 65 65 42 66 31 67 32 68 36 69 33 70 35 71 34 72 53 73 54 74
REMARK SMILES IDX 58 75 55 76 57 77 56 78 43 79 44 80 48 81 45 82 47 83 46 84
REMARK H PARENT 63 52 41 63
REMARK Flexibility Score: inf
ROOT
ATOM      1  C   UNL A   1      35.603  21.402  26.003  1.00  0.00     0.274 C 
ENDROOT
BRANCH   1   2
ATOM      2  O   UNL A   1      35.568  22.797  26.367  1.00  0.00    -0.462 OA
BRANCH   2   3
ATOM      3  C   UNL A   1      34.350  23.326  26.634  1.00  0.00     0.316 C 
ATOM      4  O   UNL A   1      33.742  23.154  27.688  1.00  0.00    -0.251 OA
BRANCH   3   5
ATOM      5  C   UNL A   1      33.746  24.130  25.489  1.00  0.00     0.157 C 
ATOM      6  C   UNL A   1      32.342  27.986  26.767  1.00  0.00     0.161 A 
ATOM      7  C   UNL A   1      31.475  26.881  26.727  1.00  0.00     0.064 A 
ATOM      8  C   UNL A   1      33.687  27.839  26.398  1.00  0.00     0.161 A 
ATOM      9  C   UNL A   1      31.943  25.625  26.354  1.00  0.00     0.048 A 
ATOM     10  C   UNL A   1      34.139  26.572  26.011  1.00  0.00     0.056 A 
ATOM     11  C   UNL A   1      33.275  25.474  25.973  1.00  0.00    -0.015 A 
ATOM     12  C   UNL A   1      31.028  24.448  26.349  1.00  0.00     0.254 C 
ATOM     13  N   UNL A   1      31.404  23.379  25.535  1.00  0.00    -0.333 N 
ATOM     14  O   UNL A   1      30.025  24.454  27.055  1.00  0.00    -0.269 OA
ATOM     15  C   UNL A   1      32.598  23.446  24.687  1.00  0.00     0.135 C 
ATOM     16  C   UNL A   1      30.625  22.153  25.576  1.00  0.00     0.147 C 
BRANCH   6  17
ATOM     17  O   UNL A   1      31.807  29.210  27.062  1.00  0.00    -0.490 OA
BRANCH  17  18
ATOM     18  C   UNL A   1      31.648  30.051  25.911  1.00  0.00     0.226 C 
ATOM     19  C   UNL A   1      31.332  31.485  26.306  1.00  0.00     0.049 C 
ENDBRANCH  17  18
ENDBRANCH   6  17
BRANCH   8  20
ATOM     20  O   UNL A   1      34.689  28.763  26.335  1.00  0.00    -0.490 OA
BRANCH  20  21
ATOM     21  C   UNL A   1      35.253  29.326  27.511  1.00  0.00     0.226 C 
ATOM     22  C   UNL A   1      34.935  30.806  27.606  1.00  0.00     0.049 C 
ENDBRANCH  20  21
ENDBRANCH   8  20
BRANCH  15  23
ATOM     23  C   UNL A   1      32.410  24.122  23.295  1.00  0.00    -0.005 A 
ATOM     24  C   UNL A   1      33.392  23.807  22.317  1.00  0.00     0.010 A 
ATOM     25  C   UNL A   1      31.409  25.038  22.896  1.00  0.00     0.049 A 
ATOM     26  C   UNL A   1      33.439  24.436  21.069  1.00  0.00     0.040 A 
ATOM     27  C   UNL A   1      31.461  25.663  21.638  1.00  0.00     0.060 A 
ATOM     28  Cl  UNL A   1      30.023  25.485  23.820  1.00  0.00    -0.084 Cl
ATOM     29  C   UNL A   1      32.479  25.374  20.750  1.00  0.00     0.124 A 
ATOM     30  F   UNL A   1      32.524  25.995  19.565  1.00  0.00    -0.207 F 
ENDBRANCH  15  23
ENDBRANCH   3   5
ENDBRANCH   2   3
ENDBRANCH   1   2
BRANCH   1  31
ATOM     31  C   UNL A   1      36.534  21.140  24.813  1.00  0.00     0.275 C 
BRANCH  31  32
ATOM     32  O   UNL A   1      37.730  21.941  24.873  1.00  0.00    -0.458 OA
BRANCH  32  33
ATOM     33  C   UNL A   1      38.639  21.530  25.786  1.00  0.00     0.338 C 
ATOM     34  O   UNL A   1      39.040  20.392  25.969  1.00  0.00    -0.246 OA
BRANCH  33  35
ATOM     35  C   UNL A   1      39.272  22.688  26.435  1.00  0.00     0.060 A 
ATOM     36  C   UNL A   1      38.747  23.944  26.127  1.00  0.00     0.016 A 
ATOM     37  C   UNL A   1      40.402  22.574  27.244  1.00  0.00     0.016 A 
ATOM     38  C   UNL A   1      39.347  25.098  26.605  1.00  0.00     0.010 A 
ATOM     39  C   UNL A   1      41.013  23.738  27.725  1.00  0.00     0.010 A 
ATOM     40  C   UNL A   1      40.499  25.005  27.392  1.00  0.00    -0.014 A 
BRANCH  40  41
ATOM     41  C   UNL A   1      41.184  26.258  27.779  1.00  0.00     0.031 A 
ATOM     42  C   UNL A   1      42.529  26.580  27.195  1.00  0.00     0.074 A 
ATOM     43  C   UNL A   1      40.558  27.143  28.575  1.00  0.00     0.049 A 
ATOM     44  N   UNL A   1      43.275  27.638  27.375  1.00  0.00    -0.248 NA
ATOM     45  C   UNL A   1      43.106  25.582  26.280  1.00  0.00     0.031 C 
ATOM     46  C   UNL A   1      39.225  26.965  29.152  1.00  0.00     0.029 A 
ATOM     47  N   UNL A   1      40.956  28.379  29.017  1.00  0.00    -0.354 N 
ATOM     48  C   UNL A   1      44.420  27.425  26.620  1.00  0.00     0.074 A 
ATOM     49  C   UNL A   1      44.276  26.132  25.986  1.00  0.00     0.031 C 
ATOM     50  C   UNL A   1      38.908  28.061  29.859  1.00  0.00     0.029 A 
ATOM     51  C   UNL A   1      40.027  28.998  29.815  1.00  0.00     0.049 A 
ATOM     52  H   UNL A   1      41.822  28.782  28.783  1.00  0.00     0.167 HD
ATOM     53  C   UNL A   1      45.496  28.233  26.470  1.00  0.00     0.031 A 
ATOM     54  C   UNL A   1      40.080  30.182  30.452  1.00  0.00     0.031 A 
ATOM     55  C   UNL A   1      45.637  29.520  27.099  1.00  0.00     0.049 A 
ATOM     56  C   UNL A   1      41.301  31.044  30.300  1.00  0.00     0.074 A 
ATOM     57  C   UNL A   1      46.689  30.415  27.007  1.00  0.00     0.029 A 
ATOM     58  N   UNL A   1      44.694  30.094  27.937  1.00  0.00    -0.354 N 
ATOM     59  N   UNL A   1      42.379  30.827  29.586  1.00  0.00    -0.248 NA
ATOM     60  C   UNL A   1      41.308  32.316  31.036  1.00  0.00     0.031 C 
ATOM     61  C   UNL A   1      46.400  31.513  27.825  1.00  0.00     0.029 A 
ATOM     62  C   UNL A   1      45.146  31.324  28.384  1.00  0.00     0.049 A 
ATOM     63  H   UNL A   1      43.830  29.689  28.177  1.00  0.00     0.167 HD
ATOM     64  C   UNL A   1      43.186  31.942  29.774  1.00  0.00     0.074 A 
ATOM     65  C   UNL A   1      42.464  32.839  30.652  1.00  0.00     0.031 C 
ATOM     66  C   UNL A   1      44.415  32.200  29.262  1.00  0.00     0.031 A 
BRANCH  53  67
ATOM     67  C   UNL A   1      46.628  27.717  25.628  1.00  0.00    -0.014 A 
ATOM     68  C   UNL A   1      46.707  27.993  24.254  1.00  0.00     0.009 A 
ATOM     69  C   UNL A   1      47.640  26.951  26.228  1.00  0.00     0.009 A 
ATOM     70  C   UNL A   1      47.758  27.481  23.492  1.00  0.00     0.001 A 
ATOM     71  C   UNL A   1      48.703  26.462  25.467  1.00  0.00     0.001 A 
ATOM     72  C   UNL A   1      48.757  26.719  24.098  1.00  0.00     0.000 A 
ENDBRANCH  53  67
BRANCH  54  73
ATOM     73  C   UNL A   1      38.941  30.613  31.305  1.00  0.00    -0.014 A 
ATOM     74  C   UNL A   1      37.873  31.341  30.762  1.00  0.00     0.009 A 
ATOM     75  C   UNL A   1      38.918  30.284  32.670  1.00  0.00     0.009 A 
ATOM     76  C   UNL A   1      36.811  31.746  31.575  1.00  0.00     0.001 A 
ATOM     77  C   UNL A   1      37.843  30.666  33.473  1.00  0.00     0.001 A 
ATOM     78  C   UNL A   1      36.794  31.402  32.927  1.00  0.00     0.000 A 
ENDBRANCH  54  73
BRANCH  66  79
ATOM     79  C   UNL A   1      45.040  33.518  29.621  1.00  0.00    -0.014 A 
ATOM     80  C   UNL A   1      45.870  33.647  30.744  1.00  0.00     0.009 A 
ATOM     81  C   UNL A   1      44.815  34.637  28.806  1.00  0.00     0.009 A 
ATOM     82  C   UNL A   1      46.436  34.884  31.063  1.00  0.00     0.001 A 
ATOM     83  C   UNL A   1      45.402  35.864  29.112  1.00  0.00     0.001 A 
ATOM     84  C   UNL A   1      46.205  35.989  30.245  1.00  0.00     0.000 A 
ENDBRANCH  66  79
ENDBRANCH  40  41
ENDBRANCH  33  35
ENDBRANCH  32  33
ENDBRANCH  31  32
ENDBRANCH   1  31
TORSDOF 16
ENDMDL
MODEL 2
REMARK VINA RESULT:     -10.8      3.034      7.175
REMARK SMILES CCOc1cc2c(cc1OCC)[C@@H](C(=O)OCCOC(=O)c1ccc(-c3c4nc(c(-c5ccccc5)c5ccc([nH]5)c(-c5ccccc5)c5nc(c(-c6ccccc6)c6ccc3[nH]6)C=C5)C=C4)cc1)[C@H](c1ccc(F)cc1Cl)N(C)C2=O
REMARK SMILES IDX 17 1 16 2 14 3 15 4 13 5 4 6 5 7 9 8 6 9 8 10 7 11 81 12
REMARK SMILES IDX 79 13 82 14 70 15 80 16 3 17 2 18 1 19 10 20 11 21 12 22
REMARK SMILES IDX 71 23 72 24 77 25 73 26 76 27 78 28 74 29 75 30 18 31 19 32
REMARK SMILES IDX 20 33 21 34 22 35 23 36 69 37 24 38 68 39 25 40 26 41 27 42
REMARK SMILES IDX 62 43 28 44 67 45 61 46 63 47 29 48 66 49 60 50 59 51 30 53
REMARK SMILES IDX 52 54 37 55 51 56 38 57 41 58 50 59 64 60 39 61 40 62 49 64
REMARK SMILES IDX 65 65 42 66 31 67 32 68 36 69 33 70 35 71 34 72 53 73 54 74
REMARK SMILES IDX 58 75 55 76 57 77 56 78 43 79 44 80 48 81 45 82 47 83 46 84
REMARK H PARENT 63 52 41 63
REMARK Flexibility Score: inf
ROOT
ATOM      1  C   UNL A   1      31.527  28.141  26.921  1.00  0.00     0.274 C 
ENDROOT
BRANCH   1   2
ATOM      2  O   UNL A   1      31.962  26.829  27.331  1.00  0.00    -0.462 OA
BRANCH   2   3
ATOM      3  C   UNL A   1      31.637  25.797  26.515  1.00  0.00     0.316 C 
ATOM      4  O   UNL A   1      30.487  25.404  26.329  1.00  0.00    -0.251 OA
BRANCH   3   5
ATOM      5  C   UNL A   1      32.828  25.105  25.866  1.00  0.00     0.157 C 
ATOM      6  C   UNL A   1      33.035  25.840  21.636  1.00  0.00     0.161 A 
ATOM      7  C   UNL A   1      32.381  24.703  22.138  1.00  0.00     0.064 A 
ATOM      8  C   UNL A   1      33.622  26.760  22.517  1.00  0.00     0.161 A 
ATOM      9  C   UNL A   1      32.278  24.490  23.509  1.00  0.00     0.048 A 
ATOM     10  C   UNL A   1      33.524  26.525  23.893  1.00  0.00     0.056 A 
ATOM     11  C   UNL A   1      32.872  25.393  24.390  1.00  0.00    -0.015 A 
ATOM     12  C   UNL A   1      31.552  23.301  24.038  1.00  0.00     0.254 C 
ATOM     13  N   UNL A   1      31.890  22.896  25.330  1.00  0.00    -0.333 N 
ATOM     14  O   UNL A   1      30.695  22.756  23.350  1.00  0.00    -0.269 OA
ATOM     15  C   UNL A   1      32.949  23.568  26.089  1.00  0.00     0.135 C 
ATOM     16  C   UNL A   1      31.136  21.821  25.952  1.00  0.00     0.147 C 
BRANCH   6  17
ATOM     17  O   UNL A   1      33.174  25.953  20.280  1.00  0.00    -0.490 OA
BRANCH  17  18
ATOM     18  C   UNL A   1      32.520  24.903  19.554  1.00  0.00     0.226 C 
ATOM     19  C   UNL A   1      31.822  25.433  18.311  1.00  0.00     0.049 C 
ENDBRANCH  17  18
ENDBRANCH   6  17
BRANCH   8  20
ATOM     20  O   UNL A   1      34.321  27.905  22.259  1.00  0.00    -0.490 OA
BRANCH  20  21
ATOM     21  C   UNL A   1      33.882  29.166  22.741  1.00  0.00     0.226 C 
ATOM     22  C   UNL A   1      32.373  29.285  22.639  1.00  0.00     0.049 C 
ENDBRANCH  20  21
ENDBRANCH   8  20
BRANCH  15  23
ATOM     23  C   UNL A   1      34.402  23.076  25.816  1.00  0.00    -0.005 A 
ATOM     24  C   UNL A   1      35.440  23.960  26.220  1.00  0.00     0.010 A 
ATOM     25  C   UNL A   1      34.817  21.881  25.184  1.00  0.00     0.049 A 
ATOM     26  C   UNL A   1      36.786  23.725  25.922  1.00  0.00     0.040 A 
ATOM     27  C   UNL A   1      36.172  21.650  24.891  1.00  0.00     0.060 A 
ATOM     28  Cl  UNL A   1      33.791  20.572  24.726  1.00  0.00    -0.084 Cl
ATOM     29  C   UNL A   1      37.136  22.576  25.242  1.00  0.00     0.124 A 
ATOM     30  F   UNL A   1      38.419  22.349  24.936  1.00  0.00    -0.207 F 
ENDBRANCH  15  23
ENDBRANCH   3   5
ENDBRANCH   2   3
ENDBRANCH   1   2
BRANCH   1  31
ATOM     31  C   UNL A   1      32.707  29.066  26.598  1.00  0.00     0.275 C 
BRANCH  31  32
ATOM     32  O   UNL A   1      33.738  29.000  27.603  1.00  0.00    -0.458 OA
BRANCH  32  33
ATOM     33  C   UNL A   1      34.375  30.170  27.833  1.00  0.00     0.338 C 
ATOM     34  O   UNL A   1      33.884  31.286  27.867  1.00  0.00    -0.246 OA
BRANCH  33  35
ATOM     35  C   UNL A   1      35.763  29.922  28.256  1.00  0.00     0.060 A 
ATOM     36  C   UNL A   1      36.755  30.117  27.293  1.00  0.00     0.016 A 
ATOM     37  C   UNL A   1      36.089  29.424  29.516  1.00  0.00     0.016 A 
ATOM     38  C   UNL A   1      38.077  29.804  27.568  1.00  0.00     0.010 A 
ATOM     39  C   UNL A   1      37.424  29.103  29.795  1.00  0.00     0.010 A 
ATOM     40  C   UNL A   1      38.419  29.275  28.816  1.00  0.00    -0.014 A 
BRANCH  40  41
ATOM     41  C   UNL A   1      39.815  28.834  29.029  1.00  0.00     0.031 A 
ATOM     42  C   UNL A   1      40.776  29.735  29.749  1.00  0.00     0.074 A 
ATOM     43  C   UNL A   1      40.188  27.595  28.664  1.00  0.00     0.049 A 
ATOM     44  N   UNL A   1      42.026  29.521  30.068  1.00  0.00    -0.248 NA
ATOM     45  C   UNL A   1      40.260  31.046  30.172  1.00  0.00     0.031 C 
ATOM     46  C   UNL A   1      39.323  26.610  28.012  1.00  0.00     0.029 A 
ATOM     47  N   UNL A   1      41.388  26.947  28.809  1.00  0.00    -0.354 N 
ATOM     48  C   UNL A   1      42.455  30.678  30.706  1.00  0.00     0.074 A 
ATOM     49  C   UNL A   1      41.335  31.595  30.720  1.00  0.00     0.031 C 
ATOM     50  C   UNL A   1      40.017  25.476  27.829  1.00  0.00     0.029 A 
ATOM     51  C   UNL A   1      41.381  25.667  28.314  1.00  0.00     0.049 A 
ATOM     52  H   UNL A   1      42.177  27.360  29.228  1.00  0.00     0.167 HD
ATOM     53  C   UNL A   1      43.673  30.952  31.231  1.00  0.00     0.031 A 
ATOM     54  C   UNL A   1      42.368  24.755  28.248  1.00  0.00     0.031 A 
ATOM     55  C   UNL A   1      44.784  30.038  31.218  1.00  0.00     0.049 A 
ATOM     56  C   UNL A   1      43.722  25.097  28.802  1.00  0.00     0.074 A 
ATOM     57  C   UNL A   1      46.059  30.222  31.726  1.00  0.00     0.029 A 
ATOM     58  N   UNL A   1      44.752  28.765  30.668  1.00  0.00    -0.354 N 
ATOM     59  N   UNL A   1      44.115  26.198  29.398  1.00  0.00    -0.248 NA
ATOM     60  C   UNL A   1      44.765  24.069  28.681  1.00  0.00     0.031 C 
ATOM     61  C   UNL A   1      46.810  29.075  31.444  1.00  0.00     0.029 A 
ATOM     62  C   UNL A   1      45.988  28.159  30.808  1.00  0.00     0.049 A 
ATOM     63  H   UNL A   1      43.965  28.354  30.243  1.00  0.00     0.167 HD
ATOM     64  C   UNL A   1      45.445  25.988  29.738  1.00  0.00     0.074 A 
ATOM     65  C   UNL A   1      45.784  24.650  29.299  1.00  0.00     0.031 C 
ATOM     66  C   UNL A   1      46.308  26.829  30.359  1.00  0.00     0.031 A 
BRANCH  53  67
ATOM     67  C   UNL A   1      43.875  32.320  31.816  1.00  0.00    -0.014 A 
ATOM     68  C   UNL A   1      44.363  33.385  31.043  1.00  0.00     0.009 A 
ATOM     69  C   UNL A   1      43.557  32.547  33.164  1.00  0.00     0.009 A 
ATOM     70  C   UNL A   1      44.563  34.641  31.619  1.00  0.00     0.001 A 
ATOM     71  C   UNL A   1      43.735  33.810  33.730  1.00  0.00     0.001 A 
ATOM     72  C   UNL A   1      44.246  34.854  32.960  1.00  0.00     0.000 A 
ENDBRANCH  53  67
BRANCH  54  73
ATOM     73  C   UNL A   1      42.112  23.435  27.615  1.00  0.00    -0.014 A 
ATOM     74  C   UNL A   1      41.568  22.377  28.357  1.00  0.00     0.009 A 
ATOM     75  C   UNL A   1      42.405  23.235  26.256  1.00  0.00     0.009 A 
ATOM     76  C   UNL A   1      41.336  21.138  27.753  1.00  0.00     0.001 A 
ATOM     77  C   UNL A   1      42.149  22.005  25.649  1.00  0.00     0.001 A 
ATOM     78  C   UNL A   1      41.621  20.955  26.400  1.00  0.00     0.000 A 
ENDBRANCH  54  73
BRANCH  66  79
ATOM     79  C   UNL A   1      47.692  26.311  30.624  1.00  0.00    -0.014 A 
ATOM     80  C   UNL A   1      48.048  25.793  31.879  1.00  0.00     0.009 A 
ATOM     81  C   UNL A   1      48.644  26.316  29.594  1.00  0.00     0.009 A 
ATOM     82  C   UNL A   1      49.343  25.322  32.105  1.00  0.00     0.001 A 
ATOM     83  C   UNL A   1      49.929  25.821  29.815  1.00  0.00     0.001 A 
ATOM     84  C   UNL A   1      50.281  25.333  31.073  1.00  0.00     0.000 A 
ENDBRANCH  66  79
ENDBRANCH  40  41
ENDBRANCH  33  35
ENDBRANCH  32  33
ENDBRANCH  31  32
ENDBRANCH   1  31
TORSDOF 16
ENDMDL
MODEL 3
REMARK VINA RESULT:     -10.8      2.770      7.459
REMARK SMILES CCOc1cc2c(cc1OCC)[C@@H](C(=O)OCCOC(=O)c1ccc(-c3c4nc(c(-c5ccccc5)c5ccc([nH]5)c(-c5ccccc5)c5nc(c(-c6ccccc6)c6ccc3[nH]6)C=C5)C=C4)cc1)[C@H](c1ccc(F)cc1Cl)N(C)C2=O
REMARK SMILES IDX 17 1 16 2 14 3 15 4 13 5 4 6 5 7 9 8 6 9 8 10 7 11 81 12
REMARK SMILES IDX 79 13 82 14 70 15 80 16 3 17 2 18 1 19 10 20 11 21 12 22
REMARK SMILES IDX 71 23 72 24 77 25 73 26 76 27 78 28 74 29 75 30 18 31 19 32
REMARK SMILES IDX 20 33 21 34 22 35 23 36 69 37 24 38 68 39 25 40 26 41 27 42
REMARK SMILES IDX 62 43 28 44 67 45 61 46 63 47 29 48 66 49 60 50 59 51 30 53
REMARK SMILES IDX 52 54 37 55 51 56 38 57 41 58 50 59 64 60 39 61 40 62 49 64
REMARK SMILES IDX 65 65 42 66 31 67 32 68 36 69 33 70 35 71 34 72 53 73 54 74
REMARK SMILES IDX 58 75 55 76 57 77 56 78 43 79 44 80 48 81 45 82 47 83 46 84
REMARK H PARENT 63 52 41 63
REMARK Flexibility Score: inf
ROOT
ATOM      1  C   UNL A   1      32.901  29.184  25.594  1.00  0.00     0.274 C 
ENDROOT
BRANCH   1   2
ATOM      2  O   UNL A   1      34.031  28.525  24.986  1.00  0.00    -0.462 OA
BRANCH   2   3
ATOM      3  C   UNL A   1      33.759  27.623  24.013  1.00  0.00     0.316 C 
ATOM      4  O   UNL A   1      33.934  27.830  22.815  1.00  0.00    -0.251 OA
BRANCH   3   5
ATOM      5  C   UNL A   1      33.158  26.316  24.515  1.00  0.00     0.157 C 
ATOM      6  C   UNL A   1      35.869  23.007  24.090  1.00  0.00     0.161 A 
ATOM      7  C   UNL A   1      34.928  23.299  23.089  1.00  0.00     0.064 A 
ATOM      8  C   UNL A   1      35.942  23.804  25.242  1.00  0.00     0.161 A 
ATOM      9  C   UNL A   1      34.081  24.396  23.210  1.00  0.00     0.048 A 
ATOM     10  C   UNL A   1      35.073  24.895  25.357  1.00  0.00     0.056 A 
ATOM     11  C   UNL A   1      34.138  25.184  24.358  1.00  0.00    -0.015 A 
ATOM     12  C   UNL A   1      33.109  24.724  22.129  1.00  0.00     0.254 C 
ATOM     13  N   UNL A   1      32.007  25.493  22.503  1.00  0.00    -0.333 N 
ATOM     14  O   UNL A   1      33.320  24.339  20.983  1.00  0.00    -0.269 OA
ATOM     15  C   UNL A   1      31.791  25.894  23.897  1.00  0.00     0.135 C 
ATOM     16  C   UNL A   1      31.085  25.951  21.477  1.00  0.00     0.147 C 
BRANCH   6  17
ATOM     17  O   UNL A   1      36.618  21.869  23.954  1.00  0.00    -0.490 OA
BRANCH  17  18
ATOM     18  C   UNL A   1      36.188  20.803  24.812  1.00  0.00     0.226 C 
ATOM     19  C   UNL A   1      37.280  19.761  24.998  1.00  0.00     0.049 C 
ENDBRANCH  17  18
ENDBRANCH   6  17
BRANCH   8  20
ATOM     20  O   UNL A   1      36.747  23.695  26.339  1.00  0.00    -0.490 OA
BRANCH  20  21
ATOM     21  C   UNL A   1      38.136  23.981  26.270  1.00  0.00     0.226 C 
ATOM     22  C   UNL A   1      38.956  22.721  26.476  1.00  0.00     0.049 C 
ENDBRANCH  20  21
ENDBRANCH   8  20
BRANCH  15  23
ATOM     23  C   UNL A   1      31.066  24.853  24.802  1.00  0.00    -0.005 A 
ATOM     24  C   UNL A   1      30.389  25.384  25.934  1.00  0.00     0.010 A 
ATOM     25  C   UNL A   1      31.029  23.447  24.661  1.00  0.00     0.049 A 
ATOM     26  C   UNL A   1      29.809  24.572  26.913  1.00  0.00     0.040 A 
ATOM     27  C   UNL A   1      30.440  22.636  25.648  1.00  0.00     0.060 A 
ATOM     28  Cl  UNL A   1      31.634  22.550  23.318  1.00  0.00    -0.084 Cl
ATOM     29  C   UNL A   1      29.857  23.200  26.767  1.00  0.00     0.124 A 
ATOM     30  F   UNL A   1      29.320  22.411  27.706  1.00  0.00    -0.207 F 
ENDBRANCH  15  23
ENDBRANCH   3   5
ENDBRANCH   2   3
ENDBRANCH   1   2
BRANCH   1  31
ATOM     31  C   UNL A   1      32.922  29.074  27.123  1.00  0.00     0.275 C 
BRANCH  31  32
ATOM     32  O   UNL A   1      34.262  28.955  27.639  1.00  0.00    -0.458 OA
BRANCH  32  33
ATOM     33  C   UNL A   1      34.814  30.121  28.046  1.00  0.00     0.338 C 
ATOM     34  O   UNL A   1      34.240  31.177  28.256  1.00  0.00    -0.246 OA
BRANCH  33  35
ATOM     35  C   UNL A   1      36.223  29.918  28.418  1.00  0.00     0.060 A 
ATOM     36  C   UNL A   1      37.169  30.079  27.403  1.00  0.00     0.016 A 
ATOM     37  C   UNL A   1      36.613  29.490  29.686  1.00  0.00     0.016 A 
ATOM     38  C   UNL A   1      38.507  29.801  27.634  1.00  0.00     0.010 A 
ATOM     39  C   UNL A   1      37.964  29.206  29.921  1.00  0.00     0.010 A 
ATOM     40  C   UNL A   1      38.912  29.343  28.891  1.00  0.00    -0.014 A 
BRANCH  40  41
ATOM     41  C   UNL A   1      40.325  28.937  29.064  1.00  0.00     0.031 A 
ATOM     42  C   UNL A   1      41.277  29.850  29.779  1.00  0.00     0.074 A 
ATOM     43  C   UNL A   1      40.721  27.715  28.666  1.00  0.00     0.049 A 
ATOM     44  N   UNL A   1      42.540  29.664  30.066  1.00  0.00    -0.248 NA
ATOM     45  C   UNL A   1      40.736  31.138  30.240  1.00  0.00     0.031 C 
ATOM     46  C   UNL A   1      39.868  26.720  28.015  1.00  0.00     0.029 A 
ATOM     47  N   UNL A   1      41.942  27.098  28.771  1.00  0.00    -0.354 N 
ATOM     48  C   UNL A   1      42.952  30.819  30.716  1.00  0.00     0.074 A 
ATOM     49  C   UNL A   1      41.809  31.705  30.773  1.00  0.00     0.031 C 
ATOM     50  C   UNL A   1      40.588  25.608  27.794  1.00  0.00     0.029 A 
ATOM     51  C   UNL A   1      41.957  25.827  28.252  1.00  0.00     0.049 A 
ATOM     52  H   UNL A   1      42.729  27.524  29.180  1.00  0.00     0.167 HD
ATOM     53  C   UNL A   1      44.174  31.117  31.218  1.00  0.00     0.031 A 
ATOM     54  C   UNL A   1      42.967  24.944  28.145  1.00  0.00     0.031 A 
ATOM     55  C   UNL A   1      45.309  30.234  31.162  1.00  0.00     0.049 A 
ATOM     56  C   UNL A   1      44.323  25.313  28.675  1.00  0.00     0.074 A 
ATOM     57  C   UNL A   1      46.590  30.443  31.645  1.00  0.00     0.029 A 
ATOM     58  N   UNL A   1      45.298  28.971  30.589  1.00  0.00    -0.354 N 
ATOM     59  N   UNL A   1      44.701  26.412  29.283  1.00  0.00    -0.248 NA
ATOM     60  C   UNL A   1      45.390  24.316  28.510  1.00  0.00     0.031 C 
ATOM     61  C   UNL A   1      47.365  29.322  31.323  1.00  0.00     0.029 A 
ATOM     62  C   UNL A   1      46.553  28.396  30.688  1.00  0.00     0.049 A 
ATOM     63  H   UNL A   1      44.513  28.547  30.174  1.00  0.00     0.167 HD
ATOM     64  C   UNL A   1      46.043  26.232  29.588  1.00  0.00     0.074 A 
ATOM     65  C   UNL A   1      46.408  24.912  29.116  1.00  0.00     0.031 C 
ATOM     66  C   UNL A   1      46.898  27.084  30.207  1.00  0.00     0.031 A 
BRANCH  53  67
ATOM     67  C   UNL A   1      44.353  32.479  31.825  1.00  0.00    -0.014 A 
ATOM     68  C   UNL A   1      44.747  33.581  31.052  1.00  0.00     0.009 A 
ATOM     69  C   UNL A   1      44.109  32.660  33.196  1.00  0.00     0.009 A 
ATOM     70  C   UNL A   1      44.928  34.831  31.647  1.00  0.00     0.001 A 
ATOM     71  C   UNL A   1      44.267  33.916  33.783  1.00  0.00     0.001 A 
ATOM     72  C   UNL A   1      44.685  34.999  33.011  1.00  0.00     0.000 A 
ENDBRANCH  53  67
BRANCH  54  73
ATOM     73  C   UNL A   1      42.732  23.630  27.493  1.00  0.00    -0.014 A 
ATOM     74  C   UNL A   1      42.337  22.515  28.246  1.00  0.00     0.009 A 
ATOM     75  C   UNL A   1      42.894  23.492  26.104  1.00  0.00     0.009 A 
ATOM     76  C   UNL A   1      42.124  21.283  27.623  1.00  0.00     0.001 A 
ATOM     77  C   UNL A   1      42.655  22.266  25.481  1.00  0.00     0.001 A 
ATOM     78  C   UNL A   1      42.277  21.161  26.241  1.00  0.00     0.000 A 
ENDBRANCH  54  73
BRANCH  66  79
ATOM     79  C   UNL A   1      48.301  26.599  30.430  1.00  0.00    -0.014 A 
ATOM     80  C   UNL A   1      48.628  25.798  31.535  1.00  0.00     0.009 A 
ATOM     81  C   UNL A   1      49.304  26.926  29.504  1.00  0.00     0.009 A 
ATOM     82  C   UNL A   1      49.941  25.363  31.726  1.00  0.00     0.001 A 
ATOM     83  C   UNL A   1      50.609  26.468  29.684  1.00  0.00     0.001 A 
ATOM     84  C   UNL A   1      50.929  25.695  30.800  1.00  0.00     0.000 A 
ENDBRANCH  66  79
ENDBRANCH  40  41
ENDBRANCH  33  35
ENDBRANCH  32  33
ENDBRANCH  31  32
ENDBRANCH   1  31
TORSDOF 16
ENDMDL
