MODEL 1
REMARK VINA RESULT:     -10.8      0.000      0.000
REMARK SMILES CCCCCCNC(=O)Oc1cccc(-c2ccc([C@@H](C)C(=O)OCCOC(=O)c3ccc(-c4c5nc(c(-c6ccccc6)c6ccc([nH]6)c(-c6ccccc6)c6nc(c(-c7ccccc7)c7ccc4[nH]7)C=C6)C=C5)cc3)cc2F)c1
REMARK SMILES IDX 20 1 21 2 19 3 16 4 17 5 79 6 18 7 78 8 80 9 15 10 11 11
REMARK SMILES IDX 12 12 81 13 13 14 14 15 10 16 8 17 7 18 9 20 6 21 5 22 4 23
REMARK SMILES IDX 3 24 2 25 1 26 22 27 23 28 24 29 25 30 26 31 27 32 28 33
REMARK SMILES IDX 29 34 30 35 31 36 77 37 32 38 76 39 33 40 34 41 35 42 70 43
REMARK SMILES IDX 36 44 75 45 69 46 71 47 37 48 74 49 68 50 67 51 38 53 60 54
REMARK SMILES IDX 45 55 59 56 46 57 49 58 58 59 72 60 47 61 48 62 57 64 73 65
REMARK SMILES IDX 50 66 39 67 40 68 44 69 41 70 43 71 42 72 61 73 62 74 66 75
REMARK SMILES IDX 63 76 65 77 64 78 51 79 52 80 56 81 53 82 55 83 54 84
REMARK H PARENT 7 19 71 52 49 63
REMARK Flexibility Score: inf
ROOT
ATOM      1  C   UNL A   1      42.184  20.171  26.826  1.00  0.00     0.126 C 
ATOM      2  C   UNL A   1      42.176  18.866  27.620  1.00  0.00     0.025 C 
ENDROOT
BRANCH   1   3
ATOM      3  C   UNL A   1      40.797  20.580  26.357  1.00  0.00    -0.031 A 
ATOM      4  C   UNL A   1      38.188  21.391  25.535  1.00  0.00     0.018 A 
ATOM      5  C   UNL A   1      38.638  20.074  25.343  1.00  0.00     0.012 A 
ATOM      6  C   UNL A   1      39.080  22.292  26.128  1.00  0.00     0.131 A 
ATOM      7  C   UNL A   1      39.917  19.674  25.750  1.00  0.00     0.005 A 
ATOM      8  C   UNL A   1      40.355  21.899  26.539  1.00  0.00     0.044 A 
ATOM      9  F   UNL A   1      38.715  23.564  26.353  1.00  0.00    -0.206 F 
BRANCH   4  10
ATOM     10  C   UNL A   1      36.821  21.785  25.156  1.00  0.00    -0.012 A 
ATOM     11  C   UNL A   1      34.428  21.848  25.563  1.00  0.00     0.133 A 
ATOM     12  C   UNL A   1      34.210  22.522  24.364  1.00  0.00     0.047 A 
ATOM     13  C   UNL A   1      35.712  21.467  25.958  1.00  0.00     0.056 A 
ATOM     14  C   UNL A   1      35.297  22.846  23.558  1.00  0.00     0.004 A 
ATOM     15  C   UNL A   1      36.588  22.481  23.952  1.00  0.00     0.009 A 
BRANCH  11  16
ATOM     16  O   UNL A   1      33.289  21.462  26.286  1.00  0.00    -0.410 OA
BRANCH  16  17
ATOM     17  C   UNL A   1      32.165  21.077  25.568  1.00  0.00     0.412 C 
ATOM     18  N   UNL A   1      31.102  21.919  25.748  1.00  0.00    -0.321 N 
ATOM     19  H   UNL A   1      30.281  21.704  25.247  1.00  0.00     0.167 HD
ATOM     20  O   UNL A   1      32.069  20.091  24.850  1.00  0.00    -0.224 OA
BRANCH  18  21
ATOM     21  C   UNL A   1      31.054  23.095  26.596  1.00  0.00     0.119 C 
BRANCH  21  22
ATOM     22  C   UNL A   1      30.484  24.310  25.864  1.00  0.00     0.021 C 
BRANCH  22  23
ATOM     23  C   UNL A   1      31.533  25.248  25.254  1.00  0.00     0.002 C 
BRANCH  23  24
ATOM     24  C   UNL A   1      32.466  25.943  26.254  1.00  0.00    -0.000 C 
BRANCH  24  25
ATOM     25  C   UNL A   1      33.653  26.690  25.641  1.00  0.00    -0.003 C 
ATOM     26  C   UNL A   1      34.022  26.197  24.249  1.00  0.00     0.004 C 
ENDBRANCH  24  25
ENDBRANCH  23  24
ENDBRANCH  22  23
ENDBRANCH  21  22
ENDBRANCH  18  21
ENDBRANCH  16  17
ENDBRANCH  11  16
ENDBRANCH   4  10
ENDBRANCH   1   3
BRANCH   1  27
ATOM     27  C   UNL A   1      43.265  20.119  25.751  1.00  0.00     0.313 C 
ATOM     28  O   UNL A   1      43.301  19.226  24.910  1.00  0.00    -0.252 OA
BRANCH  27  29
ATOM     29  O   UNL A   1      44.131  21.164  25.794  1.00  0.00    -0.462 OA
BRANCH  29  30
ATOM     30  C   UNL A   1      44.999  21.337  24.658  1.00  0.00     0.274 C 
BRANCH  30  31
ATOM     31  C   UNL A   1      44.557  22.512  23.781  1.00  0.00     0.275 C 
BRANCH  31  32
ATOM     32  O   UNL A   1      43.766  23.457  24.525  1.00  0.00    -0.458 OA
BRANCH  32  33
ATOM     33  C   UNL A   1      44.454  24.523  24.995  1.00  0.00     0.338 C 
ATOM     34  O   UNL A   1      45.546  24.920  24.628  1.00  0.00    -0.246 OA
BRANCH  33  35
ATOM     35  C   UNL A   1      43.637  25.266  25.963  1.00  0.00     0.060 A 
ATOM     36  C   UNL A   1      43.880  26.634  26.098  1.00  0.00     0.016 A 
ATOM     37  C   UNL A   1      42.740  24.619  26.814  1.00  0.00     0.016 A 
ATOM     38  C   UNL A   1      43.262  27.360  27.109  1.00  0.00     0.010 A 
ATOM     39  C   UNL A   1      42.108  25.352  27.825  1.00  0.00     0.010 A 
ATOM     40  C   UNL A   1      42.389  26.720  27.995  1.00  0.00    -0.014 A 
BRANCH  40  41
ATOM     41  C   UNL A   1      41.852  27.479  29.150  1.00  0.00     0.031 A 
ATOM     42  C   UNL A   1      42.573  27.440  30.468  1.00  0.00     0.074 A 
ATOM     43  C   UNL A   1      40.760  28.252  29.000  1.00  0.00     0.049 A 
ATOM     44  N   UNL A   1      42.259  28.020  31.599  1.00  0.00    -0.248 NA
ATOM     45  C   UNL A   1      43.811  26.647  30.519  1.00  0.00     0.031 C 
ATOM     46  C   UNL A   1      40.004  28.417  27.758  1.00  0.00     0.029 A 
ATOM     47  N   UNL A   1      40.106  29.053  29.901  1.00  0.00    -0.354 N 
ATOM     48  C   UNL A   1      43.246  27.645  32.500  1.00  0.00     0.074 A 
ATOM     49  C   UNL A   1      44.162  26.777  31.791  1.00  0.00     0.031 C 
ATOM     50  C   UNL A   1      38.994  29.278  27.974  1.00  0.00     0.029 A 
ATOM     51  C   UNL A   1      39.012  29.692  29.373  1.00  0.00     0.049 A 
ATOM     52  H   UNL A   1      40.395  29.160  30.836  1.00  0.00     0.167 HD
ATOM     53  C   UNL A   1      43.380  27.994  33.802  1.00  0.00     0.031 A 
ATOM     54  C   UNL A   1      38.112  30.506  29.960  1.00  0.00     0.031 A 
ATOM     55  C   UNL A   1      42.481  28.867  34.507  1.00  0.00     0.049 A 
ATOM     56  C   UNL A   1      38.259  30.838  31.418  1.00  0.00     0.074 A 
ATOM     57  C   UNL A   1      42.538  29.283  35.826  1.00  0.00     0.029 A 
ATOM     58  N   UNL A   1      41.361  29.462  33.948  1.00  0.00    -0.354 N 
ATOM     59  N   UNL A   1      39.193  30.470  32.260  1.00  0.00    -0.248 NA
ATOM     60  C   UNL A   1      37.222  31.699  32.006  1.00  0.00     0.031 C 
ATOM     61  C   UNL A   1      41.430  30.100  36.075  1.00  0.00     0.029 A 
ATOM     62  C   UNL A   1      40.709  30.227  34.900  1.00  0.00     0.049 A 
ATOM     63  H   UNL A   1      41.072  29.356  33.013  1.00  0.00     0.167 HD
ATOM     64  C   UNL A   1      38.869  31.069  33.470  1.00  0.00     0.074 A 
ATOM     65  C   UNL A   1      37.663  31.840  33.249  1.00  0.00     0.031 C 
ATOM     66  C   UNL A   1      39.511  30.986  34.661  1.00  0.00     0.031 A 
BRANCH  53  67
ATOM     67  C   UNL A   1      44.532  27.400  34.561  1.00  0.00    -0.014 A 
ATOM     68  C   UNL A   1      45.818  27.957  34.488  1.00  0.00     0.009 A 
ATOM     69  C   UNL A   1      44.316  26.288  35.389  1.00  0.00     0.009 A 
ATOM     70  C   UNL A   1      46.871  27.395  35.213  1.00  0.00     0.001 A 
ATOM     71  C   UNL A   1      45.366  25.742  36.129  1.00  0.00     0.001 A 
ATOM     72  C   UNL A   1      46.644  26.290  36.035  1.00  0.00     0.000 A 
ENDBRANCH  53  67
BRANCH  54  73
ATOM     73  C   UNL A   1      36.973  31.044  29.175  1.00  0.00    -0.014 A 
ATOM     74  C   UNL A   1      35.898  30.219  28.811  1.00  0.00     0.009 A 
ATOM     75  C   UNL A   1      36.971  32.386  28.760  1.00  0.00     0.009 A 
ATOM     76  C   UNL A   1      34.857  30.720  28.027  1.00  0.00     0.001 A 
ATOM     77  C   UNL A   1      35.916  32.891  27.999  1.00  0.00     0.001 A 
ATOM     78  C   UNL A   1      34.865  32.056  27.624  1.00  0.00     0.000 A 
ENDBRANCH  54  73
BRANCH  66  79
ATOM     79  C   UNL A   1      38.933  31.771  35.803  1.00  0.00    -0.014 A 
ATOM     80  C   UNL A   1      38.102  31.160  36.755  1.00  0.00     0.009 A 
ATOM     81  C   UNL A   1      39.248  33.131  35.943  1.00  0.00     0.009 A 
ATOM     82  C   UNL A   1      37.570  31.907  37.807  1.00  0.00     0.001 A 
ATOM     83  C   UNL A   1      38.735  33.869  37.009  1.00  0.00     0.001 A 
ATOM     84  C   UNL A   1      37.889  33.259  37.935  1.00  0.00     0.000 A 
ENDBRANCH  66  79
ENDBRANCH  40  41
ENDBRANCH  33  35
ENDBRANCH  32  33
ENDBRANCH  31  32
ENDBRANCH  30  31
ENDBRANCH  29  30
ENDBRANCH  27  29
ENDBRANCH   1  27
TORSDOF 20
ENDMDL
MODEL 2
REMARK VINA RESULT:     -10.7      4.953     10.792
REMARK SMILES CCCCCCNC(=O)Oc1cccc(-c2ccc([C@@H](C)C(=O)OCCOC(=O)c3ccc(-c4c5nc(c(-c6ccccc6)c6ccc([nH]6)c(-c6ccccc6)c6nc(c(-c7ccccc7)c7ccc4[nH]7)C=C6)C=C5)cc3)cc2F)c1
REMARK SMILES IDX 20 1 21 2 19 3 16 4 17 5 79 6 18 7 78 8 80 9 15 10 11 11
REMARK SMILES IDX 12 12 81 13 13 14 14 15 10 16 8 17 7 18 9 20 6 21 5 22 4 23
REMARK SMILES IDX 3 24 2 25 1 26 22 27 23 28 24 29 25 30 26 31 27 32 28 33
REMARK SMILES IDX 29 34 30 35 31 36 77 37 32 38 76 39 33 40 34 41 35 42 70 43
REMARK SMILES IDX 36 44 75 45 69 46 71 47 37 48 74 49 68 50 67 51 38 53 60 54
REMARK SMILES IDX 45 55 59 56 46 57 49 58 58 59 72 60 47 61 48 62 57 64 73 65
REMARK SMILES IDX 50 66 39 67 40 68 44 69 41 70 43 71 42 72 61 73 62 74 66 75
REMARK SMILES IDX 63 76 65 77 64 78 51 79 52 80 56 81 53 82 55 83 54 84
REMARK H PARENT 7 19 71 52 49 63
REMARK Flexibility Score: inf
ROOT
ATOM      1  C   UNL A   1      34.341  34.613  28.873  1.00  0.00     0.126 C 
ATOM      2  C   UNL A   1      34.144  35.809  27.944  1.00  0.00     0.025 C 
ENDROOT
BRANCH   1   3
ATOM      3  C   UNL A   1      33.884  33.304  28.249  1.00  0.00    -0.031 A 
ATOM      4  C   UNL A   1      32.958  30.864  27.099  1.00  0.00     0.018 A 
ATOM      5  C   UNL A   1      34.212  30.946  27.727  1.00  0.00     0.012 A 
ATOM      6  C   UNL A   1      32.191  32.034  27.045  1.00  0.00     0.131 A 
ATOM      7  C   UNL A   1      34.665  32.143  28.296  1.00  0.00     0.005 A 
ATOM      8  C   UNL A   1      32.636  33.229  27.612  1.00  0.00     0.044 A 
ATOM      9  F   UNL A   1      30.978  32.028  26.470  1.00  0.00    -0.206 F 
BRANCH   4  10
ATOM     10  C   UNL A   1      32.467  29.586  26.556  1.00  0.00    -0.012 A 
ATOM     11  C   UNL A   1      32.079  28.062  24.706  1.00  0.00     0.133 A 
ATOM     12  C   UNL A   1      31.468  27.140  25.553  1.00  0.00     0.047 A 
ATOM     13  C   UNL A   1      32.564  29.279  25.188  1.00  0.00     0.056 A 
ATOM     14  C   UNL A   1      31.365  27.428  26.910  1.00  0.00     0.004 A 
ATOM     15  C   UNL A   1      31.860  28.638  27.405  1.00  0.00     0.009 A 
BRANCH  11  16
ATOM     16  O   UNL A   1      32.067  27.763  23.335  1.00  0.00    -0.410 OA
BRANCH  16  17
ATOM     17  C   UNL A   1      33.288  27.655  22.684  1.00  0.00     0.412 C 
ATOM     18  N   UNL A   1      33.650  26.359  22.438  1.00  0.00    -0.321 N 
ATOM     19  H   UNL A   1      34.501  26.223  21.961  1.00  0.00     0.167 HD
ATOM     20  O   UNL A   1      34.017  28.582  22.357  1.00  0.00    -0.224 OA
BRANCH  18  21
ATOM     21  C   UNL A   1      32.914  25.164  22.803  1.00  0.00     0.119 C 
BRANCH  21  22
ATOM     22  C   UNL A   1      33.299  24.652  24.191  1.00  0.00     0.021 C 
BRANCH  22  23
ATOM     23  C   UNL A   1      34.774  24.842  24.564  1.00  0.00     0.002 C 
BRANCH  23  24
ATOM     24  C   UNL A   1      35.452  23.640  25.232  1.00  0.00    -0.000 C 
BRANCH  24  25
ATOM     25  C   UNL A   1      36.005  22.579  24.278  1.00  0.00    -0.003 C 
ATOM     26  C   UNL A   1      36.269  21.240  24.951  1.00  0.00     0.004 C 
ENDBRANCH  24  25
ENDBRANCH  23  24
ENDBRANCH  22  23
ENDBRANCH  21  22
ENDBRANCH  18  21
ENDBRANCH  16  17
ENDBRANCH  11  16
ENDBRANCH   4  10
ENDBRANCH   1   3
BRANCH   1  27
ATOM     27  C   UNL A   1      33.774  34.930  30.254  1.00  0.00     0.313 C 
ATOM     28  O   UNL A   1      32.612  35.293  30.411  1.00  0.00    -0.252 OA
BRANCH  27  29
ATOM     29  O   UNL A   1      34.655  34.725  31.267  1.00  0.00    -0.462 OA
BRANCH  29  30
ATOM     30  C   UNL A   1      34.130  34.785  32.607  1.00  0.00     0.274 C 
BRANCH  30  31
ATOM     31  C   UNL A   1      33.968  33.389  33.216  1.00  0.00     0.275 C 
BRANCH  31  32
ATOM     32  O   UNL A   1      34.855  32.438  32.597  1.00  0.00    -0.458 OA
BRANCH  32  33
ATOM     33  C   UNL A   1      36.030  32.261  33.243  1.00  0.00     0.338 C 
ATOM     34  O   UNL A   1      36.285  32.527  34.405  1.00  0.00    -0.246 OA
BRANCH  33  35
ATOM     35  C   UNL A   1      36.983  31.555  32.375  1.00  0.00     0.060 A 
ATOM     36  C   UNL A   1      38.123  31.016  32.973  1.00  0.00     0.016 A 
ATOM     37  C   UNL A   1      36.830  31.528  30.989  1.00  0.00     0.016 A 
ATOM     38  C   UNL A   1      39.141  30.485  32.190  1.00  0.00     0.010 A 
ATOM     39  C   UNL A   1      37.849  30.981  30.200  1.00  0.00     0.010 A 
ATOM     40  C   UNL A   1      39.022  30.484  30.796  1.00  0.00    -0.014 A 
BRANCH  40  41
ATOM     41  C   UNL A   1      40.176  30.043  29.976  1.00  0.00     0.031 A 
ATOM     42  C   UNL A   1      41.317  30.989  29.726  1.00  0.00     0.074 A 
ATOM     43  C   UNL A   1      40.230  28.781  29.513  1.00  0.00     0.049 A 
ATOM     44  N   UNL A   1      42.406  30.802  29.025  1.00  0.00    -0.248 NA
ATOM     45  C   UNL A   1      41.220  32.320  30.348  1.00  0.00     0.031 C 
ATOM     46  C   UNL A   1      39.214  27.752  29.734  1.00  0.00     0.029 A 
ATOM     47  N   UNL A   1      41.193  28.147  28.769  1.00  0.00    -0.354 N 
ATOM     48  C   UNL A   1      43.113  31.994  29.103  1.00  0.00     0.074 A 
ATOM     49  C   UNL A   1      42.325  32.904  29.906  1.00  0.00     0.031 C 
ATOM     50  C   UNL A   1      39.613  26.611  29.148  1.00  0.00     0.029 A 
ATOM     51  C   UNL A   1      40.890  26.840  28.480  1.00  0.00     0.049 A 
ATOM     52  H   UNL A   1      42.021  28.587  28.471  1.00  0.00     0.167 HD
ATOM     53  C   UNL A   1      44.313  32.304  28.557  1.00  0.00     0.031 A 
ATOM     54  C   UNL A   1      41.561  25.934  27.742  1.00  0.00     0.031 A 
ATOM     55  C   UNL A   1      45.107  31.399  27.769  1.00  0.00     0.049 A 
ATOM     56  C   UNL A   1      42.867  26.319  27.108  1.00  0.00     0.074 A 
ATOM     57  C   UNL A   1      46.339  31.621  27.178  1.00  0.00     0.029 A 
ATOM     58  N   UNL A   1      44.746  30.096  27.466  1.00  0.00    -0.354 N 
ATOM     59  N   UNL A   1      43.521  27.453  27.185  1.00  0.00    -0.248 NA
ATOM     60  C   UNL A   1      43.529  25.297  26.284  1.00  0.00     0.031 C 
ATOM     61  C   UNL A   1      46.706  30.463  26.485  1.00  0.00     0.029 A 
ATOM     62  C   UNL A   1      45.724  29.507  26.681  1.00  0.00     0.049 A 
ATOM     63  H   UNL A   1      43.919  29.654  27.764  1.00  0.00     0.167 HD
ATOM     64  C   UNL A   1      44.676  27.275  26.436  1.00  0.00     0.074 A 
ATOM     65  C   UNL A   1      44.645  25.919  25.930  1.00  0.00     0.031 C 
ATOM     66  C   UNL A   1      45.674  28.157  26.187  1.00  0.00     0.031 A 
BRANCH  53  67
ATOM     67  C   UNL A   1      44.829  33.699  28.767  1.00  0.00    -0.014 A 
ATOM     68  C   UNL A   1      44.490  34.741  27.891  1.00  0.00     0.009 A 
ATOM     69  C   UNL A   1      45.638  33.978  29.880  1.00  0.00     0.009 A 
ATOM     70  C   UNL A   1      44.972  36.033  28.114  1.00  0.00     0.001 A 
ATOM     71  C   UNL A   1      46.099  35.274  30.111  1.00  0.00     0.001 A 
ATOM     72  C   UNL A   1      45.773  36.299  29.225  1.00  0.00     0.000 A 
ENDBRANCH  53  67
BRANCH  54  73
ATOM     73  C   UNL A   1      40.996  24.576  27.538  1.00  0.00    -0.014 A 
ATOM     74  C   UNL A   1      41.563  23.460  28.172  1.00  0.00     0.009 A 
ATOM     75  C   UNL A   1      39.899  24.387  26.681  1.00  0.00     0.009 A 
ATOM     76  C   UNL A   1      41.058  22.180  27.932  1.00  0.00     0.001 A 
ATOM     77  C   UNL A   1      39.381  23.110  26.464  1.00  0.00     0.001 A 
ATOM     78  C   UNL A   1      39.967  22.006  27.081  1.00  0.00     0.000 A 
ENDBRANCH  54  73
BRANCH  66  79
ATOM     79  C   UNL A   1      46.824  27.669  25.353  1.00  0.00    -0.014 A 
ATOM     80  C   UNL A   1      46.861  27.896  23.968  1.00  0.00     0.009 A 
ATOM     81  C   UNL A   1      47.893  26.999  25.965  1.00  0.00     0.009 A 
ATOM     82  C   UNL A   1      47.935  27.430  23.208  1.00  0.00     0.001 A 
ATOM     83  C   UNL A   1      48.977  26.557  25.206  1.00  0.00     0.001 A 
ATOM     84  C   UNL A   1      48.993  26.764  23.827  1.00  0.00     0.000 A 
ENDBRANCH  66  79
ENDBRANCH  40  41
ENDBRANCH  33  35
ENDBRANCH  32  33
ENDBRANCH  31  32
ENDBRANCH  30  31
ENDBRANCH  29  30
ENDBRANCH  27  29
ENDBRANCH   1  27
TORSDOF 20
ENDMDL
MODEL 3
REMARK VINA RESULT:     -10.6      1.282      5.949
REMARK SMILES CCCCCCNC(=O)Oc1cccc(-c2ccc([C@@H](C)C(=O)OCCOC(=O)c3ccc(-c4c5nc(c(-c6ccccc6)c6ccc([nH]6)c(-c6ccccc6)c6nc(c(-c7ccccc7)c7ccc4[nH]7)C=C6)C=C5)cc3)cc2F)c1
REMARK SMILES IDX 20 1 21 2 19 3 16 4 17 5 79 6 18 7 78 8 80 9 15 10 11 11
REMARK SMILES IDX 12 12 81 13 13 14 14 15 10 16 8 17 7 18 9 20 6 21 5 22 4 23
REMARK SMILES IDX 3 24 2 25 1 26 22 27 23 28 24 29 25 30 26 31 27 32 28 33
REMARK SMILES IDX 29 34 30 35 31 36 77 37 32 38 76 39 33 40 34 41 35 42 70 43
REMARK SMILES IDX 36 44 75 45 69 46 71 47 37 48 74 49 68 50 67 51 38 53 60 54
REMARK SMILES IDX 45 55 59 56 46 57 49 58 58 59 72 60 47 61 48 62 57 64 73 65
REMARK SMILES IDX 50 66 39 67 40 68 44 69 41 70 43 71 42 72 61 73 62 74 66 75
REMARK SMILES IDX 63 76 65 77 64 78 51 79 52 80 56 81 53 82 55 83 54 84
REMARK H PARENT 7 19 71 52 49 63
REMARK Flexibility Score: inf
ROOT
ATOM      1  C   UNL A   1      41.362  20.139  26.672  1.00  0.00     0.126 C 
ATOM      2  C   UNL A   1      41.932  18.856  26.070  1.00  0.00     0.025 C 
ENDROOT
BRANCH   1   3
ATOM      3  C   UNL A   1      39.992  20.490  26.115  1.00  0.00    -0.031 A 
ATOM      4  C   UNL A   1      37.411  21.193  25.125  1.00  0.00     0.018 A 
ATOM      5  C   UNL A   1      37.915  19.889  24.989  1.00  0.00     0.012 A 
ATOM      6  C   UNL A   1      38.236  22.136  25.749  1.00  0.00     0.131 A 
ATOM      7  C   UNL A   1      39.181  19.542  25.478  1.00  0.00     0.005 A 
ATOM      8  C   UNL A   1      39.497  21.796  26.242  1.00  0.00     0.044 A 
ATOM      9  F   UNL A   1      37.815  23.399  25.925  1.00  0.00    -0.206 F 
BRANCH   4  10
ATOM     10  C   UNL A   1      36.055  21.532  24.659  1.00  0.00    -0.012 A 
ATOM     11  C   UNL A   1      34.507  22.974  23.468  1.00  0.00     0.133 A 
ATOM     12  C   UNL A   1      33.431  22.166  23.826  1.00  0.00     0.047 A 
ATOM     13  C   UNL A   1      35.806  22.678  23.885  1.00  0.00     0.056 A 
ATOM     14  C   UNL A   1      33.660  21.027  24.591  1.00  0.00     0.004 A 
ATOM     15  C   UNL A   1      34.959  20.714  25.001  1.00  0.00     0.009 A 
BRANCH  11  16
ATOM     16  O   UNL A   1      34.204  24.160  22.781  1.00  0.00    -0.410 OA
BRANCH  16  17
ATOM     17  C   UNL A   1      33.281  24.093  21.748  1.00  0.00     0.412 C 
ATOM     18  N   UNL A   1      32.249  24.979  21.895  1.00  0.00    -0.321 N 
ATOM     19  H   UNL A   1      31.572  24.988  21.180  1.00  0.00     0.167 HD
ATOM     20  O   UNL A   1      33.320  23.332  20.791  1.00  0.00    -0.224 OA
BRANCH  18  21
ATOM     21  C   UNL A   1      32.047  25.908  22.991  1.00  0.00     0.119 C 
BRANCH  21  22
ATOM     22  C   UNL A   1      30.632  25.822  23.565  1.00  0.00     0.021 C 
BRANCH  22  23
ATOM     23  C   UNL A   1      30.555  25.369  25.028  1.00  0.00     0.002 C 
BRANCH  23  24
ATOM     24  C   UNL A   1      31.881  24.928  25.659  1.00  0.00    -0.000 C 
BRANCH  24  25
ATOM     25  C   UNL A   1      31.769  23.880  26.769  1.00  0.00    -0.003 C 
ATOM     26  C   UNL A   1      30.627  22.898  26.558  1.00  0.00     0.004 C 
ENDBRANCH  24  25
ENDBRANCH  23  24
ENDBRANCH  22  23
ENDBRANCH  21  22
ENDBRANCH  18  21
ENDBRANCH  16  17
ENDBRANCH  11  16
ENDBRANCH   4  10
ENDBRANCH   1   3
BRANCH   1  27
ATOM     27  C   UNL A   1      42.409  21.247  26.621  1.00  0.00     0.313 C 
ATOM     28  O   UNL A   1      42.786  21.831  27.632  1.00  0.00    -0.252 OA
BRANCH  27  29
ATOM     29  O   UNL A   1      42.902  21.477  25.376  1.00  0.00    -0.462 OA
BRANCH  29  30
ATOM     30  C   UNL A   1      44.315  21.734  25.273  1.00  0.00     0.274 C 
BRANCH  30  31
ATOM     31  C   UNL A   1      44.613  22.898  24.324  1.00  0.00     0.275 C 
BRANCH  31  32
ATOM     32  O   UNL A   1      43.779  24.037  24.610  1.00  0.00    -0.458 OA
BRANCH  32  33
ATOM     33  C   UNL A   1      44.442  25.116  25.084  1.00  0.00     0.338 C 
ATOM     34  O   UNL A   1      45.507  25.562  24.694  1.00  0.00    -0.246 OA
BRANCH  33  35
ATOM     35  C   UNL A   1      43.630  25.805  26.096  1.00  0.00     0.060 A 
ATOM     36  C   UNL A   1      43.886  27.159  26.316  1.00  0.00     0.016 A 
ATOM     37  C   UNL A   1      42.724  25.115  26.902  1.00  0.00     0.016 A 
ATOM     38  C   UNL A   1      43.273  27.827  27.370  1.00  0.00     0.010 A 
ATOM     39  C   UNL A   1      42.096  25.790  27.956  1.00  0.00     0.010 A 
ATOM     40  C   UNL A   1      42.390  27.142  28.212  1.00  0.00    -0.014 A 
BRANCH  40  41
ATOM     41  C   UNL A   1      41.857  27.832  29.411  1.00  0.00     0.031 A 
ATOM     42  C   UNL A   1      40.565  28.593  29.319  1.00  0.00     0.074 A 
ATOM     43  C   UNL A   1      42.494  27.722  30.590  1.00  0.00     0.049 A 
ATOM     44  N   UNL A   1      39.940  29.276  30.245  1.00  0.00    -0.248 NA
ATOM     45  C   UNL A   1      39.884  28.584  28.014  1.00  0.00     0.031 C 
ATOM     46  C   UNL A   1      43.726  26.967  30.822  1.00  0.00     0.029 A 
ATOM     47  N   UNL A   1      42.182  28.240  31.822  1.00  0.00    -0.354 N 
ATOM     48  C   UNL A   1      38.807  29.794  29.632  1.00  0.00     0.074 A 
ATOM     49  C   UNL A   1      38.836  29.360  28.251  1.00  0.00     0.031 C 
ATOM     50  C   UNL A   1      44.059  27.061  32.121  1.00  0.00     0.029 A 
ATOM     51  C   UNL A   1      43.087  27.912  32.801  1.00  0.00     0.049 A 
ATOM     52  H   UNL A   1      41.385  28.793  31.988  1.00  0.00     0.167 HD
ATOM     53  C   UNL A   1      37.829  30.559  30.170  1.00  0.00     0.031 A 
ATOM     54  C   UNL A   1      43.137  28.274  34.097  1.00  0.00     0.031 A 
ATOM     55  C   UNL A   1      37.789  30.981  31.544  1.00  0.00     0.049 A 
ATOM     56  C   UNL A   1      42.063  29.164  34.657  1.00  0.00     0.074 A 
ATOM     57  C   UNL A   1      36.834  31.754  32.183  1.00  0.00     0.029 A 
ATOM     58  N   UNL A   1      38.746  30.661  32.494  1.00  0.00    -0.354 N 
ATOM     59  N   UNL A   1      41.001  29.652  34.063  1.00  0.00    -0.248 NA
ATOM     60  C   UNL A   1      42.196  29.553  36.068  1.00  0.00     0.031 C 
ATOM     61  C   UNL A   1      37.235  31.933  33.512  1.00  0.00     0.029 A 
ATOM     62  C   UNL A   1      38.414  31.235  33.710  1.00  0.00     0.049 A 
ATOM     63  H   UNL A   1      39.543  30.107  32.330  1.00  0.00     0.167 HD
ATOM     64  C   UNL A   1      40.331  30.388  35.031  1.00  0.00     0.074 A 
ATOM     65  C   UNL A   1      41.095  30.267  36.255  1.00  0.00     0.031 C 
ATOM     66  C   UNL A   1      39.187  31.105  34.916  1.00  0.00     0.031 A 
BRANCH  53  67
ATOM     67  C   UNL A   1      36.731  31.021  29.255  1.00  0.00    -0.014 A 
ATOM     68  C   UNL A   1      35.715  30.147  28.837  1.00  0.00     0.009 A 
ATOM     69  C   UNL A   1      36.695  32.359  28.836  1.00  0.00     0.009 A 
ATOM     70  C   UNL A   1      34.697  30.601  27.996  1.00  0.00     0.001 A 
ATOM     71  C   UNL A   1      35.664  32.816  28.013  1.00  0.00     0.001 A 
ATOM     72  C   UNL A   1      34.670  31.936  27.587  1.00  0.00     0.000 A 
ENDBRANCH  53  67
BRANCH  54  73
ATOM     73  C   UNL A   1      44.259  27.817  34.955  1.00  0.00    -0.014 A 
ATOM     74  C   UNL A   1      45.471  28.523  34.988  1.00  0.00     0.009 A 
ATOM     75  C   UNL A   1      44.131  26.650  35.727  1.00  0.00     0.009 A 
ATOM     76  C   UNL A   1      46.540  28.057  35.756  1.00  0.00     0.001 A 
ATOM     77  C   UNL A   1      45.192  26.201  36.514  1.00  0.00     0.001 A 
ATOM     78  C   UNL A   1      46.399  26.898  36.520  1.00  0.00     0.000 A 
ENDBRANCH  54  73
BRANCH  66  79
ATOM     79  C   UNL A   1      38.682  31.787  36.155  1.00  0.00    -0.014 A 
ATOM     80  C   UNL A   1      37.867  31.108  37.074  1.00  0.00     0.009 A 
ATOM     81  C   UNL A   1      39.049  33.115  36.417  1.00  0.00     0.009 A 
ATOM     82  C   UNL A   1      37.403  31.759  38.218  1.00  0.00     0.001 A 
ATOM     83  C   UNL A   1      38.603  33.755  37.574  1.00  0.00     0.001 A 
ATOM     84  C   UNL A   1      37.773  33.081  38.468  1.00  0.00     0.000 A 
ENDBRANCH  66  79
ENDBRANCH  40  41
ENDBRANCH  33  35
ENDBRANCH  32  33
ENDBRANCH  31  32
ENDBRANCH  30  31
ENDBRANCH  29  30
ENDBRANCH  27  29
ENDBRANCH   1  27
TORSDOF 20
ENDMDL
