MODEL 1
REMARK VINA RESULT:     -11.7      0.000      0.000
REMARK SMILES CC(C)(C)c1cc2c(cc1Cl)C=C(C(=O)OCCOC(=O)c1ccc(-c3c4nc(c(-c5ccccc5)c5ccc([nH]5)c(-c5ccccc5)c5nc(c(-c6ccccc6)c6ccc3[nH]6)C=C5)C=C4)cc1)[C@@H](C(F)(F)F)O2
REMARK SMILES IDX 18 1 17 2 16 3 14 4 15 5 13 6 5 7 6 8 10 9 7 10 9 11 11 12
REMARK SMILES IDX 8 13 75 14 12 15 70 16 2 17 1 18 3 19 4 20 71 21 72 22 73 23
REMARK SMILES IDX 74 24 19 25 20 26 21 27 22 28 23 29 69 30 24 31 68 32 25 33
REMARK SMILES IDX 26 34 27 35 62 36 28 37 67 38 61 39 63 40 29 41 66 42 60 43
REMARK SMILES IDX 59 44 30 46 52 47 37 48 51 49 38 50 41 51 50 52 64 53 39 54
REMARK SMILES IDX 40 55 49 57 65 58 42 59 31 60 32 61 36 62 33 63 35 64 34 65
REMARK SMILES IDX 53 66 54 67 58 68 55 69 57 70 56 71 43 72 44 73 48 74 45 75
REMARK SMILES IDX 47 76 46 77
REMARK H PARENT 63 45 41 56
REMARK Flexibility Score: inf
ROOT
ATOM      1  C   UNL A   1      37.508  20.293  24.730  1.00  0.00     0.275 C 
ENDROOT
BRANCH   1   2
ATOM      2  C   UNL A   1      36.005  20.258  25.011  1.00  0.00     0.275 C 
BRANCH   2   3
ATOM      3  O   UNL A   1      35.325  21.375  24.394  1.00  0.00    -0.459 OA
BRANCH   3   4
ATOM      4  C   UNL A   1      33.975  21.346  24.469  1.00  0.00     0.338 C 
ATOM      5  O   UNL A   1      33.252  20.387  24.246  1.00  0.00    -0.246 OA
BRANCH   4   6
ATOM      6  C   UNL A   1      33.451  22.644  24.933  1.00  0.00     0.087 C 
ATOM      7  C   UNL A   1      32.750  27.623  25.636  1.00  0.00    -0.020 A 
ATOM      8  C   UNL A   1      32.387  26.430  26.334  1.00  0.00     0.053 A 
ATOM      9  C   UNL A   1      33.464  27.443  24.434  1.00  0.00     0.045 A 
ATOM     10  C   UNL A   1      32.693  25.150  25.865  1.00  0.00     0.128 A 
ATOM     11  C   UNL A   1      33.758  26.157  23.961  1.00  0.00     0.032 A 
ATOM     12  Cl  UNL A   1      34.115  28.700  23.442  1.00  0.00    -0.084 Cl
ATOM     13  C   UNL A   1      33.385  25.023  24.677  1.00  0.00     0.019 A 
ATOM     14  O   UNL A   1      32.288  24.084  26.619  1.00  0.00    -0.475 OA
ATOM     15  C   UNL A   1      33.771  23.716  24.204  1.00  0.00     0.027 C 
ATOM     16  C   UNL A   1      32.728  22.739  26.247  1.00  0.00     0.316 C 
BRANCH   7  17
ATOM     17  C   UNL A   1      32.392  28.979  26.297  1.00  0.00    -0.012 C 
ATOM     18  C   UNL A   1      33.569  29.892  26.707  1.00  0.00     0.016 C 
ATOM     19  C   UNL A   1      31.575  28.676  27.570  1.00  0.00     0.016 C 
ATOM     20  C   UNL A   1      31.533  29.850  25.341  1.00  0.00     0.016 C 
ENDBRANCH   7  17
BRANCH  16  21
ATOM     21  C   UNL A   1      33.585  22.169  27.388  1.00  0.00     0.430 C 
ATOM     22  F   UNL A   1      34.858  22.626  27.327  1.00  0.00    -0.167 F 
ATOM     23  F   UNL A   1      33.102  22.532  28.602  1.00  0.00    -0.167 F 
ATOM     24  F   UNL A   1      33.636  20.817  27.362  1.00  0.00    -0.167 F 
ENDBRANCH  16  21
ENDBRANCH   4   6
ENDBRANCH   3   4
ENDBRANCH   2   3
ENDBRANCH   1   2
BRANCH   1  25
ATOM     25  O   UNL A   1      38.106  21.442  25.360  1.00  0.00    -0.458 OA
BRANCH  25  26
ATOM     26  C   UNL A   1      39.213  21.194  26.094  1.00  0.00     0.338 C 
ATOM     27  O   UNL A   1      39.831  20.147  26.182  1.00  0.00    -0.246 OA
BRANCH  26  28
ATOM     28  C   UNL A   1      39.668  22.433  26.743  1.00  0.00     0.060 A 
ATOM     29  C   UNL A   1      40.759  22.441  27.602  1.00  0.00     0.016 A 
ATOM     30  C   UNL A   1      39.108  23.634  26.326  1.00  0.00     0.016 A 
ATOM     31  C   UNL A   1      41.278  23.671  28.032  1.00  0.00     0.010 A 
ATOM     32  C   UNL A   1      39.737  24.844  26.607  1.00  0.00     0.010 A 
ATOM     33  C   UNL A   1      40.816  24.892  27.495  1.00  0.00    -0.014 A 
BRANCH  33  34
ATOM     34  C   UNL A   1      41.462  26.194  27.849  1.00  0.00     0.031 A 
ATOM     35  C   UNL A   1      42.801  26.603  27.270  1.00  0.00     0.074 A 
ATOM     36  C   UNL A   1      40.856  27.020  28.730  1.00  0.00     0.049 A 
ATOM     37  N   UNL A   1      43.455  27.729  27.429  1.00  0.00    -0.248 NA
ATOM     38  C   UNL A   1      43.525  25.619  26.448  1.00  0.00     0.031 C 
ATOM     39  C   UNL A   1      39.629  26.717  29.471  1.00  0.00     0.029 A 
ATOM     40  N   UNL A   1      41.170  28.299  29.131  1.00  0.00    -0.354 N 
ATOM     41  C   UNL A   1      44.663  27.570  26.757  1.00  0.00     0.074 A 
ATOM     42  C   UNL A   1      44.690  26.217  26.256  1.00  0.00     0.031 C 
ATOM     43  C   UNL A   1      39.238  27.807  30.146  1.00  0.00     0.029 A 
ATOM     44  C   UNL A   1      40.210  28.874  29.931  1.00  0.00     0.049 A 
ATOM     45  H   UNL A   1      42.001  28.757  28.871  1.00  0.00     0.167 HD
ATOM     46  C   UNL A   1      45.643  28.476  26.530  1.00  0.00     0.031 A 
ATOM     47  C   UNL A   1      40.098  30.126  30.417  1.00  0.00     0.031 A 
ATOM     48  C   UNL A   1      45.593  29.845  26.964  1.00  0.00     0.049 A 
ATOM     49  C   UNL A   1      41.153  31.144  30.084  1.00  0.00     0.074 A 
ATOM     50  C   UNL A   1      46.487  30.865  26.690  1.00  0.00     0.029 A 
ATOM     51  N   UNL A   1      44.590  30.387  27.750  1.00  0.00    -0.354 N 
ATOM     52  N   UNL A   1      42.232  31.001  29.355  1.00  0.00    -0.248 NA
ATOM     53  C   UNL A   1      40.969  32.498  30.628  1.00  0.00     0.031 C 
ATOM     54  C   UNL A   1      46.050  32.014  27.350  1.00  0.00     0.029 A 
ATOM     55  C   UNL A   1      44.852  31.725  27.984  1.00  0.00     0.049 A 
ATOM     56  H   UNL A   1      43.808  29.895  28.091  1.00  0.00     0.167 HD
ATOM     57  C   UNL A   1      42.850  32.245  29.343  1.00  0.00     0.074 A 
ATOM     58  C   UNL A   1      42.010  33.139  30.113  1.00  0.00     0.031 C 
ATOM     59  C   UNL A   1      44.014  32.608  28.752  1.00  0.00     0.031 A 
BRANCH  46  60
ATOM     60  C   UNL A   1      46.842  28.042  25.725  1.00  0.00    -0.014 A 
ATOM     61  C   UNL A   1      46.783  28.032  24.323  1.00  0.00     0.009 A 
ATOM     62  C   UNL A   1      47.994  27.546  26.357  1.00  0.00     0.009 A 
ATOM     63  C   UNL A   1      47.847  27.530  23.571  1.00  0.00     0.001 A 
ATOM     64  C   UNL A   1      49.071  27.076  25.602  1.00  0.00     0.001 A 
ATOM     65  C   UNL A   1      48.992  27.058  24.210  1.00  0.00     0.000 A 
ENDBRANCH  46  60
BRANCH  47  66
ATOM     66  C   UNL A   1      38.894  30.501  31.208  1.00  0.00    -0.014 A 
ATOM     67  C   UNL A   1      38.875  30.361  32.604  1.00  0.00     0.009 A 
ATOM     68  C   UNL A   1      37.732  30.948  30.557  1.00  0.00     0.009 A 
ATOM     69  C   UNL A   1      37.713  30.638  33.330  1.00  0.00     0.001 A 
ATOM     70  C   UNL A   1      36.582  31.254  31.287  1.00  0.00     0.001 A 
ATOM     71  C   UNL A   1      36.569  31.089  32.672  1.00  0.00     0.000 A 
ENDBRANCH  47  66
BRANCH  59  72
ATOM     72  C   UNL A   1      44.468  34.032  28.901  1.00  0.00    -0.014 A 
ATOM     73  C   UNL A   1      45.246  34.404  30.008  1.00  0.00     0.009 A 
ATOM     74  C   UNL A   1      44.028  35.024  28.012  1.00  0.00     0.009 A 
ATOM     75  C   UNL A   1      45.562  35.744  30.233  1.00  0.00     0.001 A 
ATOM     76  C   UNL A   1      44.371  36.361  28.222  1.00  0.00     0.001 A 
ATOM     77  C   UNL A   1      45.127  36.721  29.337  1.00  0.00     0.000 A 
ENDBRANCH  59  72
ENDBRANCH  33  34
ENDBRANCH  26  28
ENDBRANCH  25  26
ENDBRANCH   1  25
TORSDOF 13
ENDMDL
MODEL 2
REMARK VINA RESULT:     -11.5      4.165      9.069
REMARK SMILES CC(C)(C)c1cc2c(cc1Cl)C=C(C(=O)OCCOC(=O)c1ccc(-c3c4nc(c(-c5ccccc5)c5ccc([nH]5)c(-c5ccccc5)c5nc(c(-c6ccccc6)c6ccc3[nH]6)C=C5)C=C4)cc1)[C@@H](C(F)(F)F)O2
REMARK SMILES IDX 18 1 17 2 16 3 14 4 15 5 13 6 5 7 6 8 10 9 7 10 9 11 11 12
REMARK SMILES IDX 8 13 75 14 12 15 70 16 2 17 1 18 3 19 4 20 71 21 72 22 73 23
REMARK SMILES IDX 74 24 19 25 20 26 21 27 22 28 23 29 69 30 24 31 68 32 25 33
REMARK SMILES IDX 26 34 27 35 62 36 28 37 67 38 61 39 63 40 29 41 66 42 60 43
REMARK SMILES IDX 59 44 30 46 52 47 37 48 51 49 38 50 41 51 50 52 64 53 39 54
REMARK SMILES IDX 40 55 49 57 65 58 42 59 31 60 32 61 36 62 33 63 35 64 34 65
REMARK SMILES IDX 53 66 54 67 58 68 55 69 57 70 56 71 43 72 44 73 48 74 45 75
REMARK SMILES IDX 47 76 46 77
REMARK H PARENT 63 45 41 56
REMARK Flexibility Score: inf
ROOT
ATOM      1  C   UNL A   1      31.326  31.190  26.310  1.00  0.00     0.275 C 
ENDROOT
BRANCH   1   2
ATOM      2  C   UNL A   1      31.110  30.393  25.024  1.00  0.00     0.275 C 
BRANCH   2   3
ATOM      3  O   UNL A   1      31.101  28.969  25.277  1.00  0.00    -0.459 OA
BRANCH   3   4
ATOM      4  C   UNL A   1      30.772  28.193  24.220  1.00  0.00     0.338 C 
ATOM      5  O   UNL A   1      29.827  28.353  23.463  1.00  0.00    -0.246 OA
BRANCH   4   6
ATOM      6  C   UNL A   1      31.764  27.117  24.035  1.00  0.00     0.087 C 
ATOM      7  C   UNL A   1      35.079  23.371  24.905  1.00  0.00    -0.020 A 
ATOM      8  C   UNL A   1      34.810  24.269  23.827  1.00  0.00     0.053 A 
ATOM      9  C   UNL A   1      34.237  23.486  26.030  1.00  0.00     0.045 A 
ATOM     10  C   UNL A   1      33.770  25.202  23.854  1.00  0.00     0.128 A 
ATOM     11  C   UNL A   1      33.187  24.413  26.048  1.00  0.00     0.032 A 
ATOM     12  Cl  UNL A   1      34.393  22.604  27.508  1.00  0.00    -0.084 Cl
ATOM     13  C   UNL A   1      32.964  25.271  24.973  1.00  0.00     0.019 A 
ATOM     14  O   UNL A   1      33.608  26.005  22.759  1.00  0.00    -0.475 OA
ATOM     15  C   UNL A   1      31.926  26.269  25.054  1.00  0.00     0.027 C 
ATOM     16  C   UNL A   1      32.638  27.098  22.813  1.00  0.00     0.316 C 
BRANCH   7  17
ATOM     17  C   UNL A   1      36.297  22.423  24.763  1.00  0.00    -0.012 C 
ATOM     18  C   UNL A   1      37.478  22.646  25.735  1.00  0.00     0.016 C 
ATOM     19  C   UNL A   1      36.842  22.576  23.328  1.00  0.00     0.016 C 
ATOM     20  C   UNL A   1      35.877  20.945  24.988  1.00  0.00     0.016 C 
ENDBRANCH   7  17
BRANCH  16  21
ATOM     21  C   UNL A   1      33.389  28.431  22.655  1.00  0.00     0.430 C 
ATOM     22  F   UNL A   1      34.421  28.317  21.786  1.00  0.00    -0.167 F 
ATOM     23  F   UNL A   1      32.579  29.403  22.169  1.00  0.00    -0.167 F 
ATOM     24  F   UNL A   1      33.892  28.874  23.830  1.00  0.00    -0.167 F 
ENDBRANCH  16  21
ENDBRANCH   4   6
ENDBRANCH   3   4
ENDBRANCH   2   3
ENDBRANCH   1   2
BRANCH   1  25
ATOM     25  O   UNL A   1      32.625  30.901  26.862  1.00  0.00    -0.458 OA
BRANCH  25  26
ATOM     26  C   UNL A   1      33.299  31.965  27.353  1.00  0.00     0.338 C 
ATOM     27  O   UNL A   1      32.878  33.094  27.539  1.00  0.00    -0.246 OA
BRANCH  26  28
ATOM     28  C   UNL A   1      34.656  31.557  27.747  1.00  0.00     0.060 A 
ATOM     29  C   UNL A   1      35.644  32.495  28.018  1.00  0.00     0.016 A 
ATOM     30  C   UNL A   1      34.878  30.216  28.035  1.00  0.00     0.016 A 
ATOM     31  C   UNL A   1      36.853  32.066  28.584  1.00  0.00     0.010 A 
ATOM     32  C   UNL A   1      35.999  29.825  28.761  1.00  0.00     0.010 A 
ATOM     33  C   UNL A   1      37.028  30.735  29.021  1.00  0.00    -0.014 A 
BRANCH  33  34
ATOM     34  C   UNL A   1      38.264  30.310  29.750  1.00  0.00     0.031 A 
ATOM     35  C   UNL A   1      38.491  30.662  31.206  1.00  0.00     0.074 A 
ATOM     36  C   UNL A   1      39.220  29.618  29.092  1.00  0.00     0.049 A 
ATOM     37  N   UNL A   1      39.480  30.306  31.993  1.00  0.00    -0.248 NA
ATOM     38  C   UNL A   1      37.521  31.558  31.858  1.00  0.00     0.031 C 
ATOM     39  C   UNL A   1      39.211  29.311  27.660  1.00  0.00     0.029 A 
ATOM     40  N   UNL A   1      40.374  29.020  29.545  1.00  0.00    -0.354 N 
ATOM     41  C   UNL A   1      39.261  30.957  33.203  1.00  0.00     0.074 A 
ATOM     42  C   UNL A   1      38.094  31.789  33.028  1.00  0.00     0.031 C 
ATOM     43  C   UNL A   1      40.238  28.498  27.374  1.00  0.00     0.029 A 
ATOM     44  C   UNL A   1      41.012  28.264  28.589  1.00  0.00     0.049 A 
ATOM     45  H   UNL A   1      40.710  29.122  30.464  1.00  0.00     0.167 HD
ATOM     46  C   UNL A   1      39.933  30.840  34.372  1.00  0.00     0.031 A 
ATOM     47  C   UNL A   1      42.081  27.449  28.674  1.00  0.00     0.031 A 
ATOM     48  C   UNL A   1      41.052  29.961  34.575  1.00  0.00     0.049 A 
ATOM     49  C   UNL A   1      42.764  27.264  30.001  1.00  0.00     0.074 A 
ATOM     50  C   UNL A   1      41.730  29.694  35.752  1.00  0.00     0.029 A 
ATOM     51  N   UNL A   1      41.646  29.199  33.584  1.00  0.00    -0.354 N 
ATOM     52  N   UNL A   1      42.472  27.804  31.158  1.00  0.00    -0.248 NA
ATOM     53  C   UNL A   1      43.914  26.347  30.037  1.00  0.00     0.031 C 
ATOM     54  C   UNL A   1      42.766  28.805  35.463  1.00  0.00     0.029 A 
ATOM     55  C   UNL A   1      42.695  28.472  34.120  1.00  0.00     0.049 A 
ATOM     56  H   UNL A   1      41.366  29.176  32.640  1.00  0.00     0.167 HD
ATOM     57  C   UNL A   1      43.392  27.288  32.061  1.00  0.00     0.074 A 
ATOM     58  C   UNL A   1      44.234  26.368  31.324  1.00  0.00     0.031 C 
ATOM     59  C   UNL A   1      43.529  27.561  33.381  1.00  0.00     0.031 A 
BRANCH  46  60
ATOM     60  C   UNL A   1      39.449  31.640  35.555  1.00  0.00    -0.014 A 
ATOM     61  C   UNL A   1      38.394  31.159  36.346  1.00  0.00     0.009 A 
ATOM     62  C   UNL A   1      39.970  32.916  35.825  1.00  0.00     0.009 A 
ATOM     63  C   UNL A   1      37.867  31.940  37.377  1.00  0.00     0.001 A 
ATOM     64  C   UNL A   1      39.463  33.680  36.878  1.00  0.00     0.001 A 
ATOM     65  C   UNL A   1      38.405  33.198  37.645  1.00  0.00     0.000 A 
ENDBRANCH  46  60
BRANCH  47  66
ATOM     66  C   UNL A   1      42.517  26.683  27.475  1.00  0.00    -0.014 A 
ATOM     67  C   UNL A   1      43.466  27.213  26.586  1.00  0.00     0.009 A 
ATOM     68  C   UNL A   1      41.939  25.437  27.182  1.00  0.00     0.009 A 
ATOM     69  C   UNL A   1      43.809  26.523  25.420  1.00  0.00     0.001 A 
ATOM     70  C   UNL A   1      42.306  24.736  26.032  1.00  0.00     0.001 A 
ATOM     71  C   UNL A   1      43.233  25.284  25.145  1.00  0.00     0.000 A 
ENDBRANCH  47  66
BRANCH  59  72
ATOM     72  C   UNL A   1      44.625  26.864  34.136  1.00  0.00    -0.014 A 
ATOM     73  C   UNL A   1      44.359  25.651  34.792  1.00  0.00     0.009 A 
ATOM     74  C   UNL A   1      45.882  27.465  34.297  1.00  0.00     0.009 A 
ATOM     75  C   UNL A   1      45.326  25.062  35.607  1.00  0.00     0.001 A 
ATOM     76  C   UNL A   1      46.858  26.857  35.089  1.00  0.00     0.001 A 
ATOM     77  C   UNL A   1      46.575  25.663  35.751  1.00  0.00     0.000 A 
ENDBRANCH  59  72
ENDBRANCH  33  34
ENDBRANCH  26  28
ENDBRANCH  25  26
ENDBRANCH   1  25
TORSDOF 13
ENDMDL
MODEL 3
REMARK VINA RESULT:     -11.4      3.131      7.503
REMARK SMILES CC(C)(C)c1cc2c(cc1Cl)C=C(C(=O)OCCOC(=O)c1ccc(-c3c4nc(c(-c5ccccc5)c5ccc([nH]5)c(-c5ccccc5)c5nc(c(-c6ccccc6)c6ccc3[nH]6)C=C5)C=C4)cc1)[C@@H](C(F)(F)F)O2
REMARK SMILES IDX 18 1 17 2 16 3 14 4 15 5 13 6 5 7 6 8 10 9 7 10 9 11 11 12
REMARK SMILES IDX 8 13 75 14 12 15 70 16 2 17 1 18 3 19 4 20 71 21 72 22 73 23
REMARK SMILES IDX 74 24 19 25 20 26 21 27 22 28 23 29 69 30 24 31 68 32 25 33
REMARK SMILES IDX 26 34 27 35 62 36 28 37 67 38 61 39 63 40 29 41 66 42 60 43
REMARK SMILES IDX 59 44 30 46 52 47 37 48 51 49 38 50 41 51 50 52 64 53 39 54
REMARK SMILES IDX 40 55 49 57 65 58 42 59 31 60 32 61 36 62 33 63 35 64 34 65
REMARK SMILES IDX 53 66 54 67 58 68 55 69 57 70 56 71 43 72 44 73 48 74 45 75
REMARK SMILES IDX 47 76 46 77
REMARK H PARENT 63 45 41 56
REMARK Flexibility Score: inf
ROOT
ATOM      1  C   UNL A   1      32.585  30.889  27.241  1.00  0.00     0.275 C 
ENDROOT
BRANCH   1   2
ATOM      2  C   UNL A   1      31.871  30.474  25.954  1.00  0.00     0.275 C 
BRANCH   2   3
ATOM      3  O   UNL A   1      31.404  29.107  26.024  1.00  0.00    -0.459 OA
BRANCH   3   4
ATOM      4  C   UNL A   1      31.091  28.539  24.837  1.00  0.00     0.338 C 
ATOM      5  O   UNL A   1      30.231  28.913  24.053  1.00  0.00    -0.246 OA
BRANCH   4   6
ATOM      6  C   UNL A   1      31.985  27.401  24.552  1.00  0.00     0.087 C 
ATOM      7  C   UNL A   1      35.032  23.374  25.074  1.00  0.00    -0.020 A 
ATOM      8  C   UNL A   1      34.785  24.345  24.055  1.00  0.00     0.053 A 
ATOM      9  C   UNL A   1      34.255  23.494  26.244  1.00  0.00     0.045 A 
ATOM     10  C   UNL A   1      33.824  25.351  24.179  1.00  0.00     0.128 A 
ATOM     11  C   UNL A   1      33.283  24.497  26.358  1.00  0.00     0.032 A 
ATOM     12  Cl  UNL A   1      34.409  22.528  27.668  1.00  0.00    -0.084 Cl
ATOM     13  C   UNL A   1      33.079  25.423  25.338  1.00  0.00     0.019 A 
ATOM     14  O   UNL A   1      33.676  26.220  23.133  1.00  0.00    -0.475 OA
ATOM     15  C   UNL A   1      32.127  26.492  25.519  1.00  0.00     0.027 C 
ATOM     16  C   UNL A   1      32.798  27.380  23.288  1.00  0.00     0.316 C 
BRANCH   7  17
ATOM     17  C   UNL A   1      36.164  22.345  24.825  1.00  0.00    -0.012 C 
ATOM     18  C   UNL A   1      37.403  22.428  25.745  1.00  0.00     0.016 C 
ATOM     19  C   UNL A   1      36.652  22.528  23.373  1.00  0.00     0.016 C 
ATOM     20  C   UNL A   1      35.641  20.894  25.003  1.00  0.00     0.016 C 
ENDBRANCH   7  17
BRANCH  16  21
ATOM     21  C   UNL A   1      33.643  28.657  23.157  1.00  0.00     0.430 C 
ATOM     22  F   UNL A   1      32.895  29.706  22.741  1.00  0.00    -0.167 F 
ATOM     23  F   UNL A   1      34.186  29.018  24.346  1.00  0.00    -0.167 F 
ATOM     24  F   UNL A   1      34.660  28.507  22.278  1.00  0.00    -0.167 F 
ENDBRANCH  16  21
ENDBRANCH   4   6
ENDBRANCH   3   4
ENDBRANCH   2   3
ENDBRANCH   1   2
BRANCH   1  25
ATOM     25  O   UNL A   1      33.854  30.217  27.345  1.00  0.00    -0.458 OA
BRANCH  25  26
ATOM     26  C   UNL A   1      34.728  30.754  28.225  1.00  0.00     0.338 C 
ATOM     27  O   UNL A   1      34.539  31.685  28.990  1.00  0.00    -0.246 OA
BRANCH  26  28
ATOM     28  C   UNL A   1      35.979  29.981  28.220  1.00  0.00     0.060 A 
ATOM     29  C   UNL A   1      36.823  29.978  27.117  1.00  0.00     0.016 A 
ATOM     30  C   UNL A   1      36.401  29.412  29.414  1.00  0.00     0.016 A 
ATOM     31  C   UNL A   1      38.093  29.397  27.233  1.00  0.00     0.010 A 
ATOM     32  C   UNL A   1      37.723  29.005  29.576  1.00  0.00     0.010 A 
ATOM     33  C   UNL A   1      38.588  28.956  28.480  1.00  0.00    -0.014 A 
BRANCH  33  34
ATOM     34  C   UNL A   1      39.993  28.464  28.631  1.00  0.00     0.031 A 
ATOM     35  C   UNL A   1      40.382  27.042  28.284  1.00  0.00     0.074 A 
ATOM     36  C   UNL A   1      40.941  29.296  29.117  1.00  0.00     0.049 A 
ATOM     37  N   UNL A   1      41.573  26.489  28.297  1.00  0.00    -0.248 NA
ATOM     38  C   UNL A   1      39.308  26.104  27.919  1.00  0.00     0.031 C 
ATOM     39  C   UNL A   1      40.703  30.653  29.616  1.00  0.00     0.029 A 
ATOM     40  N   UNL A   1      42.302  29.138  29.244  1.00  0.00    -0.354 N 
ATOM     41  C   UNL A   1      41.378  25.150  27.975  1.00  0.00     0.074 A 
ATOM     42  C   UNL A   1      39.953  24.950  27.849  1.00  0.00     0.031 C 
ATOM     43  C   UNL A   1      41.878  31.237  29.890  1.00  0.00     0.029 A 
ATOM     44  C   UNL A   1      42.954  30.284  29.638  1.00  0.00     0.049 A 
ATOM     45  H   UNL A   1      42.764  28.287  29.070  1.00  0.00     0.167 HD
ATOM     46  C   UNL A   1      42.295  24.179  27.753  1.00  0.00     0.031 A 
ATOM     47  C   UNL A   1      44.268  30.557  29.757  1.00  0.00     0.031 A 
ATOM     48  C   UNL A   1      43.716  24.386  27.807  1.00  0.00     0.049 A 
ATOM     49  C   UNL A   1      45.276  29.493  29.423  1.00  0.00     0.074 A 
ATOM     50  C   UNL A   1      44.725  23.492  27.492  1.00  0.00     0.029 A 
ATOM     51  N   UNL A   1      44.328  25.568  28.186  1.00  0.00    -0.354 N 
ATOM     52  N   UNL A   1      45.071  28.266  29.014  1.00  0.00    -0.248 NA
ATOM     53  C   UNL A   1      46.696  29.855  29.554  1.00  0.00     0.031 C 
ATOM     54  C   UNL A   1      45.949  24.119  27.727  1.00  0.00     0.029 A 
ATOM     55  C   UNL A   1      45.703  25.422  28.129  1.00  0.00     0.049 A 
ATOM     56  H   UNL A   1      43.857  26.390  28.456  1.00  0.00     0.167 HD
ATOM     57  C   UNL A   1      46.331  27.711  28.829  1.00  0.00     0.074 A 
ATOM     58  C   UNL A   1      47.295  28.746  29.141  1.00  0.00     0.031 C 
ATOM     59  C   UNL A   1      46.656  26.454  28.442  1.00  0.00     0.031 A 
BRANCH  46  60
ATOM     60  C   UNL A   1      41.802  22.807  27.373  1.00  0.00    -0.014 A 
ATOM     61  C   UNL A   1      41.514  21.861  28.370  1.00  0.00     0.009 A 
ATOM     62  C   UNL A   1      41.721  22.415  26.027  1.00  0.00     0.009 A 
ATOM     63  C   UNL A   1      41.161  20.554  28.028  1.00  0.00     0.001 A 
ATOM     64  C   UNL A   1      41.336  21.117  25.687  1.00  0.00     0.001 A 
ATOM     65  C   UNL A   1      41.067  20.184  26.687  1.00  0.00     0.000 A 
ENDBRANCH  46  60
BRANCH  47  66
ATOM     66  C   UNL A   1      44.699  31.930  30.136  1.00  0.00    -0.014 A 
ATOM     67  C   UNL A   1      44.864  32.288  31.484  1.00  0.00     0.009 A 
ATOM     68  C   UNL A   1      44.893  32.910  29.149  1.00  0.00     0.009 A 
ATOM     69  C   UNL A   1      45.190  33.601  31.835  1.00  0.00     0.001 A 
ATOM     70  C   UNL A   1      45.249  34.213  29.500  1.00  0.00     0.001 A 
ATOM     71  C   UNL A   1      45.387  34.561  30.844  1.00  0.00     0.000 A 
ENDBRANCH  47  66
BRANCH  59  72
ATOM     72  C   UNL A   1      48.112  26.105  28.326  1.00  0.00    -0.014 A 
ATOM     73  C   UNL A   1      48.754  26.192  27.081  1.00  0.00     0.009 A 
ATOM     74  C   UNL A   1      48.815  25.580  29.421  1.00  0.00     0.009 A 
ATOM     75  C   UNL A   1      50.066  25.744  26.928  1.00  0.00     0.001 A 
ATOM     76  C   UNL A   1      50.138  25.161  29.273  1.00  0.00     0.001 A 
ATOM     77  C   UNL A   1      50.759  25.233  28.025  1.00  0.00     0.000 A 
ENDBRANCH  59  72
ENDBRANCH  33  34
ENDBRANCH  26  28
ENDBRANCH  25  26
ENDBRANCH   1  25
TORSDOF 13
ENDMDL
