MODEL 1
REMARK VINA RESULT:     -11.7      0.000      0.000
REMARK SMILES Cc1n[nH]c(C(=O)Nc2cc(C(=O)OCCOC(=O)c3ccc(-c4c5nc(c(-c6ccccc6)c6ccc([nH]6)c(-c6ccccc6)c6nc(c(-c7ccccc7)c7ccc4[nH]7)C=C6)C=C5)cc3)[nH]n2)n1
REMARK SMILES IDX 15 1 14 2 12 3 13 4 11 5 9 6 10 7 69 8 68 9 8 11 6 12 7 13
REMARK SMILES IDX 5 15 1 16 2 17 3 18 70 19 4 20 16 22 17 23 18 24 19 25 20 26
REMARK SMILES IDX 21 27 67 28 22 29 66 30 23 31 24 32 25 33 60 34 26 35 65 36
REMARK SMILES IDX 59 37 61 38 27 39 64 40 58 41 57 42 28 44 50 45 35 46 49 47
REMARK SMILES IDX 36 48 39 49 48 50 62 51 37 52 38 53 47 55 63 56 40 57 29 58
REMARK SMILES IDX 30 59 34 60 31 61 33 62 32 63 51 64 52 65 56 66 53 67 55 68
REMARK SMILES IDX 54 69 41 70 42 71 46 72 43 73 45 74 44 75
REMARK H PARENT 68 10 8 14 4 21 61 43 39 54
REMARK Flexibility Score: inf
ROOT
ATOM      1  C   UNL A   1      37.558  33.223  32.843  1.00  0.00     0.275 C 
ENDROOT
BRANCH   1   2
ATOM      2  O   UNL A   1      36.152  33.158  32.566  1.00  0.00    -0.457 OA
BRANCH   2   3
ATOM      3  C   UNL A   1      35.323  33.637  33.540  1.00  0.00     0.356 C 
ATOM      4  O   UNL A   1      35.424  33.438  34.733  1.00  0.00    -0.244 OA
BRANCH   3   5
ATOM      5  C   UNL A   1      34.337  34.488  32.940  1.00  0.00     0.145 A 
ATOM      6  C   UNL A   1      33.195  35.903  31.702  1.00  0.00     0.155 A 
ATOM      7  C   UNL A   1      34.449  35.702  32.304  1.00  0.00     0.084 A 
ATOM      8  N   UNL A   1      32.278  35.071  32.192  1.00  0.00    -0.157 NA
ATOM      9  N   UNL A   1      32.997  34.219  32.952  1.00  0.00    -0.269 N 
ATOM     10  H   UNL A   1      32.597  33.479  33.462  1.00  0.00     0.190 HD
BRANCH   6  11
ATOM     11  N   UNL A   1      32.890  36.744  30.667  1.00  0.00    -0.302 N 
ATOM     12  C   UNL A   1      33.337  36.657  29.361  1.00  0.00     0.294 C 
ATOM     13  O   UNL A   1      33.184  37.646  28.641  1.00  0.00    -0.265 OA
ATOM     14  H   UNL A   1      32.286  37.493  30.875  1.00  0.00     0.172 HD
BRANCH  12  15
ATOM     15  C   UNL A   1      33.842  35.381  28.857  1.00  0.00     0.214 A 
ATOM     16  C   UNL A   1      33.655  31.977  27.889  1.00  0.00     0.092 C 
ATOM     17  C   UNL A   1      34.024  33.369  28.208  1.00  0.00     0.148 A 
ATOM     18  N   UNL A   1      35.292  33.792  28.197  1.00  0.00    -0.159 NA
ATOM     19  N   UNL A   1      33.107  34.312  28.598  1.00  0.00    -0.207 NA
ATOM     20  N   UNL A   1      35.155  35.036  28.674  1.00  0.00    -0.255 N 
ATOM     21  H   UNL A   1      35.911  35.635  28.869  1.00  0.00     0.192 HD
ENDBRANCH  12  15
ENDBRANCH   6  11
ENDBRANCH   3   5
ENDBRANCH   2   3
ENDBRANCH   1   2
BRANCH   1  22
ATOM     22  C   UNL A   1      38.226  34.299  31.999  1.00  0.00     0.275 C 
BRANCH  22  23
ATOM     23  O   UNL A   1      38.943  33.717  30.913  1.00  0.00    -0.458 OA
BRANCH  23  24
ATOM     24  C   UNL A   1      40.211  33.345  31.193  1.00  0.00     0.338 C 
ATOM     25  O   UNL A   1      41.038  33.951  31.853  1.00  0.00    -0.246 OA
BRANCH  24  26
ATOM     26  C   UNL A   1      40.544  32.161  30.406  1.00  0.00     0.060 A 
ATOM     27  C   UNL A   1      39.595  31.135  30.350  1.00  0.00     0.016 A 
ATOM     28  C   UNL A   1      41.888  31.964  30.068  1.00  0.00     0.016 A 
ATOM     29  C   UNL A   1      40.045  29.850  30.155  1.00  0.00     0.010 A 
ATOM     30  C   UNL A   1      42.337  30.683  29.908  1.00  0.00     0.010 A 
ATOM     31  C   UNL A   1      41.424  29.641  30.037  1.00  0.00    -0.014 A 
BRANCH  31  32
ATOM     32  C   UNL A   1      41.914  28.291  29.884  1.00  0.00     0.031 A 
ATOM     33  C   UNL A   1      42.631  27.854  31.100  1.00  0.00     0.074 A 
ATOM     34  C   UNL A   1      41.580  27.528  28.825  1.00  0.00     0.049 A 
ATOM     35  N   UNL A   1      43.902  27.678  31.238  1.00  0.00    -0.248 NA
ATOM     36  C   UNL A   1      41.883  27.846  32.374  1.00  0.00     0.031 C 
ATOM     37  C   UNL A   1      40.619  27.854  27.762  1.00  0.00     0.029 A 
ATOM     38  N   UNL A   1      41.926  26.246  28.533  1.00  0.00    -0.354 N 
ATOM     39  C   UNL A   1      44.063  27.270  32.557  1.00  0.00     0.074 A 
ATOM     40  C   UNL A   1      42.866  27.655  33.253  1.00  0.00     0.031 C 
ATOM     41  C   UNL A   1      40.274  26.720  27.108  1.00  0.00     0.029 A 
ATOM     42  C   UNL A   1      41.091  25.628  27.607  1.00  0.00     0.049 A 
ATOM     43  H   UNL A   1      42.700  25.794  28.940  1.00  0.00     0.167 HD
ATOM     44  C   UNL A   1      44.957  26.289  32.858  1.00  0.00     0.031 A 
ATOM     45  C   UNL A   1      41.044  24.302  27.321  1.00  0.00     0.031 A 
ATOM     46  C   UNL A   1      45.869  26.077  31.764  1.00  0.00     0.049 A 
ATOM     47  C   UNL A   1      42.305  23.701  27.804  1.00  0.00     0.074 A 
ATOM     48  C   UNL A   1      46.934  26.745  31.203  1.00  0.00     0.029 A 
ATOM     49  N   UNL A   1      45.393  25.195  30.827  1.00  0.00    -0.354 N 
ATOM     50  N   UNL A   1      43.467  23.974  27.282  1.00  0.00    -0.248 NA
ATOM     51  C   UNL A   1      42.344  23.095  29.130  1.00  0.00     0.031 C 
ATOM     52  C   UNL A   1      46.968  26.347  29.833  1.00  0.00     0.029 A 
ATOM     53  C   UNL A   1      45.967  25.403  29.605  1.00  0.00     0.049 A 
ATOM     54  H   UNL A   1      44.721  24.499  31.013  1.00  0.00     0.167 HD
ATOM     55  C   UNL A   1      44.330  23.999  28.362  1.00  0.00     0.074 A 
ATOM     56  C   UNL A   1      43.634  23.284  29.427  1.00  0.00     0.031 C 
ATOM     57  C   UNL A   1      45.375  24.876  28.395  1.00  0.00     0.031 A 
BRANCH  44  58
ATOM     58  C   UNL A   1      44.641  25.161  33.821  1.00  0.00    -0.014 A 
ATOM     59  C   UNL A   1      45.547  24.910  34.866  1.00  0.00     0.009 A 
ATOM     60  C   UNL A   1      43.678  24.162  33.573  1.00  0.00     0.009 A 
ATOM     61  C   UNL A   1      45.524  23.702  35.577  1.00  0.00     0.001 A 
ATOM     62  C   UNL A   1      43.630  22.971  34.301  1.00  0.00     0.001 A 
ATOM     63  C   UNL A   1      44.570  22.732  35.290  1.00  0.00     0.000 A 
ENDBRANCH  44  58
BRANCH  45  64
ATOM     64  C   UNL A   1      39.891  23.472  26.909  1.00  0.00    -0.014 A 
ATOM     65  C   UNL A   1      38.646  24.050  26.612  1.00  0.00     0.009 A 
ATOM     66  C   UNL A   1      40.096  22.132  26.530  1.00  0.00     0.009 A 
ATOM     67  C   UNL A   1      37.657  23.323  25.930  1.00  0.00     0.001 A 
ATOM     68  C   UNL A   1      39.111  21.409  25.847  1.00  0.00     0.001 A 
ATOM     69  C   UNL A   1      37.896  22.010  25.534  1.00  0.00     0.000 A 
ENDBRANCH  45  64
BRANCH  57  70
ATOM     70  C   UNL A   1      45.844  25.447  27.088  1.00  0.00    -0.014 A 
ATOM     71  C   UNL A   1      45.368  26.648  26.535  1.00  0.00     0.009 A 
ATOM     72  C   UNL A   1      46.887  24.773  26.436  1.00  0.00     0.009 A 
ATOM     73  C   UNL A   1      45.916  27.144  25.347  1.00  0.00     0.001 A 
ATOM     74  C   UNL A   1      47.446  25.280  25.265  1.00  0.00     0.001 A 
ATOM     75  C   UNL A   1      46.957  26.462  24.716  1.00  0.00     0.000 A 
ENDBRANCH  57  70
ENDBRANCH  31  32
ENDBRANCH  24  26
ENDBRANCH  23  24
ENDBRANCH  22  23
ENDBRANCH   1  22
TORSDOF 13
ENDMDL
MODEL 2
REMARK VINA RESULT:     -11.5      4.950     12.447
REMARK SMILES Cc1n[nH]c(C(=O)Nc2cc(C(=O)OCCOC(=O)c3ccc(-c4c5nc(c(-c6ccccc6)c6ccc([nH]6)c(-c6ccccc6)c6nc(c(-c7ccccc7)c7ccc4[nH]7)C=C6)C=C5)cc3)[nH]n2)n1
REMARK SMILES IDX 15 1 14 2 12 3 13 4 11 5 9 6 10 7 69 8 68 9 8 11 6 12 7 13
REMARK SMILES IDX 5 15 1 16 2 17 3 18 70 19 4 20 16 22 17 23 18 24 19 25 20 26
REMARK SMILES IDX 21 27 67 28 22 29 66 30 23 31 24 32 25 33 60 34 26 35 65 36
REMARK SMILES IDX 59 37 61 38 27 39 64 40 58 41 57 42 28 44 50 45 35 46 49 47
REMARK SMILES IDX 36 48 39 49 48 50 62 51 37 52 38 53 47 55 63 56 40 57 29 58
REMARK SMILES IDX 30 59 34 60 31 61 33 62 32 63 51 64 52 65 56 66 53 67 55 68
REMARK SMILES IDX 54 69 41 70 42 71 46 72 43 73 45 74 44 75
REMARK H PARENT 68 10 8 14 4 21 61 43 39 54
REMARK Flexibility Score: inf
ROOT
ATOM      1  C   UNL A   1      41.963  20.149  27.299  1.00  0.00     0.275 C 
ENDROOT
BRANCH   1   2
ATOM      2  O   UNL A   1      42.198  19.439  26.075  1.00  0.00    -0.457 OA
BRANCH   2   3
ATOM      3  C   UNL A   1      43.132  18.444  26.125  1.00  0.00     0.356 C 
ATOM      4  O   UNL A   1      42.954  17.310  26.520  1.00  0.00    -0.244 OA
BRANCH   3   5
ATOM      5  C   UNL A   1      44.361  18.925  25.563  1.00  0.00     0.145 A 
ATOM      6  C   UNL A   1      45.990  20.089  24.654  1.00  0.00     0.155 A 
ATOM      7  C   UNL A   1      44.608  19.845  24.572  1.00  0.00     0.084 A 
ATOM      8  N   UNL A   1      46.607  19.165  25.389  1.00  0.00    -0.157 NA
ATOM      9  N   UNL A   1      45.593  18.460  25.929  1.00  0.00    -0.269 N 
ATOM     10  H   UNL A   1      45.726  17.689  26.526  1.00  0.00     0.190 HD
BRANCH   6  11
ATOM     11  N   UNL A   1      46.679  21.166  24.167  1.00  0.00    -0.302 N 
ATOM     12  C   UNL A   1      46.393  22.504  24.376  1.00  0.00     0.294 C 
ATOM     13  O   UNL A   1      46.949  23.324  23.642  1.00  0.00    -0.265 OA
ATOM     14  H   UNL A   1      47.464  20.967  23.608  1.00  0.00     0.172 HD
BRANCH  12  15
ATOM     15  C   UNL A   1      45.566  22.893  25.515  1.00  0.00     0.214 A 
ATOM     16  C   UNL A   1      44.767  23.332  28.941  1.00  0.00     0.092 C 
ATOM     17  C   UNL A   1      44.825  23.272  27.468  1.00  0.00     0.148 A 
ATOM     18  N   UNL A   1      43.763  23.534  26.700  1.00  0.00    -0.159 NA
ATOM     19  N   UNL A   1      45.948  22.884  26.782  1.00  0.00    -0.207 NA
ATOM     20  N   UNL A   1      44.236  23.222  25.486  1.00  0.00    -0.255 N 
ATOM     21  H   UNL A   1      43.692  23.231  24.667  1.00  0.00     0.192 HD
ENDBRANCH  12  15
ENDBRANCH   6  11
ENDBRANCH   3   5
ENDBRANCH   2   3
ENDBRANCH   1   2
BRANCH   1  22
ATOM     22  C   UNL A   1      40.670  20.948  27.219  1.00  0.00     0.275 C 
BRANCH  22  23
ATOM     23  O   UNL A   1      40.880  22.293  27.644  1.00  0.00    -0.458 OA
BRANCH  23  24
ATOM     24  C   UNL A   1      40.000  23.196  27.160  1.00  0.00     0.338 C 
ATOM     25  O   UNL A   1      38.970  22.978  26.544  1.00  0.00    -0.246 OA
BRANCH  24  26
ATOM     26  C   UNL A   1      40.563  24.535  27.305  1.00  0.00     0.060 A 
ATOM     27  C   UNL A   1      41.251  24.822  28.489  1.00  0.00     0.016 A 
ATOM     28  C   UNL A   1      40.088  25.535  26.448  1.00  0.00     0.016 A 
ATOM     29  C   UNL A   1      41.274  26.127  28.921  1.00  0.00     0.010 A 
ATOM     30  C   UNL A   1      40.082  26.826  26.895  1.00  0.00     0.010 A 
ATOM     31  C   UNL A   1      40.601  27.090  28.160  1.00  0.00    -0.014 A 
BRANCH  31  32
ATOM     32  C   UNL A   1      40.574  28.456  28.629  1.00  0.00     0.031 A 
ATOM     33  C   UNL A   1      41.734  29.210  28.110  1.00  0.00     0.074 A 
ATOM     34  C   UNL A   1      39.517  28.957  29.297  1.00  0.00     0.049 A 
ATOM     35  N   UNL A   1      42.762  29.617  28.775  1.00  0.00    -0.248 NA
ATOM     36  C   UNL A   1      41.890  29.313  26.645  1.00  0.00     0.031 C 
ATOM     37  C   UNL A   1      38.229  28.297  29.550  1.00  0.00     0.029 A 
ATOM     38  N   UNL A   1      39.313  30.210  29.787  1.00  0.00    -0.354 N 
ATOM     39  C   UNL A   1      43.556  30.268  27.839  1.00  0.00     0.074 A 
ATOM     40  C   UNL A   1      43.120  29.814  26.546  1.00  0.00     0.031 C 
ATOM     41  C   UNL A   1      37.312  29.227  29.905  1.00  0.00     0.029 A 
ATOM     42  C   UNL A   1      37.979  30.510  30.042  1.00  0.00     0.049 A 
ATOM     43  H   UNL A   1      40.045  30.848  29.948  1.00  0.00     0.167 HD
ATOM     44  C   UNL A   1      44.194  31.422  28.176  1.00  0.00     0.031 A 
ATOM     45  C   UNL A   1      37.461  31.739  30.291  1.00  0.00     0.031 A 
ATOM     46  C   UNL A   1      44.220  31.591  29.606  1.00  0.00     0.049 A 
ATOM     47  C   UNL A   1      38.581  32.618  30.692  1.00  0.00     0.074 A 
ATOM     48  C   UNL A   1      44.882  31.024  30.671  1.00  0.00     0.029 A 
ATOM     49  N   UNL A   1      43.096  32.206  30.097  1.00  0.00    -0.354 N 
ATOM     50  N   UNL A   1      39.247  32.457  31.799  1.00  0.00    -0.248 NA
ATOM     51  C   UNL A   1      39.238  33.442  29.683  1.00  0.00     0.031 C 
ATOM     52  C   UNL A   1      44.019  31.179  31.797  1.00  0.00     0.029 A 
ATOM     53  C   UNL A   1      42.883  31.888  31.408  1.00  0.00     0.049 A 
ATOM     54  H   UNL A   1      42.515  32.801  29.569  1.00  0.00     0.167 HD
ATOM     55  C   UNL A   1      40.552  32.763  31.461  1.00  0.00     0.074 A 
ATOM     56  C   UNL A   1      40.459  33.524  30.219  1.00  0.00     0.031 C 
ATOM     57  C   UNL A   1      41.594  32.093  32.033  1.00  0.00     0.031 A 
BRANCH  44  58
ATOM     58  C   UNL A   1      44.240  32.630  27.261  1.00  0.00    -0.014 A 
ATOM     59  C   UNL A   1      43.779  33.859  27.763  1.00  0.00     0.009 A 
ATOM     60  C   UNL A   1      44.421  32.552  25.865  1.00  0.00     0.009 A 
ATOM     61  C   UNL A   1      43.462  34.923  26.908  1.00  0.00     0.001 A 
ATOM     62  C   UNL A   1      44.139  33.621  25.013  1.00  0.00     0.001 A 
ATOM     63  C   UNL A   1      43.636  34.801  25.534  1.00  0.00     0.000 A 
ENDBRANCH  44  58
BRANCH  45  64
ATOM     64  C   UNL A   1      36.127  32.282  29.954  1.00  0.00    -0.014 A 
ATOM     65  C   UNL A   1      35.467  33.178  30.811  1.00  0.00     0.009 A 
ATOM     66  C   UNL A   1      35.624  32.138  28.647  1.00  0.00     0.009 A 
ATOM     67  C   UNL A   1      34.367  33.928  30.364  1.00  0.00     0.001 A 
ATOM     68  C   UNL A   1      34.530  32.889  28.200  1.00  0.00     0.001 A 
ATOM     69  C   UNL A   1      33.910  33.794  29.055  1.00  0.00     0.000 A 
ENDBRANCH  45  64
BRANCH  57  70
ATOM     70  C   UNL A   1      41.336  31.391  33.335  1.00  0.00    -0.014 A 
ATOM     71  C   UNL A   1      41.004  30.030  33.446  1.00  0.00     0.009 A 
ATOM     72  C   UNL A   1      41.533  32.133  34.509  1.00  0.00     0.009 A 
ATOM     73  C   UNL A   1      40.853  29.441  34.707  1.00  0.00     0.001 A 
ATOM     74  C   UNL A   1      41.404  31.539  35.763  1.00  0.00     0.001 A 
ATOM     75  C   UNL A   1      41.058  30.194  35.863  1.00  0.00     0.000 A 
ENDBRANCH  57  70
ENDBRANCH  31  32
ENDBRANCH  24  26
ENDBRANCH  23  24
ENDBRANCH  22  23
ENDBRANCH   1  22
TORSDOF 13
ENDMDL
MODEL 3
REMARK VINA RESULT:     -11.4      2.323      3.838
REMARK SMILES Cc1n[nH]c(C(=O)Nc2cc(C(=O)OCCOC(=O)c3ccc(-c4c5nc(c(-c6ccccc6)c6ccc([nH]6)c(-c6ccccc6)c6nc(c(-c7ccccc7)c7ccc4[nH]7)C=C6)C=C5)cc3)[nH]n2)n1
REMARK SMILES IDX 15 1 14 2 12 3 13 4 11 5 9 6 10 7 69 8 68 9 8 11 6 12 7 13
REMARK SMILES IDX 5 15 1 16 2 17 3 18 70 19 4 20 16 22 17 23 18 24 19 25 20 26
REMARK SMILES IDX 21 27 67 28 22 29 66 30 23 31 24 32 25 33 60 34 26 35 65 36
REMARK SMILES IDX 59 37 61 38 27 39 64 40 58 41 57 42 28 44 50 45 35 46 49 47
REMARK SMILES IDX 36 48 39 49 48 50 62 51 37 52 38 53 47 55 63 56 40 57 29 58
REMARK SMILES IDX 30 59 34 60 31 61 33 62 32 63 51 64 52 65 56 66 53 67 55 68
REMARK SMILES IDX 54 69 41 70 42 71 46 72 43 73 45 74 44 75
REMARK H PARENT 68 10 8 14 4 21 61 43 39 54
REMARK Flexibility Score: inf
ROOT
ATOM      1  C   UNL A   1      34.201  34.236  28.546  1.00  0.00     0.275 C 
ENDROOT
BRANCH   1   2
ATOM      2  O   UNL A   1      33.082  34.588  29.372  1.00  0.00    -0.457 OA
BRANCH   2   3
ATOM      3  C   UNL A   1      32.939  35.916  29.659  1.00  0.00     0.356 C 
ATOM      4  O   UNL A   1      32.502  36.769  28.916  1.00  0.00    -0.244 OA
BRANCH   3   5
ATOM      5  C   UNL A   1      33.322  36.144  31.023  1.00  0.00     0.145 A 
ATOM      6  C   UNL A   1      33.958  35.997  33.123  1.00  0.00     0.155 A 
ATOM      7  C   UNL A   1      33.134  35.392  32.158  1.00  0.00     0.084 A 
ATOM      8  N   UNL A   1      34.357  37.207  32.735  1.00  0.00    -0.157 NA
ATOM      9  N   UNL A   1      33.952  37.279  31.451  1.00  0.00    -0.269 N 
ATOM     10  H   UNL A   1      34.095  38.068  30.881  1.00  0.00     0.190 HD
BRANCH   6  11
ATOM     11  N   UNL A   1      34.426  35.448  34.285  1.00  0.00    -0.302 N 
ATOM     12  C   UNL A   1      35.437  34.513  34.418  1.00  0.00     0.294 C 
ATOM     13  O   UNL A   1      35.535  33.934  35.502  1.00  0.00    -0.265 OA
ATOM     14  H   UNL A   1      33.996  35.750  35.117  1.00  0.00     0.172 HD
BRANCH  12  15
ATOM     15  C   UNL A   1      36.410  34.348  33.341  1.00  0.00     0.214 A 
ATOM     16  C   UNL A   1      39.558  34.659  31.741  1.00  0.00     0.092 C 
ATOM     17  C   UNL A   1      38.168  34.384  32.153  1.00  0.00     0.148 A 
ATOM     18  N   UNL A   1      37.257  33.893  31.306  1.00  0.00    -0.159 NA
ATOM     19  N   UNL A   1      37.693  34.667  33.408  1.00  0.00    -0.207 NA
ATOM     20  N   UNL A   1      36.150  33.946  32.058  1.00  0.00    -0.255 N 
ATOM     21  H   UNL A   1      35.251  33.720  31.726  1.00  0.00     0.192 HD
ENDBRANCH  12  15
ENDBRANCH   6  11
ENDBRANCH   3   5
ENDBRANCH   2   3
ENDBRANCH   1   2
BRANCH   1  22
ATOM     22  C   UNL A   1      34.172  32.754  28.203  1.00  0.00     0.275 C 
BRANCH  22  23
ATOM     23  O   UNL A   1      35.495  32.228  28.122  1.00  0.00    -0.458 OA
BRANCH  23  24
ATOM     24  C   UNL A   1      35.874  31.455  29.162  1.00  0.00     0.338 C 
ATOM     25  O   UNL A   1      35.419  31.452  30.294  1.00  0.00    -0.246 OA
BRANCH  24  26
ATOM     26  C   UNL A   1      37.085  30.726  28.798  1.00  0.00     0.060 A 
ATOM     27  C   UNL A   1      36.948  29.375  28.459  1.00  0.00     0.016 A 
ATOM     28  C   UNL A   1      38.315  31.294  29.149  1.00  0.00     0.016 A 
ATOM     29  C   UNL A   1      38.021  28.543  28.682  1.00  0.00     0.010 A 
ATOM     30  C   UNL A   1      39.368  30.461  29.402  1.00  0.00     0.010 A 
ATOM     31  C   UNL A   1      39.180  29.090  29.244  1.00  0.00    -0.014 A 
BRANCH  31  32
ATOM     32  C   UNL A   1      40.295  28.219  29.531  1.00  0.00     0.031 A 
ATOM     33  C   UNL A   1      40.639  28.265  30.967  1.00  0.00     0.074 A 
ATOM     34  C   UNL A   1      40.793  27.374  28.608  1.00  0.00     0.049 A 
ATOM     35  N   UNL A   1      41.679  28.809  31.504  1.00  0.00    -0.248 NA
ATOM     36  C   UNL A   1      39.595  27.882  31.939  1.00  0.00     0.031 C 
ATOM     37  C   UNL A   1      40.256  27.103  27.267  1.00  0.00     0.029 A 
ATOM     38  N   UNL A   1      41.811  26.477  28.708  1.00  0.00    -0.354 N 
ATOM     39  C   UNL A   1      41.535  28.582  32.867  1.00  0.00     0.074 A 
ATOM     40  C   UNL A   1      40.148  28.273  33.086  1.00  0.00     0.031 C 
ATOM     41  C   UNL A   1      40.786  25.950  26.797  1.00  0.00     0.029 A 
ATOM     42  C   UNL A   1      41.795  25.486  27.732  1.00  0.00     0.049 A 
ATOM     43  H   UNL A   1      42.500  26.525  29.410  1.00  0.00     0.167 HD
ATOM     44  C   UNL A   1      42.621  28.248  33.618  1.00  0.00     0.031 A 
ATOM     45  C   UNL A   1      42.522  24.340  27.733  1.00  0.00     0.031 A 
ATOM     46  C   UNL A   1      43.840  28.541  32.909  1.00  0.00     0.049 A 
ATOM     47  C   UNL A   1      43.642  24.528  28.680  1.00  0.00     0.074 A 
ATOM     48  C   UNL A   1      44.548  29.667  32.555  1.00  0.00     0.029 A 
ATOM     49  N   UNL A   1      44.242  27.522  32.083  1.00  0.00    -0.354 N 
ATOM     50  N   UNL A   1      44.610  25.375  28.474  1.00  0.00    -0.248 NA
ATOM     51  C   UNL A   1      43.497  24.068  30.057  1.00  0.00     0.031 C 
ATOM     52  C   UNL A   1      45.267  29.321  31.372  1.00  0.00     0.029 A 
ATOM     53  C   UNL A   1      45.030  27.981  31.067  1.00  0.00     0.049 A 
ATOM     54  H   UNL A   1      43.992  26.577  32.209  1.00  0.00     0.167 HD
ATOM     55  C   UNL A   1      44.888  25.888  29.727  1.00  0.00     0.074 A 
ATOM     56  C   UNL A   1      44.313  24.933  30.669  1.00  0.00     0.031 C 
ATOM     57  C   UNL A   1      45.263  27.191  29.878  1.00  0.00     0.031 A 
BRANCH  44  58
ATOM     58  C   UNL A   1      42.587  27.151  34.663  1.00  0.00    -0.014 A 
ATOM     59  C   UNL A   1      42.963  25.854  34.275  1.00  0.00     0.009 A 
ATOM     60  C   UNL A   1      41.923  27.265  35.902  1.00  0.00     0.009 A 
ATOM     61  C   UNL A   1      42.639  24.735  35.054  1.00  0.00     0.001 A 
ATOM     62  C   UNL A   1      41.628  26.157  36.698  1.00  0.00     0.001 A 
ATOM     63  C   UNL A   1      41.966  24.887  36.262  1.00  0.00     0.000 A 
ENDBRANCH  44  58
BRANCH  45  64
ATOM     64  C   UNL A   1      42.176  23.008  27.189  1.00  0.00    -0.014 A 
ATOM     65  C   UNL A   1      43.063  22.312  26.350  1.00  0.00     0.009 A 
ATOM     66  C   UNL A   1      41.089  22.295  27.726  1.00  0.00     0.009 A 
ATOM     67  C   UNL A   1      42.886  20.944  26.089  1.00  0.00     0.001 A 
ATOM     68  C   UNL A   1      40.914  20.930  27.469  1.00  0.00     0.001 A 
ATOM     69  C   UNL A   1      41.821  20.251  26.661  1.00  0.00     0.000 A 
ENDBRANCH  45  64
BRANCH  57  70
ATOM     70  C   UNL A   1      45.819  27.896  28.675  1.00  0.00    -0.014 A 
ATOM     71  C   UNL A   1      45.036  28.574  27.725  1.00  0.00     0.009 A 
ATOM     72  C   UNL A   1      47.215  27.950  28.556  1.00  0.00     0.009 A 
ATOM     73  C   UNL A   1      45.644  29.268  26.673  1.00  0.00     0.001 A 
ATOM     74  C   UNL A   1      47.820  28.659  27.520  1.00  0.00     0.001 A 
ATOM     75  C   UNL A   1      47.035  29.314  26.575  1.00  0.00     0.000 A 
ENDBRANCH  57  70
ENDBRANCH  31  32
ENDBRANCH  24  26
ENDBRANCH  23  24
ENDBRANCH  22  23
ENDBRANCH   1  22
TORSDOF 13
ENDMDL
