MODEL 1
REMARK VINA RESULT:     -11.7      0.000      0.000
REMARK SMILES Cc1ccc(C(=O)OCCOC(=O)c2ccc(-c3c4nc(c(-c5ccccc5)c5ccc([nH]5)c(-c5ccccc5)c5nc(c(-c6ccccc6)c6ccc3[nH]6)C=C5)C=C4)cc2)cc1NC(=O)c1ccc(Br)o1
REMARK SMILES IDX 9 1 8 2 6 3 7 4 5 5 1 6 2 7 3 8 63 9 4 10 62 11 64 12 65 13
REMARK SMILES IDX 66 15 67 16 68 17 72 18 69 19 70 20 71 21 10 22 11 23 12 24
REMARK SMILES IDX 13 25 14 26 15 27 61 28 16 29 60 30 17 31 18 32 19 33 54 34
REMARK SMILES IDX 20 35 59 36 53 37 55 38 21 39 58 40 52 41 51 42 22 44 44 45
REMARK SMILES IDX 29 46 43 47 30 48 33 49 42 50 56 51 31 52 32 53 41 55 57 56
REMARK SMILES IDX 34 57 23 58 24 59 28 60 25 61 27 62 26 63 45 64 46 65 50 66
REMARK SMILES IDX 47 67 49 68 48 69 35 70 36 71 40 72 37 73 39 74 38 75
REMARK H PARENT 64 14 55 43 33 54
REMARK Flexibility Score: inf
ROOT
ATOM      1  C   UNL A   1      32.454  31.783  26.589  1.00  0.00     0.275 C 
ENDROOT
BRANCH   1   2
ATOM      2  O   UNL A   1      33.355  31.019  27.404  1.00  0.00    -0.458 OA
BRANCH   2   3
ATOM      3  C   UNL A   1      33.567  29.780  26.909  1.00  0.00     0.338 C 
ATOM      4  O   UNL A   1      34.633  29.325  26.514  1.00  0.00    -0.246 OA
BRANCH   3   5
ATOM      5  C   UNL A   1      32.349  29.015  26.645  1.00  0.00     0.062 A 
ATOM      6  C   UNL A   1      30.295  25.452  25.423  1.00  0.00     0.046 C 
ATOM      7  C   UNL A   1      30.992  26.739  25.771  1.00  0.00    -0.027 A 
ATOM      8  C   UNL A   1      31.032  27.083  27.144  1.00  0.00     0.006 A 
ATOM      9  C   UNL A   1      31.646  27.570  24.840  1.00  0.00     0.045 A 
ATOM     10  C   UNL A   1      31.759  28.189  27.589  1.00  0.00     0.016 A 
ATOM     11  C   UNL A   1      32.186  28.768  25.288  1.00  0.00     0.042 A 
BRANCH   9  12
ATOM     12  N   UNL A   1      31.808  27.198  23.489  1.00  0.00    -0.319 N 
ATOM     13  C   UNL A   1      30.957  27.359  22.398  1.00  0.00     0.291 C 
ATOM     14  H   UNL A   1      32.662  26.751  23.284  1.00  0.00     0.170 HD
ATOM     15  O   UNL A   1      31.233  26.739  21.369  1.00  0.00    -0.265 OA
BRANCH  13  16
ATOM     16  C   UNL A   1      29.849  28.295  22.458  1.00  0.00     0.193 A 
ATOM     17  C   UNL A   1      28.639  28.256  23.126  1.00  0.00     0.057 A 
ATOM     18  O   UNL A   1      29.905  29.438  21.697  1.00  0.00    -0.444 OA
ATOM     19  C   UNL A   1      27.917  29.415  22.738  1.00  0.00     0.059 A 
ATOM     20  C   UNL A   1      28.719  30.087  21.850  1.00  0.00     0.170 A 
ATOM     21  Br  UNL A   1      28.219  31.635  20.936  1.00  0.00    -0.008 Br
ENDBRANCH  13  16
ENDBRANCH   9  12
ENDBRANCH   3   5
ENDBRANCH   2   3
ENDBRANCH   1   2
BRANCH   1  22
ATOM     22  C   UNL A   1      31.767  32.925  27.342  1.00  0.00     0.275 C 
BRANCH  22  23
ATOM     23  O   UNL A   1      32.489  34.165  27.591  1.00  0.00    -0.458 OA
BRANCH  23  24
ATOM     24  C   UNL A   1      33.188  34.524  28.689  1.00  0.00     0.338 C 
ATOM     25  O   UNL A   1      32.845  35.465  29.405  1.00  0.00    -0.246 OA
BRANCH  24  26
ATOM     26  C   UNL A   1      34.399  33.760  29.008  1.00  0.00     0.060 A 
ATOM     27  C   UNL A   1      34.341  32.794  30.028  1.00  0.00     0.016 A 
ATOM     28  C   UNL A   1      35.553  33.949  28.254  1.00  0.00     0.016 A 
ATOM     29  C   UNL A   1      35.419  31.953  30.250  1.00  0.00     0.010 A 
ATOM     30  C   UNL A   1      36.565  33.035  28.365  1.00  0.00     0.010 A 
ATOM     31  C   UNL A   1      36.519  32.101  29.413  1.00  0.00    -0.014 A 
BRANCH  31  32
ATOM     32  C   UNL A   1      37.842  31.648  29.793  1.00  0.00     0.031 A 
ATOM     33  C   UNL A   1      38.305  30.318  29.400  1.00  0.00     0.074 A 
ATOM     34  C   UNL A   1      38.537  32.702  30.276  1.00  0.00     0.049 A 
ATOM     35  N   UNL A   1      39.248  29.654  29.961  1.00  0.00    -0.248 NA
ATOM     36  C   UNL A   1      37.660  29.559  28.331  1.00  0.00     0.031 C 
ATOM     37  C   UNL A   1      39.946  32.985  30.429  1.00  0.00     0.029 A 
ATOM     38  N   UNL A   1      37.921  33.804  30.887  1.00  0.00    -0.354 N 
ATOM     39  C   UNL A   1      39.617  28.681  29.049  1.00  0.00     0.074 A 
ATOM     40  C   UNL A   1      38.481  28.513  28.185  1.00  0.00     0.031 C 
ATOM     41  C   UNL A   1      40.080  33.969  31.346  1.00  0.00     0.029 A 
ATOM     42  C   UNL A   1      38.753  34.250  31.899  1.00  0.00     0.049 A 
ATOM     43  H   UNL A   1      37.051  34.192  30.640  1.00  0.00     0.167 HD
ATOM     44  C   UNL A   1      40.939  28.362  28.939  1.00  0.00     0.031 A 
ATOM     45  C   UNL A   1      38.339  33.961  33.172  1.00  0.00     0.031 A 
ATOM     46  C   UNL A   1      41.706  29.159  29.898  1.00  0.00     0.049 A 
ATOM     47  C   UNL A   1      39.224  32.876  33.745  1.00  0.00     0.074 A 
ATOM     48  C   UNL A   1      42.400  30.348  29.740  1.00  0.00     0.029 A 
ATOM     49  N   UNL A   1      41.439  29.029  31.255  1.00  0.00    -0.354 N 
ATOM     50  N   UNL A   1      39.714  31.874  33.060  1.00  0.00    -0.248 NA
ATOM     51  C   UNL A   1      39.722  32.933  35.113  1.00  0.00     0.031 C 
ATOM     52  C   UNL A   1      42.447  30.988  31.009  1.00  0.00     0.029 A 
ATOM     53  C   UNL A   1      41.764  30.198  31.921  1.00  0.00     0.049 A 
ATOM     54  H   UNL A   1      41.072  28.222  31.682  1.00  0.00     0.167 HD
ATOM     55  C   UNL A   1      40.678  31.258  33.815  1.00  0.00     0.074 A 
ATOM     56  C   UNL A   1      40.606  31.922  35.108  1.00  0.00     0.031 C 
ATOM     57  C   UNL A   1      41.535  30.302  33.351  1.00  0.00     0.031 A 
BRANCH  44  58
ATOM     58  C   UNL A   1      41.575  27.671  27.753  1.00  0.00    -0.014 A 
ATOM     59  C   UNL A   1      41.797  28.413  26.575  1.00  0.00     0.009 A 
ATOM     60  C   UNL A   1      41.952  26.318  27.705  1.00  0.00     0.009 A 
ATOM     61  C   UNL A   1      42.298  27.834  25.402  1.00  0.00     0.001 A 
ATOM     62  C   UNL A   1      42.443  25.726  26.526  1.00  0.00     0.001 A 
ATOM     63  C   UNL A   1      42.608  26.484  25.373  1.00  0.00     0.000 A 
ENDBRANCH  44  58
BRANCH  45  64
ATOM     64  C   UNL A   1      36.849  34.087  33.392  1.00  0.00    -0.014 A 
ATOM     65  C   UNL A   1      36.202  35.275  32.967  1.00  0.00     0.009 A 
ATOM     66  C   UNL A   1      36.030  33.010  33.761  1.00  0.00     0.009 A 
ATOM     67  C   UNL A   1      34.811  35.350  32.818  1.00  0.00     0.001 A 
ATOM     68  C   UNL A   1      34.628  33.098  33.641  1.00  0.00     0.001 A 
ATOM     69  C   UNL A   1      34.022  34.255  33.146  1.00  0.00     0.000 A 
ENDBRANCH  45  64
BRANCH  57  70
ATOM     70  C   UNL A   1      42.331  29.383  34.235  1.00  0.00    -0.014 A 
ATOM     71  C   UNL A   1      41.750  28.583  35.225  1.00  0.00     0.009 A 
ATOM     72  C   UNL A   1      43.695  29.156  33.941  1.00  0.00     0.009 A 
ATOM     73  C   UNL A   1      42.508  27.642  35.926  1.00  0.00     0.001 A 
ATOM     74  C   UNL A   1      44.434  28.172  34.589  1.00  0.00     0.001 A 
ATOM     75  C   UNL A   1      43.843  27.426  35.597  1.00  0.00     0.000 A 
ENDBRANCH  57  70
ENDBRANCH  31  32
ENDBRANCH  24  26
ENDBRANCH  23  24
ENDBRANCH  22  23
ENDBRANCH   1  22
TORSDOF 13
ENDMDL
MODEL 2
REMARK VINA RESULT:     -11.6      2.168      2.971
REMARK SMILES Cc1ccc(C(=O)OCCOC(=O)c2ccc(-c3c4nc(c(-c5ccccc5)c5ccc([nH]5)c(-c5ccccc5)c5nc(c(-c6ccccc6)c6ccc3[nH]6)C=C5)C=C4)cc2)cc1NC(=O)c1ccc(Br)o1
REMARK SMILES IDX 9 1 8 2 6 3 7 4 5 5 1 6 2 7 3 8 63 9 4 10 62 11 64 12 65 13
REMARK SMILES IDX 66 15 67 16 68 17 72 18 69 19 70 20 71 21 10 22 11 23 12 24
REMARK SMILES IDX 13 25 14 26 15 27 61 28 16 29 60 30 17 31 18 32 19 33 54 34
REMARK SMILES IDX 20 35 59 36 53 37 55 38 21 39 58 40 52 41 51 42 22 44 44 45
REMARK SMILES IDX 29 46 43 47 30 48 33 49 42 50 56 51 31 52 32 53 41 55 57 56
REMARK SMILES IDX 34 57 23 58 24 59 28 60 25 61 27 62 26 63 45 64 46 65 50 66
REMARK SMILES IDX 47 67 49 68 48 69 35 70 36 71 40 72 37 73 39 74 38 75
REMARK H PARENT 64 14 55 43 33 54
REMARK Flexibility Score: inf
ROOT
ATOM      1  C   UNL A   1      32.119  31.499  27.053  1.00  0.00     0.275 C 
ENDROOT
BRANCH   1   2
ATOM      2  O   UNL A   1      33.300  30.932  26.467  1.00  0.00    -0.458 OA
BRANCH   2   3
ATOM      3  C   UNL A   1      33.456  29.629  26.789  1.00  0.00     0.338 C 
ATOM      4  O   UNL A   1      34.157  29.179  27.687  1.00  0.00    -0.246 OA
BRANCH   3   5
ATOM      5  C   UNL A   1      32.881  28.692  25.825  1.00  0.00     0.062 A 
ATOM      6  C   UNL A   1      29.704  26.188  24.398  1.00  0.00     0.046 C 
ATOM      7  C   UNL A   1      30.863  26.990  24.924  1.00  0.00    -0.027 A 
ATOM      8  C   UNL A   1      31.126  28.219  24.272  1.00  0.00     0.006 A 
ATOM      9  C   UNL A   1      31.642  26.629  26.041  1.00  0.00     0.045 A 
ATOM     10  C   UNL A   1      32.096  29.098  24.756  1.00  0.00     0.016 A 
ATOM     11  C   UNL A   1      32.730  27.425  26.373  1.00  0.00     0.042 A 
BRANCH   9  12
ATOM     12  N   UNL A   1      31.321  25.519  26.851  1.00  0.00    -0.319 N 
ATOM     13  C   UNL A   1      31.645  24.171  26.708  1.00  0.00     0.291 C 
ATOM     14  H   UNL A   1      30.781  25.731  27.646  1.00  0.00     0.170 HD
ATOM     15  O   UNL A   1      31.048  23.366  27.426  1.00  0.00    -0.265 OA
BRANCH  13  16
ATOM     16  C   UNL A   1      32.711  23.759  25.812  1.00  0.00     0.193 A 
ATOM     17  C   UNL A   1      32.707  22.999  24.656  1.00  0.00     0.057 A 
ATOM     18  O   UNL A   1      34.005  24.099  26.122  1.00  0.00    -0.444 OA
ATOM     19  C   UNL A   1      34.061  22.851  24.257  1.00  0.00     0.059 A 
ATOM     20  C   UNL A   1      34.812  23.516  25.194  1.00  0.00     0.170 A 
ATOM     21  Br  UNL A   1      36.678  23.553  25.221  1.00  0.00    -0.008 Br
ENDBRANCH  13  16
ENDBRANCH   9  12
ENDBRANCH   3   5
ENDBRANCH   2   3
ENDBRANCH   1   2
BRANCH   1  22
ATOM     22  C   UNL A   1      32.037  33.021  26.912  1.00  0.00     0.275 C 
BRANCH  22  23
ATOM     23  O   UNL A   1      32.167  33.865  28.093  1.00  0.00    -0.458 OA
BRANCH  23  24
ATOM     24  C   UNL A   1      33.259  34.522  28.539  1.00  0.00     0.338 C 
ATOM     25  O   UNL A   1      33.270  35.743  28.693  1.00  0.00    -0.246 OA
BRANCH  24  26
ATOM     26  C   UNL A   1      34.461  33.733  28.828  1.00  0.00     0.060 A 
ATOM     27  C   UNL A   1      34.372  32.678  29.754  1.00  0.00     0.016 A 
ATOM     28  C   UNL A   1      35.639  33.990  28.133  1.00  0.00     0.016 A 
ATOM     29  C   UNL A   1      35.445  31.821  29.934  1.00  0.00     0.010 A 
ATOM     30  C   UNL A   1      36.650  33.070  28.195  1.00  0.00     0.010 A 
ATOM     31  C   UNL A   1      36.571  32.044  29.152  1.00  0.00    -0.014 A 
BRANCH  31  32
ATOM     32  C   UNL A   1      37.883  31.560  29.533  1.00  0.00     0.031 A 
ATOM     33  C   UNL A   1      38.337  30.242  29.091  1.00  0.00     0.074 A 
ATOM     34  C   UNL A   1      38.581  32.583  30.074  1.00  0.00     0.049 A 
ATOM     35  N   UNL A   1      39.263  29.542  29.638  1.00  0.00    -0.248 NA
ATOM     36  C   UNL A   1      37.702  29.539  27.978  1.00  0.00     0.031 C 
ATOM     37  C   UNL A   1      39.990  32.842  30.263  1.00  0.00     0.029 A 
ATOM     38  N   UNL A   1      37.967  33.664  30.723  1.00  0.00    -0.354 N 
ATOM     39  C   UNL A   1      39.637  28.606  28.689  1.00  0.00     0.074 A 
ATOM     40  C   UNL A   1      38.514  28.490  27.799  1.00  0.00     0.031 C 
ATOM     41  C   UNL A   1      40.120  33.782  31.226  1.00  0.00     0.029 A 
ATOM     42  C   UNL A   1      38.787  34.055  31.768  1.00  0.00     0.049 A 
ATOM     43  H   UNL A   1      37.107  34.073  30.479  1.00  0.00     0.167 HD
ATOM     44  C   UNL A   1      40.956  28.277  28.588  1.00  0.00     0.031 A 
ATOM     45  C   UNL A   1      38.348  33.716  33.020  1.00  0.00     0.031 A 
ATOM     46  C   UNL A   1      41.716  29.021  29.593  1.00  0.00     0.049 A 
ATOM     47  C   UNL A   1      39.210  32.595  33.558  1.00  0.00     0.074 A 
ATOM     48  C   UNL A   1      42.426  30.207  29.500  1.00  0.00     0.029 A 
ATOM     49  N   UNL A   1      41.424  28.835  30.939  1.00  0.00    -0.354 N 
ATOM     50  N   UNL A   1      39.701  31.619  32.839  1.00  0.00    -0.248 NA
ATOM     51  C   UNL A   1      39.685  32.587  34.936  1.00  0.00     0.031 C 
ATOM     52  C   UNL A   1      42.458  30.790  30.797  1.00  0.00     0.029 A 
ATOM     53  C   UNL A   1      41.750  29.969  31.661  1.00  0.00     0.049 A 
ATOM     54  H   UNL A   1      41.041  28.014  31.323  1.00  0.00     0.167 HD
ATOM     55  C   UNL A   1      40.644  30.958  33.582  1.00  0.00     0.074 A 
ATOM     56  C   UNL A   1      40.557  31.566  34.902  1.00  0.00     0.031 C 
ATOM     57  C   UNL A   1      41.498  30.013  33.090  1.00  0.00     0.031 A 
BRANCH  44  58
ATOM     58  C   UNL A   1      41.605  27.631  27.383  1.00  0.00    -0.014 A 
ATOM     59  C   UNL A   1      42.056  26.299  27.489  1.00  0.00     0.009 A 
ATOM     60  C   UNL A   1      41.827  28.256  26.144  1.00  0.00     0.009 A 
ATOM     61  C   UNL A   1      42.746  25.653  26.456  1.00  0.00     0.001 A 
ATOM     62  C   UNL A   1      42.530  27.617  25.107  1.00  0.00     0.001 A 
ATOM     63  C   UNL A   1      42.997  26.318  25.266  1.00  0.00     0.000 A 
ENDBRANCH  44  58
BRANCH  45  64
ATOM     64  C   UNL A   1      36.855  33.849  33.219  1.00  0.00    -0.014 A 
ATOM     65  C   UNL A   1      36.241  35.089  32.907  1.00  0.00     0.009 A 
ATOM     66  C   UNL A   1      36.008  32.758  33.457  1.00  0.00     0.009 A 
ATOM     67  C   UNL A   1      34.855  35.208  32.737  1.00  0.00     0.001 A 
ATOM     68  C   UNL A   1      34.611  32.888  33.317  1.00  0.00     0.001 A 
ATOM     69  C   UNL A   1      34.039  34.102  32.932  1.00  0.00     0.000 A 
ENDBRANCH  45  64
BRANCH  57  70
ATOM     70  C   UNL A   1      42.268  29.047  33.947  1.00  0.00    -0.014 A 
ATOM     71  C   UNL A   1      41.728  27.845  34.416  1.00  0.00     0.009 A 
ATOM     72  C   UNL A   1      43.655  29.247  34.132  1.00  0.00     0.009 A 
ATOM     73  C   UNL A   1      42.522  26.914  35.088  1.00  0.00     0.001 A 
ATOM     74  C   UNL A   1      44.462  28.290  34.739  1.00  0.00     0.001 A 
ATOM     75  C   UNL A   1      43.890  27.129  35.235  1.00  0.00     0.000 A 
ENDBRANCH  57  70
ENDBRANCH  31  32
ENDBRANCH  24  26
ENDBRANCH  23  24
ENDBRANCH  22  23
ENDBRANCH   1  22
TORSDOF 13
ENDMDL
MODEL 3
REMARK VINA RESULT:     -11.3      4.766     10.133
REMARK SMILES Cc1ccc(C(=O)OCCOC(=O)c2ccc(-c3c4nc(c(-c5ccccc5)c5ccc([nH]5)c(-c5ccccc5)c5nc(c(-c6ccccc6)c6ccc3[nH]6)C=C5)C=C4)cc2)cc1NC(=O)c1ccc(Br)o1
REMARK SMILES IDX 9 1 8 2 6 3 7 4 5 5 1 6 2 7 3 8 63 9 4 10 62 11 64 12 65 13
REMARK SMILES IDX 66 15 67 16 68 17 72 18 69 19 70 20 71 21 10 22 11 23 12 24
REMARK SMILES IDX 13 25 14 26 15 27 61 28 16 29 60 30 17 31 18 32 19 33 54 34
REMARK SMILES IDX 20 35 59 36 53 37 55 38 21 39 58 40 52 41 51 42 22 44 44 45
REMARK SMILES IDX 29 46 43 47 30 48 33 49 42 50 56 51 31 52 32 53 41 55 57 56
REMARK SMILES IDX 34 57 23 58 24 59 28 60 25 61 27 62 26 63 45 64 46 65 50 66
REMARK SMILES IDX 47 67 49 68 48 69 35 70 36 71 40 72 37 73 39 74 38 75
REMARK H PARENT 64 14 55 43 33 54
REMARK Flexibility Score: inf
ROOT
ATOM      1  C   UNL A   1      38.280  19.690  24.648  1.00  0.00     0.275 C 
ENDROOT
BRANCH   1   2
ATOM      2  O   UNL A   1      36.936  19.928  25.091  1.00  0.00    -0.458 OA
BRANCH   2   3
ATOM      3  C   UNL A   1      36.674  21.244  25.249  1.00  0.00     0.338 C 
ATOM      4  O   UNL A   1      37.446  22.094  25.674  1.00  0.00    -0.246 OA
BRANCH   3   5
ATOM      5  C   UNL A   1      35.268  21.608  25.080  1.00  0.00     0.062 A 
ATOM      6  C   UNL A   1      31.778  22.250  22.670  1.00  0.00     0.046 C 
ATOM      7  C   UNL A   1      33.010  22.116  23.523  1.00  0.00    -0.027 A 
ATOM      8  C   UNL A   1      33.092  20.958  24.333  1.00  0.00     0.006 A 
ATOM      9  C   UNL A   1      34.089  23.022  23.515  1.00  0.00     0.045 A 
ATOM     10  C   UNL A   1      34.244  20.673  25.068  1.00  0.00     0.016 A 
ATOM     11  C   UNL A   1      35.131  22.816  24.409  1.00  0.00     0.042 A 
BRANCH   9  12
ATOM     12  N   UNL A   1      34.161  24.094  22.600  1.00  0.00    -0.319 N 
ATOM     13  C   UNL A   1      33.646  25.386  22.679  1.00  0.00     0.291 C 
ATOM     14  H   UNL A   1      34.655  23.895  21.772  1.00  0.00     0.170 HD
ATOM     15  O   UNL A   1      33.646  26.059  21.646  1.00  0.00    -0.265 OA
BRANCH  13  16
ATOM     16  C   UNL A   1      33.218  25.934  23.953  1.00  0.00     0.193 A 
ATOM     17  C   UNL A   1      32.174  25.605  24.799  1.00  0.00     0.057 A 
ATOM     18  O   UNL A   1      33.886  27.020  24.465  1.00  0.00    -0.444 OA
ATOM     19  C   UNL A   1      32.194  26.546  25.861  1.00  0.00     0.059 A 
ATOM     20  C   UNL A   1      33.237  27.399  25.599  1.00  0.00     0.170 A 
ATOM     21  Br  UNL A   1      33.655  28.903  26.622  1.00  0.00    -0.008 Br
ENDBRANCH  13  16
ENDBRANCH   9  12
ENDBRANCH   3   5
ENDBRANCH   2   3
ENDBRANCH   1   2
BRANCH   1  22
ATOM     22  C   UNL A   1      39.207  19.177  25.753  1.00  0.00     0.275 C 
BRANCH  22  23
ATOM     23  O   UNL A   1      40.635  19.040  25.495  1.00  0.00    -0.458 OA
BRANCH  23  24
ATOM     24  C   UNL A   1      41.669  19.395  26.287  1.00  0.00     0.338 C 
ATOM     25  O   UNL A   1      42.515  18.584  26.661  1.00  0.00    -0.246 OA
BRANCH  24  26
ATOM     26  C   UNL A   1      41.754  20.797  26.712  1.00  0.00     0.060 A 
ATOM     27  C   UNL A   1      41.806  21.801  25.728  1.00  0.00     0.016 A 
ATOM     28  C   UNL A   1      41.706  21.112  28.066  1.00  0.00     0.016 A 
ATOM     29  C   UNL A   1      41.732  23.135  26.093  1.00  0.00     0.010 A 
ATOM     30  C   UNL A   1      41.489  22.413  28.429  1.00  0.00     0.010 A 
ATOM     31  C   UNL A   1      41.585  23.413  27.447  1.00  0.00    -0.014 A 
BRANCH  31  32
ATOM     32  C   UNL A   1      41.950  24.695  28.015  1.00  0.00     0.031 A 
ATOM     33  C   UNL A   1      40.955  25.760  28.126  1.00  0.00     0.074 A 
ATOM     34  C   UNL A   1      43.170  24.582  28.586  1.00  0.00     0.049 A 
ATOM     35  N   UNL A   1      41.204  27.014  28.238  1.00  0.00    -0.248 NA
ATOM     36  C   UNL A   1      39.521  25.490  28.046  1.00  0.00     0.031 C 
ATOM     37  C   UNL A   1      43.870  25.331  29.605  1.00  0.00     0.029 A 
ATOM     38  N   UNL A   1      44.131  23.657  28.153  1.00  0.00    -0.354 N 
ATOM     39  C   UNL A   1      40.039  27.586  28.719  1.00  0.00     0.074 A 
ATOM     40  C   UNL A   1      38.986  26.674  28.365  1.00  0.00     0.031 C 
ATOM     41  C   UNL A   1      45.190  25.071  29.487  1.00  0.00     0.029 A 
ATOM     42  C   UNL A   1      45.378  24.240  28.295  1.00  0.00     0.049 A 
ATOM     43  H   UNL A   1      43.950  22.753  27.810  1.00  0.00     0.167 HD
ATOM     44  C   UNL A   1      40.141  28.599  29.627  1.00  0.00     0.031 A 
ATOM     45  C   UNL A   1      45.979  24.635  27.130  1.00  0.00     0.031 A 
ATOM     46  C   UNL A   1      41.556  28.881  29.875  1.00  0.00     0.049 A 
ATOM     47  C   UNL A   1      45.950  26.146  27.048  1.00  0.00     0.074 A 
ATOM     48  C   UNL A   1      42.406  28.444  30.878  1.00  0.00     0.029 A 
ATOM     49  N   UNL A   1      42.362  29.290  28.820  1.00  0.00    -0.354 N 
ATOM     50  N   UNL A   1      44.964  26.897  27.469  1.00  0.00    -0.248 NA
ATOM     51  C   UNL A   1      47.105  26.913  26.601  1.00  0.00     0.031 C 
ATOM     52  C   UNL A   1      43.732  28.491  30.367  1.00  0.00     0.029 A 
ATOM     53  C   UNL A   1      43.677  28.932  29.054  1.00  0.00     0.049 A 
ATOM     54  H   UNL A   1      42.042  29.768  28.020  1.00  0.00     0.167 HD
ATOM     55  C   UNL A   1      45.388  28.200  27.495  1.00  0.00     0.074 A 
ATOM     56  C   UNL A   1      46.712  28.164  26.892  1.00  0.00     0.031 C 
ATOM     57  C   UNL A   1      44.695  29.231  28.063  1.00  0.00     0.031 A 
BRANCH  44  58
ATOM     58  C   UNL A   1      39.040  29.048  30.562  1.00  0.00    -0.014 A 
ATOM     59  C   UNL A   1      38.420  30.293  30.330  1.00  0.00     0.009 A 
ATOM     60  C   UNL A   1      38.581  28.335  31.682  1.00  0.00     0.009 A 
ATOM     61  C   UNL A   1      37.455  30.827  31.194  1.00  0.00     0.001 A 
ATOM     62  C   UNL A   1      37.622  28.871  32.561  1.00  0.00     0.001 A 
ATOM     63  C   UNL A   1      37.066  30.121  32.320  1.00  0.00     0.000 A 
ENDBRANCH  44  58
BRANCH  45  64
ATOM     64  C   UNL A   1      45.783  23.688  25.969  1.00  0.00    -0.014 A 
ATOM     65  C   UNL A   1      46.030  22.307  26.174  1.00  0.00     0.009 A 
ATOM     66  C   UNL A   1      45.138  24.051  24.778  1.00  0.00     0.009 A 
ATOM     67  C   UNL A   1      45.564  21.329  25.286  1.00  0.00     0.001 A 
ATOM     68  C   UNL A   1      44.697  23.067  23.869  1.00  0.00     0.001 A 
ATOM     69  C   UNL A   1      44.887  21.710  24.135  1.00  0.00     0.000 A 
ENDBRANCH  45  64
BRANCH  57  70
ATOM     70  C   UNL A   1      44.969  30.683  27.786  1.00  0.00    -0.014 A 
ATOM     71  C   UNL A   1      44.265  31.423  26.830  1.00  0.00     0.009 A 
ATOM     72  C   UNL A   1      45.829  31.397  28.650  1.00  0.00     0.009 A 
ATOM     73  C   UNL A   1      44.455  32.801  26.705  1.00  0.00     0.001 A 
ATOM     74  C   UNL A   1      45.967  32.780  28.574  1.00  0.00     0.001 A 
ATOM     75  C   UNL A   1      45.292  33.480  27.586  1.00  0.00     0.000 A 
ENDBRANCH  57  70
ENDBRANCH  31  32
ENDBRANCH  24  26
ENDBRANCH  23  24
ENDBRANCH  22  23
ENDBRANCH   1  22
TORSDOF 13
ENDMDL
