MODEL 1
REMARK VINA RESULT:     -13.2      0.000      0.000
REMARK SMILES Cc1c(C(=O)OCCOC(=O)c2ccc(-c3c4nc(c(-c5ccccc5)c5ccc([nH]5)c(-c5ccccc5)c5nc(c(-c6ccccc6)c6ccc3[nH]6)C=C5)C=C4)cc2)cccc1-n1c(C)cc(/C=C2/C(=O)NC(=S)N=C2O)c1C
REMARK SMILES IDX 7 1 6 2 4 3 5 4 3 5 1 6 2 7 63 8 60 9 62 10 61 11 64 12
REMARK SMILES IDX 65 13 79 14 66 15 67 16 68 17 80 18 69 19 70 20 71 21 77 22
REMARK SMILES IDX 72 23 73 24 76 25 74 26 75 28 78 29 8 31 9 32 10 33 11 34
REMARK SMILES IDX 12 35 13 36 59 37 14 38 58 39 15 40 16 41 17 42 52 43 18 44
REMARK SMILES IDX 57 45 51 46 53 47 19 48 56 49 50 50 49 51 20 53 42 54 27 55
REMARK SMILES IDX 41 56 28 57 31 58 40 59 54 60 29 61 30 62 39 64 55 65 32 66
REMARK SMILES IDX 21 67 22 68 26 69 23 70 25 71 24 72 43 73 44 74 48 75 45 76
REMARK SMILES IDX 47 77 46 78 33 79 34 80 38 81 35 82 37 83 36 84
REMARK H PARENT 73 27 78 30 53 52 31 63
REMARK Flexibility Score: inf
ROOT
ATOM      1  C   UNL A   1      31.443  29.547  25.927  1.00  0.00     0.275 C 
ENDROOT
BRANCH   1   2
ATOM      2  O   UNL A   1      31.123  29.156  24.588  1.00  0.00    -0.458 OA
BRANCH   2   3
ATOM      3  C   UNL A   1      32.192  28.617  23.958  1.00  0.00     0.338 C 
ATOM      4  O   UNL A   1      32.635  28.969  22.874  1.00  0.00    -0.246 OA
BRANCH   3   5
ATOM      5  C   UNL A   1      32.743  27.439  24.645  1.00  0.00     0.065 A 
ATOM      6  C   UNL A   1      31.139  26.111  23.227  1.00  0.00     0.047 C 
ATOM      7  C   UNL A   1      32.328  26.194  24.160  1.00  0.00    -0.012 A 
ATOM      8  C   UNL A   1      32.995  25.064  24.652  1.00  0.00     0.049 A 
ATOM      9  C   UNL A   1      33.692  27.534  25.676  1.00  0.00     0.016 A 
ATOM     10  C   UNL A   1      34.022  25.150  25.603  1.00  0.00     0.027 A 
ATOM     11  C   UNL A   1      34.360  26.393  26.126  1.00  0.00     0.003 A 
BRANCH   8  12
ATOM     12  N   UNL A   1      32.350  23.821  24.521  1.00  0.00    -0.318 N 
ATOM     13  C   UNL A   1      31.444  23.269  25.405  1.00  0.00     0.020 A 
ATOM     14  C   UNL A   1      32.876  22.824  23.705  1.00  0.00     0.027 A 
ATOM     15  C   UNL A   1      30.872  24.016  26.563  1.00  0.00     0.065 C 
ATOM     16  C   UNL A   1      31.250  21.959  25.008  1.00  0.00     0.031 A 
ATOM     17  C   UNL A   1      32.112  21.691  23.908  1.00  0.00    -0.003 A 
ATOM     18  C   UNL A   1      34.114  23.078  22.892  1.00  0.00     0.065 C 
BRANCH  17  19
ATOM     19  C   UNL A   1      32.282  20.405  23.312  1.00  0.00     0.029 C 
ATOM     20  C   UNL A   1      32.697  19.237  23.836  1.00  0.00     0.102 C 
ATOM     21  C   UNL A   1      32.541  18.044  22.971  1.00  0.00     0.262 C 
ATOM     22  C   UNL A   1      33.173  18.922  25.185  1.00  0.00     0.226 C 
ATOM     23  O   UNL A   1      32.382  18.085  21.757  1.00  0.00    -0.269 OA
ATOM     24  N   UNL A   1      32.529  16.861  23.663  1.00  0.00    -0.297 N 
ATOM     25  N   UNL A   1      33.181  17.767  25.744  1.00  0.00    -0.184 NA
ATOM     26  C   UNL A   1      32.747  16.697  25.008  1.00  0.00     0.203 C 
ATOM     27  H   UNL A   1      32.345  16.046  23.141  1.00  0.00     0.172 HD
ATOM     28  S   UNL A   1      32.528  15.166  25.651  1.00  0.00    -0.038 S 
BRANCH  22  29
ATOM     29  O   UNL A   1      33.710  19.925  25.882  1.00  0.00    -0.493 OA
ATOM     30  H   UNL A   1      33.167  20.460  26.428  1.00  0.00     0.295 HD
ENDBRANCH  22  29
ENDBRANCH  17  19
ENDBRANCH   8  12
ENDBRANCH   3   5
ENDBRANCH   2   3
ENDBRANCH   1   2
BRANCH   1  31
ATOM     31  C   UNL A   1      32.246  30.844  25.995  1.00  0.00     0.275 C 
BRANCH  31  32
ATOM     32  O   UNL A   1      32.245  31.611  27.234  1.00  0.00    -0.458 OA
BRANCH  32  33
ATOM     33  C   UNL A   1      33.057  32.615  27.644  1.00  0.00     0.338 C 
ATOM     34  O   UNL A   1      32.658  33.775  27.716  1.00  0.00    -0.246 OA
BRANCH  33  35
ATOM     35  C   UNL A   1      34.436  32.295  28.050  1.00  0.00     0.060 A 
ATOM     36  C   UNL A   1      35.445  33.261  27.877  1.00  0.00     0.016 A 
ATOM     37  C   UNL A   1      34.713  31.090  28.680  1.00  0.00     0.016 A 
ATOM     38  C   UNL A   1      36.692  33.086  28.461  1.00  0.00     0.010 A 
ATOM     39  C   UNL A   1      35.896  30.960  29.361  1.00  0.00     0.010 A 
ATOM     40  C   UNL A   1      36.893  31.936  29.217  1.00  0.00    -0.014 A 
BRANCH  40  41
ATOM     41  C   UNL A   1      38.212  31.464  29.589  1.00  0.00     0.031 A 
ATOM     42  C   UNL A   1      38.747  30.190  29.101  1.00  0.00     0.074 A 
ATOM     43  C   UNL A   1      38.838  32.341  30.403  1.00  0.00     0.049 A 
ATOM     44  N   UNL A   1      39.409  29.359  29.834  1.00  0.00    -0.248 NA
ATOM     45  C   UNL A   1      38.522  29.696  27.741  1.00  0.00     0.031 C 
ATOM     46  C   UNL A   1      40.205  32.450  30.862  1.00  0.00     0.029 A 
ATOM     47  N   UNL A   1      38.182  33.332  31.128  1.00  0.00    -0.354 N 
ATOM     48  C   UNL A   1      40.017  28.493  28.949  1.00  0.00     0.074 A 
ATOM     49  C   UNL A   1      39.272  28.587  27.718  1.00  0.00     0.031 C 
ATOM     50  C   UNL A   1      40.219  33.241  31.960  1.00  0.00     0.029 A 
ATOM     51  C   UNL A   1      38.831  33.530  32.327  1.00  0.00     0.049 A 
ATOM     52  H   UNL A   1      37.377  33.816  30.831  1.00  0.00     0.167 HD
ATOM     53  C   UNL A   1      41.280  28.050  29.199  1.00  0.00     0.031 A 
ATOM     54  C   UNL A   1      38.189  33.106  33.460  1.00  0.00     0.031 A 
ATOM     55  C   UNL A   1      41.820  28.697  30.389  1.00  0.00     0.049 A 
ATOM     56  C   UNL A   1      38.904  31.929  34.088  1.00  0.00     0.074 A 
ATOM     57  C   UNL A   1      42.646  29.800  30.538  1.00  0.00     0.029 A 
ATOM     58  N   UNL A   1      41.211  28.498  31.615  1.00  0.00    -0.354 N 
ATOM     59  N   UNL A   1      39.675  31.106  33.432  1.00  0.00    -0.248 NA
ATOM     60  C   UNL A   1      38.767  31.568  35.493  1.00  0.00     0.031 C 
ATOM     61  C   UNL A   1      42.550  30.245  31.882  1.00  0.00     0.029 A 
ATOM     62  C   UNL A   1      41.659  29.420  32.540  1.00  0.00     0.049 A 
ATOM     63  H   UNL A   1      40.550  27.795  31.802  1.00  0.00     0.167 HD
ATOM     64  C   UNL A   1      40.225  30.204  34.301  1.00  0.00     0.074 A 
ATOM     65  C   UNL A   1      39.561  30.485  35.563  1.00  0.00     0.031 C 
ATOM     66  C   UNL A   1      41.193  29.323  33.912  1.00  0.00     0.031 A 
BRANCH  53  67
ATOM     67  C   UNL A   1      42.141  27.376  28.162  1.00  0.00    -0.014 A 
ATOM     68  C   UNL A   1      42.134  25.972  28.060  1.00  0.00     0.009 A 
ATOM     69  C   UNL A   1      42.972  28.064  27.260  1.00  0.00     0.009 A 
ATOM     70  C   UNL A   1      42.961  25.282  27.170  1.00  0.00     0.001 A 
ATOM     71  C   UNL A   1      43.816  27.376  26.372  1.00  0.00     0.001 A 
ATOM     72  C   UNL A   1      43.818  25.984  26.336  1.00  0.00     0.000 A 
ENDBRANCH  53  67
BRANCH  54  73
ATOM     73  C   UNL A   1      36.687  33.255  33.443  1.00  0.00    -0.014 A 
ATOM     74  C   UNL A   1      36.103  34.446  33.934  1.00  0.00     0.009 A 
ATOM     75  C   UNL A   1      35.856  32.373  32.735  1.00  0.00     0.009 A 
ATOM     76  C   UNL A   1      34.777  34.788  33.641  1.00  0.00     0.001 A 
ATOM     77  C   UNL A   1      34.517  32.703  32.468  1.00  0.00     0.001 A 
ATOM     78  C   UNL A   1      33.986  33.921  32.896  1.00  0.00     0.000 A 
ENDBRANCH  54  73
BRANCH  66  79
ATOM     79  C   UNL A   1      41.833  28.266  34.773  1.00  0.00    -0.014 A 
ATOM     80  C   UNL A   1      42.971  28.466  35.554  1.00  0.00     0.009 A 
ATOM     81  C   UNL A   1      41.308  26.950  34.748  1.00  0.00     0.009 A 
ATOM     82  C   UNL A   1      43.480  27.442  36.363  1.00  0.00     0.001 A 
ATOM     83  C   UNL A   1      41.824  25.921  35.530  1.00  0.00     0.001 A 
ATOM     84  C   UNL A   1      42.900  26.177  36.362  1.00  0.00     0.000 A 
ENDBRANCH  66  79
ENDBRANCH  40  41
ENDBRANCH  33  35
ENDBRANCH  32  33
ENDBRANCH  31  32
ENDBRANCH   1  31
TORSDOF 14
ENDMDL
MODEL 2
REMARK VINA RESULT:     -13.1      2.727      4.680
REMARK SMILES Cc1c(C(=O)OCCOC(=O)c2ccc(-c3c4nc(c(-c5ccccc5)c5ccc([nH]5)c(-c5ccccc5)c5nc(c(-c6ccccc6)c6ccc3[nH]6)C=C5)C=C4)cc2)cccc1-n1c(C)cc(/C=C2/C(=O)NC(=S)N=C2O)c1C
REMARK SMILES IDX 7 1 6 2 4 3 5 4 3 5 1 6 2 7 63 8 60 9 62 10 61 11 64 12
REMARK SMILES IDX 65 13 79 14 66 15 67 16 68 17 80 18 69 19 70 20 71 21 77 22
REMARK SMILES IDX 72 23 73 24 76 25 74 26 75 28 78 29 8 31 9 32 10 33 11 34
REMARK SMILES IDX 12 35 13 36 59 37 14 38 58 39 15 40 16 41 17 42 52 43 18 44
REMARK SMILES IDX 57 45 51 46 53 47 19 48 56 49 50 50 49 51 20 53 42 54 27 55
REMARK SMILES IDX 41 56 28 57 31 58 40 59 54 60 29 61 30 62 39 64 55 65 32 66
REMARK SMILES IDX 21 67 22 68 26 69 23 70 25 71 24 72 43 73 44 74 48 75 45 76
REMARK SMILES IDX 47 77 46 78 33 79 34 80 38 81 35 82 37 83 36 84
REMARK H PARENT 73 27 78 30 53 52 31 63
REMARK Flexibility Score: inf
ROOT
ATOM      1  C   UNL A   1      33.066  30.229  26.006  1.00  0.00     0.275 C 
ENDROOT
BRANCH   1   2
ATOM      2  O   UNL A   1      33.563  29.360  24.982  1.00  0.00    -0.458 OA
BRANCH   2   3
ATOM      3  C   UNL A   1      32.557  28.808  24.267  1.00  0.00     0.338 C 
ATOM      4  O   UNL A   1      32.013  29.311  23.294  1.00  0.00    -0.246 OA
BRANCH   3   5
ATOM      5  C   UNL A   1      32.054  27.550  24.839  1.00  0.00     0.065 A 
ATOM      6  C   UNL A   1      33.653  26.422  23.251  1.00  0.00     0.047 C 
ATOM      7  C   UNL A   1      32.718  26.385  24.442  1.00  0.00    -0.012 A 
ATOM      8  C   UNL A   1      32.401  25.204  25.128  1.00  0.00     0.049 A 
ATOM      9  C   UNL A   1      31.020  27.505  25.789  1.00  0.00     0.016 A 
ATOM     10  C   UNL A   1      31.449  25.164  26.157  1.00  0.00     0.027 A 
ATOM     11  C   UNL A   1      30.747  26.321  26.477  1.00  0.00     0.003 A 
BRANCH   8  12
ATOM     12  N   UNL A   1      32.717  23.985  24.503  1.00  0.00    -0.318 N 
ATOM     13  C   UNL A   1      31.917  23.284  23.623  1.00  0.00     0.020 A 
ATOM     14  C   UNL A   1      33.687  23.139  25.031  1.00  0.00     0.027 A 
ATOM     15  C   UNL A   1      30.647  23.828  23.060  1.00  0.00     0.065 C 
ATOM     16  C   UNL A   1      32.511  22.048  23.445  1.00  0.00     0.031 A 
ATOM     17  C   UNL A   1      33.653  21.973  24.291  1.00  0.00    -0.003 A 
ATOM     18  C   UNL A   1      34.469  23.542  26.250  1.00  0.00     0.065 C 
BRANCH  17  19
ATOM     19  C   UNL A   1      34.447  20.801  24.472  1.00  0.00     0.029 C 
ATOM     20  C   UNL A   1      34.134  19.594  24.980  1.00  0.00     0.102 C 
ATOM     21  C   UNL A   1      35.156  18.534  24.812  1.00  0.00     0.262 C 
ATOM     22  C   UNL A   1      32.886  19.112  25.576  1.00  0.00     0.226 C 
ATOM     23  O   UNL A   1      36.336  18.743  24.556  1.00  0.00    -0.269 OA
ATOM     24  N   UNL A   1      34.651  17.263  24.908  1.00  0.00    -0.297 N 
ATOM     25  N   UNL A   1      32.509  17.890  25.680  1.00  0.00    -0.184 NA
ATOM     26  C   UNL A   1      33.365  16.917  25.239  1.00  0.00     0.203 C 
ATOM     27  H   UNL A   1      35.276  16.525  24.722  1.00  0.00     0.172 HD
ATOM     28  S   UNL A   1      32.946  15.298  25.142  1.00  0.00    -0.038 S 
BRANCH  22  29
ATOM     29  O   UNL A   1      32.086  20.031  26.119  1.00  0.00    -0.493 OA
ATOM     30  H   UNL A   1      32.362  20.501  26.882  1.00  0.00     0.295 HD
ENDBRANCH  22  29
ENDBRANCH  17  19
ENDBRANCH   8  12
ENDBRANCH   3   5
ENDBRANCH   2   3
ENDBRANCH   1   2
BRANCH   1  31
ATOM     31  C   UNL A   1      33.865  30.139  27.305  1.00  0.00     0.275 C 
BRANCH  31  32
ATOM     32  O   UNL A   1      35.270  29.754  27.245  1.00  0.00    -0.458 OA
BRANCH  32  33
ATOM     33  C   UNL A   1      36.338  30.230  27.928  1.00  0.00     0.338 C 
ATOM     34  O   UNL A   1      36.296  31.309  28.515  1.00  0.00    -0.246 OA
BRANCH  33  35
ATOM     35  C   UNL A   1      37.561  29.413  27.998  1.00  0.00     0.060 A 
ATOM     36  C   UNL A   1      38.531  29.538  26.985  1.00  0.00     0.016 A 
ATOM     37  C   UNL A   1      37.792  28.600  29.099  1.00  0.00     0.016 A 
ATOM     38  C   UNL A   1      39.787  28.969  27.141  1.00  0.00     0.010 A 
ATOM     39  C   UNL A   1      39.063  28.137  29.320  1.00  0.00     0.010 A 
ATOM     40  C   UNL A   1      40.042  28.287  28.327  1.00  0.00    -0.014 A 
BRANCH  40  41
ATOM     41  C   UNL A   1      41.157  27.374  28.480  1.00  0.00     0.031 A 
ATOM     42  C   UNL A   1      41.014  25.932  28.264  1.00  0.00     0.074 A 
ATOM     43  C   UNL A   1      42.287  28.029  28.825  1.00  0.00     0.049 A 
ATOM     44  N   UNL A   1      41.555  25.034  29.018  1.00  0.00    -0.248 NA
ATOM     45  C   UNL A   1      40.181  25.360  27.204  1.00  0.00     0.031 C 
ATOM     46  C   UNL A   1      43.675  27.628  28.881  1.00  0.00     0.029 A 
ATOM     47  N   UNL A   1      42.306  29.309  29.373  1.00  0.00    -0.354 N 
ATOM     48  C   UNL A   1      41.482  23.859  28.299  1.00  0.00     0.074 A 
ATOM     49  C   UNL A   1      40.443  24.051  27.318  1.00  0.00     0.031 C 
ATOM     50  C   UNL A   1      44.337  28.511  29.664  1.00  0.00     0.029 A 
ATOM     51  C   UNL A   1      43.351  29.411  30.264  1.00  0.00     0.049 A 
ATOM     52  H   UNL A   1      41.670  30.029  29.158  1.00  0.00     0.167 HD
ATOM     53  C   UNL A   1      42.516  22.974  28.346  1.00  0.00     0.031 A 
ATOM     54  C   UNL A   1      43.031  29.491  31.593  1.00  0.00     0.031 A 
ATOM     55  C   UNL A   1      43.620  23.523  29.125  1.00  0.00     0.049 A 
ATOM     56  C   UNL A   1      43.461  28.245  32.336  1.00  0.00     0.074 A 
ATOM     57  C   UNL A   1      44.775  24.185  28.741  1.00  0.00     0.029 A 
ATOM     58  N   UNL A   1      43.438  23.804  30.467  1.00  0.00    -0.354 N 
ATOM     59  N   UNL A   1      43.624  27.077  31.776  1.00  0.00    -0.248 NA
ATOM     60  C   UNL A   1      43.696  28.213  33.774  1.00  0.00     0.031 C 
ATOM     61  C   UNL A   1      45.306  24.845  29.880  1.00  0.00     0.029 A 
ATOM     62  C   UNL A   1      44.466  24.592  30.947  1.00  0.00     0.049 A 
ATOM     63  H   UNL A   1      42.681  23.485  31.008  1.00  0.00     0.167 HD
ATOM     64  C   UNL A   1      44.089  26.186  32.704  1.00  0.00     0.074 A 
ATOM     65  C   UNL A   1      44.037  26.925  33.955  1.00  0.00     0.031 C 
ATOM     66  C   UNL A   1      44.495  24.929  32.359  1.00  0.00     0.031 A 
BRANCH  53  67
ATOM     67  C   UNL A   1      42.680  21.840  27.367  1.00  0.00    -0.014 A 
ATOM     68  C   UNL A   1      41.963  20.644  27.566  1.00  0.00     0.009 A 
ATOM     69  C   UNL A   1      43.515  21.887  26.238  1.00  0.00     0.009 A 
ATOM     70  C   UNL A   1      42.122  19.530  26.738  1.00  0.00     0.001 A 
ATOM     71  C   UNL A   1      43.690  20.766  25.409  1.00  0.00     0.001 A 
ATOM     72  C   UNL A   1      43.001  19.584  25.667  1.00  0.00     0.000 A 
ENDBRANCH  53  67
BRANCH  54  73
ATOM     73  C   UNL A   1      41.766  30.251  31.906  1.00  0.00    -0.014 A 
ATOM     74  C   UNL A   1      41.694  31.632  31.605  1.00  0.00     0.009 A 
ATOM     75  C   UNL A   1      40.569  29.603  32.251  1.00  0.00     0.009 A 
ATOM     76  C   UNL A   1      40.468  32.308  31.550  1.00  0.00     0.001 A 
ATOM     77  C   UNL A   1      39.344  30.291  32.226  1.00  0.00     0.001 A 
ATOM     78  C   UNL A   1      39.290  31.634  31.848  1.00  0.00     0.000 A 
ENDBRANCH  54  73
BRANCH  66  79
ATOM     79  C   UNL A   1      44.980  23.860  33.301  1.00  0.00    -0.014 A 
ATOM     80  C   UNL A   1      44.203  22.790  33.747  1.00  0.00     0.009 A 
ATOM     81  C   UNL A   1      46.284  23.963  33.846  1.00  0.00     0.009 A 
ATOM     82  C   UNL A   1      44.742  21.810  34.591  1.00  0.00     0.001 A 
ATOM     83  C   UNL A   1      46.817  23.006  34.705  1.00  0.00     0.001 A 
ATOM     84  C   UNL A   1      46.050  21.910  35.057  1.00  0.00     0.000 A 
ENDBRANCH  66  79
ENDBRANCH  40  41
ENDBRANCH  33  35
ENDBRANCH  32  33
ENDBRANCH  31  32
ENDBRANCH   1  31
TORSDOF 14
ENDMDL
MODEL 3
REMARK VINA RESULT:     -12.9      1.242      1.986
REMARK SMILES Cc1c(C(=O)OCCOC(=O)c2ccc(-c3c4nc(c(-c5ccccc5)c5ccc([nH]5)c(-c5ccccc5)c5nc(c(-c6ccccc6)c6ccc3[nH]6)C=C5)C=C4)cc2)cccc1-n1c(C)cc(/C=C2/C(=O)NC(=S)N=C2O)c1C
REMARK SMILES IDX 7 1 6 2 4 3 5 4 3 5 1 6 2 7 63 8 60 9 62 10 61 11 64 12
REMARK SMILES IDX 65 13 79 14 66 15 67 16 68 17 80 18 69 19 70 20 71 21 77 22
REMARK SMILES IDX 72 23 73 24 76 25 74 26 75 28 78 29 8 31 9 32 10 33 11 34
REMARK SMILES IDX 12 35 13 36 59 37 14 38 58 39 15 40 16 41 17 42 52 43 18 44
REMARK SMILES IDX 57 45 51 46 53 47 19 48 56 49 50 50 49 51 20 53 42 54 27 55
REMARK SMILES IDX 41 56 28 57 31 58 40 59 54 60 29 61 30 62 39 64 55 65 32 66
REMARK SMILES IDX 21 67 22 68 26 69 23 70 25 71 24 72 43 73 44 74 48 75 45 76
REMARK SMILES IDX 47 77 46 78 33 79 34 80 38 81 35 82 37 83 36 84
REMARK H PARENT 73 27 78 30 53 52 31 63
REMARK Flexibility Score: inf
ROOT
ATOM      1  C   UNL A   1      31.372  30.887  25.924  1.00  0.00     0.275 C 
ENDROOT
BRANCH   1   2
ATOM      2  O   UNL A   1      31.707  29.651  25.285  1.00  0.00    -0.458 OA
BRANCH   2   3
ATOM      3  C   UNL A   1      30.896  29.399  24.232  1.00  0.00     0.338 C 
ATOM      4  O   UNL A   1      30.317  30.240  23.559  1.00  0.00    -0.246 OA
BRANCH   3   5
ATOM      5  C   UNL A   1      30.648  27.966  24.014  1.00  0.00     0.065 A 
ATOM      6  C   UNL A   1      33.157  27.735  24.030  1.00  0.00     0.047 C 
ATOM      7  C   UNL A   1      31.769  27.132  24.076  1.00  0.00    -0.012 A 
ATOM      8  C   UNL A   1      31.536  25.749  24.083  1.00  0.00     0.049 A 
ATOM      9  C   UNL A   1      29.361  27.434  23.831  1.00  0.00     0.016 A 
ATOM     10  C   UNL A   1      30.247  25.203  24.012  1.00  0.00     0.027 A 
ATOM     11  C   UNL A   1      29.156  26.053  23.872  1.00  0.00     0.003 A 
BRANCH   8  12
ATOM     12  N   UNL A   1      32.606  24.909  23.728  1.00  0.00    -0.318 N 
ATOM     13  C   UNL A   1      32.991  24.569  22.446  1.00  0.00     0.020 A 
ATOM     14  C   UNL A   1      33.125  23.989  24.633  1.00  0.00     0.027 A 
ATOM     15  C   UNL A   1      32.421  25.207  21.224  1.00  0.00     0.065 C 
ATOM     16  C   UNL A   1      33.920  23.552  22.567  1.00  0.00     0.031 A 
ATOM     17  C   UNL A   1      34.044  23.219  23.946  1.00  0.00    -0.003 A 
ATOM     18  C   UNL A   1      32.596  23.919  26.038  1.00  0.00     0.065 C 
BRANCH  17  19
ATOM     19  C   UNL A   1      34.818  22.129  24.445  1.00  0.00     0.029 C 
ATOM     20  C   UNL A   1      34.494  20.839  24.652  1.00  0.00     0.102 C 
ATOM     21  C   UNL A   1      35.619  19.930  24.976  1.00  0.00     0.262 C 
ATOM     22  C   UNL A   1      33.213  20.147  24.490  1.00  0.00     0.226 C 
ATOM     23  O   UNL A   1      36.716  20.302  25.377  1.00  0.00    -0.269 OA
ATOM     24  N   UNL A   1      35.348  18.610  24.729  1.00  0.00    -0.297 N 
ATOM     25  N   UNL A   1      33.038  18.888  24.318  1.00  0.00    -0.184 NA
ATOM     26  C   UNL A   1      34.146  18.082  24.329  1.00  0.00     0.203 C 
ATOM     27  H   UNL A   1      36.092  17.976  24.850  1.00  0.00     0.172 HD
ATOM     28  S   UNL A   1      34.102  16.453  23.941  1.00  0.00    -0.038 S 
BRANCH  22  29
ATOM     29  O   UNL A   1      32.111  20.893  24.593  1.00  0.00    -0.493 OA
ATOM     30  H   UNL A   1      31.978  21.431  25.349  1.00  0.00     0.295 HD
ENDBRANCH  22  29
ENDBRANCH  17  19
ENDBRANCH   8  12
ENDBRANCH   3   5
ENDBRANCH   2   3
ENDBRANCH   1   2
BRANCH   1  31
ATOM     31  C   UNL A   1      32.391  31.309  26.980  1.00  0.00     0.275 C 
BRANCH  31  32
ATOM     32  O   UNL A   1      32.581  32.728  27.253  1.00  0.00    -0.458 OA
BRANCH  32  33
ATOM     33  C   UNL A   1      33.305  33.346  28.216  1.00  0.00     0.338 C 
ATOM     34  O   UNL A   1      32.858  34.309  28.836  1.00  0.00    -0.246 OA
BRANCH  33  35
ATOM     35  C   UNL A   1      34.639  32.822  28.552  1.00  0.00     0.060 A 
ATOM     36  C   UNL A   1      35.774  33.395  27.948  1.00  0.00     0.016 A 
ATOM     37  C   UNL A   1      34.776  31.839  29.521  1.00  0.00     0.016 A 
ATOM     38  C   UNL A   1      37.046  33.093  28.414  1.00  0.00     0.010 A 
ATOM     39  C   UNL A   1      36.014  31.623  30.070  1.00  0.00     0.010 A 
ATOM     40  C   UNL A   1      37.146  32.217  29.491  1.00  0.00    -0.014 A 
BRANCH  40  41
ATOM     41  C   UNL A   1      38.385  31.559  29.853  1.00  0.00     0.031 A 
ATOM     42  C   UNL A   1      38.718  30.215  29.375  1.00  0.00     0.074 A 
ATOM     43  C   UNL A   1      39.145  32.342  30.649  1.00  0.00     0.049 A 
ATOM     44  N   UNL A   1      39.260  29.303  30.111  1.00  0.00    -0.248 NA
ATOM     45  C   UNL A   1      38.404  29.746  28.024  1.00  0.00     0.031 C 
ATOM     46  C   UNL A   1      40.519  32.251  31.091  1.00  0.00     0.029 A 
ATOM     47  N   UNL A   1      38.652  33.427  31.370  1.00  0.00    -0.354 N 
ATOM     48  C   UNL A   1      39.721  28.347  29.229  1.00  0.00     0.074 A 
ATOM     49  C   UNL A   1      38.981  28.537  28.006  1.00  0.00     0.031 C 
ATOM     50  C   UNL A   1      40.664  33.044  32.178  1.00  0.00     0.029 A 
ATOM     51  C   UNL A   1      39.340  33.539  32.558  1.00  0.00     0.049 A 
ATOM     52  H   UNL A   1      37.925  34.021  31.076  1.00  0.00     0.167 HD
ATOM     53  C   UNL A   1      40.907  27.723  29.470  1.00  0.00     0.031 A 
ATOM     54  C   UNL A   1      38.658  33.227  33.703  1.00  0.00     0.031 A 
ATOM     55  C   UNL A   1      41.553  28.296  30.645  1.00  0.00     0.049 A 
ATOM     56  C   UNL A   1      39.198  31.964  34.337  1.00  0.00     0.074 A 
ATOM     57  C   UNL A   1      42.535  29.266  30.771  1.00  0.00     0.029 A 
ATOM     58  N   UNL A   1      40.938  28.202  31.880  1.00  0.00    -0.354 N 
ATOM     59  N   UNL A   1      39.830  31.028  33.683  1.00  0.00    -0.248 NA
ATOM     60  C   UNL A   1      39.028  31.642  35.748  1.00  0.00     0.031 C 
ATOM     61  C   UNL A   1      42.525  29.734  32.111  1.00  0.00     0.029 A 
ATOM     62  C   UNL A   1      41.531  29.058  32.789  1.00  0.00     0.049 A 
ATOM     63  H   UNL A   1      40.183  27.607  32.084  1.00  0.00     0.167 HD
ATOM     64  C   UNL A   1      40.252  30.064  34.557  1.00  0.00     0.074 A 
ATOM     65  C   UNL A   1      39.654  30.453  35.823  1.00  0.00     0.031 C 
ATOM     66  C   UNL A   1      41.074  29.046  34.168  1.00  0.00     0.031 A 
BRANCH  53  67
ATOM     67  C   UNL A   1      41.645  26.919  28.431  1.00  0.00    -0.014 A 
ATOM     68  C   UNL A   1      41.264  25.585  28.187  1.00  0.00     0.009 A 
ATOM     69  C   UNL A   1      42.713  27.414  27.663  1.00  0.00     0.009 A 
ATOM     70  C   UNL A   1      41.951  24.763  27.290  1.00  0.00     0.001 A 
ATOM     71  C   UNL A   1      43.416  26.589  26.769  1.00  0.00     0.001 A 
ATOM     72  C   UNL A   1      43.041  25.260  26.592  1.00  0.00     0.000 A 
ENDBRANCH  53  67
BRANCH  54  73
ATOM     73  C   UNL A   1      37.195  33.597  33.703  1.00  0.00    -0.014 A 
ATOM     74  C   UNL A   1      36.822  34.954  33.558  1.00  0.00     0.009 A 
ATOM     75  C   UNL A   1      36.179  32.634  33.588  1.00  0.00     0.009 A 
ATOM     76  C   UNL A   1      35.516  35.324  33.211  1.00  0.00     0.001 A 
ATOM     77  C   UNL A   1      34.863  33.009  33.271  1.00  0.00     0.001 A 
ATOM     78  C   UNL A   1      34.538  34.349  33.055  1.00  0.00     0.000 A 
ENDBRANCH  54  73
BRANCH  66  79
ATOM     79  C   UNL A   1      41.561  27.914  35.033  1.00  0.00    -0.014 A 
ATOM     80  C   UNL A   1      42.466  28.059  36.086  1.00  0.00     0.009 A 
ATOM     81  C   UNL A   1      41.146  26.593  34.735  1.00  0.00     0.009 A 
ATOM     82  C   UNL A   1      42.837  26.962  36.874  1.00  0.00     0.001 A 
ATOM     83  C   UNL A   1      41.531  25.494  35.499  1.00  0.00     0.001 A 
ATOM     84  C   UNL A   1      42.359  25.685  36.590  1.00  0.00     0.000 A 
ENDBRANCH  66  79
ENDBRANCH  40  41
ENDBRANCH  33  35
ENDBRANCH  32  33
ENDBRANCH  31  32
ENDBRANCH   1  31
TORSDOF 14
ENDMDL
