MODEL 1
REMARK VINA RESULT:      -9.9      0.000      0.000
REMARK SMILES O=C(OCCOC(=O)[C@H]1C[NH2+]CCN1c1ncc(C(F)(F)F)cc1Cl)c1ccc(-c2c3nc(c(-c4ccccc4)c4ccc([nH]4)c(-c4ccccc4)c4nc(c(-c5ccccc5)c5ccc2[nH]5)C=C4)C=C3)cc1
REMARK SMILES IDX 4 1 3 2 2 3 1 4 26 5 27 6 73 7 28 8 72 9 29 10 30 11 31 12
REMARK SMILES IDX 66 13 32 14 71 15 65 16 67 17 33 18 70 19 64 20 63 21 34 23
REMARK SMILES IDX 56 24 41 25 55 26 42 27 45 28 54 29 68 30 43 31 44 32 53 34
REMARK SMILES IDX 69 35 46 36 35 37 36 38 40 39 37 40 39 41 38 42 57 43 58 44
REMARK SMILES IDX 62 45 59 46 61 47 60 48 47 49 48 50 52 51 49 52 51 53 50 54
REMARK SMILES IDX 5 55 6 56 7 57 8 58 9 59 10 60 14 61 11 62 13 63 12 64 15 67
REMARK SMILES IDX 16 68 24 69 17 70 23 71 25 72 18 73 19 74 20 75 21 76 22 77
REMARK H PARENT 67 22 45 33 11 65 11 66
REMARK Flexibility Score: inf
ROOT
ATOM      1  C   UNL A   1      38.208  20.006  24.871  1.00  0.00     0.275 C 
ENDROOT
BRANCH   1   2
ATOM      2  O   UNL A   1      39.117  19.624  25.919  1.00  0.00    -0.458 OA
BRANCH   2   3
ATOM      3  C   UNL A   1      40.457  19.806  25.984  1.00  0.00     0.338 C 
ATOM      4  O   UNL A   1      41.204  18.883  25.664  1.00  0.00    -0.246 OA
BRANCH   3   5
ATOM      5  C   UNL A   1      41.083  21.018  26.601  1.00  0.00     0.060 A 
ATOM      6  C   UNL A   1      41.143  21.313  27.968  1.00  0.00     0.016 A 
ATOM      7  C   UNL A   1      41.658  21.937  25.706  1.00  0.00     0.016 A 
ATOM      8  C   UNL A   1      41.836  22.432  28.444  1.00  0.00     0.010 A 
ATOM      9  C   UNL A   1      42.320  23.077  26.171  1.00  0.00     0.010 A 
ATOM     10  C   UNL A   1      42.423  23.323  27.547  1.00  0.00    -0.014 A 
BRANCH  10  11
ATOM     11  C   UNL A   1      42.910  24.634  28.022  1.00  0.00     0.031 A 
ATOM     12  C   UNL A   1      41.880  25.691  28.259  1.00  0.00     0.074 A 
ATOM     13  C   UNL A   1      44.214  24.886  28.233  1.00  0.00     0.049 A 
ATOM     14  N   UNL A   1      42.035  26.937  28.613  1.00  0.00    -0.248 NA
ATOM     15  C   UNL A   1      40.477  25.277  28.080  1.00  0.00     0.031 C 
ATOM     16  C   UNL A   1      45.290  23.908  28.125  1.00  0.00     0.029 A 
ATOM     17  N   UNL A   1      44.859  26.055  28.553  1.00  0.00    -0.354 N 
ATOM     18  C   UNL A   1      40.751  27.451  28.706  1.00  0.00     0.074 A 
ATOM     19  C   UNL A   1      39.834  26.405  28.316  1.00  0.00     0.031 C 
ATOM     20  C   UNL A   1      46.472  24.528  28.290  1.00  0.00     0.029 A 
ATOM     21  C   UNL A   1      46.229  25.948  28.526  1.00  0.00     0.049 A 
ATOM     22  H   UNL A   1      44.385  26.888  28.778  1.00  0.00     0.167 HD
ATOM     23  C   UNL A   1      40.368  28.685  29.099  1.00  0.00     0.031 A 
ATOM     24  C   UNL A   1      47.176  26.899  28.659  1.00  0.00     0.031 A 
ATOM     25  C   UNL A   1      41.292  29.729  29.430  1.00  0.00     0.049 A 
ATOM     26  C   UNL A   1      46.738  28.306  28.969  1.00  0.00     0.074 A 
ATOM     27  C   UNL A   1      41.027  31.024  29.827  1.00  0.00     0.029 A 
ATOM     28  N   UNL A   1      42.673  29.593  29.374  1.00  0.00    -0.354 N 
ATOM     29  N   UNL A   1      45.519  28.776  29.103  1.00  0.00    -0.248 NA
ATOM     30  C   UNL A   1      47.795  29.305  29.180  1.00  0.00     0.031 C 
ATOM     31  C   UNL A   1      42.251  31.692  29.950  1.00  0.00     0.029 A 
ATOM     32  C   UNL A   1      43.276  30.793  29.698  1.00  0.00     0.049 A 
ATOM     33  H   UNL A   1      43.151  28.765  29.138  1.00  0.00     0.167 HD
ATOM     34  C   UNL A   1      45.661  30.109  29.465  1.00  0.00     0.074 A 
ATOM     35  C   UNL A   1      47.086  30.376  29.514  1.00  0.00     0.031 C 
ATOM     36  C   UNL A   1      44.701  31.022  29.748  1.00  0.00     0.031 A 
BRANCH  23  37
ATOM     37  C   UNL A   1      38.890  28.945  29.112  1.00  0.00    -0.014 A 
ATOM     38  C   UNL A   1      38.218  29.393  27.962  1.00  0.00     0.009 A 
ATOM     39  C   UNL A   1      38.181  28.841  30.317  1.00  0.00     0.009 A 
ATOM     40  C   UNL A   1      36.885  29.801  28.036  1.00  0.00     0.001 A 
ATOM     41  C   UNL A   1      36.839  29.217  30.381  1.00  0.00     0.001 A 
ATOM     42  C   UNL A   1      36.198  29.715  29.247  1.00  0.00     0.000 A 
ENDBRANCH  23  37
BRANCH  24  43
ATOM     43  C   UNL A   1      48.614  26.548  28.507  1.00  0.00    -0.014 A 
ATOM     44  C   UNL A   1      49.237  26.575  27.252  1.00  0.00     0.009 A 
ATOM     45  C   UNL A   1      49.381  26.201  29.633  1.00  0.00     0.009 A 
ATOM     46  C   UNL A   1      50.591  26.247  27.123  1.00  0.00     0.001 A 
ATOM     47  C   UNL A   1      50.738  25.894  29.504  1.00  0.00     0.001 A 
ATOM     48  C   UNL A   1      51.342  25.913  28.249  1.00  0.00     0.000 A 
ENDBRANCH  24  43
BRANCH  36  49
ATOM     49  C   UNL A   1      45.144  32.386  30.193  1.00  0.00    -0.014 A 
ATOM     50  C   UNL A   1      45.299  33.439  29.281  1.00  0.00     0.009 A 
ATOM     51  C   UNL A   1      45.293  32.641  31.566  1.00  0.00     0.009 A 
ATOM     52  C   UNL A   1      45.601  34.722  29.738  1.00  0.00     0.001 A 
ATOM     53  C   UNL A   1      45.566  33.930  32.020  1.00  0.00     0.001 A 
ATOM     54  C   UNL A   1      45.723  34.970  31.106  1.00  0.00     0.000 A 
ENDBRANCH  36  49
ENDBRANCH  10  11
ENDBRANCH   3   5
ENDBRANCH   2   3
ENDBRANCH   1   2
BRANCH   1  55
ATOM     55  C   UNL A   1      37.461  21.310  25.152  1.00  0.00     0.274 C 
BRANCH  55  56
ATOM     56  O   UNL A   1      36.115  21.301  24.642  1.00  0.00    -0.460 OA
BRANCH  56  57
ATOM     57  C   UNL A   1      35.593  22.523  24.293  1.00  0.00     0.334 C 
ATOM     58  O   UNL A   1      36.243  23.406  23.755  1.00  0.00    -0.250 OA
BRANCH  57  59
ATOM     59  C   UNL A   1      34.116  22.618  24.739  1.00  0.00     0.249 C 
ATOM     60  C   UNL A   1      33.587  21.187  24.997  1.00  0.00     0.298 C 
ATOM     61  N   UNL A   1      33.930  23.436  25.951  1.00  0.00    -0.331 N 
ATOM     62  N   UNL A   1      34.092  20.548  26.232  1.00  0.00    -0.343 N 
ATOM     63  C   UNL A   1      34.399  22.880  27.215  1.00  0.00     0.180 C 
ATOM     64  C   UNL A   1      33.827  21.449  27.379  1.00  0.00     0.282 C 
ATOM     65  H   UNL A   1      35.095  20.385  26.148  1.00  0.00     0.346 HD
ATOM     66  H   UNL A   1      33.622  19.654  26.378  1.00  0.00     0.346 HD
BRANCH  61  67
ATOM     67  C   UNL A   1      33.364  24.686  25.951  1.00  0.00     0.148 A 
ATOM     68  N   UNL A   1      34.194  25.730  25.724  1.00  0.00    -0.237 NA
ATOM     69  C   UNL A   1      32.013  24.920  26.261  1.00  0.00     0.084 A 
ATOM     70  C   UNL A   1      33.699  26.993  25.780  1.00  0.00     0.126 A 
ATOM     71  C   UNL A   1      31.523  26.229  26.311  1.00  0.00     0.039 A 
ATOM     72  Cl  UNL A   1      30.920  23.657  26.695  1.00  0.00    -0.080 Cl
ATOM     73  C   UNL A   1      32.381  27.300  26.074  1.00  0.00     0.075 A 
BRANCH  73  74
ATOM     74  C   UNL A   1      31.938  28.727  26.172  1.00  0.00     0.417 C 
ATOM     75  F   UNL A   1      30.995  29.043  25.243  1.00  0.00    -0.166 F 
ATOM     76  F   UNL A   1      31.392  29.028  27.381  1.00  0.00    -0.166 F 
ATOM     77  F   UNL A   1      32.951  29.619  25.988  1.00  0.00    -0.166 F 
ENDBRANCH  73  74
ENDBRANCH  61  67
ENDBRANCH  57  59
ENDBRANCH  56  57
ENDBRANCH  55  56
ENDBRANCH   1  55
TORSDOF 13
ENDMDL
MODEL 2
REMARK VINA RESULT:      -9.9      5.364      9.567
REMARK SMILES O=C(OCCOC(=O)[C@H]1C[NH2+]CCN1c1ncc(C(F)(F)F)cc1Cl)c1ccc(-c2c3nc(c(-c4ccccc4)c4ccc([nH]4)c(-c4ccccc4)c4nc(c(-c5ccccc5)c5ccc2[nH]5)C=C4)C=C3)cc1
REMARK SMILES IDX 4 1 3 2 2 3 1 4 26 5 27 6 73 7 28 8 72 9 29 10 30 11 31 12
REMARK SMILES IDX 66 13 32 14 71 15 65 16 67 17 33 18 70 19 64 20 63 21 34 23
REMARK SMILES IDX 56 24 41 25 55 26 42 27 45 28 54 29 68 30 43 31 44 32 53 34
REMARK SMILES IDX 69 35 46 36 35 37 36 38 40 39 37 40 39 41 38 42 57 43 58 44
REMARK SMILES IDX 62 45 59 46 61 47 60 48 47 49 48 50 52 51 49 52 51 53 50 54
REMARK SMILES IDX 5 55 6 56 7 57 8 58 9 59 10 60 14 61 11 62 13 63 12 64 15 67
REMARK SMILES IDX 16 68 24 69 17 70 23 71 25 72 18 73 19 74 20 75 21 76 22 77
REMARK H PARENT 67 22 45 33 11 65 11 66
REMARK Flexibility Score: inf
ROOT
ATOM      1  C   UNL A   1      34.729  32.937  27.977  1.00  0.00     0.275 C 
ENDROOT
BRANCH   1   2
ATOM      2  O   UNL A   1      34.006  31.767  27.557  1.00  0.00    -0.458 OA
BRANCH   2   3
ATOM      3  C   UNL A   1      34.421  30.478  27.537  1.00  0.00     0.338 C 
ATOM      4  O   UNL A   1      33.612  29.591  27.268  1.00  0.00    -0.246 OA
BRANCH   3   5
ATOM      5  C   UNL A   1      35.779  30.055  28.006  1.00  0.00     0.060 A 
ATOM      6  C   UNL A   1      36.955  30.061  27.246  1.00  0.00     0.016 A 
ATOM      7  C   UNL A   1      35.860  29.613  29.338  1.00  0.00     0.016 A 
ATOM      8  C   UNL A   1      38.192  29.733  27.814  1.00  0.00     0.010 A 
ATOM      9  C   UNL A   1      37.086  29.248  29.901  1.00  0.00     0.010 A 
ATOM     10  C   UNL A   1      38.262  29.319  29.143  1.00  0.00    -0.014 A 
BRANCH  10  11
ATOM     11  C   UNL A   1      39.506  28.714  29.661  1.00  0.00     0.031 A 
ATOM     12  C   UNL A   1      40.228  29.469  30.730  1.00  0.00     0.074 A 
ATOM     13  C   UNL A   1      39.985  27.543  29.203  1.00  0.00     0.049 A 
ATOM     14  N   UNL A   1      41.365  29.202  31.312  1.00  0.00    -0.248 NA
ATOM     15  C   UNL A   1      39.567  30.694  31.215  1.00  0.00     0.031 C 
ATOM     16  C   UNL A   1      39.319  26.681  28.235  1.00  0.00     0.029 A 
ATOM     17  N   UNL A   1      41.164  26.894  29.471  1.00  0.00    -0.354 N 
ATOM     18  C   UNL A   1      41.548  30.218  32.236  1.00  0.00     0.074 A 
ATOM     19  C   UNL A   1      40.442  31.137  32.098  1.00  0.00     0.031 C 
ATOM     20  C   UNL A   1      40.130  25.656  27.922  1.00  0.00     0.029 A 
ATOM     21  C   UNL A   1      41.371  25.789  28.680  1.00  0.00     0.049 A 
ATOM     22  H   UNL A   1      41.799  27.191  30.162  1.00  0.00     0.167 HD
ATOM     23  C   UNL A   1      42.546  30.366  33.135  1.00  0.00     0.031 A 
ATOM     24  C   UNL A   1      42.452  24.990  28.572  1.00  0.00     0.031 A 
ATOM     25  C   UNL A   1      43.665  29.475  33.222  1.00  0.00     0.049 A 
ATOM     26  C   UNL A   1      43.620  25.239  29.488  1.00  0.00     0.074 A 
ATOM     27  C   UNL A   1      44.746  29.528  34.079  1.00  0.00     0.029 A 
ATOM     28  N   UNL A   1      43.854  28.377  32.393  1.00  0.00    -0.354 N 
ATOM     29  N   UNL A   1      43.767  26.176  30.395  1.00  0.00    -0.248 NA
ATOM     30  C   UNL A   1      44.753  24.307  29.396  1.00  0.00     0.031 C 
ATOM     31  C   UNL A   1      45.622  28.494  33.726  1.00  0.00     0.029 A 
ATOM     32  C   UNL A   1      45.052  27.760  32.696  1.00  0.00     0.049 A 
ATOM     33  H   UNL A   1      43.227  28.083  31.693  1.00  0.00     0.167 HD
ATOM     34  C   UNL A   1      44.981  25.920  31.018  1.00  0.00     0.074 A 
ATOM     35  C   UNL A   1      45.538  24.746  30.374  1.00  0.00     0.031 C 
ATOM     36  C   UNL A   1      45.572  26.584  32.041  1.00  0.00     0.031 A 
BRANCH  23  37
ATOM     37  C   UNL A   1      42.463  31.575  34.021  1.00  0.00    -0.014 A 
ATOM     38  C   UNL A   1      41.759  31.542  35.236  1.00  0.00     0.009 A 
ATOM     39  C   UNL A   1      43.008  32.789  33.582  1.00  0.00     0.009 A 
ATOM     40  C   UNL A   1      41.539  32.717  35.958  1.00  0.00     0.001 A 
ATOM     41  C   UNL A   1      42.816  33.956  34.322  1.00  0.00     0.001 A 
ATOM     42  C   UNL A   1      42.066  33.923  35.498  1.00  0.00     0.000 A 
ENDBRANCH  23  37
BRANCH  24  43
ATOM     43  C   UNL A   1      42.470  23.890  27.570  1.00  0.00    -0.014 A 
ATOM     44  C   UNL A   1      42.022  22.602  27.900  1.00  0.00     0.009 A 
ATOM     45  C   UNL A   1      42.918  24.131  26.260  1.00  0.00     0.009 A 
ATOM     46  C   UNL A   1      42.039  21.578  26.947  1.00  0.00     0.001 A 
ATOM     47  C   UNL A   1      42.914  23.111  25.305  1.00  0.00     0.001 A 
ATOM     48  C   UNL A   1      42.479  21.834  25.650  1.00  0.00     0.000 A 
ENDBRANCH  24  43
BRANCH  36  49
ATOM     49  C   UNL A   1      46.863  26.035  32.576  1.00  0.00    -0.014 A 
ATOM     50  C   UNL A   1      46.882  25.083  33.606  1.00  0.00     0.009 A 
ATOM     51  C   UNL A   1      48.069  26.395  31.953  1.00  0.00     0.009 A 
ATOM     52  C   UNL A   1      48.089  24.507  34.004  1.00  0.00     0.001 A 
ATOM     53  C   UNL A   1      49.268  25.795  32.334  1.00  0.00     0.001 A 
ATOM     54  C   UNL A   1      49.278  24.854  33.361  1.00  0.00     0.000 A 
ENDBRANCH  36  49
ENDBRANCH  10  11
ENDBRANCH   3   5
ENDBRANCH   2   3
ENDBRANCH   1   2
BRANCH   1  55
ATOM     55  C   UNL A   1      33.858  34.188  28.094  1.00  0.00     0.274 C 
BRANCH  55  56
ATOM     56  O   UNL A   1      34.328  35.102  29.101  1.00  0.00    -0.460 OA
BRANCH  56  57
ATOM     57  C   UNL A   1      33.619  35.123  30.277  1.00  0.00     0.334 C 
ATOM     58  O   UNL A   1      32.399  35.089  30.329  1.00  0.00    -0.250 OA
BRANCH  57  59
ATOM     59  C   UNL A   1      34.582  35.259  31.478  1.00  0.00     0.249 C 
ATOM     60  C   UNL A   1      33.742  35.321  32.776  1.00  0.00     0.298 C 
ATOM     61  N   UNL A   1      35.549  34.150  31.572  1.00  0.00    -0.331 N 
ATOM     62  N   UNL A   1      33.139  34.036  33.192  1.00  0.00    -0.343 N 
ATOM     63  C   UNL A   1      35.039  32.846  31.978  1.00  0.00     0.180 C 
ATOM     64  C   UNL A   1      34.208  33.012  33.275  1.00  0.00     0.282 C 
ATOM     65  H   UNL A   1      32.440  33.748  32.508  1.00  0.00     0.346 HD
ATOM     66  H   UNL A   1      32.689  34.142  34.102  1.00  0.00     0.346 HD
BRANCH  61  67
ATOM     67  C   UNL A   1      36.885  34.275  31.283  1.00  0.00     0.148 A 
ATOM     68  N   UNL A   1      37.246  34.103  29.990  1.00  0.00    -0.237 NA
ATOM     69  C   UNL A   1      37.870  34.474  32.265  1.00  0.00     0.084 A 
ATOM     70  C   UNL A   1      38.562  34.148  29.660  1.00  0.00     0.126 A 
ATOM     71  C   UNL A   1      39.220  34.520  31.903  1.00  0.00     0.039 A 
ATOM     72  Cl  UNL A   1      37.508  34.567  33.950  1.00  0.00    -0.080 Cl
ATOM     73  C   UNL A   1      39.587  34.344  30.570  1.00  0.00     0.075 A 
BRANCH  73  74
ATOM     74  C   UNL A   1      41.015  34.319  30.122  1.00  0.00     0.417 C 
ATOM     75  F   UNL A   1      41.238  35.127  29.050  1.00  0.00    -0.166 F 
ATOM     76  F   UNL A   1      41.879  34.730  31.089  1.00  0.00    -0.166 F 
ATOM     77  F   UNL A   1      41.439  33.081  29.745  1.00  0.00    -0.166 F 
ENDBRANCH  73  74
ENDBRANCH  61  67
ENDBRANCH  57  59
ENDBRANCH  56  57
ENDBRANCH  55  56
ENDBRANCH   1  55
TORSDOF 13
ENDMDL
MODEL 3
REMARK VINA RESULT:      -9.8      4.543      9.011
REMARK SMILES O=C(OCCOC(=O)[C@H]1C[NH2+]CCN1c1ncc(C(F)(F)F)cc1Cl)c1ccc(-c2c3nc(c(-c4ccccc4)c4ccc([nH]4)c(-c4ccccc4)c4nc(c(-c5ccccc5)c5ccc2[nH]5)C=C4)C=C3)cc1
REMARK SMILES IDX 4 1 3 2 2 3 1 4 26 5 27 6 73 7 28 8 72 9 29 10 30 11 31 12
REMARK SMILES IDX 66 13 32 14 71 15 65 16 67 17 33 18 70 19 64 20 63 21 34 23
REMARK SMILES IDX 56 24 41 25 55 26 42 27 45 28 54 29 68 30 43 31 44 32 53 34
REMARK SMILES IDX 69 35 46 36 35 37 36 38 40 39 37 40 39 41 38 42 57 43 58 44
REMARK SMILES IDX 62 45 59 46 61 47 60 48 47 49 48 50 52 51 49 52 51 53 50 54
REMARK SMILES IDX 5 55 6 56 7 57 8 58 9 59 10 60 14 61 11 62 13 63 12 64 15 67
REMARK SMILES IDX 16 68 24 69 17 70 23 71 25 72 18 73 19 74 20 75 21 76 22 77
REMARK H PARENT 67 22 45 33 11 65 11 66
REMARK Flexibility Score: inf
ROOT
ATOM      1  C   UNL A   1      31.476  32.200  26.967  1.00  0.00     0.275 C 
ENDROOT
BRANCH   1   2
ATOM      2  O   UNL A   1      32.250  33.410  27.029  1.00  0.00    -0.458 OA
BRANCH   2   3
ATOM      3  C   UNL A   1      32.895  33.948  28.092  1.00  0.00     0.338 C 
ATOM      4  O   UNL A   1      32.545  35.049  28.512  1.00  0.00    -0.246 OA
BRANCH   3   5
ATOM      5  C   UNL A   1      34.138  33.349  28.674  1.00  0.00     0.060 A 
ATOM      6  C   UNL A   1      34.209  32.525  29.803  1.00  0.00     0.016 A 
ATOM      7  C   UNL A   1      35.338  33.657  28.009  1.00  0.00     0.016 A 
ATOM      8  C   UNL A   1      35.416  31.943  30.207  1.00  0.00     0.010 A 
ATOM      9  C   UNL A   1      36.554  33.109  28.429  1.00  0.00     0.010 A 
ATOM     10  C   UNL A   1      36.596  32.237  29.525  1.00  0.00    -0.014 A 
BRANCH  10  11
ATOM     11  C   UNL A   1      37.899  31.851  30.105  1.00  0.00     0.031 A 
ATOM     12  C   UNL A   1      38.496  30.568  29.625  1.00  0.00     0.074 A 
ATOM     13  C   UNL A   1      38.530  32.603  31.025  1.00  0.00     0.049 A 
ATOM     14  N   UNL A   1      39.589  29.966  30.009  1.00  0.00    -0.248 NA
ATOM     15  C   UNL A   1      37.760  29.873  28.554  1.00  0.00     0.031 C 
ATOM     16  C   UNL A   1      38.087  33.910  31.493  1.00  0.00     0.029 A 
ATOM     17  N   UNL A   1      39.666  32.356  31.753  1.00  0.00    -0.354 N 
ATOM     18  C   UNL A   1      39.674  28.829  29.222  1.00  0.00     0.074 A 
ATOM     19  C   UNL A   1      38.498  28.792  28.383  1.00  0.00     0.031 C 
ATOM     20  C   UNL A   1      38.890  34.319  32.491  1.00  0.00     0.029 A 
ATOM     21  C   UNL A   1      39.911  33.301  32.721  1.00  0.00     0.049 A 
ATOM     22  H   UNL A   1      40.248  31.577  31.598  1.00  0.00     0.167 HD
ATOM     23  C   UNL A   1      40.656  27.903  29.189  1.00  0.00     0.031 A 
ATOM     24  C   UNL A   1      40.846  33.326  33.692  1.00  0.00     0.031 A 
ATOM     25  C   UNL A   1      41.789  27.924  30.067  1.00  0.00     0.049 A 
ATOM     26  C   UNL A   1      41.864  32.218  33.733  1.00  0.00     0.074 A 
ATOM     27  C   UNL A   1      42.842  27.034  30.140  1.00  0.00     0.029 A 
ATOM     28  N   UNL A   1      41.996  28.885  31.048  1.00  0.00    -0.354 N 
ATOM     29  N   UNL A   1      41.967  31.168  32.953  1.00  0.00    -0.248 NA
ATOM     30  C   UNL A   1      42.913  32.311  34.759  1.00  0.00     0.031 C 
ATOM     31  C   UNL A   1      43.656  27.424  31.211  1.00  0.00     0.029 A 
ATOM     32  C   UNL A   1      43.145  28.593  31.755  1.00  0.00     0.049 A 
ATOM     33  H   UNL A   1      41.411  29.660  31.213  1.00  0.00     0.167 HD
ATOM     34  C   UNL A   1      43.117  30.502  33.356  1.00  0.00     0.074 A 
ATOM     35  C   UNL A   1      43.669  31.261  34.461  1.00  0.00     0.031 C 
ATOM     36  C   UNL A   1      43.674  29.377  32.846  1.00  0.00     0.031 A 
BRANCH  23  37
ATOM     37  C   UNL A   1      40.472  26.780  28.210  1.00  0.00    -0.014 A 
ATOM     38  C   UNL A   1      41.009  26.848  26.912  1.00  0.00     0.009 A 
ATOM     39  C   UNL A   1      39.663  25.689  28.556  1.00  0.00     0.009 A 
ATOM     40  C   UNL A   1      40.678  25.883  25.959  1.00  0.00     0.001 A 
ATOM     41  C   UNL A   1      39.362  24.708  27.611  1.00  0.00     0.001 A 
ATOM     42  C   UNL A   1      39.852  24.815  26.309  1.00  0.00     0.000 A 
ENDBRANCH  23  37
BRANCH  24  43
ATOM     43  C   UNL A   1      40.859  34.433  34.687  1.00  0.00    -0.014 A 
ATOM     44  C   UNL A   1      41.620  35.591  34.472  1.00  0.00     0.009 A 
ATOM     45  C   UNL A   1      40.086  34.343  35.857  1.00  0.00     0.009 A 
ATOM     46  C   UNL A   1      41.620  36.626  35.412  1.00  0.00     0.001 A 
ATOM     47  C   UNL A   1      40.072  35.388  36.785  1.00  0.00     0.001 A 
ATOM     48  C   UNL A   1      40.842  36.527  36.565  1.00  0.00     0.000 A 
ENDBRANCH  24  43
BRANCH  36  49
ATOM     49  C   UNL A   1      44.978  28.917  33.431  1.00  0.00    -0.014 A 
ATOM     50  C   UNL A   1      46.204  29.410  32.963  1.00  0.00     0.009 A 
ATOM     51  C   UNL A   1      44.963  28.065  34.547  1.00  0.00     0.009 A 
ATOM     52  C   UNL A   1      47.392  29.052  33.601  1.00  0.00     0.001 A 
ATOM     53  C   UNL A   1      46.149  27.732  35.199  1.00  0.00     0.001 A 
ATOM     54  C   UNL A   1      47.364  28.224  34.724  1.00  0.00     0.000 A 
ENDBRANCH  36  49
ENDBRANCH  10  11
ENDBRANCH   3   5
ENDBRANCH   2   3
ENDBRANCH   1   2
BRANCH   1  55
ATOM     55  C   UNL A   1      32.313  30.950  26.687  1.00  0.00     0.274 C 
BRANCH  55  56
ATOM     56  O   UNL A   1      31.562  29.912  26.031  1.00  0.00    -0.460 OA
BRANCH  56  57
ATOM     57  C   UNL A   1      31.902  28.622  26.357  1.00  0.00     0.334 C 
ATOM     58  O   UNL A   1      32.405  28.306  27.424  1.00  0.00    -0.250 OA
BRANCH  57  59
ATOM     59  C   UNL A   1      31.617  27.679  25.166  1.00  0.00     0.249 C 
ATOM     60  C   UNL A   1      31.048  28.520  23.998  1.00  0.00     0.298 C 
ATOM     61  N   UNL A   1      32.813  26.949  24.708  1.00  0.00    -0.331 N 
ATOM     62  N   UNL A   1      32.037  29.372  23.302  1.00  0.00    -0.343 N 
ATOM     63  C   UNL A   1      33.840  27.714  24.009  1.00  0.00     0.180 C 
ATOM     64  C   UNL A   1      33.175  28.526  22.870  1.00  0.00     0.282 C 
ATOM     65  H   UNL A   1      32.371  30.098  23.936  1.00  0.00     0.346 HD
ATOM     66  H   UNL A   1      31.605  29.814  22.490  1.00  0.00     0.346 HD
BRANCH  61  67
ATOM     67  C   UNL A   1      33.018  25.609  24.918  1.00  0.00     0.148 A 
ATOM     68  N   UNL A   1      33.734  25.267  26.014  1.00  0.00    -0.237 NA
ATOM     69  C   UNL A   1      32.604  24.616  24.014  1.00  0.00     0.084 A 
ATOM     70  C   UNL A   1      34.025  23.959  26.233  1.00  0.00     0.126 A 
ATOM     71  C   UNL A   1      32.911  23.273  24.260  1.00  0.00     0.039 A 
ATOM     72  Cl  UNL A   1      31.806  24.976  22.527  1.00  0.00    -0.080 Cl
ATOM     73  C   UNL A   1      33.647  22.927  25.391  1.00  0.00     0.075 A 
BRANCH  73  74
ATOM     74  C   UNL A   1      34.064  21.519  25.683  1.00  0.00     0.417 C 
ATOM     75  F   UNL A   1      34.836  20.990  24.695  1.00  0.00    -0.166 F 
ATOM     76  F   UNL A   1      34.790  21.410  26.828  1.00  0.00    -0.166 F 
ATOM     77  F   UNL A   1      33.012  20.665  25.826  1.00  0.00    -0.166 F 
ENDBRANCH  73  74
ENDBRANCH  61  67
ENDBRANCH  57  59
ENDBRANCH  56  57
ENDBRANCH  55  56
ENDBRANCH   1  55
TORSDOF 13
ENDMDL
