MODEL 1
REMARK VINA RESULT:     -12.1      0.000      0.000
REMARK SMILES O=C(CSc1ccc(Cl)cc1)Nc1cccc(C(=O)Nc2ccc(C(=O)OCCOC(=O)c3ccc(-c4c5nc(c(-c6ccccc6)c6ccc([nH]6)c(-c6ccccc6)c6nc(c(-c7ccccc7)c7ccc4[nH]7)C=C6)C=C5)cc3)cc2)c1
REMARK SMILES IDX 25 1 26 2 24 3 21 4 22 5 82 6 23 7 81 8 20 9 18 10 19 11
REMARK SMILES IDX 17 13 13 14 14 15 83 16 15 17 16 18 12 19 1 20 2 21 3 23
REMARK SMILES IDX 4 24 5 25 6 26 11 27 7 28 10 29 8 30 9 31 27 32 28 33 29 34
REMARK SMILES IDX 30 35 31 36 32 37 33 38 34 39 80 40 35 41 79 42 36 43 37 44
REMARK SMILES IDX 38 45 73 46 39 47 78 48 72 49 74 50 40 51 77 52 71 53 70 54
REMARK SMILES IDX 41 56 63 57 48 58 62 59 49 60 52 61 61 62 75 63 50 64 51 65
REMARK SMILES IDX 60 67 76 68 53 69 42 70 43 71 47 72 44 73 46 74 45 75 64 76
REMARK SMILES IDX 65 77 69 78 66 79 68 80 67 81 54 82 55 83 59 84 56 85 58 86
REMARK SMILES IDX 57 87
REMARK H PARENT 20 12 12 22 74 55 52 66
REMARK Flexibility Score: inf
ROOT
ATOM      1  C   UNL A   1      34.521  32.248  28.174  1.00  0.00     0.338 C 
ATOM      2  O   UNL A   1      35.419  32.853  27.616  1.00  0.00    -0.246 OA
ENDROOT
BRANCH   1   3
ATOM      3  C   UNL A   1      33.843  31.085  27.545  1.00  0.00     0.060 A 
ATOM      4  C   UNL A   1      32.263  28.840  27.035  1.00  0.00     0.041 A 
ATOM      5  C   UNL A   1      31.713  30.107  26.884  1.00  0.00     0.027 A 
ATOM      6  C   UNL A   1      33.640  28.696  27.255  1.00  0.00     0.027 A 
ATOM      7  C   UNL A   1      32.490  31.217  27.198  1.00  0.00     0.018 A 
ATOM      8  C   UNL A   1      34.439  29.823  27.499  1.00  0.00     0.018 A 
BRANCH   4   9
ATOM      9  N   UNL A   1      31.349  27.782  27.131  1.00  0.00    -0.322 N 
ATOM     10  C   UNL A   1      31.054  26.785  26.215  1.00  0.00     0.255 C 
ATOM     11  O   UNL A   1      30.159  25.982  26.480  1.00  0.00    -0.269 OA
ATOM     12  H   UNL A   1      30.841  27.740  27.973  1.00  0.00     0.170 HD
BRANCH  10  13
ATOM     13  C   UNL A   1      31.823  26.602  24.947  1.00  0.00     0.042 A 
ATOM     14  C   UNL A   1      33.615  25.561  23.666  1.00  0.00     0.041 A 
ATOM     15  C   UNL A   1      33.401  26.485  22.641  1.00  0.00     0.026 A 
ATOM     16  C   UNL A   1      32.755  25.572  24.767  1.00  0.00     0.040 A 
ATOM     17  C   UNL A   1      32.362  27.416  22.736  1.00  0.00     0.003 A 
ATOM     18  C   UNL A   1      31.589  27.489  23.895  1.00  0.00     0.014 A 
BRANCH  14  19
ATOM     19  N   UNL A   1      34.752  24.728  23.582  1.00  0.00    -0.325 N 
ATOM     20  O   UNL A   1      33.838  22.813  22.653  1.00  0.00    -0.274 OA
ATOM     21  C   UNL A   1      34.771  23.402  23.197  1.00  0.00     0.234 C 
ATOM     22  H   UNL A   1      35.616  25.133  23.823  1.00  0.00     0.169 HD
BRANCH  21  23
ATOM     23  C   UNL A   1      36.041  22.643  23.553  1.00  0.00     0.175 C 
BRANCH  23  24
ATOM     24  S   UNL A   1      36.030  21.940  25.223  1.00  0.00    -0.116 SA
BRANCH  24  25
ATOM     25  C   UNL A   1      35.189  20.374  25.024  1.00  0.00     0.008 A 
ATOM     26  C   UNL A   1      33.803  20.190  24.980  1.00  0.00     0.016 A 
ATOM     27  C   UNL A   1      36.015  19.256  24.842  1.00  0.00     0.016 A 
ATOM     28  C   UNL A   1      33.255  18.940  24.672  1.00  0.00     0.021 A 
ATOM     29  C   UNL A   1      35.470  18.000  24.563  1.00  0.00     0.021 A 
ATOM     30  C   UNL A   1      34.091  17.853  24.454  1.00  0.00     0.041 A 
ATOM     31  Cl  UNL A   1      33.419  16.325  24.045  1.00  0.00    -0.084 Cl
ENDBRANCH  24  25
ENDBRANCH  23  24
ENDBRANCH  21  23
ENDBRANCH  14  19
ENDBRANCH  10  13
ENDBRANCH   4   9
ENDBRANCH   1   3
BRANCH   1  32
ATOM     32  O   UNL A   1      34.011  32.568  29.390  1.00  0.00    -0.458 OA
BRANCH  32  33
ATOM     33  C   UNL A   1      34.419  33.864  29.883  1.00  0.00     0.275 C 
BRANCH  33  34
ATOM     34  C   UNL A   1      34.737  33.834  31.379  1.00  0.00     0.275 C 
BRANCH  34  35
ATOM     35  O   UNL A   1      34.725  32.489  31.895  1.00  0.00    -0.458 OA
BRANCH  35  36
ATOM     36  C   UNL A   1      35.781  32.172  32.676  1.00  0.00     0.338 C 
ATOM     37  O   UNL A   1      35.929  32.428  33.862  1.00  0.00    -0.246 OA
BRANCH  36  38
ATOM     38  C   UNL A   1      36.766  31.377  31.930  1.00  0.00     0.060 A 
ATOM     39  C   UNL A   1      37.735  30.684  32.643  1.00  0.00     0.016 A 
ATOM     40  C   UNL A   1      36.882  31.501  30.549  1.00  0.00     0.016 A 
ATOM     41  C   UNL A   1      38.901  30.258  32.022  1.00  0.00     0.010 A 
ATOM     42  C   UNL A   1      37.985  30.932  29.900  1.00  0.00     0.010 A 
ATOM     43  C   UNL A   1      39.035  30.349  30.635  1.00  0.00    -0.014 A 
BRANCH  43  44
ATOM     44  C   UNL A   1      40.276  29.864  29.970  1.00  0.00     0.031 A 
ATOM     45  C   UNL A   1      41.453  30.788  29.796  1.00  0.00     0.074 A 
ATOM     46  C   UNL A   1      40.361  28.590  29.533  1.00  0.00     0.049 A 
ATOM     47  N   UNL A   1      42.531  30.627  29.071  1.00  0.00    -0.248 NA
ATOM     48  C   UNL A   1      41.405  32.069  30.520  1.00  0.00     0.031 C 
ATOM     49  C   UNL A   1      39.330  27.560  29.694  1.00  0.00     0.029 A 
ATOM     50  N   UNL A   1      41.369  27.940  28.864  1.00  0.00    -0.354 N 
ATOM     51  C   UNL A   1      43.252  31.810  29.196  1.00  0.00     0.074 A 
ATOM     52  C   UNL A   1      42.487  32.681  30.063  1.00  0.00     0.031 C 
ATOM     53  C   UNL A   1      39.773  26.404  29.182  1.00  0.00     0.029 A 
ATOM     54  C   UNL A   1      41.066  26.636  28.553  1.00  0.00     0.049 A 
ATOM     55  H   UNL A   1      42.225  28.365  28.630  1.00  0.00     0.167 HD
ATOM     56  C   UNL A   1      44.438  32.140  28.632  1.00  0.00     0.031 A 
ATOM     57  C   UNL A   1      41.718  25.736  27.794  1.00  0.00     0.031 A 
ATOM     58  C   UNL A   1      45.210  31.251  27.802  1.00  0.00     0.049 A 
ATOM     59  C   UNL A   1      42.998  26.146  27.127  1.00  0.00     0.074 A 
ATOM     60  C   UNL A   1      46.429  31.483  27.190  1.00  0.00     0.029 A 
ATOM     61  N   UNL A   1      44.840  29.955  27.477  1.00  0.00    -0.354 N 
ATOM     62  N   UNL A   1      43.639  27.286  27.203  1.00  0.00    -0.248 NA
ATOM     63  C   UNL A   1      43.635  25.149  26.256  1.00  0.00     0.031 C 
ATOM     64  C   UNL A   1      46.771  30.345  26.451  1.00  0.00     0.029 A 
ATOM     65  C   UNL A   1      45.796  29.382  26.657  1.00  0.00     0.049 A 
ATOM     66  H   UNL A   1      44.019  29.507  27.786  1.00  0.00     0.167 HD
ATOM     67  C   UNL A   1      44.766  27.139  26.407  1.00  0.00     0.074 A 
ATOM     68  C   UNL A   1      44.730  25.791  25.876  1.00  0.00     0.031 C 
ATOM     69  C   UNL A   1      45.742  28.039  26.137  1.00  0.00     0.031 A 
BRANCH  56  70
ATOM     70  C   UNL A   1      44.951  33.539  28.851  1.00  0.00    -0.014 A 
ATOM     71  C   UNL A   1      46.049  33.806  29.683  1.00  0.00     0.009 A 
ATOM     72  C   UNL A   1      44.336  34.608  28.179  1.00  0.00     0.009 A 
ATOM     73  C   UNL A   1      46.494  35.118  29.869  1.00  0.00     0.001 A 
ATOM     74  C   UNL A   1      44.801  35.914  28.342  1.00  0.00     0.001 A 
ATOM     75  C   UNL A   1      45.873  36.170  29.195  1.00  0.00     0.000 A 
ENDBRANCH  56  70
BRANCH  57  76
ATOM     76  C   UNL A   1      41.135  24.386  27.572  1.00  0.00    -0.014 A 
ATOM     77  C   UNL A   1      40.054  24.207  26.697  1.00  0.00     0.009 A 
ATOM     78  C   UNL A   1      41.665  23.263  28.231  1.00  0.00     0.009 A 
ATOM     79  C   UNL A   1      39.506  22.937  26.500  1.00  0.00     0.001 A 
ATOM     80  C   UNL A   1      41.139  21.991  28.005  1.00  0.00     0.001 A 
ATOM     81  C   UNL A   1      40.053  21.829  27.147  1.00  0.00     0.000 A 
ENDBRANCH  57  76
BRANCH  69  82
ATOM     82  C   UNL A   1      46.873  27.575  25.263  1.00  0.00    -0.014 A 
ATOM     83  C   UNL A   1      46.905  27.868  23.891  1.00  0.00     0.009 A 
ATOM     84  C   UNL A   1      47.936  26.857  25.833  1.00  0.00     0.009 A 
ATOM     85  C   UNL A   1      47.963  27.415  23.101  1.00  0.00     0.001 A 
ATOM     86  C   UNL A   1      49.007  26.435  25.047  1.00  0.00     0.001 A 
ATOM     87  C   UNL A   1      49.014  26.705  23.679  1.00  0.00     0.000 A 
ENDBRANCH  69  82
ENDBRANCH  43  44
ENDBRANCH  36  38
ENDBRANCH  35  36
ENDBRANCH  34  35
ENDBRANCH  33  34
ENDBRANCH  32  33
ENDBRANCH   1  32
TORSDOF 17
ENDMDL
MODEL 2
REMARK VINA RESULT:     -11.9      4.237      6.693
REMARK SMILES O=C(CSc1ccc(Cl)cc1)Nc1cccc(C(=O)Nc2ccc(C(=O)OCCOC(=O)c3ccc(-c4c5nc(c(-c6ccccc6)c6ccc([nH]6)c(-c6ccccc6)c6nc(c(-c7ccccc7)c7ccc4[nH]7)C=C6)C=C5)cc3)cc2)c1
REMARK SMILES IDX 25 1 26 2 24 3 21 4 22 5 82 6 23 7 81 8 20 9 18 10 19 11
REMARK SMILES IDX 17 13 13 14 14 15 83 16 15 17 16 18 12 19 1 20 2 21 3 23
REMARK SMILES IDX 4 24 5 25 6 26 11 27 7 28 10 29 8 30 9 31 27 32 28 33 29 34
REMARK SMILES IDX 30 35 31 36 32 37 33 38 34 39 80 40 35 41 79 42 36 43 37 44
REMARK SMILES IDX 38 45 73 46 39 47 78 48 72 49 74 50 40 51 77 52 71 53 70 54
REMARK SMILES IDX 41 56 63 57 48 58 62 59 49 60 52 61 61 62 75 63 50 64 51 65
REMARK SMILES IDX 60 67 76 68 53 69 42 70 43 71 47 72 44 73 46 74 45 75 64 76
REMARK SMILES IDX 65 77 69 78 66 79 68 80 67 81 54 82 55 83 59 84 56 85 58 86
REMARK SMILES IDX 57 87
REMARK H PARENT 20 12 12 22 74 55 52 66
REMARK Flexibility Score: inf
ROOT
ATOM      1  C   UNL A   1      33.867  32.105  28.104  1.00  0.00     0.338 C 
ATOM      2  O   UNL A   1      34.877  31.798  28.709  1.00  0.00    -0.246 OA
ENDROOT
BRANCH   1   3
ATOM      3  C   UNL A   1      33.139  31.138  27.241  1.00  0.00     0.060 A 
ATOM      4  C   UNL A   1      32.124  29.688  25.081  1.00  0.00     0.041 A 
ATOM      5  C   UNL A   1      33.341  29.314  25.640  1.00  0.00     0.027 A 
ATOM      6  C   UNL A   1      31.332  30.656  25.714  1.00  0.00     0.027 A 
ATOM      7  C   UNL A   1      33.866  30.080  26.676  1.00  0.00     0.018 A 
ATOM      8  C   UNL A   1      31.834  31.378  26.807  1.00  0.00     0.018 A 
BRANCH   4   9
ATOM      9  N   UNL A   1      31.853  29.180  23.804  1.00  0.00    -0.322 N 
ATOM     10  C   UNL A   1      31.535  27.889  23.417  1.00  0.00     0.255 C 
ATOM     11  O   UNL A   1      31.396  27.646  22.218  1.00  0.00    -0.269 OA
ATOM     12  H   UNL A   1      31.896  29.837  23.072  1.00  0.00     0.170 HD
BRANCH  10  13
ATOM     13  C   UNL A   1      31.282  26.792  24.399  1.00  0.00     0.042 A 
ATOM     14  C   UNL A   1      31.968  24.765  25.565  1.00  0.00     0.041 A 
ATOM     15  C   UNL A   1      30.664  24.614  26.041  1.00  0.00     0.026 A 
ATOM     16  C   UNL A   1      32.282  25.910  24.826  1.00  0.00     0.040 A 
ATOM     17  C   UNL A   1      29.693  25.578  25.759  1.00  0.00     0.003 A 
ATOM     18  C   UNL A   1      29.994  26.653  24.922  1.00  0.00     0.014 A 
BRANCH  14  19
ATOM     19  N   UNL A   1      32.878  23.704  25.768  1.00  0.00    -0.325 N 
ATOM     20  O   UNL A   1      31.934  22.048  24.451  1.00  0.00    -0.274 OA
ATOM     21  C   UNL A   1      32.745  22.411  25.301  1.00  0.00     0.234 C 
ATOM     22  H   UNL A   1      33.684  23.906  26.294  1.00  0.00     0.169 HD
BRANCH  21  23
ATOM     23  C   UNL A   1      33.653  21.387  25.969  1.00  0.00     0.175 C 
BRANCH  23  24
ATOM     24  S   UNL A   1      34.775  20.545  24.822  1.00  0.00    -0.116 SA
BRANCH  24  25
ATOM     25  C   UNL A   1      34.194  18.853  24.818  1.00  0.00     0.008 A 
ATOM     26  C   UNL A   1      34.898  17.748  24.327  1.00  0.00     0.016 A 
ATOM     27  C   UNL A   1      32.945  18.635  25.416  1.00  0.00     0.016 A 
ATOM     28  C   UNL A   1      34.411  16.450  24.509  1.00  0.00     0.021 A 
ATOM     29  C   UNL A   1      32.442  17.341  25.573  1.00  0.00     0.021 A 
ATOM     30  C   UNL A   1      33.190  16.250  25.141  1.00  0.00     0.041 A 
ATOM     31  Cl  UNL A   1      32.607  14.653  25.392  1.00  0.00    -0.084 Cl
ENDBRANCH  24  25
ENDBRANCH  23  24
ENDBRANCH  21  23
ENDBRANCH  14  19
ENDBRANCH  10  13
ENDBRANCH   4   9
ENDBRANCH   1   3
BRANCH   1  32
ATOM     32  O   UNL A   1      33.308  33.342  28.105  1.00  0.00    -0.458 OA
BRANCH  32  33
ATOM     33  C   UNL A   1      34.163  34.378  28.639  1.00  0.00     0.275 C 
BRANCH  33  34
ATOM     34  C   UNL A   1      33.358  35.513  29.275  1.00  0.00     0.275 C 
BRANCH  34  35
ATOM     35  O   UNL A   1      32.520  35.032  30.344  1.00  0.00    -0.458 OA
BRANCH  35  36
ATOM     36  C   UNL A   1      32.727  35.628  31.538  1.00  0.00     0.338 C 
ATOM     37  O   UNL A   1      32.089  36.551  32.026  1.00  0.00    -0.246 OA
BRANCH  36  38
ATOM     38  C   UNL A   1      33.818  34.973  32.272  1.00  0.00     0.060 A 
ATOM     39  C   UNL A   1      35.098  35.501  32.166  1.00  0.00     0.016 A 
ATOM     40  C   UNL A   1      33.631  33.727  32.862  1.00  0.00     0.016 A 
ATOM     41  C   UNL A   1      36.208  34.732  32.488  1.00  0.00     0.010 A 
ATOM     42  C   UNL A   1      34.743  33.017  33.331  1.00  0.00     0.010 A 
ATOM     43  C   UNL A   1      36.050  33.488  33.102  1.00  0.00    -0.014 A 
BRANCH  43  44
ATOM     44  C   UNL A   1      37.246  32.679  33.471  1.00  0.00     0.031 A 
ATOM     45  C   UNL A   1      37.915  32.883  34.806  1.00  0.00     0.074 A 
ATOM     46  C   UNL A   1      37.728  31.749  32.620  1.00  0.00     0.049 A 
ATOM     47  N   UNL A   1      39.071  32.437  35.227  1.00  0.00    -0.248 NA
ATOM     48  C   UNL A   1      37.197  33.710  35.790  1.00  0.00     0.031 C 
ATOM     49  C   UNL A   1      37.144  31.390  31.324  1.00  0.00     0.029 A 
ATOM     50  N   UNL A   1      38.823  30.927  32.722  1.00  0.00    -0.354 N 
ATOM     51  C   UNL A   1      39.249  32.985  36.493  1.00  0.00     0.074 A 
ATOM     52  C   UNL A   1      38.086  33.799  36.769  1.00  0.00     0.031 C 
ATOM     53  C   UNL A   1      37.856  30.398  30.776  1.00  0.00     0.029 A 
ATOM     54  C   UNL A   1      39.012  30.129  31.619  1.00  0.00     0.049 A 
ATOM     55  H   UNL A   1      39.415  30.910  33.508  1.00  0.00     0.167 HD
ATOM     56  C   UNL A   1      40.293  32.827  37.342  1.00  0.00     0.031 A 
ATOM     57  C   UNL A   1      40.030  29.315  31.284  1.00  0.00     0.031 A 
ATOM     58  C   UNL A   1      41.430  31.984  37.075  1.00  0.00     0.049 A 
ATOM     59  C   UNL A   1      41.204  29.207  32.211  1.00  0.00     0.074 A 
ATOM     60  C   UNL A   1      42.535  31.746  37.872  1.00  0.00     0.029 A 
ATOM     61  N   UNL A   1      41.598  31.230  35.923  1.00  0.00    -0.354 N 
ATOM     62  N   UNL A   1      41.390  29.776  33.377  1.00  0.00    -0.248 NA
ATOM     63  C   UNL A   1      42.317  28.357  31.767  1.00  0.00     0.031 C 
ATOM     64  C   UNL A   1      43.398  30.890  37.178  1.00  0.00     0.029 A 
ATOM     65  C   UNL A   1      42.799  30.543  35.978  1.00  0.00     0.049 A 
ATOM     66  H   UNL A   1      40.957  31.188  35.176  1.00  0.00     0.167 HD
ATOM     67  C   UNL A   1      42.631  29.338  33.816  1.00  0.00     0.074 A 
ATOM     68  C   UNL A   1      43.142  28.440  32.801  1.00  0.00     0.031 C 
ATOM     69  C   UNL A   1      43.290  29.654  34.957  1.00  0.00     0.031 A 
BRANCH  56  70
ATOM     70  C   UNL A   1      40.281  33.625  38.620  1.00  0.00    -0.014 A 
ATOM     71  C   UNL A   1      40.827  34.915  38.695  1.00  0.00     0.009 A 
ATOM     72  C   UNL A   1      39.679  33.077  39.765  1.00  0.00     0.009 A 
ATOM     73  C   UNL A   1      40.805  35.624  39.900  1.00  0.00     0.001 A 
ATOM     74  C   UNL A   1      39.631  33.800  40.959  1.00  0.00     0.001 A 
ATOM     75  C   UNL A   1      40.203  35.068  41.028  1.00  0.00     0.000 A 
ENDBRANCH  56  70
BRANCH  57  76
ATOM     76  C   UNL A   1      40.009  28.593  29.984  1.00  0.00    -0.014 A 
ATOM     77  C   UNL A   1      39.475  27.300  29.890  1.00  0.00     0.009 A 
ATOM     78  C   UNL A   1      40.517  29.200  28.823  1.00  0.00     0.009 A 
ATOM     79  C   UNL A   1      39.466  26.624  28.667  1.00  0.00     0.001 A 
ATOM     80  C   UNL A   1      40.474  28.538  27.596  1.00  0.00     0.001 A 
ATOM     81  C   UNL A   1      39.958  27.246  27.520  1.00  0.00     0.000 A 
ENDBRANCH  57  76
BRANCH  69  82
ATOM     82  C   UNL A   1      44.616  28.984  35.185  1.00  0.00    -0.014 A 
ATOM     83  C   UNL A   1      45.814  29.561  34.736  1.00  0.00     0.009 A 
ATOM     84  C   UNL A   1      44.664  27.768  35.885  1.00  0.00     0.009 A 
ATOM     85  C   UNL A   1      47.030  28.912  34.952  1.00  0.00     0.001 A 
ATOM     86  C   UNL A   1      45.884  27.138  36.127  1.00  0.00     0.001 A 
ATOM     87  C   UNL A   1      47.065  27.705  35.650  1.00  0.00     0.000 A 
ENDBRANCH  69  82
ENDBRANCH  43  44
ENDBRANCH  36  38
ENDBRANCH  35  36
ENDBRANCH  34  35
ENDBRANCH  33  34
ENDBRANCH  32  33
ENDBRANCH   1  32
TORSDOF 17
ENDMDL
MODEL 3
REMARK VINA RESULT:     -11.7      1.795      6.139
REMARK SMILES O=C(CSc1ccc(Cl)cc1)Nc1cccc(C(=O)Nc2ccc(C(=O)OCCOC(=O)c3ccc(-c4c5nc(c(-c6ccccc6)c6ccc([nH]6)c(-c6ccccc6)c6nc(c(-c7ccccc7)c7ccc4[nH]7)C=C6)C=C5)cc3)cc2)c1
REMARK SMILES IDX 25 1 26 2 24 3 21 4 22 5 82 6 23 7 81 8 20 9 18 10 19 11
REMARK SMILES IDX 17 13 13 14 14 15 83 16 15 17 16 18 12 19 1 20 2 21 3 23
REMARK SMILES IDX 4 24 5 25 6 26 11 27 7 28 10 29 8 30 9 31 27 32 28 33 29 34
REMARK SMILES IDX 30 35 31 36 32 37 33 38 34 39 80 40 35 41 79 42 36 43 37 44
REMARK SMILES IDX 38 45 73 46 39 47 78 48 72 49 74 50 40 51 77 52 71 53 70 54
REMARK SMILES IDX 41 56 63 57 48 58 62 59 49 60 52 61 61 62 75 63 50 64 51 65
REMARK SMILES IDX 60 67 76 68 53 69 42 70 43 71 47 72 44 73 46 74 45 75 64 76
REMARK SMILES IDX 65 77 69 78 66 79 68 80 67 81 54 82 55 83 59 84 56 85 58 86
REMARK SMILES IDX 57 87
REMARK H PARENT 20 12 12 22 74 55 52 66
REMARK Flexibility Score: inf
ROOT
ATOM      1  C   UNL A   1      34.867  32.088  28.224  1.00  0.00     0.338 C 
ATOM      2  O   UNL A   1      35.797  32.643  27.668  1.00  0.00    -0.246 OA
ENDROOT
BRANCH   1   3
ATOM      3  C   UNL A   1      34.129  30.961  27.594  1.00  0.00     0.060 A 
ATOM      4  C   UNL A   1      32.413  28.821  27.074  1.00  0.00     0.041 A 
ATOM      5  C   UNL A   1      31.959  30.120  26.879  1.00  0.00     0.027 A 
ATOM      6  C   UNL A   1      33.769  28.587  27.344  1.00  0.00     0.027 A 
ATOM      7  C   UNL A   1      32.802  31.180  27.198  1.00  0.00     0.018 A 
ATOM      8  C   UNL A   1      34.637  29.661  27.593  1.00  0.00     0.018 A 
BRANCH   4   9
ATOM      9  N   UNL A   1      31.425  27.831  27.158  1.00  0.00    -0.322 N 
ATOM     10  C   UNL A   1      31.159  26.774  26.304  1.00  0.00     0.255 C 
ATOM     11  O   UNL A   1      30.190  26.052  26.537  1.00  0.00    -0.269 OA
ATOM     12  H   UNL A   1      30.830  27.897  27.940  1.00  0.00     0.170 HD
BRANCH  10  13
ATOM     13  C   UNL A   1      32.042  26.430  25.149  1.00  0.00     0.042 A 
ATOM     14  C   UNL A   1      33.966  25.278  24.198  1.00  0.00     0.041 A 
ATOM     15  C   UNL A   1      33.819  26.026  23.028  1.00  0.00     0.026 A 
ATOM     16  C   UNL A   1      33.013  25.422  25.209  1.00  0.00     0.040 A 
ATOM     17  C   UNL A   1      32.752  26.918  22.890  1.00  0.00     0.003 A 
ATOM     18  C   UNL A   1      31.879  27.137  23.956  1.00  0.00     0.014 A 
BRANCH  14  19
ATOM     19  N   UNL A   1      35.129  24.488  24.339  1.00  0.00    -0.325 N 
ATOM     20  O   UNL A   1      34.856  22.976  22.604  1.00  0.00    -0.274 OA
ATOM     21  C   UNL A   1      35.436  23.347  23.624  1.00  0.00     0.234 C 
ATOM     22  H   UNL A   1      35.783  24.779  25.013  1.00  0.00     0.169 HD
BRANCH  21  23
ATOM     23  C   UNL A   1      36.541  22.488  24.222  1.00  0.00     0.175 C 
BRANCH  23  24
ATOM     24  S   UNL A   1      35.946  20.954  24.982  1.00  0.00    -0.116 SA
BRANCH  24  25
ATOM     25  C   UNL A   1      34.367  21.409  25.687  1.00  0.00     0.008 A 
ATOM     26  C   UNL A   1      34.175  22.077  26.902  1.00  0.00     0.016 A 
ATOM     27  C   UNL A   1      33.240  21.108  24.909  1.00  0.00     0.016 A 
ATOM     28  C   UNL A   1      32.904  22.515  27.286  1.00  0.00     0.021 A 
ATOM     29  C   UNL A   1      31.965  21.519  25.304  1.00  0.00     0.021 A 
ATOM     30  C   UNL A   1      31.805  22.243  26.481  1.00  0.00     0.041 A 
ATOM     31  Cl  UNL A   1      30.248  22.809  26.939  1.00  0.00    -0.084 Cl
ENDBRANCH  24  25
ENDBRANCH  23  24
ENDBRANCH  21  23
ENDBRANCH  14  19
ENDBRANCH  10  13
ENDBRANCH   4   9
ENDBRANCH   1   3
BRANCH   1  32
ATOM     32  O   UNL A   1      34.370  32.437  29.437  1.00  0.00    -0.458 OA
BRANCH  32  33
ATOM     33  C   UNL A   1      35.372  32.869  30.386  1.00  0.00     0.275 C 
BRANCH  33  34
ATOM     34  C   UNL A   1      35.314  32.065  31.686  1.00  0.00     0.275 C 
BRANCH  34  35
ATOM     35  O   UNL A   1      36.572  31.417  31.963  1.00  0.00    -0.458 OA
BRANCH  35  36
ATOM     36  C   UNL A   1      36.792  30.284  31.262  1.00  0.00     0.338 C 
ATOM     37  O   UNL A   1      35.986  29.400  31.009  1.00  0.00    -0.246 OA
BRANCH  36  38
ATOM     38  C   UNL A   1      38.166  30.246  30.741  1.00  0.00     0.060 A 
ATOM     39  C   UNL A   1      38.361  30.398  29.375  1.00  0.00     0.016 A 
ATOM     40  C   UNL A   1      39.221  29.833  31.548  1.00  0.00     0.016 A 
ATOM     41  C   UNL A   1      39.545  29.984  28.780  1.00  0.00     0.010 A 
ATOM     42  C   UNL A   1      40.466  29.565  30.965  1.00  0.00     0.010 A 
ATOM     43  C   UNL A   1      40.628  29.586  29.566  1.00  0.00    -0.014 A 
BRANCH  43  44
ATOM     44  C   UNL A   1      41.905  29.170  28.923  1.00  0.00     0.031 A 
ATOM     45  C   UNL A   1      42.068  27.766  28.402  1.00  0.00     0.074 A 
ATOM     46  C   UNL A   1      42.919  30.051  28.790  1.00  0.00     0.049 A 
ATOM     47  N   UNL A   1      43.155  27.152  28.004  1.00  0.00    -0.248 NA
ATOM     48  C   UNL A   1      40.854  26.937  28.334  1.00  0.00     0.031 C 
ATOM     49  C   UNL A   1      42.883  31.463  29.182  1.00  0.00     0.029 A 
ATOM     50  N   UNL A   1      44.183  29.888  28.279  1.00  0.00    -0.354 N 
ATOM     51  C   UNL A   1      42.766  25.851  27.706  1.00  0.00     0.074 A 
ATOM     52  C   UNL A   1      41.347  25.761  27.973  1.00  0.00     0.031 C 
ATOM     53  C   UNL A   1      44.046  32.044  28.860  1.00  0.00     0.029 A 
ATOM     54  C   UNL A   1      44.951  31.026  28.348  1.00  0.00     0.049 A 
ATOM     55  H   UNL A   1      44.508  29.040  27.899  1.00  0.00     0.167 HD
ATOM     56  C   UNL A   1      43.528  24.824  27.258  1.00  0.00     0.031 A 
ATOM     57  C   UNL A   1      46.257  31.224  28.090  1.00  0.00     0.031 A 
ATOM     58  C   UNL A   1      44.933  24.933  26.959  1.00  0.00     0.049 A 
ATOM     59  C   UNL A   1      47.095  30.057  27.658  1.00  0.00     0.074 A 
ATOM     60  C   UNL A   1      45.794  23.957  26.490  1.00  0.00     0.029 A 
ATOM     61  N   UNL A   1      45.678  26.096  27.088  1.00  0.00    -0.354 N 
ATOM     62  N   UNL A   1      46.731  28.817  27.438  1.00  0.00    -0.248 NA
ATOM     63  C   UNL A   1      48.526  30.313  27.455  1.00  0.00     0.031 C 
ATOM     64  C   UNL A   1      47.073  24.515  26.388  1.00  0.00     0.029 A 
ATOM     65  C   UNL A   1      46.993  25.856  26.729  1.00  0.00     0.049 A 
ATOM     66  H   UNL A   1      45.324  26.964  27.389  1.00  0.00     0.167 HD
ATOM     67  C   UNL A   1      47.883  28.149  27.051  1.00  0.00     0.074 A 
ATOM     68  C   UNL A   1      48.952  29.127  27.045  1.00  0.00     0.031 C 
ATOM     69  C   UNL A   1      48.043  26.842  26.731  1.00  0.00     0.031 A 
BRANCH  56  70
ATOM     70  C   UNL A   1      42.871  23.477  27.115  1.00  0.00    -0.014 A 
ATOM     71  C   UNL A   1      42.380  23.016  25.884  1.00  0.00     0.009 A 
ATOM     72  C   UNL A   1      42.770  22.639  28.239  1.00  0.00     0.009 A 
ATOM     73  C   UNL A   1      41.769  21.763  25.789  1.00  0.00     0.001 A 
ATOM     74  C   UNL A   1      42.187  21.374  28.135  1.00  0.00     0.001 A 
ATOM     75  C   UNL A   1      41.677  20.942  26.913  1.00  0.00     0.000 A 
ENDBRANCH  56  70
BRANCH  57  76
ATOM     76  C   UNL A   1      46.862  32.567  28.300  1.00  0.00    -0.014 A 
ATOM     77  C   UNL A   1      47.409  32.921  29.542  1.00  0.00     0.009 A 
ATOM     78  C   UNL A   1      46.904  33.502  27.252  1.00  0.00     0.009 A 
ATOM     79  C   UNL A   1      47.968  34.187  29.735  1.00  0.00     0.001 A 
ATOM     80  C   UNL A   1      47.495  34.752  27.436  1.00  0.00     0.001 A 
ATOM     81  C   UNL A   1      48.018  35.098  28.680  1.00  0.00     0.000 A 
ENDBRANCH  57  76
BRANCH  69  82
ATOM     82  C   UNL A   1      49.418  26.410  26.304  1.00  0.00    -0.014 A 
ATOM     83  C   UNL A   1      49.900  26.675  25.014  1.00  0.00     0.009 A 
ATOM     84  C   UNL A   1      50.250  25.751  27.222  1.00  0.00     0.009 A 
ATOM     85  C   UNL A   1      51.177  26.253  24.640  1.00  0.00     0.001 A 
ATOM     86  C   UNL A   1      51.538  25.359  26.856  1.00  0.00     0.001 A 
ATOM     87  C   UNL A   1      51.996  25.601  25.562  1.00  0.00     0.000 A 
ENDBRANCH  69  82
ENDBRANCH  43  44
ENDBRANCH  36  38
ENDBRANCH  35  36
ENDBRANCH  34  35
ENDBRANCH  33  34
ENDBRANCH  32  33
ENDBRANCH   1  32
TORSDOF 17
ENDMDL
