MODEL 1
REMARK VINA RESULT:     -10.5      0.000      0.000
REMARK SMILES CCCCCCNC(=O)Oc1cccc(-c2ccc([C@@H](C)C(=O)OCCOC(=O)c3ccc(-c4c5nc(c(-c6ccccc6)c6ccc([nH]6)c(-c6ccccc6)c6nc(c(-c7ccccc7)c7ccc4[nH]7)C=C6)C=C5)cc3)cc2)c1
REMARK SMILES IDX 20 1 21 2 19 3 16 4 17 5 79 6 18 7 78 8 15 9 11 10 12 11
REMARK SMILES IDX 80 12 13 13 14 14 10 15 8 16 7 17 9 19 6 20 5 21 4 22 3 23
REMARK SMILES IDX 2 24 1 25 22 26 23 27 24 28 25 29 26 30 27 31 28 32 29 33
REMARK SMILES IDX 30 34 31 35 77 36 32 37 76 38 33 39 34 40 35 41 70 42 36 43
REMARK SMILES IDX 75 44 69 45 71 46 37 47 74 48 68 49 67 50 38 52 60 53 45 54
REMARK SMILES IDX 59 55 46 56 49 57 58 58 72 59 47 60 48 61 57 63 73 64 50 65
REMARK SMILES IDX 39 66 40 67 44 68 41 69 43 70 42 71 61 72 62 73 66 74 63 75
REMARK SMILES IDX 65 76 64 77 51 78 52 79 56 80 53 81 55 82 54 83
REMARK H PARENT 7 18 71 51 49 62
REMARK Flexibility Score: inf
ROOT
ATOM      1  C   UNL A   1      41.474  22.229  26.879  1.00  0.00     0.126 C 
ATOM      2  C   UNL A   1      41.601  21.620  28.275  1.00  0.00     0.025 C 
ENDROOT
BRANCH   1   3
ATOM      3  C   UNL A   1      40.028  22.486  26.486  1.00  0.00    -0.034 A 
ATOM      4  C   UNL A   1      37.350  22.951  25.645  1.00  0.00    -0.018 A 
ATOM      5  C   UNL A   1      38.102  23.957  26.270  1.00  0.00     0.009 A 
ATOM      6  C   UNL A   1      37.953  21.696  25.478  1.00  0.00     0.009 A 
ATOM      7  C   UNL A   1      39.421  23.733  26.679  1.00  0.00     0.005 A 
ATOM      8  C   UNL A   1      39.271  21.467  25.891  1.00  0.00     0.005 A 
BRANCH   4   9
ATOM      9  C   UNL A   1      35.993  23.223  25.137  1.00  0.00    -0.015 A 
ATOM     10  C   UNL A   1      33.875  22.497  24.199  1.00  0.00     0.133 A 
ATOM     11  C   UNL A   1      33.433  23.814  24.099  1.00  0.00     0.047 A 
ATOM     12  C   UNL A   1      35.143  22.193  24.701  1.00  0.00     0.056 A 
ATOM     13  C   UNL A   1      34.260  24.844  24.531  1.00  0.00     0.004 A 
ATOM     14  C   UNL A   1      35.527  24.550  25.042  1.00  0.00     0.009 A 
BRANCH  10  15
ATOM     15  O   UNL A   1      33.037  21.512  23.653  1.00  0.00    -0.410 OA
BRANCH  15  16
ATOM     16  C   UNL A   1      32.295  20.728  24.523  1.00  0.00     0.412 C 
ATOM     17  N   UNL A   1      32.162  19.435  24.096  1.00  0.00    -0.321 N 
ATOM     18  H   UNL A   1      31.666  18.824  24.688  1.00  0.00     0.167 HD
ATOM     19  O   UNL A   1      31.775  21.099  25.569  1.00  0.00    -0.224 OA
BRANCH  17  20
ATOM     20  C   UNL A   1      32.673  18.869  22.863  1.00  0.00     0.119 C 
BRANCH  20  21
ATOM     21  C   UNL A   1      33.000  17.382  23.003  1.00  0.00     0.021 C 
BRANCH  21  22
ATOM     22  C   UNL A   1      34.404  17.078  23.544  1.00  0.00     0.002 C 
BRANCH  22  23
ATOM     23  C   UNL A   1      34.462  16.123  24.741  1.00  0.00    -0.000 C 
BRANCH  23  24
ATOM     24  C   UNL A   1      33.229  16.124  25.647  1.00  0.00    -0.003 C 
ATOM     25  C   UNL A   1      32.476  14.804  25.644  1.00  0.00     0.004 C 
ENDBRANCH  23  24
ENDBRANCH  22  23
ENDBRANCH  21  22
ENDBRANCH  20  21
ENDBRANCH  17  20
ENDBRANCH  15  16
ENDBRANCH  10  15
ENDBRANCH   4   9
ENDBRANCH   1   3
BRANCH   1  26
ATOM     26  C   UNL A   1      42.307  21.428  25.886  1.00  0.00     0.313 C 
ATOM     27  O   UNL A   1      42.391  20.204  25.946  1.00  0.00    -0.252 OA
BRANCH  26  28
ATOM     28  O   UNL A   1      42.895  22.187  24.927  1.00  0.00    -0.462 OA
BRANCH  28  29
ATOM     29  C   UNL A   1      44.272  21.898  24.618  1.00  0.00     0.274 C 
BRANCH  29  30
ATOM     30  C   UNL A   1      45.088  23.183  24.475  1.00  0.00     0.275 C 
BRANCH  30  31
ATOM     31  O   UNL A   1      44.253  24.345  24.641  1.00  0.00    -0.458 OA
BRANCH  31  32
ATOM     32  C   UNL A   1      44.891  25.456  25.072  1.00  0.00     0.338 C 
ATOM     33  O   UNL A   1      45.897  25.967  24.615  1.00  0.00    -0.246 OA
BRANCH  32  34
ATOM     34  C   UNL A   1      44.118  26.065  26.161  1.00  0.00     0.060 A 
ATOM     35  C   UNL A   1      44.316  27.420  26.432  1.00  0.00     0.016 A 
ATOM     36  C   UNL A   1      43.277  25.293  26.962  1.00  0.00     0.016 A 
ATOM     37  C   UNL A   1      43.681  28.014  27.519  1.00  0.00     0.010 A 
ATOM     38  C   UNL A   1      42.631  25.892  28.047  1.00  0.00     0.010 A 
ATOM     39  C   UNL A   1      42.840  27.252  28.340  1.00  0.00    -0.014 A 
BRANCH  39  40
ATOM     40  C   UNL A   1      42.215  27.875  29.528  1.00  0.00     0.031 A 
ATOM     41  C   UNL A   1      40.878  28.546  29.405  1.00  0.00     0.074 A 
ATOM     42  C   UNL A   1      42.837  27.817  30.720  1.00  0.00     0.049 A 
ATOM     43  N   UNL A   1      40.200  29.206  30.309  1.00  0.00    -0.248 NA
ATOM     44  C   UNL A   1      40.217  28.465  28.092  1.00  0.00     0.031 C 
ATOM     45  C   UNL A   1      44.112  27.148  30.977  1.00  0.00     0.029 A 
ATOM     46  N   UNL A   1      42.474  28.331  31.939  1.00  0.00    -0.354 N 
ATOM     47  C   UNL A   1      39.043  29.637  29.671  1.00  0.00     0.074 A 
ATOM     48  C   UNL A   1      39.117  29.175  28.302  1.00  0.00     0.031 C 
ATOM     49  C   UNL A   1      44.424  27.288  32.276  1.00  0.00     0.029 A 
ATOM     50  C   UNL A   1      43.395  28.093  32.929  1.00  0.00     0.049 A 
ATOM     51  H   UNL A   1      41.633  28.822  32.089  1.00  0.00     0.167 HD
ATOM     52  C   UNL A   1      38.014  30.353  30.182  1.00  0.00     0.031 A 
ATOM     53  C   UNL A   1      43.420  28.502  34.211  1.00  0.00     0.031 A 
ATOM     54  C   UNL A   1      37.940  30.812  31.544  1.00  0.00     0.049 A 
ATOM     55  C   UNL A   1      42.299  29.355  34.733  1.00  0.00     0.074 A 
ATOM     56  C   UNL A   1      36.933  31.536  32.158  1.00  0.00     0.029 A 
ATOM     57  N   UNL A   1      38.916  30.590  32.503  1.00  0.00    -0.354 N 
ATOM     58  N   UNL A   1      41.216  29.761  34.119  1.00  0.00    -0.248 NA
ATOM     59  C   UNL A   1      42.411  29.812  36.126  1.00  0.00     0.031 C 
ATOM     60  C   UNL A   1      37.320  31.791  33.478  1.00  0.00     0.029 A 
ATOM     61  C   UNL A   1      38.547  31.185  33.697  1.00  0.00     0.049 A 
ATOM     62  H   UNL A   1      39.749  30.085  32.357  1.00  0.00     0.167 HD
ATOM     63  C   UNL A   1      40.510  30.508  35.052  1.00  0.00     0.074 A 
ATOM     64  C   UNL A   1      41.279  30.486  36.279  1.00  0.00     0.031 C 
ATOM     65  C   UNL A   1      39.329  31.158  34.905  1.00  0.00     0.031 A 
BRANCH  52  66
ATOM     66  C   UNL A   1      36.899  30.718  29.246  1.00  0.00    -0.014 A 
ATOM     67  C   UNL A   1      35.954  29.768  28.830  1.00  0.00     0.009 A 
ATOM     68  C   UNL A   1      36.777  32.042  28.795  1.00  0.00     0.009 A 
ATOM     69  C   UNL A   1      34.926  30.132  27.957  1.00  0.00     0.001 A 
ATOM     70  C   UNL A   1      35.736  32.407  27.941  1.00  0.00     0.001 A 
ATOM     71  C   UNL A   1      34.817  31.450  27.516  1.00  0.00     0.000 A 
ENDBRANCH  52  66
BRANCH  53  72
ATOM     72  C   UNL A   1      44.566  28.138  35.082  1.00  0.00    -0.014 A 
ATOM     73  C   UNL A   1      45.711  28.946  35.130  1.00  0.00     0.009 A 
ATOM     74  C   UNL A   1      44.519  26.975  35.869  1.00  0.00     0.009 A 
ATOM     75  C   UNL A   1      46.794  28.587  35.936  1.00  0.00     0.001 A 
ATOM     76  C   UNL A   1      45.592  26.633  36.692  1.00  0.00     0.001 A 
ATOM     77  C   UNL A   1      46.731  27.435  36.719  1.00  0.00     0.000 A 
ENDBRANCH  53  72
BRANCH  65  78
ATOM     78  C   UNL A   1      38.793  31.878  36.108  1.00  0.00    -0.014 A 
ATOM     79  C   UNL A   1      39.122  33.219  36.356  1.00  0.00     0.009 A 
ATOM     80  C   UNL A   1      37.919  31.215  36.985  1.00  0.00     0.009 A 
ATOM     81  C   UNL A   1      38.609  33.875  37.475  1.00  0.00     0.001 A 
ATOM     82  C   UNL A   1      37.390  31.882  38.090  1.00  0.00     0.001 A 
ATOM     83  C   UNL A   1      37.741  33.208  38.340  1.00  0.00     0.000 A 
ENDBRANCH  65  78
ENDBRANCH  39  40
ENDBRANCH  32  34
ENDBRANCH  31  32
ENDBRANCH  30  31
ENDBRANCH  29  30
ENDBRANCH  28  29
ENDBRANCH  26  28
ENDBRANCH   1  26
TORSDOF 20
ENDMDL
MODEL 2
REMARK VINA RESULT:     -10.5      2.007      3.270
REMARK SMILES CCCCCCNC(=O)Oc1cccc(-c2ccc([C@@H](C)C(=O)OCCOC(=O)c3ccc(-c4c5nc(c(-c6ccccc6)c6ccc([nH]6)c(-c6ccccc6)c6nc(c(-c7ccccc7)c7ccc4[nH]7)C=C6)C=C5)cc3)cc2)c1
REMARK SMILES IDX 20 1 21 2 19 3 16 4 17 5 79 6 18 7 78 8 15 9 11 10 12 11
REMARK SMILES IDX 80 12 13 13 14 14 10 15 8 16 7 17 9 19 6 20 5 21 4 22 3 23
REMARK SMILES IDX 2 24 1 25 22 26 23 27 24 28 25 29 26 30 27 31 28 32 29 33
REMARK SMILES IDX 30 34 31 35 77 36 32 37 76 38 33 39 34 40 35 41 70 42 36 43
REMARK SMILES IDX 75 44 69 45 71 46 37 47 74 48 68 49 67 50 38 52 60 53 45 54
REMARK SMILES IDX 59 55 46 56 49 57 58 58 72 59 47 60 48 61 57 63 73 64 50 65
REMARK SMILES IDX 39 66 40 67 44 68 41 69 43 70 42 71 61 72 62 73 66 74 63 75
REMARK SMILES IDX 65 76 64 77 51 78 52 79 56 80 53 81 55 82 54 83
REMARK H PARENT 7 18 71 51 49 62
REMARK Flexibility Score: inf
ROOT
ATOM      1  C   UNL A   1      41.581  22.199  26.970  1.00  0.00     0.126 C 
ATOM      2  C   UNL A   1      41.736  21.884  28.457  1.00  0.00     0.025 C 
ENDROOT
BRANCH   1   3
ATOM      3  C   UNL A   1      40.136  22.467  26.580  1.00  0.00    -0.034 A 
ATOM      4  C   UNL A   1      37.459  22.952  25.744  1.00  0.00    -0.018 A 
ATOM      5  C   UNL A   1      38.217  23.949  26.378  1.00  0.00     0.009 A 
ATOM      6  C   UNL A   1      38.056  21.696  25.566  1.00  0.00     0.009 A 
ATOM      7  C   UNL A   1      39.535  23.715  26.784  1.00  0.00     0.005 A 
ATOM      8  C   UNL A   1      39.373  21.456  25.976  1.00  0.00     0.005 A 
BRANCH   4   9
ATOM      9  C   UNL A   1      36.104  23.235  25.239  1.00  0.00    -0.015 A 
ATOM     10  C   UNL A   1      33.727  23.593  25.576  1.00  0.00     0.133 A 
ATOM     11  C   UNL A   1      33.518  23.699  24.203  1.00  0.00     0.047 A 
ATOM     12  C   UNL A   1      35.000  23.353  26.100  1.00  0.00     0.056 A 
ATOM     13  C   UNL A   1      34.600  23.590  23.338  1.00  0.00     0.004 A 
ATOM     14  C   UNL A   1      35.878  23.358  23.853  1.00  0.00     0.009 A 
BRANCH  10  15
ATOM     15  O   UNL A   1      32.582  23.612  26.388  1.00  0.00    -0.410 OA
BRANCH  15  16
ATOM     16  C   UNL A   1      31.444  22.966  25.930  1.00  0.00     0.412 C 
ATOM     17  N   UNL A   1      30.420  23.827  25.641  1.00  0.00    -0.321 N 
ATOM     18  H   UNL A   1      29.594  23.426  25.287  1.00  0.00     0.167 HD
ATOM     19  O   UNL A   1      31.304  21.757  25.792  1.00  0.00    -0.224 OA
BRANCH  17  20
ATOM     20  C   UNL A   1      30.423  25.267  25.804  1.00  0.00     0.119 C 
BRANCH  20  21
ATOM     21  C   UNL A   1      29.828  25.985  24.593  1.00  0.00     0.021 C 
BRANCH  21  22
ATOM     22  C   UNL A   1      30.444  27.358  24.291  1.00  0.00     0.002 C 
BRANCH  22  23
ATOM     23  C   UNL A   1      31.809  27.630  24.934  1.00  0.00    -0.000 C 
BRANCH  23  24
ATOM     24  C   UNL A   1      31.793  28.567  26.144  1.00  0.00    -0.003 C 
ATOM     25  C   UNL A   1      31.854  30.039  25.769  1.00  0.00     0.004 C 
ENDBRANCH  23  24
ENDBRANCH  22  23
ENDBRANCH  21  22
ENDBRANCH  20  21
ENDBRANCH  17  20
ENDBRANCH  15  16
ENDBRANCH  10  15
ENDBRANCH   4   9
ENDBRANCH   1   3
BRANCH   1  26
ATOM     26  C   UNL A   1      42.317  21.155  26.139  1.00  0.00     0.313 C 
ATOM     27  O   UNL A   1      42.339  19.969  26.455  1.00  0.00    -0.252 OA
BRANCH  26  28
ATOM     28  O   UNL A   1      42.896  21.658  25.018  1.00  0.00    -0.462 OA
BRANCH  28  29
ATOM     29  C   UNL A   1      44.327  21.820  25.039  1.00  0.00     0.274 C 
BRANCH  29  30
ATOM     30  C   UNL A   1      44.750  23.096  24.312  1.00  0.00     0.275 C 
BRANCH  30  31
ATOM     31  O   UNL A   1      43.913  24.206  24.690  1.00  0.00    -0.458 OA
BRANCH  31  32
ATOM     32  C   UNL A   1      44.573  25.312  25.099  1.00  0.00     0.338 C 
ATOM     33  O   UNL A   1      45.577  25.805  24.621  1.00  0.00    -0.246 OA
BRANCH  32  34
ATOM     34  C   UNL A   1      43.826  25.941  26.196  1.00  0.00     0.060 A 
ATOM     35  C   UNL A   1      44.097  27.278  26.496  1.00  0.00     0.016 A 
ATOM     36  C   UNL A   1      42.938  25.201  26.976  1.00  0.00     0.016 A 
ATOM     37  C   UNL A   1      43.488  27.883  27.591  1.00  0.00     0.010 A 
ATOM     38  C   UNL A   1      42.318  25.814  28.069  1.00  0.00     0.010 A 
ATOM     39  C   UNL A   1      42.600  27.153  28.390  1.00  0.00    -0.014 A 
BRANCH  39  40
ATOM     40  C   UNL A   1      42.001  27.786  29.587  1.00  0.00     0.031 A 
ATOM     41  C   UNL A   1      40.700  28.525  29.470  1.00  0.00     0.074 A 
ATOM     42  C   UNL A   1      42.614  27.677  30.780  1.00  0.00     0.049 A 
ATOM     43  N   UNL A   1      40.051  29.202  30.384  1.00  0.00    -0.248 NA
ATOM     44  C   UNL A   1      40.041  28.499  28.155  1.00  0.00     0.031 C 
ATOM     45  C   UNL A   1      43.854  26.941  31.030  1.00  0.00     0.029 A 
ATOM     46  N   UNL A   1      42.272  28.187  32.006  1.00  0.00    -0.354 N 
ATOM     47  C   UNL A   1      38.920  29.701  29.750  1.00  0.00     0.074 A 
ATOM     48  C   UNL A   1      38.977  29.259  28.373  1.00  0.00     0.031 C 
ATOM     49  C   UNL A   1      44.166  27.043  32.332  1.00  0.00     0.029 A 
ATOM     50  C   UNL A   1      43.176  27.887  32.995  1.00  0.00     0.049 A 
ATOM     51  H   UNL A   1      41.456  28.717  32.162  1.00  0.00     0.167 HD
ATOM     52  C   UNL A   1      37.926  30.458  30.269  1.00  0.00     0.031 A 
ATOM     53  C   UNL A   1      43.216  28.272  34.284  1.00  0.00     0.031 A 
ATOM     54  C   UNL A   1      37.869  30.897  31.639  1.00  0.00     0.049 A 
ATOM     55  C   UNL A   1      42.136  29.171  34.817  1.00  0.00     0.074 A 
ATOM     56  C   UNL A   1      36.896  31.659  32.261  1.00  0.00     0.029 A 
ATOM     57  N   UNL A   1      38.828  30.611  32.597  1.00  0.00    -0.354 N 
ATOM     58  N   UNL A   1      41.077  29.641  34.206  1.00  0.00    -0.248 NA
ATOM     59  C   UNL A   1      42.265  29.599  36.218  1.00  0.00     0.031 C 
ATOM     60  C   UNL A   1      37.289  31.873  33.587  1.00  0.00     0.029 A 
ATOM     61  C   UNL A   1      38.483  31.203  33.800  1.00  0.00     0.049 A 
ATOM     62  H   UNL A   1      39.635  30.068  32.445  1.00  0.00     0.167 HD
ATOM     63  C   UNL A   1      40.405  30.406  35.149  1.00  0.00     0.074 A 
ATOM     64  C   UNL A   1      41.167  30.324  36.379  1.00  0.00     0.031 C 
ATOM     65  C   UNL A   1      39.258  31.117  35.010  1.00  0.00     0.031 A 
BRANCH  52  66
ATOM     66  C   UNL A   1      36.834  30.894  29.335  1.00  0.00    -0.014 A 
ATOM     67  C   UNL A   1      35.819  30.011  28.935  1.00  0.00     0.009 A 
ATOM     68  C   UNL A   1      36.806  32.219  28.872  1.00  0.00     0.009 A 
ATOM     69  C   UNL A   1      34.815  30.440  28.064  1.00  0.00     0.001 A 
ATOM     70  C   UNL A   1      35.789  32.650  28.020  1.00  0.00     0.001 A 
ATOM     71  C   UNL A   1      34.799  31.758  27.610  1.00  0.00     0.000 A 
ENDBRANCH  52  66
BRANCH  53  72
ATOM     72  C   UNL A   1      44.339  27.837  35.153  1.00  0.00    -0.014 A 
ATOM     73  C   UNL A   1      45.549  28.545  35.162  1.00  0.00     0.009 A 
ATOM     74  C   UNL A   1      44.203  26.707  35.975  1.00  0.00     0.009 A 
ATOM     75  C   UNL A   1      46.608  28.118  35.967  1.00  0.00     0.001 A 
ATOM     76  C   UNL A   1      45.255  26.298  36.796  1.00  0.00     0.001 A 
ATOM     77  C   UNL A   1      46.459  27.000  36.786  1.00  0.00     0.000 A 
ENDBRANCH  53  72
BRANCH  65  78
ATOM     78  C   UNL A   1      38.753  31.841  36.223  1.00  0.00    -0.014 A 
ATOM     79  C   UNL A   1      39.107  33.177  36.468  1.00  0.00     0.009 A 
ATOM     80  C   UNL A   1      37.886  31.189  37.114  1.00  0.00     0.009 A 
ATOM     81  C   UNL A   1      38.622  33.838  37.597  1.00  0.00     0.001 A 
ATOM     82  C   UNL A   1      37.385  31.861  38.229  1.00  0.00     0.001 A 
ATOM     83  C   UNL A   1      37.759  33.181  38.475  1.00  0.00     0.000 A 
ENDBRANCH  65  78
ENDBRANCH  39  40
ENDBRANCH  32  34
ENDBRANCH  31  32
ENDBRANCH  30  31
ENDBRANCH  29  30
ENDBRANCH  28  29
ENDBRANCH  26  28
ENDBRANCH   1  26
TORSDOF 20
ENDMDL
MODEL 3
REMARK VINA RESULT:     -10.4      4.283      7.284
REMARK SMILES CCCCCCNC(=O)Oc1cccc(-c2ccc([C@@H](C)C(=O)OCCOC(=O)c3ccc(-c4c5nc(c(-c6ccccc6)c6ccc([nH]6)c(-c6ccccc6)c6nc(c(-c7ccccc7)c7ccc4[nH]7)C=C6)C=C5)cc3)cc2)c1
REMARK SMILES IDX 20 1 21 2 19 3 16 4 17 5 79 6 18 7 78 8 15 9 11 10 12 11
REMARK SMILES IDX 80 12 13 13 14 14 10 15 8 16 7 17 9 19 6 20 5 21 4 22 3 23
REMARK SMILES IDX 2 24 1 25 22 26 23 27 24 28 25 29 26 30 27 31 28 32 29 33
REMARK SMILES IDX 30 34 31 35 77 36 32 37 76 38 33 39 34 40 35 41 70 42 36 43
REMARK SMILES IDX 75 44 69 45 71 46 37 47 74 48 68 49 67 50 38 52 60 53 45 54
REMARK SMILES IDX 59 55 46 56 49 57 58 58 72 59 47 60 48 61 57 63 73 64 50 65
REMARK SMILES IDX 39 66 40 67 44 68 41 69 43 70 42 71 61 72 62 73 66 74 63 75
REMARK SMILES IDX 65 76 64 77 51 78 52 79 56 80 53 81 55 82 54 83
REMARK H PARENT 7 18 71 51 49 62
REMARK Flexibility Score: inf
ROOT
ATOM      1  C   UNL A   1      41.821  21.791  27.181  1.00  0.00     0.126 C 
ATOM      2  C   UNL A   1      40.766  20.697  27.327  1.00  0.00     0.025 C 
ENDROOT
BRANCH   1   3
ATOM      3  C   UNL A   1      41.280  23.171  27.516  1.00  0.00    -0.034 A 
ATOM      4  C   UNL A   1      40.273  25.730  28.249  1.00  0.00    -0.018 A 
ATOM      5  C   UNL A   1      39.500  24.830  27.499  1.00  0.00     0.009 A 
ATOM      6  C   UNL A   1      41.573  25.337  28.598  1.00  0.00     0.009 A 
ATOM      7  C   UNL A   1      39.990  23.570  27.142  1.00  0.00     0.005 A 
ATOM      8  C   UNL A   1      42.069  24.078  28.238  1.00  0.00     0.005 A 
BRANCH   4   9
ATOM      9  C   UNL A   1      39.716  27.019  28.698  1.00  0.00    -0.015 A 
ATOM     10  C   UNL A   1      38.366  28.356  30.209  1.00  0.00     0.133 A 
ATOM     11  C   UNL A   1      38.614  29.505  29.461  1.00  0.00     0.047 A 
ATOM     12  C   UNL A   1      38.897  27.119  29.835  1.00  0.00     0.056 A 
ATOM     13  C   UNL A   1      39.426  29.424  28.336  1.00  0.00     0.004 A 
ATOM     14  C   UNL A   1      39.968  28.193  27.959  1.00  0.00     0.009 A 
BRANCH  10  15
ATOM     15  O   UNL A   1      37.459  28.484  31.272  1.00  0.00    -0.410 OA
BRANCH  15  16
ATOM     16  C   UNL A   1      37.930  28.295  32.562  1.00  0.00     0.412 C 
ATOM     17  N   UNL A   1      37.910  29.441  33.311  1.00  0.00    -0.321 N 
ATOM     18  H   UNL A   1      38.211  29.361  34.245  1.00  0.00     0.167 HD
ATOM     19  O   UNL A   1      38.349  27.245  33.033  1.00  0.00    -0.224 OA
BRANCH  17  20
ATOM     20  C   UNL A   1      37.495  30.759  32.874  1.00  0.00     0.119 C 
BRANCH  20  21
ATOM     21  C   UNL A   1      38.685  31.666  32.565  1.00  0.00     0.021 C 
BRANCH  21  22
ATOM     22  C   UNL A   1      38.455  33.154  32.858  1.00  0.00     0.002 C 
BRANCH  22  23
ATOM     23  C   UNL A   1      38.803  34.117  31.717  1.00  0.00    -0.000 C 
BRANCH  23  24
ATOM     24  C   UNL A   1      39.192  33.458  30.391  1.00  0.00    -0.003 C 
ATOM     25  C   UNL A   1      38.384  33.961  29.206  1.00  0.00     0.004 C 
ENDBRANCH  23  24
ENDBRANCH  22  23
ENDBRANCH  21  22
ENDBRANCH  20  21
ENDBRANCH  17  20
ENDBRANCH  15  16
ENDBRANCH  10  15
ENDBRANCH   4   9
ENDBRANCH   1   3
BRANCH   1  26
ATOM     26  C   UNL A   1      42.527  21.656  25.837  1.00  0.00     0.313 C 
ATOM     27  O   UNL A   1      42.883  20.566  25.396  1.00  0.00    -0.252 OA
BRANCH  26  28
ATOM     28  O   UNL A   1      42.676  22.832  25.176  1.00  0.00    -0.462 OA
BRANCH  28  29
ATOM     29  C   UNL A   1      43.889  23.006  24.419  1.00  0.00     0.274 C 
BRANCH  29  30
ATOM     30  C   UNL A   1      44.870  23.924  25.150  1.00  0.00     0.275 C 
BRANCH  30  31
ATOM     31  O   UNL A   1      44.741  25.283  24.693  1.00  0.00    -0.458 OA
BRANCH  31  32
ATOM     32  C   UNL A   1      45.729  26.119  25.086  1.00  0.00     0.338 C 
ATOM     33  O   UNL A   1      46.846  26.230  24.617  1.00  0.00    -0.246 OA
BRANCH  32  34
ATOM     34  C   UNL A   1      45.223  27.000  26.146  1.00  0.00     0.060 A 
ATOM     35  C   UNL A   1      46.120  27.443  27.119  1.00  0.00     0.016 A 
ATOM     36  C   UNL A   1      43.866  27.311  26.232  1.00  0.00     0.016 A 
ATOM     37  C   UNL A   1      45.664  28.195  28.197  1.00  0.00     0.010 A 
ATOM     38  C   UNL A   1      43.410  28.076  27.309  1.00  0.00     0.010 A 
ATOM     39  C   UNL A   1      44.303  28.510  28.305  1.00  0.00    -0.014 A 
BRANCH  39  40
ATOM     40  C   UNL A   1      43.815  29.260  29.484  1.00  0.00     0.031 A 
ATOM     41  C   UNL A   1      43.603  30.743  29.393  1.00  0.00     0.074 A 
ATOM     42  C   UNL A   1      43.543  28.605  30.628  1.00  0.00     0.049 A 
ATOM     43  N   UNL A   1      43.248  31.585  30.331  1.00  0.00    -0.248 NA
ATOM     44  C   UNL A   1      43.818  31.361  28.075  1.00  0.00     0.031 C 
ATOM     45  C   UNL A   1      43.659  27.160  30.824  1.00  0.00     0.029 A 
ATOM     46  N   UNL A   1      43.109  29.076  31.841  1.00  0.00    -0.354 N 
ATOM     47  C   UNL A   1      43.218  32.833  29.722  1.00  0.00     0.074 A 
ATOM     48  C   UNL A   1      43.601  32.641  28.340  1.00  0.00     0.031 C 
ATOM     49  C   UNL A   1      43.300  26.861  32.083  1.00  0.00     0.029 A 
ATOM     50  C   UNL A   1      42.974  28.095  32.792  1.00  0.00     0.049 A 
ATOM     51  H   UNL A   1      42.913  30.026  32.012  1.00  0.00     0.167 HD
ATOM     52  C   UNL A   1      42.899  34.030  30.268  1.00  0.00     0.031 A 
ATOM     53  C   UNL A   1      42.650  28.185  34.095  1.00  0.00     0.031 A 
ATOM     54  C   UNL A   1      42.517  34.222  31.642  1.00  0.00     0.049 A 
ATOM     55  C   UNL A   1      42.370  29.535  34.693  1.00  0.00     0.074 A 
ATOM     56  C   UNL A   1      42.166  35.396  32.286  1.00  0.00     0.029 A 
ATOM     57  N   UNL A   1      42.437  33.209  32.585  1.00  0.00    -0.354 N 
ATOM     58  N   UNL A   1      42.350  30.707  34.109  1.00  0.00    -0.248 NA
ATOM     59  C   UNL A   1      42.074  29.571  36.132  1.00  0.00     0.031 C 
ATOM     60  C   UNL A   1      41.917  35.100  33.630  1.00  0.00     0.029 A 
ATOM     61  C   UNL A   1      42.068  33.734  33.811  1.00  0.00     0.049 A 
ATOM     62  H   UNL A   1      42.618  32.257  32.409  1.00  0.00     0.167 HD
ATOM     63  C   UNL A   1      42.026  31.620  35.104  1.00  0.00     0.074 A 
ATOM     64  C   UNL A   1      41.842  30.862  36.325  1.00  0.00     0.031 C 
ATOM     65  C   UNL A   1      41.896  32.966  35.016  1.00  0.00     0.031 A 
BRANCH  52  66
ATOM     66  C   UNL A   1      42.989  35.237  29.379  1.00  0.00    -0.014 A 
ATOM     67  C   UNL A   1      41.863  35.732  28.704  1.00  0.00     0.009 A 
ATOM     68  C   UNL A   1      44.216  35.905  29.240  1.00  0.00     0.009 A 
ATOM     69  C   UNL A   1      41.973  36.856  27.881  1.00  0.00     0.001 A 
ATOM     70  C   UNL A   1      44.317  37.040  28.435  1.00  0.00     0.001 A 
ATOM     71  C   UNL A   1      43.197  37.510  27.750  1.00  0.00     0.000 A 
ENDBRANCH  52  66
BRANCH  53  72
ATOM     72  C   UNL A   1      42.609  26.960  34.934  1.00  0.00    -0.014 A 
ATOM     73  C   UNL A   1      43.765  26.498  35.579  1.00  0.00     0.009 A 
ATOM     74  C   UNL A   1      41.410  26.247  35.090  1.00  0.00     0.009 A 
ATOM     75  C   UNL A   1      43.724  25.334  36.351  1.00  0.00     0.001 A 
ATOM     76  C   UNL A   1      41.366  25.098  35.881  1.00  0.00     0.001 A 
ATOM     77  C   UNL A   1      42.525  24.639  36.505  1.00  0.00     0.000 A 
ENDBRANCH  53  72
BRANCH  65  78
ATOM     78  C   UNL A   1      41.516  33.698  36.270  1.00  0.00    -0.014 A 
ATOM     79  C   UNL A   1      42.493  34.128  37.181  1.00  0.00     0.009 A 
ATOM     80  C   UNL A   1      40.167  33.991  36.525  1.00  0.00     0.009 A 
ATOM     81  C   UNL A   1      42.123  34.813  38.339  1.00  0.00     0.001 A 
ATOM     82  C   UNL A   1      39.803  34.697  37.672  1.00  0.00     0.001 A 
ATOM     83  C   UNL A   1      40.779  35.101  38.582  1.00  0.00     0.000 A 
ENDBRANCH  65  78
ENDBRANCH  39  40
ENDBRANCH  32  34
ENDBRANCH  31  32
ENDBRANCH  30  31
ENDBRANCH  29  30
ENDBRANCH  28  29
ENDBRANCH  26  28
ENDBRANCH   1  26
TORSDOF 20
ENDMDL
