MODEL 1
REMARK VINA RESULT:     -11.4      0.000      0.000
REMARK SMILES O=C(OCCOC(=O)[C@@]1([NH2+]C2CC2)CCC[C@@H]([NH+]2CCS(=O)(=O)CC2)C1)c1ccc(-c2c3nc(c(-c4ccccc4)c4ccc([nH]4)c(-c4ccccc4)c4nc(c(-c5ccccc5)c5ccc2[nH]5)C=C4)C=C3)cc1
REMARK SMILES IDX 4 1 3 2 2 3 1 4 27 5 28 6 74 7 29 8 73 9 30 10 31 11 32 12
REMARK SMILES IDX 67 13 33 14 72 15 66 16 68 17 34 18 71 19 65 20 64 21 35 23
REMARK SMILES IDX 57 24 42 25 56 26 43 27 46 28 55 29 69 30 44 31 45 32 54 34
REMARK SMILES IDX 70 35 47 36 36 37 37 38 41 39 38 40 40 41 39 42 58 43 59 44
REMARK SMILES IDX 63 45 60 46 62 47 61 48 48 49 49 50 53 51 50 52 52 53 51 54
REMARK SMILES IDX 5 55 6 56 7 57 8 58 9 59 14 60 26 61 15 62 17 63 16 64 10 65
REMARK SMILES IDX 11 68 12 69 13 70 18 71 19 72 25 73 20 75 24 76 21 77 22 78
REMARK SMILES IDX 23 79
REMARK H PARENT 68 22 46 33 10 66 10 67 18 74
REMARK Flexibility Score: inf
ROOT
ATOM      1  C   UNL A   1      31.398  32.357  26.888  1.00  0.00     0.275 C 
ENDROOT
BRANCH   1   2
ATOM      2  O   UNL A   1      32.361  33.426  26.939  1.00  0.00    -0.458 OA
BRANCH   2   3
ATOM      3  C   UNL A   1      33.112  33.842  27.983  1.00  0.00     0.338 C 
ATOM      4  O   UNL A   1      32.725  34.797  28.654  1.00  0.00    -0.246 OA
BRANCH   3   5
ATOM      5  C   UNL A   1      34.416  33.207  28.352  1.00  0.00     0.060 A 
ATOM      6  C   UNL A   1      35.683  33.691  28.028  1.00  0.00     0.016 A 
ATOM      7  C   UNL A   1      34.348  32.014  29.086  1.00  0.00     0.016 A 
ATOM      8  C   UNL A   1      36.843  33.084  28.538  1.00  0.00     0.010 A 
ATOM      9  C   UNL A   1      35.502  31.441  29.640  1.00  0.00     0.010 A 
ATOM     10  C   UNL A   1      36.772  31.984  29.398  1.00  0.00    -0.014 A 
BRANCH  10  11
ATOM     11  C   UNL A   1      37.998  31.368  29.987  1.00  0.00     0.031 A 
ATOM     12  C   UNL A   1      38.499  31.835  31.320  1.00  0.00     0.074 A 
ATOM     13  C   UNL A   1      38.650  30.326  29.425  1.00  0.00     0.049 A 
ATOM     14  N   UNL A   1      39.431  31.285  32.056  1.00  0.00    -0.248 NA
ATOM     15  C   UNL A   1      37.825  32.979  31.953  1.00  0.00     0.031 C 
ATOM     16  C   UNL A   1      38.206  29.567  28.263  1.00  0.00     0.029 A 
ATOM     17  N   UNL A   1      39.839  29.708  29.768  1.00  0.00    -0.354 N 
ATOM     18  C   UNL A   1      39.328  31.899  33.286  1.00  0.00     0.074 A 
ATOM     19  C   UNL A   1      38.411  33.007  33.139  1.00  0.00     0.031 C 
ATOM     20  C   UNL A   1      39.132  28.644  27.961  1.00  0.00     0.029 A 
ATOM     21  C   UNL A   1      40.265  28.786  28.841  1.00  0.00     0.049 A 
ATOM     22  H   UNL A   1      40.333  29.909  30.596  1.00  0.00     0.167 HD
ATOM     23  C   UNL A   1      39.829  31.481  34.470  1.00  0.00     0.031 A 
ATOM     24  C   UNL A   1      41.412  28.099  28.688  1.00  0.00     0.031 A 
ATOM     25  C   UNL A   1      40.776  30.415  34.629  1.00  0.00     0.049 A 
ATOM     26  C   UNL A   1      42.259  27.930  29.900  1.00  0.00     0.074 A 
ATOM     27  C   UNL A   1      41.358  29.948  35.793  1.00  0.00     0.029 A 
ATOM     28  N   UNL A   1      41.306  29.667  33.588  1.00  0.00    -0.354 N 
ATOM     29  N   UNL A   1      42.075  28.455  31.082  1.00  0.00    -0.248 NA
ATOM     30  C   UNL A   1      43.344  26.946  29.819  1.00  0.00     0.031 C 
ATOM     31  C   UNL A   1      42.296  28.967  35.448  1.00  0.00     0.029 A 
ATOM     32  C   UNL A   1      42.259  28.784  34.076  1.00  0.00     0.049 A 
ATOM     33  H   UNL A   1      41.047  29.751  32.643  1.00  0.00     0.167 HD
ATOM     34  C   UNL A   1      42.933  27.772  31.923  1.00  0.00     0.074 A 
ATOM     35  C   UNL A   1      43.672  26.832  31.098  1.00  0.00     0.031 C 
ATOM     36  C   UNL A   1      43.033  27.876  33.267  1.00  0.00     0.031 A 
BRANCH  23  37
ATOM     37  C   UNL A   1      39.277  32.187  35.669  1.00  0.00    -0.014 A 
ATOM     38  C   UNL A   1      39.904  33.355  36.146  1.00  0.00     0.009 A 
ATOM     39  C   UNL A   1      38.206  31.641  36.382  1.00  0.00     0.009 A 
ATOM     40  C   UNL A   1      39.500  33.929  37.350  1.00  0.00     0.001 A 
ATOM     41  C   UNL A   1      37.789  32.233  37.575  1.00  0.00     0.001 A 
ATOM     42  C   UNL A   1      38.445  33.365  38.064  1.00  0.00     0.000 A 
ENDBRANCH  23  37
BRANCH  24  43
ATOM     43  C   UNL A   1      41.767  27.423  27.410  1.00  0.00    -0.014 A 
ATOM     44  C   UNL A   1      41.431  26.087  27.152  1.00  0.00     0.009 A 
ATOM     45  C   UNL A   1      42.528  28.120  26.454  1.00  0.00     0.009 A 
ATOM     46  C   UNL A   1      41.876  25.455  25.984  1.00  0.00     0.001 A 
ATOM     47  C   UNL A   1      42.957  27.491  25.279  1.00  0.00     0.001 A 
ATOM     48  C   UNL A   1      42.638  26.155  25.051  1.00  0.00     0.000 A 
ENDBRANCH  24  43
BRANCH  36  49
ATOM     49  C   UNL A   1      43.972  26.922  33.937  1.00  0.00    -0.014 A 
ATOM     50  C   UNL A   1      45.330  27.234  34.106  1.00  0.00     0.009 A 
ATOM     51  C   UNL A   1      43.496  25.677  34.378  1.00  0.00     0.009 A 
ATOM     52  C   UNL A   1      46.203  26.297  34.658  1.00  0.00     0.001 A 
ATOM     53  C   UNL A   1      44.363  24.759  34.966  1.00  0.00     0.001 A 
ATOM     54  C   UNL A   1      45.718  25.063  35.092  1.00  0.00     0.000 A 
ENDBRANCH  36  49
ENDBRANCH  10  11
ENDBRANCH   3   5
ENDBRANCH   2   3
ENDBRANCH   1   2
BRANCH   1  55
ATOM     55  C   UNL A   1      31.943  30.984  26.499  1.00  0.00     0.274 C 
BRANCH  55  56
ATOM     56  O   UNL A   1      31.323  30.399  25.338  1.00  0.00    -0.457 OA
BRANCH  56  57
ATOM     57  C   UNL A   1      31.513  29.043  25.193  1.00  0.00     0.368 C 
ATOM     58  O   UNL A   1      31.511  28.262  26.137  1.00  0.00    -0.245 OA
BRANCH  57  59
ATOM     59  C   UNL A   1      31.954  28.670  23.733  1.00  0.00     0.200 C 
ATOM     60  C   UNL A   1      33.463  28.670  23.499  1.00  0.00     0.081 C 
ATOM     61  C   UNL A   1      31.447  27.217  23.553  1.00  0.00     0.146 C 
ATOM     62  C   UNL A   1      33.873  28.123  22.137  1.00  0.00     0.013 C 
ATOM     63  C   UNL A   1      32.003  26.385  22.379  1.00  0.00     0.191 C 
ATOM     64  C   UNL A   1      33.495  26.655  22.062  1.00  0.00     0.065 C 
BRANCH  59  65
ATOM     65  N   UNL A   1      31.270  29.526  22.743  1.00  0.00    -0.329 N 
ATOM     66  H   UNL A   1      31.791  29.439  21.870  1.00  0.00     0.347 HD
ATOM     67  H   UNL A   1      31.256  30.440  23.197  1.00  0.00     0.347 HD
BRANCH  65  68
ATOM     68  C   UNL A   1      29.859  29.299  22.415  1.00  0.00     0.183 C 
ATOM     69  C   UNL A   1      28.658  29.967  23.023  1.00  0.00     0.071 C 
ATOM     70  C   UNL A   1      29.123  30.378  21.659  1.00  0.00     0.071 C 
ENDBRANCH  65  68
ENDBRANCH  59  65
BRANCH  63  71
ATOM     71  N   UNL A   1      31.712  24.931  22.466  1.00  0.00    -0.331 N 
ATOM     72  C   UNL A   1      30.595  24.506  23.308  1.00  0.00     0.278 C 
ATOM     73  C   UNL A   1      32.821  23.988  22.576  1.00  0.00     0.278 C 
ATOM     74  H   UNL A   1      31.400  24.862  21.497  1.00  0.00     0.348 HD
ATOM     75  C   UNL A   1      30.857  24.371  24.801  1.00  0.00     0.198 C 
ATOM     76  C   UNL A   1      33.493  23.930  23.930  1.00  0.00     0.198 C 
ATOM     77  S   UNL A   1      32.348  23.498  25.194  1.00  0.00     0.161 S 
ATOM     78  O   UNL A   1      32.874  24.040  26.432  1.00  0.00    -0.228 OA
ATOM     79  O   UNL A   1      32.086  22.074  25.069  1.00  0.00    -0.228 OA
ENDBRANCH  63  71
ENDBRANCH  57  59
ENDBRANCH  56  57
ENDBRANCH  55  56
ENDBRANCH   1  55
TORSDOF 14
ENDMDL
MODEL 2
REMARK VINA RESULT:     -11.2      3.419      6.361
REMARK SMILES O=C(OCCOC(=O)[C@@]1([NH2+]C2CC2)CCC[C@@H]([NH+]2CCS(=O)(=O)CC2)C1)c1ccc(-c2c3nc(c(-c4ccccc4)c4ccc([nH]4)c(-c4ccccc4)c4nc(c(-c5ccccc5)c5ccc2[nH]5)C=C4)C=C3)cc1
REMARK SMILES IDX 4 1 3 2 2 3 1 4 27 5 28 6 74 7 29 8 73 9 30 10 31 11 32 12
REMARK SMILES IDX 67 13 33 14 72 15 66 16 68 17 34 18 71 19 65 20 64 21 35 23
REMARK SMILES IDX 57 24 42 25 56 26 43 27 46 28 55 29 69 30 44 31 45 32 54 34
REMARK SMILES IDX 70 35 47 36 36 37 37 38 41 39 38 40 40 41 39 42 58 43 59 44
REMARK SMILES IDX 63 45 60 46 62 47 61 48 48 49 49 50 53 51 50 52 52 53 51 54
REMARK SMILES IDX 5 55 6 56 7 57 8 58 9 59 14 60 26 61 15 62 17 63 16 64 10 65
REMARK SMILES IDX 11 68 12 69 13 70 18 71 19 72 25 73 20 75 24 76 21 77 22 78
REMARK SMILES IDX 23 79
REMARK H PARENT 68 22 46 33 10 66 10 67 18 74
REMARK Flexibility Score: inf
ROOT
ATOM      1  C   UNL A   1      30.287  25.302  25.345  1.00  0.00     0.275 C 
ENDROOT
BRANCH   1   2
ATOM      2  O   UNL A   1      30.596  26.694  25.537  1.00  0.00    -0.458 OA
BRANCH   2   3
ATOM      3  C   UNL A   1      31.499  27.460  24.885  1.00  0.00     0.338 C 
ATOM      4  O   UNL A   1      31.354  27.661  23.681  1.00  0.00    -0.246 OA
BRANCH   3   5
ATOM      5  C   UNL A   1      32.693  28.062  25.558  1.00  0.00     0.060 A 
ATOM      6  C   UNL A   1      33.798  28.624  24.918  1.00  0.00     0.016 A 
ATOM      7  C   UNL A   1      32.694  28.052  26.960  1.00  0.00     0.016 A 
ATOM      8  C   UNL A   1      34.803  29.279  25.649  1.00  0.00     0.010 A 
ATOM      9  C   UNL A   1      33.668  28.753  27.686  1.00  0.00     0.010 A 
ATOM     10  C   UNL A   1      34.728  29.405  27.040  1.00  0.00    -0.014 A 
BRANCH  10  11
ATOM     11  C   UNL A   1      35.765  30.147  27.817  1.00  0.00     0.031 A 
ATOM     12  C   UNL A   1      35.434  31.480  28.416  1.00  0.00     0.074 A 
ATOM     13  C   UNL A   1      36.986  29.641  28.101  1.00  0.00     0.049 A 
ATOM     14  N   UNL A   1      36.150  32.168  29.269  1.00  0.00    -0.248 NA
ATOM     15  C   UNL A   1      34.122  32.071  28.112  1.00  0.00     0.031 C 
ATOM     16  C   UNL A   1      37.431  28.281  27.824  1.00  0.00     0.029 A 
ATOM     17  N   UNL A   1      38.088  30.216  28.706  1.00  0.00    -0.354 N 
ATOM     18  C   UNL A   1      35.308  33.159  29.728  1.00  0.00     0.074 A 
ATOM     19  C   UNL A   1      34.119  33.129  28.906  1.00  0.00     0.031 C 
ATOM     20  C   UNL A   1      38.715  28.155  28.195  1.00  0.00     0.029 A 
ATOM     21  C   UNL A   1      39.214  29.427  28.659  1.00  0.00     0.049 A 
ATOM     22  H   UNL A   1      38.070  31.105  29.128  1.00  0.00     0.167 HD
ATOM     23  C   UNL A   1      35.446  33.921  30.837  1.00  0.00     0.031 A 
ATOM     24  C   UNL A   1      40.506  29.649  28.959  1.00  0.00     0.031 A 
ATOM     25  C   UNL A   1      36.635  33.998  31.636  1.00  0.00     0.049 A 
ATOM     26  C   UNL A   1      40.793  30.772  29.893  1.00  0.00     0.074 A 
ATOM     27  C   UNL A   1      36.867  34.770  32.759  1.00  0.00     0.029 A 
ATOM     28  N   UNL A   1      37.806  33.300  31.380  1.00  0.00    -0.354 N 
ATOM     29  N   UNL A   1      39.947  31.638  30.384  1.00  0.00    -0.248 NA
ATOM     30  C   UNL A   1      42.147  30.837  30.455  1.00  0.00     0.031 C 
ATOM     31  C   UNL A   1      38.204  34.595  33.139  1.00  0.00     0.029 A 
ATOM     32  C   UNL A   1      38.788  33.673  32.287  1.00  0.00     0.049 A 
ATOM     33  H   UNL A   1      37.924  32.640  30.660  1.00  0.00     0.167 HD
ATOM     34  C   UNL A   1      40.625  32.269  31.410  1.00  0.00     0.074 A 
ATOM     35  C   UNL A   1      41.968  31.717  31.430  1.00  0.00     0.031 C 
ATOM     36  C   UNL A   1      40.138  33.169  32.293  1.00  0.00     0.031 A 
BRANCH  23  37
ATOM     37  C   UNL A   1      34.216  34.675  31.236  1.00  0.00    -0.014 A 
ATOM     38  C   UNL A   1      33.717  35.695  30.403  1.00  0.00     0.009 A 
ATOM     39  C   UNL A   1      33.617  34.446  32.478  1.00  0.00     0.009 A 
ATOM     40  C   UNL A   1      32.673  36.511  30.837  1.00  0.00     0.001 A 
ATOM     41  C   UNL A   1      32.556  35.249  32.898  1.00  0.00     0.001 A 
ATOM     42  C   UNL A   1      32.097  36.288  32.086  1.00  0.00     0.000 A 
ENDBRANCH  23  37
BRANCH  24  43
ATOM     43  C   UNL A   1      41.595  28.747  28.493  1.00  0.00    -0.014 A 
ATOM     44  C   UNL A   1      42.232  28.922  27.256  1.00  0.00     0.009 A 
ATOM     45  C   UNL A   1      41.954  27.640  29.281  1.00  0.00     0.009 A 
ATOM     46  C   UNL A   1      43.176  27.991  26.805  1.00  0.00     0.001 A 
ATOM     47  C   UNL A   1      42.911  26.720  28.837  1.00  0.00     0.001 A 
ATOM     48  C   UNL A   1      43.513  26.892  27.593  1.00  0.00     0.000 A 
ENDBRANCH  24  43
BRANCH  36  49
ATOM     49  C   UNL A   1      41.072  33.600  33.381  1.00  0.00    -0.014 A 
ATOM     50  C   UNL A   1      41.907  34.718  33.224  1.00  0.00     0.009 A 
ATOM     51  C   UNL A   1      41.141  32.858  34.570  1.00  0.00     0.009 A 
ATOM     52  C   UNL A   1      42.828  35.053  34.216  1.00  0.00     0.001 A 
ATOM     53  C   UNL A   1      42.034  33.219  35.577  1.00  0.00     0.001 A 
ATOM     54  C   UNL A   1      42.886  34.307  35.393  1.00  0.00     0.000 A 
ENDBRANCH  36  49
ENDBRANCH  10  11
ENDBRANCH   3   5
ENDBRANCH   2   3
ENDBRANCH   1   2
BRANCH   1  55
ATOM     55  C   UNL A   1      30.492  24.398  26.560  1.00  0.00     0.274 C 
BRANCH  55  56
ATOM     56  O   UNL A   1      30.830  23.033  26.243  1.00  0.00    -0.457 OA
BRANCH  56  57
ATOM     57  C   UNL A   1      32.018  22.586  26.774  1.00  0.00     0.368 C 
ATOM     58  O   UNL A   1      32.331  22.749  27.948  1.00  0.00    -0.245 OA
BRANCH  57  59
ATOM     59  C   UNL A   1      32.992  22.062  25.660  1.00  0.00     0.200 C 
ATOM     60  C   UNL A   1      34.381  21.665  26.158  1.00  0.00     0.081 C 
ATOM     61  C   UNL A   1      32.296  20.783  25.131  1.00  0.00     0.146 C 
ATOM     62  C   UNL A   1      35.240  20.984  25.100  1.00  0.00     0.013 C 
ATOM     63  C   UNL A   1      33.122  19.796  24.279  1.00  0.00     0.191 C 
ATOM     64  C   UNL A   1      34.600  19.661  24.721  1.00  0.00     0.065 C 
BRANCH  59  65
ATOM     65  N   UNL A   1      33.091  23.031  24.550  1.00  0.00    -0.329 N 
ATOM     66  H   UNL A   1      32.141  23.188  24.213  1.00  0.00     0.347 HD
ATOM     67  H   UNL A   1      33.752  22.586  23.912  1.00  0.00     0.347 HD
BRANCH  65  68
ATOM     68  C   UNL A   1      33.684  24.353  24.770  1.00  0.00     0.183 C 
ATOM     69  C   UNL A   1      35.119  24.757  24.580  1.00  0.00     0.071 C 
ATOM     70  C   UNL A   1      34.096  25.158  23.561  1.00  0.00     0.071 C 
ENDBRANCH  65  68
ENDBRANCH  59  65
BRANCH  63  71
ATOM     71  N   UNL A   1      32.481  18.469  24.085  1.00  0.00    -0.331 N 
ATOM     72  C   UNL A   1      31.999  17.762  25.270  1.00  0.00     0.278 C 
ATOM     73  C   UNL A   1      33.064  17.529  23.132  1.00  0.00     0.278 C 
ATOM     74  H   UNL A   1      31.663  18.854  23.612  1.00  0.00     0.348 HD
ATOM     75  C   UNL A   1      33.018  16.964  26.071  1.00  0.00     0.198 C 
ATOM     76  C   UNL A   1      34.333  16.844  23.590  1.00  0.00     0.198 C 
ATOM     77  S   UNL A   1      34.073  15.944  25.080  1.00  0.00     0.161 S 
ATOM     78  O   UNL A   1      35.361  15.853  25.739  1.00  0.00    -0.228 OA
ATOM     79  O   UNL A   1      33.340  14.738  24.730  1.00  0.00    -0.228 OA
ENDBRANCH  63  71
ENDBRANCH  57  59
ENDBRANCH  56  57
ENDBRANCH  55  56
ENDBRANCH   1  55
TORSDOF 14
ENDMDL
MODEL 3
REMARK VINA RESULT:     -11.0      4.455      9.961
REMARK SMILES O=C(OCCOC(=O)[C@@]1([NH2+]C2CC2)CCC[C@@H]([NH+]2CCS(=O)(=O)CC2)C1)c1ccc(-c2c3nc(c(-c4ccccc4)c4ccc([nH]4)c(-c4ccccc4)c4nc(c(-c5ccccc5)c5ccc2[nH]5)C=C4)C=C3)cc1
REMARK SMILES IDX 4 1 3 2 2 3 1 4 27 5 28 6 74 7 29 8 73 9 30 10 31 11 32 12
REMARK SMILES IDX 67 13 33 14 72 15 66 16 68 17 34 18 71 19 65 20 64 21 35 23
REMARK SMILES IDX 57 24 42 25 56 26 43 27 46 28 55 29 69 30 44 31 45 32 54 34
REMARK SMILES IDX 70 35 47 36 36 37 37 38 41 39 38 40 40 41 39 42 58 43 59 44
REMARK SMILES IDX 63 45 60 46 62 47 61 48 48 49 49 50 53 51 50 52 52 53 51 54
REMARK SMILES IDX 5 55 6 56 7 57 8 58 9 59 14 60 26 61 15 62 17 63 16 64 10 65
REMARK SMILES IDX 11 68 12 69 13 70 18 71 19 72 25 73 20 75 24 76 21 77 22 78
REMARK SMILES IDX 23 79
REMARK H PARENT 68 22 46 33 10 66 10 67 18 74
REMARK Flexibility Score: inf
ROOT
ATOM      1  C   UNL A   1      38.871  19.375  25.750  1.00  0.00     0.275 C 
ENDROOT
BRANCH   1   2
ATOM      2  O   UNL A   1      40.265  19.185  25.446  1.00  0.00    -0.458 OA
BRANCH   2   3
ATOM      3  C   UNL A   1      41.348  19.548  26.167  1.00  0.00     0.338 C 
ATOM      4  O   UNL A   1      42.207  18.706  26.423  1.00  0.00    -0.246 OA
BRANCH   3   5
ATOM      5  C   UNL A   1      41.545  20.934  26.697  1.00  0.00     0.060 A 
ATOM      6  C   UNL A   1      41.757  21.278  28.033  1.00  0.00     0.016 A 
ATOM      7  C   UNL A   1      41.506  21.976  25.760  1.00  0.00     0.016 A 
ATOM      8  C   UNL A   1      42.060  22.600  28.401  1.00  0.00     0.010 A 
ATOM      9  C   UNL A   1      41.863  23.284  26.119  1.00  0.00     0.010 A 
ATOM     10  C   UNL A   1      42.174  23.615  27.446  1.00  0.00    -0.014 A 
BRANCH  10  11
ATOM     11  C   UNL A   1      42.550  25.009  27.825  1.00  0.00     0.031 A 
ATOM     12  C   UNL A   1      43.956  25.484  27.617  1.00  0.00     0.074 A 
ATOM     13  C   UNL A   1      41.660  25.925  28.269  1.00  0.00     0.049 A 
ATOM     14  N   UNL A   1      44.404  26.711  27.716  1.00  0.00    -0.248 NA
ATOM     15  C   UNL A   1      44.956  24.511  27.153  1.00  0.00     0.031 C 
ATOM     16  C   UNL A   1      40.214  25.753  28.323  1.00  0.00     0.029 A 
ATOM     17  N   UNL A   1      41.843  27.205  28.756  1.00  0.00    -0.354 N 
ATOM     18  C   UNL A   1      45.666  26.678  27.162  1.00  0.00     0.074 A 
ATOM     19  C   UNL A   1      46.003  25.290  26.939  1.00  0.00     0.031 C 
ATOM     20  C   UNL A   1      39.662  26.848  28.868  1.00  0.00     0.029 A 
ATOM     21  C   UNL A   1      40.699  27.763  29.277  1.00  0.00     0.049 A 
ATOM     22  H   UNL A   1      42.709  27.673  28.734  1.00  0.00     0.167 HD
ATOM     23  C   UNL A   1      46.413  27.719  26.730  1.00  0.00     0.031 A 
ATOM     24  C   UNL A   1      40.461  28.881  29.986  1.00  0.00     0.031 A 
ATOM     25  C   UNL A   1      46.117  29.100  26.984  1.00  0.00     0.049 A 
ATOM     26  C   UNL A   1      41.474  29.966  29.887  1.00  0.00     0.074 A 
ATOM     27  C   UNL A   1      46.841  30.217  26.608  1.00  0.00     0.029 A 
ATOM     28  N   UNL A   1      45.024  29.555  27.707  1.00  0.00    -0.354 N 
ATOM     29  N   UNL A   1      42.625  29.930  29.268  1.00  0.00    -0.248 NA
ATOM     30  C   UNL A   1      41.089  31.283  30.407  1.00  0.00     0.031 C 
ATOM     31  C   UNL A   1      46.224  31.344  27.167  1.00  0.00     0.029 A 
ATOM     32  C   UNL A   1      45.088  30.934  27.844  1.00  0.00     0.049 A 
ATOM     33  H   UNL A   1      44.310  28.984  28.070  1.00  0.00     0.167 HD
ATOM     34  C   UNL A   1      43.047  31.245  29.206  1.00  0.00     0.074 A 
ATOM     35  C   UNL A   1      42.050  32.042  29.897  1.00  0.00     0.031 C 
ATOM     36  C   UNL A   1      44.131  31.736  28.564  1.00  0.00     0.031 A 
BRANCH  23  37
ATOM     37  C   UNL A   1      47.591  27.340  25.889  1.00  0.00    -0.014 A 
ATOM     38  C   UNL A   1      48.860  27.195  26.482  1.00  0.00     0.009 A 
ATOM     39  C   UNL A   1      47.464  27.228  24.501  1.00  0.00     0.009 A 
ATOM     40  C   UNL A   1      49.990  27.003  25.690  1.00  0.00     0.001 A 
ATOM     41  C   UNL A   1      48.595  27.011  23.714  1.00  0.00     0.001 A 
ATOM     42  C   UNL A   1      49.856  26.914  24.306  1.00  0.00     0.000 A 
ENDBRANCH  23  37
BRANCH  24  43
ATOM     43  C   UNL A   1      39.191  29.090  30.735  1.00  0.00    -0.014 A 
ATOM     44  C   UNL A   1      38.081  29.725  30.161  1.00  0.00     0.009 A 
ATOM     45  C   UNL A   1      39.120  28.706  32.086  1.00  0.00     0.009 A 
ATOM     46  C   UNL A   1      36.943  30.000  30.931  1.00  0.00     0.001 A 
ATOM     47  C   UNL A   1      37.975  28.966  32.848  1.00  0.00     0.001 A 
ATOM     48  C   UNL A   1      36.891  29.623  32.271  1.00  0.00     0.000 A 
ENDBRANCH  24  43
BRANCH  36  49
ATOM     49  C   UNL A   1      44.280  33.226  28.564  1.00  0.00    -0.014 A 
ATOM     50  C   UNL A   1      43.745  34.012  27.532  1.00  0.00     0.009 A 
ATOM     51  C   UNL A   1      44.995  33.851  29.598  1.00  0.00     0.009 A 
ATOM     52  C   UNL A   1      43.966  35.388  27.509  1.00  0.00     0.001 A 
ATOM     53  C   UNL A   1      45.180  35.231  29.594  1.00  0.00     0.001 A 
ATOM     54  C   UNL A   1      44.678  35.997  28.542  1.00  0.00     0.000 A 
ENDBRANCH  36  49
ENDBRANCH  10  11
ENDBRANCH   3   5
ENDBRANCH   2   3
ENDBRANCH   1   2
BRANCH   1  55
ATOM     55  C   UNL A   1      38.133  20.401  24.892  1.00  0.00     0.274 C 
BRANCH  55  56
ATOM     56  O   UNL A   1      36.920  20.913  25.477  1.00  0.00    -0.457 OA
BRANCH  56  57
ATOM     57  C   UNL A   1      36.146  21.684  24.640  1.00  0.00     0.368 C 
ATOM     58  O   UNL A   1      36.596  22.267  23.660  1.00  0.00    -0.245 OA
BRANCH  57  59
ATOM     59  C   UNL A   1      34.703  21.902  25.219  1.00  0.00     0.200 C 
ATOM     60  C   UNL A   1      34.594  21.773  26.737  1.00  0.00     0.081 C 
ATOM     61  C   UNL A   1      34.371  23.368  24.843  1.00  0.00     0.146 C 
ATOM     62  C   UNL A   1      33.233  22.176  27.291  1.00  0.00     0.013 C 
ATOM     63  C   UNL A   1      33.186  24.057  25.551  1.00  0.00     0.191 C 
ATOM     64  C   UNL A   1      33.014  23.655  27.037  1.00  0.00     0.065 C 
BRANCH  59  65
ATOM     65  N   UNL A   1      33.728  21.019  24.547  1.00  0.00    -0.329 N 
ATOM     66  H   UNL A   1      33.779  21.231  23.551  1.00  0.00     0.347 HD
ATOM     67  H   UNL A   1      32.855  21.226  25.033  1.00  0.00     0.347 HD
BRANCH  65  68
ATOM     68  C   UNL A   1      33.839  19.562  24.674  1.00  0.00     0.183 C 
ATOM     69  C   UNL A   1      32.883  18.627  25.360  1.00  0.00     0.071 C 
ATOM     70  C   UNL A   1      32.895  18.706  23.863  1.00  0.00     0.071 C 
ENDBRANCH  65  68
ENDBRANCH  59  65
BRANCH  63  71
ATOM     71  N   UNL A   1      33.137  25.532  25.369  1.00  0.00    -0.331 N 
ATOM     72  C   UNL A   1      32.254  26.300  26.245  1.00  0.00     0.278 C 
ATOM     73  C   UNL A   1      33.121  26.083  24.017  1.00  0.00     0.278 C 
ATOM     74  H   UNL A   1      34.090  25.676  25.703  1.00  0.00     0.348 HD
ATOM     75  C   UNL A   1      30.783  26.374  25.863  1.00  0.00     0.198 C 
ATOM     76  C   UNL A   1      31.806  25.953  23.279  1.00  0.00     0.198 C 
ATOM     77  S   UNL A   1      30.501  26.745  24.154  1.00  0.00     0.161 S 
ATOM     78  O   UNL A   1      29.273  26.089  23.747  1.00  0.00    -0.228 OA
ATOM     79  O   UNL A   1      30.665  28.177  23.966  1.00  0.00    -0.228 OA
ENDBRANCH  63  71
ENDBRANCH  57  59
ENDBRANCH  56  57
ENDBRANCH  55  56
ENDBRANCH   1  55
TORSDOF 14
ENDMDL
