MODEL 1
REMARK VINA RESULT:     -11.2      0.000      0.000
REMARK SMILES Cc1cc2nc(NC3=[NH+][C@H](CC(=O)OCCOC(=O)c4ccc(-c5c6nc(c(-c7ccccc7)c7ccc([nH]7)c(-c7ccccc7)c7nc(c(-c8ccccc8)c8ccc5[nH]8)C=C7)C=C6)cc4)C(=O)N3)nc(C)c2cc1C
REMARK SMILES IDX 15 1 14 2 12 3 13 4 11 5 10 6 7 7 8 8 9 10 70 11 68 13 69 15
REMARK SMILES IDX 6 16 1 17 2 18 3 19 76 20 4 21 75 22 77 23 5 24 74 25 72 26
REMARK SMILES IDX 71 27 73 28 16 29 17 30 18 31 19 32 20 33 21 34 67 35 22 36
REMARK SMILES IDX 66 37 23 38 24 39 25 40 60 41 26 42 65 43 59 44 61 45 27 46
REMARK SMILES IDX 64 47 58 48 57 49 28 51 50 52 35 53 49 54 36 55 39 56 48 57
REMARK SMILES IDX 62 58 37 59 38 60 47 62 63 63 40 64 29 65 30 66 34 67 31 68
REMARK SMILES IDX 33 69 32 70 51 71 52 72 56 73 53 74 55 75 54 76 41 77 42 78
REMARK SMILES IDX 46 79 43 80 45 81 44 82
REMARK H PARENT 7 9 9 12 70 14 61 50 39 61
REMARK Flexibility Score: inf
ROOT
ATOM      1  C   UNL A   1      31.886  30.005  25.715  1.00  0.00     0.274 C 
ENDROOT
BRANCH   1   2
ATOM      2  O   UNL A   1      32.670  29.319  24.726  1.00  0.00    -0.462 OA
BRANCH   2   3
ATOM      3  C   UNL A   1      32.040  28.853  23.623  1.00  0.00     0.310 C 
ATOM      4  O   UNL A   1      32.589  28.630  22.549  1.00  0.00    -0.252 OA
BRANCH   3   5
ATOM      5  C   UNL A   1      30.552  28.690  23.817  1.00  0.00     0.175 C 
BRANCH   5   6
ATOM      6  C   UNL A   1      29.928  27.611  22.941  1.00  0.00     0.262 C 
ATOM      7  N   UNL A   1      30.813  24.349  23.988  1.00  0.00    -0.212 N 
ATOM      8  C   UNL A   1      30.234  25.508  23.599  1.00  0.00     0.358 C 
ATOM      9  H   UNL A   1      30.296  23.514  23.933  1.00  0.00     0.270 HD
ATOM     10  N   UNL A   1      30.830  26.444  22.935  1.00  0.00    -0.263 N 
ATOM     11  N   UNL A   1      28.951  25.774  23.912  1.00  0.00    -0.211 N 
ATOM     12  H   UNL A   1      31.715  26.389  22.508  1.00  0.00     0.261 HD
ATOM     13  C   UNL A   1      28.670  27.059  23.574  1.00  0.00     0.320 C 
ATOM     14  H   UNL A   1      28.319  25.140  24.321  1.00  0.00     0.270 HD
ATOM     15  O   UNL A   1      27.632  27.654  23.807  1.00  0.00    -0.252 OA
BRANCH   7  16
ATOM     16  C   UNL A   1      32.120  24.311  24.462  1.00  0.00     0.291 A 
ATOM     17  C   UNL A   1      36.833  20.528  24.775  1.00  0.00     0.044 C 
ATOM     18  C   UNL A   1      36.166  21.861  24.978  1.00  0.00    -0.046 A 
ATOM     19  C   UNL A   1      34.829  21.992  24.563  1.00  0.00     0.033 A 
ATOM     20  C   UNL A   1      36.791  22.956  25.590  1.00  0.00    -0.047 A 
ATOM     21  C   UNL A   1      34.107  23.167  24.722  1.00  0.00     0.078 A 
ATOM     22  C   UNL A   1      36.065  24.150  25.748  1.00  0.00     0.016 A 
ATOM     23  C   UNL A   1      38.207  22.886  26.089  1.00  0.00     0.044 C 
ATOM     24  N   UNL A   1      32.848  23.196  24.297  1.00  0.00    -0.198 NA
ATOM     25  C   UNL A   1      34.720  24.265  25.313  1.00  0.00     0.022 A 
ATOM     26  C   UNL A   1      33.901  25.402  25.416  1.00  0.00     0.052 A 
ATOM     27  N   UNL A   1      32.620  25.438  24.977  1.00  0.00    -0.203 NA
ATOM     28  C   UNL A   1      34.405  26.677  26.029  1.00  0.00     0.067 C 
ENDBRANCH   7  16
ENDBRANCH   5   6
ENDBRANCH   3   5
ENDBRANCH   2   3
ENDBRANCH   1   2
BRANCH   1  29
ATOM     29  C   UNL A   1      32.511  29.852  27.102  1.00  0.00     0.275 C 
BRANCH  29  30
ATOM     30  O   UNL A   1      33.947  29.914  27.022  1.00  0.00    -0.458 OA
BRANCH  30  31
ATOM     31  C   UNL A   1      34.546  30.747  27.904  1.00  0.00     0.338 C 
ATOM     32  O   UNL A   1      34.072  31.725  28.452  1.00  0.00    -0.246 OA
BRANCH  31  33
ATOM     33  C   UNL A   1      35.878  30.215  28.222  1.00  0.00     0.060 A 
ATOM     34  C   UNL A   1      36.886  30.219  27.259  1.00  0.00     0.016 A 
ATOM     35  C   UNL A   1      36.122  29.742  29.515  1.00  0.00     0.016 A 
ATOM     36  C   UNL A   1      38.146  29.723  27.594  1.00  0.00     0.010 A 
ATOM     37  C   UNL A   1      37.382  29.249  29.848  1.00  0.00     0.010 A 
ATOM     38  C   UNL A   1      38.401  29.234  28.888  1.00  0.00    -0.014 A 
BRANCH  38  39
ATOM     39  C   UNL A   1      39.756  28.758  29.246  1.00  0.00     0.031 A 
ATOM     40  C   UNL A   1      40.226  27.393  28.841  1.00  0.00     0.074 A 
ATOM     41  C   UNL A   1      40.567  29.579  29.938  1.00  0.00     0.049 A 
ATOM     42  N   UNL A   1      41.419  26.869  28.965  1.00  0.00    -0.248 NA
ATOM     43  C   UNL A   1      39.234  26.499  28.223  1.00  0.00     0.031 C 
ATOM     44  C   UNL A   1      40.198  30.912  30.417  1.00  0.00     0.029 A 
ATOM     45  N   UNL A   1      41.868  29.424  30.343  1.00  0.00    -0.354 N 
ATOM     46  C   UNL A   1      41.328  25.594  28.423  1.00  0.00     0.074 A 
ATOM     47  C   UNL A   1      39.952  25.402  28.019  1.00  0.00     0.031 C 
ATOM     48  C   UNL A   1      41.263  31.472  31.012  1.00  0.00     0.029 A 
ATOM     49  C   UNL A   1      42.378  30.529  30.978  1.00  0.00     0.049 A 
ATOM     50  H   UNL A   1      42.386  28.601  30.193  1.00  0.00     0.167 HD
ATOM     51  C   UNL A   1      42.313  24.679  28.258  1.00  0.00     0.031 A 
ATOM     52  C   UNL A   1      43.612  30.767  31.466  1.00  0.00     0.031 A 
ATOM     53  C   UNL A   1      43.675  24.875  28.682  1.00  0.00     0.049 A 
ATOM     54  C   UNL A   1      44.678  29.721  31.301  1.00  0.00     0.074 A 
ATOM     55  C   UNL A   1      44.753  24.022  28.521  1.00  0.00     0.029 A 
ATOM     56  N   UNL A   1      44.143  25.990  29.361  1.00  0.00    -0.354 N 
ATOM     57  N   UNL A   1      44.602  28.555  30.706  1.00  0.00    -0.248 NA
ATOM     58  C   UNL A   1      46.003  30.028  31.857  1.00  0.00     0.031 C 
ATOM     59  C   UNL A   1      45.857  24.591  29.160  1.00  0.00     0.029 A 
ATOM     60  C   UNL A   1      45.487  25.831  29.653  1.00  0.00     0.049 A 
ATOM     61  H   UNL A   1      43.600  26.776  29.598  1.00  0.00     0.167 HD
ATOM     62  C   UNL A   1      45.871  27.998  30.797  1.00  0.00     0.074 A 
ATOM     63  C   UNL A   1      46.703  28.963  31.488  1.00  0.00     0.031 C 
ATOM     64  C   UNL A   1      46.305  26.796  30.347  1.00  0.00     0.031 A 
BRANCH  51  65
ATOM     65  C   UNL A   1      41.969  23.383  27.576  1.00  0.00    -0.014 A 
ATOM     66  C   UNL A   1      41.451  22.312  28.321  1.00  0.00     0.009 A 
ATOM     67  C   UNL A   1      42.260  23.186  26.217  1.00  0.00     0.009 A 
ATOM     68  C   UNL A   1      41.245  21.067  27.724  1.00  0.00     0.001 A 
ATOM     69  C   UNL A   1      42.027  21.947  25.615  1.00  0.00     0.001 A 
ATOM     70  C   UNL A   1      41.530  20.886  26.371  1.00  0.00     0.000 A 
ENDBRANCH  51  65
BRANCH  52  71
ATOM     71  C   UNL A   1      43.902  32.078  32.102  1.00  0.00    -0.014 A 
ATOM     72  C   UNL A   1      43.686  32.271  33.476  1.00  0.00     0.009 A 
ATOM     73  C   UNL A   1      44.338  33.163  31.327  1.00  0.00     0.009 A 
ATOM     74  C   UNL A   1      43.876  33.527  34.057  1.00  0.00     0.001 A 
ATOM     75  C   UNL A   1      44.557  34.411  31.915  1.00  0.00     0.001 A 
ATOM     76  C   UNL A   1      44.316  34.595  33.276  1.00  0.00     0.000 A 
ENDBRANCH  52  71
BRANCH  64  77
ATOM     77  C   UNL A   1      47.748  26.437  30.573  1.00  0.00    -0.014 A 
ATOM     78  C   UNL A   1      48.693  26.675  29.561  1.00  0.00     0.009 A 
ATOM     79  C   UNL A   1      48.154  25.765  31.735  1.00  0.00     0.009 A 
ATOM     80  C   UNL A   1      50.007  26.229  29.698  1.00  0.00     0.001 A 
ATOM     81  C   UNL A   1      49.478  25.348  31.884  1.00  0.00     0.001 A 
ATOM     82  C   UNL A   1      50.401  25.571  30.861  1.00  0.00     0.000 A 
ENDBRANCH  64  77
ENDBRANCH  38  39
ENDBRANCH  31  33
ENDBRANCH  30  31
ENDBRANCH  29  30
ENDBRANCH   1  29
TORSDOF 13
ENDMDL
MODEL 2
REMARK VINA RESULT:     -11.1      5.643     10.737
REMARK SMILES Cc1cc2nc(NC3=[NH+][C@H](CC(=O)OCCOC(=O)c4ccc(-c5c6nc(c(-c7ccccc7)c7ccc([nH]7)c(-c7ccccc7)c7nc(c(-c8ccccc8)c8ccc5[nH]8)C=C7)C=C6)cc4)C(=O)N3)nc(C)c2cc1C
REMARK SMILES IDX 15 1 14 2 12 3 13 4 11 5 10 6 7 7 8 8 9 10 70 11 68 13 69 15
REMARK SMILES IDX 6 16 1 17 2 18 3 19 76 20 4 21 75 22 77 23 5 24 74 25 72 26
REMARK SMILES IDX 71 27 73 28 16 29 17 30 18 31 19 32 20 33 21 34 67 35 22 36
REMARK SMILES IDX 66 37 23 38 24 39 25 40 60 41 26 42 65 43 59 44 61 45 27 46
REMARK SMILES IDX 64 47 58 48 57 49 28 51 50 52 35 53 49 54 36 55 39 56 48 57
REMARK SMILES IDX 62 58 37 59 38 60 47 62 63 63 40 64 29 65 30 66 34 67 31 68
REMARK SMILES IDX 33 69 32 70 51 71 52 72 56 73 53 74 55 75 54 76 41 77 42 78
REMARK SMILES IDX 46 79 43 80 45 81 44 82
REMARK H PARENT 7 9 9 12 70 14 61 50 39 61
REMARK Flexibility Score: inf
ROOT
ATOM      1  C   UNL A   1      40.284  19.961  26.209  1.00  0.00     0.274 C 
ENDROOT
BRANCH   1   2
ATOM      2  O   UNL A   1      41.500  19.682  26.921  1.00  0.00    -0.462 OA
BRANCH   2   3
ATOM      3  C   UNL A   1      42.536  19.151  26.230  1.00  0.00     0.310 C 
ATOM      4  O   UNL A   1      42.599  17.983  25.860  1.00  0.00    -0.252 OA
BRANCH   3   5
ATOM      5  C   UNL A   1      43.663  20.129  26.008  1.00  0.00     0.175 C 
BRANCH   5   6
ATOM      6  C   UNL A   1      44.154  20.190  24.568  1.00  0.00     0.262 C 
ATOM      7  N   UNL A   1      46.548  22.748  24.070  1.00  0.00    -0.212 N 
ATOM      8  C   UNL A   1      45.809  21.619  24.151  1.00  0.00     0.358 C 
ATOM      9  H   UNL A   1      47.311  22.779  23.449  1.00  0.00     0.270 HD
ATOM     10  N   UNL A   1      44.521  21.587  24.265  1.00  0.00    -0.263 N 
ATOM     11  N   UNL A   1      46.399  20.408  24.135  1.00  0.00    -0.211 N 
ATOM     12  H   UNL A   1      43.904  22.348  24.169  1.00  0.00     0.261 HD
ATOM     13  C   UNL A   1      45.469  19.458  24.412  1.00  0.00     0.320 C 
ATOM     14  H   UNL A   1      47.351  20.239  23.952  1.00  0.00     0.270 HD
ATOM     15  O   UNL A   1      45.680  18.268  24.571  1.00  0.00    -0.252 OA
BRANCH   7  16
ATOM     16  C   UNL A   1      46.256  23.867  24.844  1.00  0.00     0.291 A 
ATOM     17  C   UNL A   1      42.006  28.137  25.409  1.00  0.00     0.044 C 
ATOM     18  C   UNL A   1      43.270  27.438  25.828  1.00  0.00    -0.046 A 
ATOM     19  C   UNL A   1      43.671  26.313  25.085  1.00  0.00     0.033 A 
ATOM     20  C   UNL A   1      44.081  27.870  26.886  1.00  0.00    -0.047 A 
ATOM     21  C   UNL A   1      44.831  25.605  25.367  1.00  0.00     0.078 A 
ATOM     22  C   UNL A   1      45.255  27.151  27.178  1.00  0.00     0.016 A 
ATOM     23  C   UNL A   1      43.738  29.081  27.708  1.00  0.00     0.044 C 
ATOM     24  N   UNL A   1      45.128  24.553  24.609  1.00  0.00    -0.198 NA
ATOM     25  C   UNL A   1      45.637  26.014  26.423  1.00  0.00     0.022 A 
ATOM     26  C   UNL A   1      46.779  25.221  26.624  1.00  0.00     0.052 A 
ATOM     27  N   UNL A   1      47.081  24.143  25.859  1.00  0.00    -0.203 NA
ATOM     28  C   UNL A   1      47.757  25.521  27.722  1.00  0.00     0.067 C 
ENDBRANCH   7  16
ENDBRANCH   5   6
ENDBRANCH   3   5
ENDBRANCH   2   3
ENDBRANCH   1   2
BRANCH   1  29
ATOM     29  C   UNL A   1      39.911  21.439  26.334  1.00  0.00     0.275 C 
BRANCH  29  30
ATOM     30  O   UNL A   1      40.826  22.122  27.210  1.00  0.00    -0.458 OA
BRANCH  30  31
ATOM     31  C   UNL A   1      41.587  23.079  26.632  1.00  0.00     0.338 C 
ATOM     32  O   UNL A   1      42.176  23.026  25.568  1.00  0.00    -0.246 OA
BRANCH  31  33
ATOM     33  C   UNL A   1      41.505  24.299  27.445  1.00  0.00     0.060 A 
ATOM     34  C   UNL A   1      40.335  25.058  27.460  1.00  0.00     0.016 A 
ATOM     35  C   UNL A   1      42.605  24.660  28.230  1.00  0.00     0.016 A 
ATOM     36  C   UNL A   1      40.280  26.202  28.255  1.00  0.00     0.010 A 
ATOM     37  C   UNL A   1      42.546  25.802  29.025  1.00  0.00     0.010 A 
ATOM     38  C   UNL A   1      41.384  26.583  29.039  1.00  0.00    -0.014 A 
BRANCH  38  39
ATOM     39  C   UNL A   1      41.293  27.771  29.919  1.00  0.00     0.031 A 
ATOM     40  C   UNL A   1      40.222  28.800  29.715  1.00  0.00     0.074 A 
ATOM     41  C   UNL A   1      42.189  27.908  30.913  1.00  0.00     0.049 A 
ATOM     42  N   UNL A   1      39.926  29.830  30.467  1.00  0.00    -0.248 NA
ATOM     43  C   UNL A   1      39.378  28.662  28.519  1.00  0.00     0.031 C 
ATOM     44  C   UNL A   1      43.296  26.987  31.176  1.00  0.00     0.029 A 
ATOM     45  N   UNL A   1      42.302  28.858  31.895  1.00  0.00    -0.354 N 
ATOM     46  C   UNL A   1      38.850  30.451  29.846  1.00  0.00     0.074 A 
ATOM     47  C   UNL A   1      38.580  29.716  28.630  1.00  0.00     0.031 C 
ATOM     48  C   UNL A   1      43.949  27.392  32.276  1.00  0.00     0.029 A 
ATOM     49  C   UNL A   1      43.324  28.613  32.779  1.00  0.00     0.049 A 
ATOM     50  H   UNL A   1      41.708  29.640  31.961  1.00  0.00     0.167 HD
ATOM     51  C   UNL A   1      38.140  31.523  30.271  1.00  0.00     0.031 A 
ATOM     52  C   UNL A   1      43.707  29.285  33.882  1.00  0.00     0.031 A 
ATOM     53  C   UNL A   1      38.433  32.260  31.473  1.00  0.00     0.049 A 
ATOM     54  C   UNL A   1      42.924  30.493  34.312  1.00  0.00     0.074 A 
ATOM     55  C   UNL A   1      37.744  33.336  32.007  1.00  0.00     0.029 A 
ATOM     56  N   UNL A   1      39.502  32.007  32.319  1.00  0.00    -0.354 N 
ATOM     57  N   UNL A   1      41.853  31.017  33.766  1.00  0.00    -0.248 NA
ATOM     58  C   UNL A   1      43.388  31.192  35.518  1.00  0.00     0.031 C 
ATOM     59  C   UNL A   1      38.436  33.775  33.139  1.00  0.00     0.029 A 
ATOM     60  C   UNL A   1      39.510  32.928  33.354  1.00  0.00     0.049 A 
ATOM     61  H   UNL A   1      40.156  31.281  32.202  1.00  0.00     0.167 HD
ATOM     62  C   UNL A   1      41.503  32.093  34.572  1.00  0.00     0.074 A 
ATOM     63  C   UNL A   1      42.464  32.135  35.654  1.00  0.00     0.031 C 
ATOM     64  C   UNL A   1      40.476  32.965  34.424  1.00  0.00     0.031 A 
BRANCH  51  65
ATOM     65  C   UNL A   1      36.965  31.967  29.444  1.00  0.00    -0.014 A 
ATOM     66  C   UNL A   1      37.075  33.092  28.611  1.00  0.00     0.009 A 
ATOM     67  C   UNL A   1      35.717  31.337  29.571  1.00  0.00     0.009 A 
ATOM     68  C   UNL A   1      35.958  33.587  27.936  1.00  0.00     0.001 A 
ATOM     69  C   UNL A   1      34.607  31.817  28.872  1.00  0.00     0.001 A 
ATOM     70  C   UNL A   1      34.726  32.947  28.064  1.00  0.00     0.000 A 
ENDBRANCH  51  65
BRANCH  52  71
ATOM     71  C   UNL A   1      44.857  28.782  34.677  1.00  0.00    -0.014 A 
ATOM     72  C   UNL A   1      44.656  27.884  35.738  1.00  0.00     0.009 A 
ATOM     73  C   UNL A   1      46.156  29.244  34.419  1.00  0.00     0.009 A 
ATOM     74  C   UNL A   1      45.726  27.479  36.539  1.00  0.00     0.001 A 
ATOM     75  C   UNL A   1      47.230  28.814  35.202  1.00  0.00     0.001 A 
ATOM     76  C   UNL A   1      47.013  27.942  36.268  1.00  0.00     0.000 A 
ENDBRANCH  52  71
BRANCH  64  77
ATOM     77  C   UNL A   1      40.317  34.048  35.455  1.00  0.00    -0.014 A 
ATOM     78  C   UNL A   1      39.526  33.818  36.593  1.00  0.00     0.009 A 
ATOM     79  C   UNL A   1      40.854  35.328  35.250  1.00  0.00     0.009 A 
ATOM     80  C   UNL A   1      39.258  34.850  37.492  1.00  0.00     0.001 A 
ATOM     81  C   UNL A   1      40.610  36.351  36.169  1.00  0.00     0.001 A 
ATOM     82  C   UNL A   1      39.804  36.114  37.282  1.00  0.00     0.000 A 
ENDBRANCH  64  77
ENDBRANCH  38  39
ENDBRANCH  31  33
ENDBRANCH  30  31
ENDBRANCH  29  30
ENDBRANCH   1  29
TORSDOF 13
ENDMDL
MODEL 3
REMARK VINA RESULT:     -11.0      4.976      7.693
REMARK SMILES Cc1cc2nc(NC3=[NH+][C@H](CC(=O)OCCOC(=O)c4ccc(-c5c6nc(c(-c7ccccc7)c7ccc([nH]7)c(-c7ccccc7)c7nc(c(-c8ccccc8)c8ccc5[nH]8)C=C7)C=C6)cc4)C(=O)N3)nc(C)c2cc1C
REMARK SMILES IDX 15 1 14 2 12 3 13 4 11 5 10 6 7 7 8 8 9 10 70 11 68 13 69 15
REMARK SMILES IDX 6 16 1 17 2 18 3 19 76 20 4 21 75 22 77 23 5 24 74 25 72 26
REMARK SMILES IDX 71 27 73 28 16 29 17 30 18 31 19 32 20 33 21 34 67 35 22 36
REMARK SMILES IDX 66 37 23 38 24 39 25 40 60 41 26 42 65 43 59 44 61 45 27 46
REMARK SMILES IDX 64 47 58 48 57 49 28 51 50 52 35 53 49 54 36 55 39 56 48 57
REMARK SMILES IDX 62 58 37 59 38 60 47 62 63 63 40 64 29 65 30 66 34 67 31 68
REMARK SMILES IDX 33 69 32 70 51 71 52 72 56 73 53 74 55 75 54 76 41 77 42 78
REMARK SMILES IDX 46 79 43 80 45 81 44 82
REMARK H PARENT 7 9 9 12 70 14 61 50 39 61
REMARK Flexibility Score: inf
ROOT
ATOM      1  C   UNL A   1      33.654  33.657  28.173  1.00  0.00     0.274 C 
ENDROOT
BRANCH   1   2
ATOM      2  O   UNL A   1      32.715  34.405  28.961  1.00  0.00    -0.462 OA
BRANCH   2   3
ATOM      3  C   UNL A   1      33.077  35.638  29.385  1.00  0.00     0.310 C 
ATOM      4  O   UNL A   1      32.783  36.684  28.815  1.00  0.00    -0.252 OA
BRANCH   3   5
ATOM      5  C   UNL A   1      33.951  35.607  30.614  1.00  0.00     0.175 C 
BRANCH   5   6
ATOM      6  C   UNL A   1      33.224  35.169  31.879  1.00  0.00     0.262 C 
ATOM      7  N   UNL A   1      35.430  34.718  34.610  1.00  0.00    -0.212 N 
ATOM      8  C   UNL A   1      34.456  35.040  33.728  1.00  0.00     0.358 C 
ATOM      9  H   UNL A   1      35.271  34.855  35.571  1.00  0.00     0.270 HD
ATOM     10  N   UNL A   1      34.150  34.347  32.680  1.00  0.00    -0.263 N 
ATOM     11  N   UNL A   1      33.727  36.162  33.888  1.00  0.00    -0.211 N 
ATOM     12  H   UNL A   1      34.473  33.443  32.459  1.00  0.00     0.261 HD
ATOM     13  C   UNL A   1      32.955  36.350  32.786  1.00  0.00     0.320 C 
ATOM     14  H   UNL A   1      33.752  36.752  34.676  1.00  0.00     0.270 HD
ATOM     15  O   UNL A   1      32.248  37.316  32.559  1.00  0.00    -0.252 OA
BRANCH   7  16
ATOM     16  C   UNL A   1      36.650  34.198  34.189  1.00  0.00     0.291 A 
ATOM     17  C   UNL A   1      40.732  30.041  35.826  1.00  0.00     0.044 C 
ATOM     18  C   UNL A   1      40.181  31.089  34.898  1.00  0.00    -0.046 A 
ATOM     19  C   UNL A   1      38.966  31.702  35.253  1.00  0.00     0.033 A 
ATOM     20  C   UNL A   1      40.831  31.509  33.729  1.00  0.00    -0.047 A 
ATOM     21  C   UNL A   1      38.377  32.697  34.484  1.00  0.00     0.078 A 
ATOM     22  C   UNL A   1      40.234  32.513  32.945  1.00  0.00     0.016 A 
ATOM     23  C   UNL A   1      42.148  30.925  33.298  1.00  0.00     0.044 C 
ATOM     24  N   UNL A   1      37.226  33.218  34.900  1.00  0.00    -0.198 NA
ATOM     25  C   UNL A   1      39.004  33.112  33.315  1.00  0.00     0.022 A 
ATOM     26  C   UNL A   1      38.317  34.116  32.612  1.00  0.00     0.052 A 
ATOM     27  N   UNL A   1      37.140  34.643  33.029  1.00  0.00    -0.203 NA
ATOM     28  C   UNL A   1      38.853  34.679  31.328  1.00  0.00     0.067 C 
ENDBRANCH   7  16
ENDBRANCH   5   6
ENDBRANCH   3   5
ENDBRANCH   2   3
ENDBRANCH   1   2
BRANCH   1  29
ATOM     29  C   UNL A   1      34.182  32.455  28.957  1.00  0.00     0.275 C 
BRANCH  29  30
ATOM     30  O   UNL A   1      35.466  32.749  29.537  1.00  0.00    -0.458 OA
BRANCH  30  31
ATOM     31  C   UNL A   1      35.815  31.993  30.602  1.00  0.00     0.338 C 
ATOM     32  O   UNL A   1      35.146  31.729  31.585  1.00  0.00    -0.246 OA
BRANCH  31  33
ATOM     33  C   UNL A   1      37.134  31.400  30.345  1.00  0.00     0.060 A 
ATOM     34  C   UNL A   1      37.684  30.488  31.245  1.00  0.00     0.016 A 
ATOM     35  C   UNL A   1      37.805  31.739  29.165  1.00  0.00     0.016 A 
ATOM     36  C   UNL A   1      38.931  29.929  30.965  1.00  0.00     0.010 A 
ATOM     37  C   UNL A   1      39.049  31.177  28.888  1.00  0.00     0.010 A 
ATOM     38  C   UNL A   1      39.621  30.271  29.789  1.00  0.00    -0.014 A 
BRANCH  38  39
ATOM     39  C   UNL A   1      40.920  29.631  29.479  1.00  0.00     0.031 A 
ATOM     40  C   UNL A   1      40.992  28.187  29.082  1.00  0.00     0.074 A 
ATOM     41  C   UNL A   1      42.040  30.373  29.553  1.00  0.00     0.049 A 
ATOM     42  N   UNL A   1      42.028  27.506  28.660  1.00  0.00    -0.248 NA
ATOM     43  C   UNL A   1      39.750  27.404  29.173  1.00  0.00     0.031 C 
ATOM     44  C   UNL A   1      42.088  31.777  29.967  1.00  0.00     0.029 A 
ATOM     45  N   UNL A   1      43.344  30.061  29.267  1.00  0.00    -0.354 N 
ATOM     46  C   UNL A   1      41.559  26.222  28.416  1.00  0.00     0.074 A 
ATOM     47  C   UNL A   1      40.161  26.203  28.787  1.00  0.00     0.031 C 
ATOM     48  C   UNL A   1      43.352  32.218  29.865  1.00  0.00     0.029 A 
ATOM     49  C   UNL A   1      44.203  31.124  29.404  1.00  0.00     0.049 A 
ATOM     50  H   UNL A   1      43.636  29.163  28.990  1.00  0.00     0.167 HD
ATOM     51  C   UNL A   1      42.234  25.166  27.904  1.00  0.00     0.031 A 
ATOM     52  C   UNL A   1      45.527  31.214  29.170  1.00  0.00     0.031 A 
ATOM     53  C   UNL A   1      43.631  25.192  27.557  1.00  0.00     0.049 A 
ATOM     54  C   UNL A   1      46.260  30.016  28.636  1.00  0.00     0.074 A 
ATOM     55  C   UNL A   1      44.393  24.182  26.994  1.00  0.00     0.029 A 
ATOM     56  N   UNL A   1      44.477  26.273  27.751  1.00  0.00    -0.354 N 
ATOM     57  N   UNL A   1      45.787  28.834  28.324  1.00  0.00    -0.248 NA
ATOM     58  C   UNL A   1      47.703  30.168  28.405  1.00  0.00     0.031 C 
ATOM     59  C   UNL A   1      45.713  24.630  26.909  1.00  0.00     0.029 A 
ATOM     60  C   UNL A   1      45.761  25.943  27.348  1.00  0.00     0.049 A 
ATOM     61  H   UNL A   1      44.205  27.145  28.120  1.00  0.00     0.167 HD
ATOM     62  C   UNL A   1      46.867  28.108  27.840  1.00  0.00     0.074 A 
ATOM     63  C   UNL A   1      48.016  28.989  27.882  1.00  0.00     0.031 C 
ATOM     64  C   UNL A   1      46.899  26.826  27.400  1.00  0.00     0.031 A 
BRANCH  51  65
ATOM     65  C   UNL A   1      41.476  23.888  27.670  1.00  0.00    -0.014 A 
ATOM     66  C   UNL A   1      41.789  22.737  28.411  1.00  0.00     0.009 A 
ATOM     67  C   UNL A   1      40.527  23.793  26.639  1.00  0.00     0.009 A 
ATOM     68  C   UNL A   1      41.180  21.516  28.117  1.00  0.00     0.001 A 
ATOM     69  C   UNL A   1      39.898  22.576  26.365  1.00  0.00     0.001 A 
ATOM     70  C   UNL A   1      40.233  21.437  27.097  1.00  0.00     0.000 A 
ENDBRANCH  51  65
BRANCH  52  71
ATOM     71  C   UNL A   1      46.217  32.512  29.391  1.00  0.00    -0.014 A 
ATOM     72  C   UNL A   1      46.329  33.449  28.351  1.00  0.00     0.009 A 
ATOM     73  C   UNL A   1      46.821  32.795  30.625  1.00  0.00     0.009 A 
ATOM     74  C   UNL A   1      47.053  34.630  28.534  1.00  0.00     0.001 A 
ATOM     75  C   UNL A   1      47.518  33.991  30.815  1.00  0.00     0.001 A 
ATOM     76  C   UNL A   1      47.643  34.901  29.767  1.00  0.00     0.000 A 
ENDBRANCH  52  71
BRANCH  64  77
ATOM     77  C   UNL A   1      48.215  26.279  26.918  1.00  0.00    -0.014 A 
ATOM     78  C   UNL A   1      49.055  25.593  27.811  1.00  0.00     0.009 A 
ATOM     79  C   UNL A   1      48.673  26.536  25.617  1.00  0.00     0.009 A 
ATOM     80  C   UNL A   1      50.333  25.195  27.420  1.00  0.00     0.001 A 
ATOM     81  C   UNL A   1      49.941  26.109  25.218  1.00  0.00     0.001 A 
ATOM     82  C   UNL A   1      50.774  25.449  26.122  1.00  0.00     0.000 A 
ENDBRANCH  64  77
ENDBRANCH  38  39
ENDBRANCH  31  33
ENDBRANCH  30  31
ENDBRANCH  29  30
ENDBRANCH   1  29
TORSDOF 13
ENDMDL
