MODEL 1
REMARK VINA RESULT:     -11.3      0.000      0.000
REMARK SMILES CCN(CC)c1ccc([C@@H]2[NH2+][C@@H](C(=O)OCCOC(=O)c3ccc(-c4c5nc(c(-c6ccccc6)c6ccc([nH]6)c(-c6ccccc6)c6nc(c(-c7ccccc7)c7ccc4[nH]7)C=C6)C=C5)cc3)Cc3c2[nH]c2ccccc32)cc1
REMARK SMILES IDX 16 1 15 2 13 3 14 4 12 5 10 6 11 7 71 8 70 11 72 12 69 13
REMARK SMILES IDX 78 14 73 15 77 17 74 18 76 19 75 20 9 21 6 22 7 23 80 24
REMARK SMILES IDX 8 25 79 26 3 27 2 28 1 29 4 30 5 31 17 32 18 33 19 34 20 35
REMARK SMILES IDX 21 36 22 37 68 38 23 39 67 40 24 41 25 42 26 43 61 44 27 45
REMARK SMILES IDX 66 46 60 47 62 48 28 49 65 50 59 51 58 52 29 54 51 55 36 56
REMARK SMILES IDX 50 57 37 58 40 59 49 60 63 61 38 62 39 63 48 65 64 66 41 67
REMARK SMILES IDX 30 68 31 69 35 70 32 71 34 72 33 73 52 74 53 75 57 76 54 77
REMARK SMILES IDX 56 78 55 79 42 80 43 81 47 82 44 83 46 84 45 85
REMARK H PARENT 11 9 11 10 72 16 62 53 40 64
REMARK Flexibility Score: inf
ROOT
ATOM      1  C   UNL A   1      32.454  31.180  26.522  1.00  0.00     0.274 C 
ENDROOT
BRANCH   1   2
ATOM      2  O   UNL A   1      33.637  30.373  26.719  1.00  0.00    -0.458 OA
BRANCH   2   3
ATOM      3  C   UNL A   1      33.358  29.056  26.880  1.00  0.00     0.365 C 
ATOM      4  O   UNL A   1      33.125  28.542  27.975  1.00  0.00    -0.245 OA
BRANCH   3   5
ATOM      5  C   UNL A   1      33.473  28.186  25.625  1.00  0.00     0.298 C 
ATOM      6  C   UNL A   1      31.124  27.447  24.983  1.00  0.00     0.262 C 
ATOM      7  N   UNL A   1      32.256  28.403  24.841  1.00  0.00    -0.323 N 
ATOM      8  C   UNL A   1      31.697  26.069  25.109  1.00  0.00     0.083 A 
ATOM      9  H   UNL A   1      31.901  29.325  25.090  1.00  0.00     0.347 HD
ATOM     10  H   UNL A   1      32.562  28.275  23.876  1.00  0.00     0.347 HD
ATOM     11  C   UNL A   1      33.045  25.768  25.112  1.00  0.00    -0.006 A 
ATOM     12  N   UNL A   1      31.060  24.856  25.004  1.00  0.00    -0.353 N 
ATOM     13  C   UNL A   1      34.034  26.749  25.654  1.00  0.00     0.115 C 
ATOM     14  C   UNL A   1      33.095  24.756  24.108  1.00  0.00     0.003 A 
ATOM     15  C   UNL A   1      31.872  24.076  24.192  1.00  0.00     0.046 A 
ATOM     16  H   UNL A   1      30.206  24.594  25.418  1.00  0.00     0.166 HD
ATOM     17  C   UNL A   1      33.971  24.413  23.057  1.00  0.00     0.010 A 
ATOM     18  C   UNL A   1      31.564  22.949  23.424  1.00  0.00     0.026 A 
ATOM     19  C   UNL A   1      33.591  23.400  22.161  1.00  0.00     0.001 A 
ATOM     20  C   UNL A   1      32.436  22.647  22.375  1.00  0.00     0.002 A 
BRANCH   6  21
ATOM     21  C   UNL A   1      30.373  27.733  23.646  1.00  0.00     0.016 A 
ATOM     22  C   UNL A   1      28.744  29.566  22.208  1.00  0.00     0.037 A 
ATOM     23  C   UNL A   1      30.113  29.468  21.959  1.00  0.00     0.026 A 
ATOM     24  C   UNL A   1      28.178  28.578  23.021  1.00  0.00     0.026 A 
ATOM     25  C   UNL A   1      30.920  28.563  22.657  1.00  0.00     0.012 A 
ATOM     26  C   UNL A   1      28.968  27.642  23.698  1.00  0.00     0.012 A 
BRANCH  22  27
ATOM     27  N   UNL A   1      27.983  30.633  21.747  1.00  0.00    -0.372 N 
BRANCH  27  28
ATOM     28  C   UNL A   1      27.550  31.658  22.712  1.00  0.00     0.113 C 
ATOM     29  C   UNL A   1      28.678  32.172  23.591  1.00  0.00     0.027 C 
ENDBRANCH  27  28
BRANCH  27  30
ATOM     30  C   UNL A   1      27.998  30.988  20.327  1.00  0.00     0.113 C 
ATOM     31  C   UNL A   1      27.963  32.489  20.068  1.00  0.00     0.027 C 
ENDBRANCH  27  30
ENDBRANCH  22  27
ENDBRANCH   6  21
ENDBRANCH   3   5
ENDBRANCH   2   3
ENDBRANCH   1   2
BRANCH   1  32
ATOM     32  C   UNL A   1      32.151  32.182  27.649  1.00  0.00     0.275 C 
BRANCH  32  33
ATOM     33  O   UNL A   1      32.355  33.558  27.278  1.00  0.00    -0.458 OA
BRANCH  33  34
ATOM     34  C   UNL A   1      32.991  34.306  28.200  1.00  0.00     0.338 C 
ATOM     35  O   UNL A   1      32.551  35.306  28.777  1.00  0.00    -0.246 OA
BRANCH  34  36
ATOM     36  C   UNL A   1      34.255  33.679  28.595  1.00  0.00     0.060 A 
ATOM     37  C   UNL A   1      34.266  32.957  29.792  1.00  0.00     0.016 A 
ATOM     38  C   UNL A   1      35.436  33.870  27.879  1.00  0.00     0.016 A 
ATOM     39  C   UNL A   1      35.439  32.392  30.268  1.00  0.00     0.010 A 
ATOM     40  C   UNL A   1      36.629  33.323  28.372  1.00  0.00     0.010 A 
ATOM     41  C   UNL A   1      36.633  32.585  29.569  1.00  0.00    -0.014 A 
BRANCH  41  42
ATOM     42  C   UNL A   1      37.885  32.057  30.152  1.00  0.00     0.031 A 
ATOM     43  C   UNL A   1      38.490  30.801  29.600  1.00  0.00     0.074 A 
ATOM     44  C   UNL A   1      38.512  32.749  31.120  1.00  0.00     0.049 A 
ATOM     45  N   UNL A   1      39.554  30.153  29.999  1.00  0.00    -0.248 NA
ATOM     46  C   UNL A   1      37.816  30.200  28.438  1.00  0.00     0.031 C 
ATOM     47  C   UNL A   1      38.063  34.029  31.669  1.00  0.00     0.029 A 
ATOM     48  N   UNL A   1      39.667  32.475  31.805  1.00  0.00    -0.354 N 
ATOM     49  C   UNL A   1      39.665  29.058  29.153  1.00  0.00     0.074 A 
ATOM     50  C   UNL A   1      38.560  29.126  28.222  1.00  0.00     0.031 C 
ATOM     51  C   UNL A   1      38.935  34.430  32.609  1.00  0.00     0.029 A 
ATOM     52  C   UNL A   1      39.971  33.413  32.760  1.00  0.00     0.049 A 
ATOM     53  H   UNL A   1      40.226  31.684  31.629  1.00  0.00     0.167 HD
ATOM     54  C   UNL A   1      40.604  28.081  29.159  1.00  0.00     0.031 A 
ATOM     55  C   UNL A   1      40.955  33.430  33.679  1.00  0.00     0.031 A 
ATOM     56  C   UNL A   1      41.697  28.020  30.092  1.00  0.00     0.049 A 
ATOM     57  C   UNL A   1      41.925  32.284  33.728  1.00  0.00     0.074 A 
ATOM     58  C   UNL A   1      42.698  27.069  30.188  1.00  0.00     0.029 A 
ATOM     59  N   UNL A   1      41.929  28.948  31.095  1.00  0.00    -0.354 N 
ATOM     60  N   UNL A   1      42.007  31.237  32.941  1.00  0.00    -0.248 NA
ATOM     61  C   UNL A   1      42.931  32.315  34.799  1.00  0.00     0.031 C 
ATOM     62  C   UNL A   1      43.507  27.397  31.282  1.00  0.00     0.029 A 
ATOM     63  C   UNL A   1      43.038  28.578  31.835  1.00  0.00     0.049 A 
ATOM     64  H   UNL A   1      41.384  29.752  31.258  1.00  0.00     0.167 HD
ATOM     65  C   UNL A   1      43.077  30.491  33.415  1.00  0.00     0.074 A 
ATOM     66  C   UNL A   1      43.627  31.215  34.543  1.00  0.00     0.031 C 
ATOM     67  C   UNL A   1      43.559  29.308  32.961  1.00  0.00     0.031 A 
BRANCH  54  68
ATOM     68  C   UNL A   1      40.454  26.973  28.158  1.00  0.00    -0.014 A 
ATOM     69  C   UNL A   1      39.706  25.821  28.447  1.00  0.00     0.009 A 
ATOM     70  C   UNL A   1      41.049  27.099  26.894  1.00  0.00     0.009 A 
ATOM     71  C   UNL A   1      39.581  24.805  27.496  1.00  0.00     0.001 A 
ATOM     72  C   UNL A   1      40.904  26.092  25.938  1.00  0.00     0.001 A 
ATOM     73  C   UNL A   1      40.176  24.943  26.242  1.00  0.00     0.000 A 
ENDBRANCH  54  68
BRANCH  55  74
ATOM     74  C   UNL A   1      41.033  34.540  34.665  1.00  0.00    -0.014 A 
ATOM     75  C   UNL A   1      41.824  35.670  34.414  1.00  0.00     0.009 A 
ATOM     76  C   UNL A   1      40.315  34.466  35.869  1.00  0.00     0.009 A 
ATOM     77  C   UNL A   1      41.906  36.696  35.358  1.00  0.00     0.001 A 
ATOM     78  C   UNL A   1      40.377  35.506  36.798  1.00  0.00     0.001 A 
ATOM     79  C   UNL A   1      41.179  36.616  36.546  1.00  0.00     0.000 A 
ENDBRANCH  55  74
BRANCH  67  80
ATOM     80  C   UNL A   1      44.746  28.738  33.681  1.00  0.00    -0.014 A 
ATOM     81  C   UNL A   1      46.052  29.111  33.329  1.00  0.00     0.009 A 
ATOM     82  C   UNL A   1      44.554  27.842  34.743  1.00  0.00     0.009 A 
ATOM     83  C   UNL A   1      47.146  28.572  34.009  1.00  0.00     0.001 A 
ATOM     84  C   UNL A   1      45.648  27.324  35.438  1.00  0.00     0.001 A 
ATOM     85  C   UNL A   1      46.943  27.683  35.064  1.00  0.00     0.000 A 
ENDBRANCH  67  80
ENDBRANCH  41  42
ENDBRANCH  34  36
ENDBRANCH  33  34
ENDBRANCH  32  33
ENDBRANCH   1  32
TORSDOF 15
ENDMDL
MODEL 2
REMARK VINA RESULT:     -11.0      1.842      6.292
REMARK SMILES CCN(CC)c1ccc([C@@H]2[NH2+][C@@H](C(=O)OCCOC(=O)c3ccc(-c4c5nc(c(-c6ccccc6)c6ccc([nH]6)c(-c6ccccc6)c6nc(c(-c7ccccc7)c7ccc4[nH]7)C=C6)C=C5)cc3)Cc3c2[nH]c2ccccc32)cc1
REMARK SMILES IDX 16 1 15 2 13 3 14 4 12 5 10 6 11 7 71 8 70 11 72 12 69 13
REMARK SMILES IDX 78 14 73 15 77 17 74 18 76 19 75 20 9 21 6 22 7 23 80 24
REMARK SMILES IDX 8 25 79 26 3 27 2 28 1 29 4 30 5 31 17 32 18 33 19 34 20 35
REMARK SMILES IDX 21 36 22 37 68 38 23 39 67 40 24 41 25 42 26 43 61 44 27 45
REMARK SMILES IDX 66 46 60 47 62 48 28 49 65 50 59 51 58 52 29 54 51 55 36 56
REMARK SMILES IDX 50 57 37 58 40 59 49 60 63 61 38 62 39 63 48 65 64 66 41 67
REMARK SMILES IDX 30 68 31 69 35 70 32 71 34 72 33 73 52 74 53 75 57 76 54 77
REMARK SMILES IDX 56 78 55 79 42 80 43 81 47 82 44 83 46 84 45 85
REMARK H PARENT 11 9 11 10 72 16 62 53 40 64
REMARK Flexibility Score: inf
ROOT
ATOM      1  C   UNL A   1      33.888  30.076  27.047  1.00  0.00     0.274 C 
ENDROOT
BRANCH   1   2
ATOM      2  O   UNL A   1      33.532  29.022  27.968  1.00  0.00    -0.458 OA
BRANCH   2   3
ATOM      3  C   UNL A   1      32.552  28.212  27.493  1.00  0.00     0.365 C 
ATOM      4  O   UNL A   1      31.530  27.943  28.126  1.00  0.00    -0.245 OA
BRANCH   3   5
ATOM      5  C   UNL A   1      32.836  27.528  26.153  1.00  0.00     0.298 C 
ATOM      6  C   UNL A   1      30.608  26.760  25.194  1.00  0.00     0.262 C 
ATOM      7  N   UNL A   1      31.683  27.785  25.289  1.00  0.00    -0.323 N 
ATOM      8  C   UNL A   1      31.256  25.410  25.195  1.00  0.00     0.083 A 
ATOM      9  H   UNL A   1      31.248  28.645  25.620  1.00  0.00     0.347 HD
ATOM     10  H   UNL A   1      32.082  27.806  24.350  1.00  0.00     0.347 HD
ATOM     11  C   UNL A   1      32.616  25.184  25.291  1.00  0.00    -0.006 A 
ATOM     12  N   UNL A   1      30.712  24.190  24.871  1.00  0.00    -0.353 N 
ATOM     13  C   UNL A   1      33.485  26.133  26.049  1.00  0.00     0.115 C 
ATOM     14  C   UNL A   1      32.821  24.321  24.173  1.00  0.00     0.003 A 
ATOM     15  C   UNL A   1      31.643  23.572  24.048  1.00  0.00     0.046 A 
ATOM     16  H   UNL A   1      29.843  23.830  25.162  1.00  0.00     0.166 HD
ATOM     17  C   UNL A   1      33.808  24.171  23.176  1.00  0.00     0.010 A 
ATOM     18  C   UNL A   1      31.479  22.545  23.114  1.00  0.00     0.026 A 
ATOM     19  C   UNL A   1      33.578  23.270  22.124  1.00  0.00     0.001 A 
ATOM     20  C   UNL A   1      32.460  22.435  22.124  1.00  0.00     0.002 A 
BRANCH   6  21
ATOM     21  C   UNL A   1      29.962  27.185  23.838  1.00  0.00     0.016 A 
ATOM     22  C   UNL A   1      28.583  29.232  22.428  1.00  0.00     0.037 A 
ATOM     23  C   UNL A   1      29.951  29.025  22.247  1.00  0.00     0.026 A 
ATOM     24  C   UNL A   1      27.888  28.256  23.151  1.00  0.00     0.026 A 
ATOM     25  C   UNL A   1      30.635  28.015  22.931  1.00  0.00     0.012 A 
ATOM     26  C   UNL A   1      28.554  27.217  23.812  1.00  0.00     0.012 A 
BRANCH  22  27
ATOM     27  N   UNL A   1      27.946  30.387  21.993  1.00  0.00    -0.372 N 
BRANCH  27  28
ATOM     28  C   UNL A   1      27.642  31.439  22.978  1.00  0.00     0.113 C 
ATOM     29  C   UNL A   1      28.829  31.800  23.856  1.00  0.00     0.027 C 
ENDBRANCH  27  28
BRANCH  27  30
ATOM     30  C   UNL A   1      27.986  30.760  20.578  1.00  0.00     0.113 C 
ATOM     31  C   UNL A   1      27.991  32.265  20.339  1.00  0.00     0.027 C 
ENDBRANCH  27  30
ENDBRANCH  22  27
ENDBRANCH   6  21
ENDBRANCH   3   5
ENDBRANCH   2   3
ENDBRANCH   1   2
BRANCH   1  32
ATOM     32  C   UNL A   1      33.527  31.498  27.509  1.00  0.00     0.275 C 
BRANCH  32  33
ATOM     33  O   UNL A   1      34.141  31.882  28.753  1.00  0.00    -0.458 OA
BRANCH  33  34
ATOM     34  C   UNL A   1      35.271  32.604  28.629  1.00  0.00     0.338 C 
ATOM     35  O   UNL A   1      35.372  33.758  28.199  1.00  0.00    -0.246 OA
BRANCH  34  36
ATOM     36  C   UNL A   1      36.401  31.909  29.251  1.00  0.00     0.060 A 
ATOM     37  C   UNL A   1      37.684  32.372  28.947  1.00  0.00     0.016 A 
ATOM     38  C   UNL A   1      36.233  30.766  30.033  1.00  0.00     0.016 A 
ATOM     39  C   UNL A   1      38.807  31.725  29.442  1.00  0.00     0.010 A 
ATOM     40  C   UNL A   1      37.365  30.095  30.512  1.00  0.00     0.010 A 
ATOM     41  C   UNL A   1      38.655  30.572  30.216  1.00  0.00    -0.014 A 
BRANCH  41  42
ATOM     42  C   UNL A   1      39.870  29.846  30.646  1.00  0.00     0.031 A 
ATOM     43  C   UNL A   1      40.570  30.252  31.908  1.00  0.00     0.074 A 
ATOM     44  C   UNL A   1      40.292  28.780  29.943  1.00  0.00     0.049 A 
ATOM     45  N   UNL A   1      41.670  29.775  32.431  1.00  0.00    -0.248 NA
ATOM     46  C   UNL A   1      39.945  31.329  32.692  1.00  0.00     0.031 C 
ATOM     47  C   UNL A   1      39.634  28.240  28.752  1.00  0.00     0.029 A 
ATOM     48  N   UNL A   1      41.367  27.954  30.138  1.00  0.00    -0.354 N 
ATOM     49  C   UNL A   1      41.880  30.506  33.592  1.00  0.00     0.074 A 
ATOM     50  C   UNL A   1      40.799  31.462  33.696  1.00  0.00     0.031 C 
ATOM     51  C   UNL A   1      40.324  27.171  28.321  1.00  0.00     0.029 A 
ATOM     52  C   UNL A   1      41.494  26.984  29.174  1.00  0.00     0.049 A 
ATOM     53  H   UNL A   1      41.990  28.046  30.896  1.00  0.00     0.167 HD
ATOM     54  C   UNL A   1      42.891  30.393  34.487  1.00  0.00     0.031 A 
ATOM     55  C   UNL A   1      42.464  26.071  28.982  1.00  0.00     0.031 A 
ATOM     56  C   UNL A   1      43.965  29.443  34.373  1.00  0.00     0.049 A 
ATOM     57  C   UNL A   1      43.626  26.033  29.935  1.00  0.00     0.074 A 
ATOM     58  C   UNL A   1      45.042  29.251  35.222  1.00  0.00     0.029 A 
ATOM     59  N   UNL A   1      44.100  28.527  33.342  1.00  0.00    -0.354 N 
ATOM     60  N   UNL A   1      43.832  26.747  31.016  1.00  0.00    -0.248 NA
ATOM     61  C   UNL A   1      44.695  25.070  29.634  1.00  0.00     0.031 C 
ATOM     62  C   UNL A   1      45.854  28.251  34.676  1.00  0.00     0.029 A 
ATOM     63  C   UNL A   1      45.257  27.787  33.515  1.00  0.00     0.049 A 
ATOM     64  H   UNL A   1      43.467  28.418  32.597  1.00  0.00     0.167 HD
ATOM     65  C   UNL A   1      45.046  26.314  31.529  1.00  0.00     0.074 A 
ATOM     66  C   UNL A   1      45.521  25.261  30.654  1.00  0.00     0.031 C 
ATOM     67  C   UNL A   1      45.714  26.753  32.624  1.00  0.00     0.031 A 
BRANCH  54  68
ATOM     68  C   UNL A   1      42.907  31.358  35.636  1.00  0.00    -0.014 A 
ATOM     69  C   UNL A   1      42.314  31.042  36.869  1.00  0.00     0.009 A 
ATOM     70  C   UNL A   1      43.553  32.595  35.490  1.00  0.00     0.009 A 
ATOM     71  C   UNL A   1      42.345  31.959  37.921  1.00  0.00     0.001 A 
ATOM     72  C   UNL A   1      43.601  33.501  36.550  1.00  0.00     0.001 A 
ATOM     73  C   UNL A   1      42.992  33.185  37.764  1.00  0.00     0.000 A 
ENDBRANCH  54  68
BRANCH  55  74
ATOM     74  C   UNL A   1      42.409  25.164  27.807  1.00  0.00    -0.014 A 
ATOM     75  C   UNL A   1      42.982  25.536  26.583  1.00  0.00     0.009 A 
ATOM     76  C   UNL A   1      41.771  23.917  27.907  1.00  0.00     0.009 A 
ATOM     77  C   UNL A   1      42.904  24.684  25.479  1.00  0.00     0.001 A 
ATOM     78  C   UNL A   1      41.720  23.055  26.810  1.00  0.00     0.001 A 
ATOM     79  C   UNL A   1      42.279  23.443  25.595  1.00  0.00     0.000 A 
ENDBRANCH  55  74
BRANCH  67  80
ATOM     80  C   UNL A   1      47.019  26.081  32.937  1.00  0.00    -0.014 A 
ATOM     81  C   UNL A   1      47.071  24.961  33.780  1.00  0.00     0.009 A 
ATOM     82  C   UNL A   1      48.205  26.556  32.357  1.00  0.00     0.009 A 
ATOM     83  C   UNL A   1      48.293  24.347  34.061  1.00  0.00     0.001 A 
ATOM     84  C   UNL A   1      49.422  25.925  32.619  1.00  0.00     0.001 A 
ATOM     85  C   UNL A   1      49.466  24.827  33.477  1.00  0.00     0.000 A 
ENDBRANCH  67  80
ENDBRANCH  41  42
ENDBRANCH  34  36
ENDBRANCH  33  34
ENDBRANCH  32  33
ENDBRANCH   1  32
TORSDOF 15
ENDMDL
MODEL 3
REMARK VINA RESULT:     -10.8      5.503     11.099
REMARK SMILES CCN(CC)c1ccc([C@@H]2[NH2+][C@@H](C(=O)OCCOC(=O)c3ccc(-c4c5nc(c(-c6ccccc6)c6ccc([nH]6)c(-c6ccccc6)c6nc(c(-c7ccccc7)c7ccc4[nH]7)C=C6)C=C5)cc3)Cc3c2[nH]c2ccccc32)cc1
REMARK SMILES IDX 16 1 15 2 13 3 14 4 12 5 10 6 11 7 71 8 70 11 72 12 69 13
REMARK SMILES IDX 78 14 73 15 77 17 74 18 76 19 75 20 9 21 6 22 7 23 80 24
REMARK SMILES IDX 8 25 79 26 3 27 2 28 1 29 4 30 5 31 17 32 18 33 19 34 20 35
REMARK SMILES IDX 21 36 22 37 68 38 23 39 67 40 24 41 25 42 26 43 61 44 27 45
REMARK SMILES IDX 66 46 60 47 62 48 28 49 65 50 59 51 58 52 29 54 51 55 36 56
REMARK SMILES IDX 50 57 37 58 40 59 49 60 63 61 38 62 39 63 48 65 64 66 41 67
REMARK SMILES IDX 30 68 31 69 35 70 32 71 34 72 33 73 52 74 53 75 57 76 54 77
REMARK SMILES IDX 56 78 55 79 42 80 43 81 47 82 44 83 46 84 45 85
REMARK H PARENT 11 9 11 10 72 16 62 53 40 64
REMARK Flexibility Score: inf
ROOT
ATOM      1  C   UNL A   1      34.101  33.367  29.163  1.00  0.00     0.274 C 
ENDROOT
BRANCH   1   2
ATOM      2  O   UNL A   1      34.141  33.277  30.605  1.00  0.00    -0.458 OA
BRANCH   2   3
ATOM      3  C   UNL A   1      34.378  34.472  31.203  1.00  0.00     0.365 C 
ATOM      4  O   UNL A   1      33.741  35.495  30.946  1.00  0.00    -0.245 OA
BRANCH   3   5
ATOM      5  C   UNL A   1      35.585  34.526  32.142  1.00  0.00     0.298 C 
ATOM      6  C   UNL A   1      37.022  32.480  31.667  1.00  0.00     0.262 C 
ATOM      7  N   UNL A   1      36.709  33.915  31.430  1.00  0.00    -0.323 N 
ATOM      8  C   UNL A   1      36.817  32.198  33.124  1.00  0.00     0.083 A 
ATOM      9  H   UNL A   1      36.523  34.020  30.433  1.00  0.00     0.347 HD
ATOM     10  H   UNL A   1      37.525  34.406  31.796  1.00  0.00     0.347 HD
ATOM     11  C   UNL A   1      36.392  33.123  34.058  1.00  0.00    -0.006 A 
ATOM     12  N   UNL A   1      37.219  31.108  33.858  1.00  0.00    -0.353 N 
ATOM     13  C   UNL A   1      35.481  34.237  33.653  1.00  0.00     0.115 C 
ATOM     14  C   UNL A   1      37.396  32.972  35.060  1.00  0.00     0.003 A 
ATOM     15  C   UNL A   1      37.773  31.623  35.022  1.00  0.00     0.046 A 
ATOM     16  H   UNL A   1      37.131  30.159  33.610  1.00  0.00     0.166 HD
ATOM     17  C   UNL A   1      38.122  33.837  35.906  1.00  0.00     0.010 A 
ATOM     18  C   UNL A   1      38.682  31.052  35.917  1.00  0.00     0.026 A 
ATOM     19  C   UNL A   1      39.166  33.308  36.681  1.00  0.00     0.001 A 
ATOM     20  C   UNL A   1      39.403  31.933  36.726  1.00  0.00     0.002 A 
BRANCH   6  21
ATOM     21  C   UNL A   1      38.507  32.454  31.188  1.00  0.00     0.016 A 
ATOM     22  C   UNL A   1      40.954  33.891  31.034  1.00  0.00     0.037 A 
ATOM     23  C   UNL A   1      40.759  32.899  31.994  1.00  0.00     0.026 A 
ATOM     24  C   UNL A   1      39.993  33.987  30.022  1.00  0.00     0.026 A 
ATOM     25  C   UNL A   1      39.560  32.182  32.072  1.00  0.00     0.012 A 
ATOM     26  C   UNL A   1      38.804  33.250  30.065  1.00  0.00     0.012 A 
BRANCH  22  27
ATOM     27  N   UNL A   1      42.001  34.801  31.112  1.00  0.00    -0.372 N 
BRANCH  27  28
ATOM     28  C   UNL A   1      42.475  35.217  32.443  1.00  0.00     0.113 C 
ATOM     29  C   UNL A   1      43.776  36.001  32.399  1.00  0.00     0.027 C 
ENDBRANCH  27  28
BRANCH  27  30
ATOM     30  C   UNL A   1      42.900  34.988  29.972  1.00  0.00     0.113 C 
ATOM     31  C   UNL A   1      42.437  36.060  28.992  1.00  0.00     0.027 C 
ENDBRANCH  27  30
ENDBRANCH  22  27
ENDBRANCH   6  21
ENDBRANCH   3   5
ENDBRANCH   2   3
ENDBRANCH   1   2
BRANCH   1  32
ATOM     32  C   UNL A   1      34.819  32.229  28.417  1.00  0.00     0.275 C 
BRANCH  32  33
ATOM     33  O   UNL A   1      35.422  31.251  29.284  1.00  0.00    -0.458 OA
BRANCH  33  34
ATOM     34  C   UNL A   1      35.659  30.054  28.713  1.00  0.00     0.338 C 
ATOM     35  O   UNL A   1      34.847  29.350  28.103  1.00  0.00    -0.246 OA
BRANCH  34  36
ATOM     36  C   UNL A   1      37.090  29.740  28.739  1.00  0.00     0.060 A 
ATOM     37  C   UNL A   1      37.806  29.913  27.551  1.00  0.00     0.016 A 
ATOM     38  C   UNL A   1      37.710  29.189  29.860  1.00  0.00     0.016 A 
ATOM     39  C   UNL A   1      39.148  29.572  27.477  1.00  0.00     0.010 A 
ATOM     40  C   UNL A   1      39.059  28.818  29.780  1.00  0.00     0.010 A 
ATOM     41  C   UNL A   1      39.780  29.008  28.587  1.00  0.00    -0.014 A 
BRANCH  41  42
ATOM     42  C   UNL A   1      41.183  28.561  28.449  1.00  0.00     0.031 A 
ATOM     43  C   UNL A   1      42.298  29.542  28.655  1.00  0.00     0.074 A 
ATOM     44  C   UNL A   1      41.449  27.264  28.215  1.00  0.00     0.049 A 
ATOM     45  N   UNL A   1      43.589  29.362  28.535  1.00  0.00    -0.248 NA
ATOM     46  C   UNL A   1      41.913  30.903  29.061  1.00  0.00     0.031 C 
ATOM     47  C   UNL A   1      40.445  26.206  28.089  1.00  0.00     0.029 A 
ATOM     48  N   UNL A   1      42.645  26.615  28.055  1.00  0.00    -0.354 N 
ATOM     49  C   UNL A   1      44.167  30.589  28.829  1.00  0.00     0.074 A 
ATOM     50  C   UNL A   1      43.090  31.507  29.129  1.00  0.00     0.031 C 
ATOM     51  C   UNL A   1      41.070  25.037  27.869  1.00  0.00     0.029 A 
ATOM     52  C   UNL A   1      42.508  25.275  27.790  1.00  0.00     0.049 A 
ATOM     53  H   UNL A   1      43.518  27.065  28.123  1.00  0.00     0.167 HD
ATOM     54  C   UNL A   1      45.482  30.918  28.841  1.00  0.00     0.031 A 
ATOM     55  C   UNL A   1      43.438  24.351  27.482  1.00  0.00     0.031 A 
ATOM     56  C   UNL A   1      46.546  30.000  28.537  1.00  0.00     0.049 A 
ATOM     57  C   UNL A   1      44.879  24.766  27.405  1.00  0.00     0.074 A 
ATOM     58  C   UNL A   1      47.909  30.235  28.514  1.00  0.00     0.029 A 
ATOM     59  N   UNL A   1      46.363  28.668  28.199  1.00  0.00    -0.354 N 
ATOM     60  N   UNL A   1      45.417  25.936  27.658  1.00  0.00    -0.248 NA
ATOM     61  C   UNL A   1      45.842  23.736  26.989  1.00  0.00     0.031 C 
ATOM     62  C   UNL A   1      48.549  29.056  28.113  1.00  0.00     0.029 A 
ATOM     63  C   UNL A   1      47.586  28.075  27.936  1.00  0.00     0.049 A 
ATOM     64  H   UNL A   1      45.493  28.211  28.153  1.00  0.00     0.167 HD
ATOM     65  C   UNL A   1      46.779  25.781  27.441  1.00  0.00     0.074 A 
ATOM     66  C   UNL A   1      46.989  24.400  27.058  1.00  0.00     0.031 C 
ATOM     67  C   UNL A   1      47.768  26.702  27.544  1.00  0.00     0.031 A 
BRANCH  54  68
ATOM     68  C   UNL A   1      45.832  32.346  29.141  1.00  0.00    -0.014 A 
ATOM     69  C   UNL A   1      46.109  32.775  30.449  1.00  0.00     0.009 A 
ATOM     70  C   UNL A   1      45.914  33.273  28.090  1.00  0.00     0.009 A 
ATOM     71  C   UNL A   1      46.434  34.110  30.699  1.00  0.00     0.001 A 
ATOM     72  C   UNL A   1      46.259  34.601  28.341  1.00  0.00     0.001 A 
ATOM     73  C   UNL A   1      46.513  35.021  29.645  1.00  0.00     0.000 A 
ENDBRANCH  54  68
BRANCH  55  74
ATOM     74  C   UNL A   1      43.025  22.959  27.163  1.00  0.00    -0.014 A 
ATOM     75  C   UNL A   1      42.517  22.114  28.159  1.00  0.00     0.009 A 
ATOM     76  C   UNL A   1      43.146  22.469  25.853  1.00  0.00     0.009 A 
ATOM     77  C   UNL A   1      42.153  20.801  27.852  1.00  0.00     0.001 A 
ATOM     78  C   UNL A   1      42.755  21.166  25.543  1.00  0.00     0.001 A 
ATOM     79  C   UNL A   1      42.267  20.329  26.544  1.00  0.00     0.000 A 
ENDBRANCH  55  74
BRANCH  67  80
ATOM     80  C   UNL A   1      49.163  26.234  27.250  1.00  0.00    -0.014 A 
ATOM     81  C   UNL A   1      49.692  26.310  25.952  1.00  0.00     0.009 A 
ATOM     82  C   UNL A   1      49.968  25.741  28.288  1.00  0.00     0.009 A 
ATOM     83  C   UNL A   1      50.992  25.871  25.695  1.00  0.00     0.001 A 
ATOM     84  C   UNL A   1      51.276  25.328  28.033  1.00  0.00     0.001 A 
ATOM     85  C   UNL A   1      51.784  25.385  26.735  1.00  0.00     0.000 A 
ENDBRANCH  67  80
ENDBRANCH  41  42
ENDBRANCH  34  36
ENDBRANCH  33  34
ENDBRANCH  32  33
ENDBRANCH   1  32
TORSDOF 15
ENDMDL
