MODEL 1
REMARK VINA RESULT:     -10.6      0.000      0.000
REMARK SMILES Cc1ccnc(C(=O)c2[nH]c3cc(Cl)c(F)cc3c2CC(=O)OCCOC(=O)c2ccc(-c3c4nc(c(-c5ccccc5)c5ccc([nH]5)c(-c5ccccc5)c5nc(c(-c6ccccc6)c6ccc3[nH]6)C=C5)C=C4)cc2)c1
REMARK SMILES IDX 24 1 23 2 21 3 22 4 20 5 19 6 9 7 10 8 11 9 18 11 12 12
REMARK SMILES IDX 17 13 13 14 15 15 14 16 16 17 7 18 8 19 6 20 1 21 2 22 3 23
REMARK SMILES IDX 77 24 4 25 5 26 25 27 26 28 27 29 28 30 29 31 30 32 76 33
REMARK SMILES IDX 31 34 75 35 32 36 33 37 34 38 69 39 35 40 74 41 68 42 70 43
REMARK SMILES IDX 36 44 73 45 67 46 66 47 37 49 59 50 44 51 58 52 45 53 48 54
REMARK SMILES IDX 57 55 71 56 46 57 47 58 56 60 72 61 49 62 38 63 39 64 43 65
REMARK SMILES IDX 40 66 42 67 41 68 60 69 61 70 65 71 62 72 64 73 63 74 50 75
REMARK SMILES IDX 51 76 55 77 52 78 54 79 53 80
REMARK H PARENT 10 10 70 48 48 59
REMARK Flexibility Score: inf
ROOT
ATOM      1  C   UNL A   1      33.165  35.931  29.654  1.00  0.00     0.274 C 
ENDROOT
BRANCH   1   2
ATOM      2  O   UNL A   1      32.792  34.831  28.776  1.00  0.00    -0.462 OA
BRANCH   2   3
ATOM      3  C   UNL A   1      33.848  34.138  28.295  1.00  0.00     0.310 C 
ATOM      4  O   UNL A   1      34.610  34.604  27.445  1.00  0.00    -0.252 OA
BRANCH   3   5
ATOM      5  C   UNL A   1      34.029  32.708  28.714  1.00  0.00     0.161 C 
BRANCH   5   6
ATOM      6  C   UNL A   1      34.732  31.585  27.988  1.00  0.00     0.000 A 
ATOM      7  C   UNL A   1      34.289  30.482  27.240  1.00  0.00     0.093 A 
ATOM      8  N   UNL A   1      35.348  29.609  27.122  1.00  0.00    -0.351 N 
ATOM      9  C   UNL A   1      36.471  30.091  27.726  1.00  0.00     0.048 A 
ATOM     10  H   UNL A   1      35.300  28.741  26.658  1.00  0.00     0.167 HD
ATOM     11  C   UNL A   1      36.129  31.314  28.288  1.00  0.00     0.007 A 
ATOM     12  C   UNL A   1      37.737  29.508  27.854  1.00  0.00     0.050 A 
ATOM     13  C   UNL A   1      37.104  31.974  29.070  1.00  0.00     0.051 A 
ATOM     14  C   UNL A   1      38.690  30.200  28.603  1.00  0.00     0.078 A 
ATOM     15  C   UNL A   1      38.371  31.408  29.211  1.00  0.00     0.142 A 
ATOM     16  Cl  UNL A   1      40.264  29.525  28.777  1.00  0.00    -0.081 Cl
ATOM     17  F   UNL A   1      39.274  32.056  29.962  1.00  0.00    -0.205 F 
BRANCH   7  18
ATOM     18  C   UNL A   1      33.017  30.016  26.696  1.00  0.00     0.227 C 
ATOM     19  O   UNL A   1      31.962  30.488  27.113  1.00  0.00    -0.285 OA
BRANCH  18  20
ATOM     20  C   UNL A   1      33.014  28.830  25.763  1.00  0.00     0.113 A 
ATOM     21  C   UNL A   1      32.858  25.083  26.119  1.00  0.00     0.044 C 
ATOM     22  C   UNL A   1      33.039  26.444  25.521  1.00  0.00    -0.047 A 
ATOM     23  C   UNL A   1      33.721  26.623  24.315  1.00  0.00     0.023 A 
ATOM     24  C   UNL A   1      32.654  27.573  26.242  1.00  0.00     0.036 A 
ATOM     25  C   UNL A   1      33.942  27.917  23.859  1.00  0.00     0.112 A 
ATOM     26  N   UNL A   1      33.565  29.028  24.531  1.00  0.00    -0.253 NA
ENDBRANCH  18  20
ENDBRANCH   7  18
ENDBRANCH   5   6
ENDBRANCH   3   5
ENDBRANCH   2   3
ENDBRANCH   1   2
BRANCH   1  27
ATOM     27  C   UNL A   1      32.771  35.736  31.131  1.00  0.00     0.275 C 
BRANCH  27  28
ATOM     28  O   UNL A   1      33.458  34.652  31.769  1.00  0.00    -0.458 OA
BRANCH  28  29
ATOM     29  C   UNL A   1      34.705  34.964  32.195  1.00  0.00     0.338 C 
ATOM     30  O   UNL A   1      34.960  35.832  33.003  1.00  0.00    -0.246 OA
BRANCH  29  31
ATOM     31  C   UNL A   1      35.653  33.883  31.921  1.00  0.00     0.060 A 
ATOM     32  C   UNL A   1      35.321  32.624  32.387  1.00  0.00     0.016 A 
ATOM     33  C   UNL A   1      36.989  34.287  31.771  1.00  0.00     0.016 A 
ATOM     34  C   UNL A   1      36.294  31.956  33.089  1.00  0.00     0.010 A 
ATOM     35  C   UNL A   1      37.972  33.593  32.444  1.00  0.00     0.010 A 
ATOM     36  C   UNL A   1      37.586  32.510  33.217  1.00  0.00    -0.014 A 
BRANCH  36  37
ATOM     37  C   UNL A   1      38.571  31.699  33.897  1.00  0.00     0.031 A 
ATOM     38  C   UNL A   1      38.871  32.326  35.192  1.00  0.00     0.074 A 
ATOM     39  C   UNL A   1      39.264  30.627  33.478  1.00  0.00     0.049 A 
ATOM     40  N   UNL A   1      39.848  33.141  35.382  1.00  0.00    -0.248 NA
ATOM     41  C   UNL A   1      37.859  32.291  36.249  1.00  0.00     0.031 C 
ATOM     42  C   UNL A   1      39.084  29.718  32.352  1.00  0.00     0.029 A 
ATOM     43  N   UNL A   1      40.382  30.142  34.088  1.00  0.00    -0.354 N 
ATOM     44  C   UNL A   1      39.638  33.683  36.631  1.00  0.00     0.074 A 
ATOM     45  C   UNL A   1      38.341  33.224  37.069  1.00  0.00     0.031 C 
ATOM     46  C   UNL A   1      39.957  28.682  32.467  1.00  0.00     0.029 A 
ATOM     47  C   UNL A   1      40.863  28.954  33.574  1.00  0.00     0.049 A 
ATOM     48  H   UNL A   1      40.816  30.605  34.842  1.00  0.00     0.167 HD
ATOM     49  C   UNL A   1      40.636  34.341  37.268  1.00  0.00     0.031 A 
ATOM     50  C   UNL A   1      41.962  28.287  34.005  1.00  0.00     0.031 A 
ATOM     51  C   UNL A   1      41.682  34.744  36.359  1.00  0.00     0.049 A 
ATOM     52  C   UNL A   1      42.860  29.290  34.632  1.00  0.00     0.074 A 
ATOM     53  C   UNL A   1      41.741  35.635  35.303  1.00  0.00     0.029 A 
ATOM     54  N   UNL A   1      42.745  33.886  36.193  1.00  0.00    -0.354 N 
ATOM     55  N   UNL A   1      43.499  30.196  33.950  1.00  0.00    -0.248 NA
ATOM     56  C   UNL A   1      42.718  29.561  36.054  1.00  0.00     0.031 C 
ATOM     57  C   UNL A   1      42.555  34.999  34.321  1.00  0.00     0.029 A 
ATOM     58  C   UNL A   1      42.998  33.782  34.845  1.00  0.00     0.049 A 
ATOM     59  H   UNL A   1      43.237  33.428  36.911  1.00  0.00     0.167 HD
ATOM     60  C   UNL A   1      43.448  31.334  34.743  1.00  0.00     0.074 A 
ATOM     61  C   UNL A   1      43.036  30.858  36.061  1.00  0.00     0.031 C 
ATOM     62  C   UNL A   1      43.488  32.584  34.193  1.00  0.00     0.031 A 
BRANCH  49  63
ATOM     63  C   UNL A   1      40.791  34.270  38.752  1.00  0.00    -0.014 A 
ATOM     64  C   UNL A   1      40.338  35.289  39.614  1.00  0.00     0.009 A 
ATOM     65  C   UNL A   1      41.166  33.055  39.340  1.00  0.00     0.009 A 
ATOM     66  C   UNL A   1      40.261  35.115  40.993  1.00  0.00     0.001 A 
ATOM     67  C   UNL A   1      41.051  32.862  40.720  1.00  0.00     0.001 A 
ATOM     68  C   UNL A   1      40.598  33.890  41.544  1.00  0.00     0.000 A 
ENDBRANCH  49  63
BRANCH  50  69
ATOM     69  C   UNL A   1      42.050  26.856  34.377  1.00  0.00    -0.014 A 
ATOM     70  C   UNL A   1      41.080  26.277  35.214  1.00  0.00     0.009 A 
ATOM     71  C   UNL A   1      43.249  26.150  34.175  1.00  0.00     0.009 A 
ATOM     72  C   UNL A   1      41.326  25.067  35.873  1.00  0.00     0.001 A 
ATOM     73  C   UNL A   1      43.494  24.939  34.835  1.00  0.00     0.001 A 
ATOM     74  C   UNL A   1      42.539  24.407  35.698  1.00  0.00     0.000 A 
ENDBRANCH  50  69
BRANCH  62  75
ATOM     75  C   UNL A   1      43.829  32.706  32.722  1.00  0.00    -0.014 A 
ATOM     76  C   UNL A   1      42.808  32.477  31.786  1.00  0.00     0.009 A 
ATOM     77  C   UNL A   1      45.140  32.877  32.240  1.00  0.00     0.009 A 
ATOM     78  C   UNL A   1      43.084  32.402  30.418  1.00  0.00     0.001 A 
ATOM     79  C   UNL A   1      45.412  32.832  30.867  1.00  0.00     0.001 A 
ATOM     80  C   UNL A   1      44.386  32.582  29.959  1.00  0.00     0.000 A 
ENDBRANCH  62  75
ENDBRANCH  36  37
ENDBRANCH  29  31
ENDBRANCH  28  29
ENDBRANCH  27  28
ENDBRANCH   1  27
TORSDOF 14
ENDMDL
MODEL 2
REMARK VINA RESULT:     -10.5      4.339      9.038
REMARK SMILES Cc1ccnc(C(=O)c2[nH]c3cc(Cl)c(F)cc3c2CC(=O)OCCOC(=O)c2ccc(-c3c4nc(c(-c5ccccc5)c5ccc([nH]5)c(-c5ccccc5)c5nc(c(-c6ccccc6)c6ccc3[nH]6)C=C5)C=C4)cc2)c1
REMARK SMILES IDX 24 1 23 2 21 3 22 4 20 5 19 6 9 7 10 8 11 9 18 11 12 12
REMARK SMILES IDX 17 13 13 14 15 15 14 16 16 17 7 18 8 19 6 20 1 21 2 22 3 23
REMARK SMILES IDX 77 24 4 25 5 26 25 27 26 28 27 29 28 30 29 31 30 32 76 33
REMARK SMILES IDX 31 34 75 35 32 36 33 37 34 38 69 39 35 40 74 41 68 42 70 43
REMARK SMILES IDX 36 44 73 45 67 46 66 47 37 49 59 50 44 51 58 52 45 53 48 54
REMARK SMILES IDX 57 55 71 56 46 57 47 58 56 60 72 61 49 62 38 63 39 64 43 65
REMARK SMILES IDX 40 66 42 67 41 68 60 69 61 70 65 71 62 72 64 73 63 74 50 75
REMARK SMILES IDX 51 76 55 77 52 78 54 79 53 80
REMARK H PARENT 10 10 70 48 48 59
REMARK Flexibility Score: inf
ROOT
ATOM      1  C   UNL A   1      32.910  27.668  24.210  1.00  0.00     0.274 C 
ENDROOT
BRANCH   1   2
ATOM      2  O   UNL A   1      32.967  26.541  25.129  1.00  0.00    -0.462 OA
BRANCH   2   3
ATOM      3  C   UNL A   1      33.297  25.372  24.536  1.00  0.00     0.310 C 
ATOM      4  O   UNL A   1      33.521  25.287  23.327  1.00  0.00    -0.252 OA
BRANCH   3   5
ATOM      5  C   UNL A   1      33.270  24.112  25.351  1.00  0.00     0.161 C 
BRANCH   5   6
ATOM      6  C   UNL A   1      34.052  22.835  25.156  1.00  0.00     0.000 A 
ATOM      7  C   UNL A   1      33.698  21.478  25.081  1.00  0.00     0.093 A 
ATOM      8  N   UNL A   1      34.849  20.739  25.253  1.00  0.00    -0.351 N 
ATOM      9  C   UNL A   1      35.944  21.537  25.406  1.00  0.00     0.048 A 
ATOM     10  H   UNL A   1      34.877  19.755  25.264  1.00  0.00     0.167 HD
ATOM     11  C   UNL A   1      35.492  22.849  25.365  1.00  0.00     0.007 A 
ATOM     12  C   UNL A   1      37.281  21.186  25.629  1.00  0.00     0.050 A 
ATOM     13  C   UNL A   1      36.432  23.876  25.609  1.00  0.00     0.051 A 
ATOM     14  C   UNL A   1      38.192  22.223  25.833  1.00  0.00     0.078 A 
ATOM     15  C   UNL A   1      37.768  23.546  25.835  1.00  0.00     0.142 A 
ATOM     16  Cl  UNL A   1      39.848  21.837  26.098  1.00  0.00    -0.081 Cl
ATOM     17  F   UNL A   1      38.635  24.543  26.067  1.00  0.00    -0.205 F 
BRANCH   7  18
ATOM     18  C   UNL A   1      32.459  20.712  24.991  1.00  0.00     0.227 C 
ATOM     19  O   UNL A   1      31.427  21.155  25.490  1.00  0.00    -0.285 OA
BRANCH  18  20
ATOM     20  C   UNL A   1      32.509  19.305  24.449  1.00  0.00     0.113 A 
ATOM     21  C   UNL A   1      34.072  16.038  25.487  1.00  0.00     0.044 C 
ATOM     22  C   UNL A   1      33.387  17.083  24.662  1.00  0.00    -0.047 A 
ATOM     23  C   UNL A   1      33.297  16.968  23.273  1.00  0.00     0.023 A 
ATOM     24  C   UNL A   1      32.956  18.266  25.261  1.00  0.00     0.036 A 
ATOM     25  C   UNL A   1      32.736  18.014  22.551  1.00  0.00     0.112 A 
ATOM     26  N   UNL A   1      32.296  19.165  23.109  1.00  0.00    -0.253 NA
ENDBRANCH  18  20
ENDBRANCH   7  18
ENDBRANCH   5   6
ENDBRANCH   3   5
ENDBRANCH   2   3
ENDBRANCH   1   2
BRANCH   1  27
ATOM     27  C   UNL A   1      32.352  28.968  24.820  1.00  0.00     0.275 C 
BRANCH  27  28
ATOM     28  O   UNL A   1      33.324  29.712  25.568  1.00  0.00    -0.458 OA
BRANCH  28  29
ATOM     29  C   UNL A   1      32.788  30.623  26.415  1.00  0.00     0.338 C 
ATOM     30  O   UNL A   1      31.630  30.983  26.398  1.00  0.00    -0.246 OA
BRANCH  29  31
ATOM     31  C   UNL A   1      33.619  30.804  27.607  1.00  0.00     0.060 A 
ATOM     32  C   UNL A   1      34.043  32.089  27.887  1.00  0.00     0.016 A 
ATOM     33  C   UNL A   1      34.368  29.679  27.985  1.00  0.00     0.016 A 
ATOM     34  C   UNL A   1      35.382  32.248  28.148  1.00  0.00     0.010 A 
ATOM     35  C   UNL A   1      35.704  29.842  28.287  1.00  0.00     0.010 A 
ATOM     36  C   UNL A   1      36.229  31.122  28.223  1.00  0.00    -0.014 A 
BRANCH  36  37
ATOM     37  C   UNL A   1      37.606  31.375  28.588  1.00  0.00     0.031 A 
ATOM     38  C   UNL A   1      38.354  30.116  28.466  1.00  0.00     0.074 A 
ATOM     39  C   UNL A   1      38.190  32.473  29.095  1.00  0.00     0.049 A 
ATOM     40  N   UNL A   1      38.555  29.306  29.446  1.00  0.00    -0.248 NA
ATOM     41  C   UNL A   1      38.627  29.579  27.132  1.00  0.00     0.031 C 
ATOM     42  C   UNL A   1      37.762  33.865  29.179  1.00  0.00     0.029 A 
ATOM     43  N   UNL A   1      39.416  32.492  29.690  1.00  0.00    -0.354 N 
ATOM     44  C   UNL A   1      39.065  28.160  28.877  1.00  0.00     0.074 A 
ATOM     45  C   UNL A   1      38.973  28.331  27.446  1.00  0.00     0.031 C 
ATOM     46  C   UNL A   1      38.796  34.626  29.627  1.00  0.00     0.029 A 
ATOM     47  C   UNL A   1      39.887  33.748  30.022  1.00  0.00     0.049 A 
ATOM     48  H   UNL A   1      39.930  31.672  29.869  1.00  0.00     0.167 HD
ATOM     49  C   UNL A   1      39.673  27.226  29.647  1.00  0.00     0.031 A 
ATOM     50  C   UNL A   1      41.070  34.019  30.628  1.00  0.00     0.031 A 
ATOM     51  C   UNL A   1      39.337  27.375  31.042  1.00  0.00     0.049 A 
ATOM     52  C   UNL A   1      41.447  32.810  31.403  1.00  0.00     0.074 A 
ATOM     53  C   UNL A   1      38.166  27.237  31.763  1.00  0.00     0.029 A 
ATOM     54  N   UNL A   1      40.173  28.143  31.819  1.00  0.00    -0.354 N 
ATOM     55  N   UNL A   1      40.818  32.428  32.477  1.00  0.00    -0.248 NA
ATOM     56  C   UNL A   1      42.250  31.787  30.752  1.00  0.00     0.031 C 
ATOM     57  C   UNL A   1      38.189  28.291  32.722  1.00  0.00     0.029 A 
ATOM     58  C   UNL A   1      39.393  28.983  32.579  1.00  0.00     0.049 A 
ATOM     59  H   UNL A   1      41.157  28.099  31.830  1.00  0.00     0.167 HD
ATOM     60  C   UNL A   1      40.780  31.044  32.390  1.00  0.00     0.074 A 
ATOM     61  C   UNL A   1      41.755  30.703  31.356  1.00  0.00     0.031 C 
ATOM     62  C   UNL A   1      39.777  30.324  32.974  1.00  0.00     0.031 A 
BRANCH  49  63
ATOM     63  C   UNL A   1      40.839  26.441  29.141  1.00  0.00    -0.014 A 
ATOM     64  C   UNL A   1      40.691  25.236  28.424  1.00  0.00     0.009 A 
ATOM     65  C   UNL A   1      42.110  27.027  29.149  1.00  0.00     0.009 A 
ATOM     66  C   UNL A   1      41.751  24.639  27.748  1.00  0.00     0.001 A 
ATOM     67  C   UNL A   1      43.169  26.453  28.438  1.00  0.00     0.001 A 
ATOM     68  C   UNL A   1      42.988  25.262  27.737  1.00  0.00     0.000 A 
ENDBRANCH  49  63
BRANCH  50  69
ATOM     69  C   UNL A   1      42.101  34.985  30.184  1.00  0.00    -0.014 A 
ATOM     70  C   UNL A   1      43.054  35.478  31.092  1.00  0.00     0.009 A 
ATOM     71  C   UNL A   1      41.947  35.662  28.961  1.00  0.00     0.009 A 
ATOM     72  C   UNL A   1      43.783  36.639  30.813  1.00  0.00     0.001 A 
ATOM     73  C   UNL A   1      42.678  36.825  28.683  1.00  0.00     0.001 A 
ATOM     74  C   UNL A   1      43.583  37.323  29.617  1.00  0.00     0.000 A 
ENDBRANCH  50  69
BRANCH  62  75
ATOM     75  C   UNL A   1      38.838  31.044  33.919  1.00  0.00    -0.014 A 
ATOM     76  C   UNL A   1      37.823  31.840  33.363  1.00  0.00     0.009 A 
ATOM     77  C   UNL A   1      39.024  31.091  35.313  1.00  0.00     0.009 A 
ATOM     78  C   UNL A   1      37.031  32.666  34.165  1.00  0.00     0.001 A 
ATOM     79  C   UNL A   1      38.210  31.897  36.120  1.00  0.00     0.001 A 
ATOM     80  C   UNL A   1      37.224  32.693  35.544  1.00  0.00     0.000 A 
ENDBRANCH  62  75
ENDBRANCH  36  37
ENDBRANCH  29  31
ENDBRANCH  28  29
ENDBRANCH  27  28
ENDBRANCH   1  27
TORSDOF 14
ENDMDL
MODEL 3
REMARK VINA RESULT:     -10.2      4.217      6.839
REMARK SMILES Cc1ccnc(C(=O)c2[nH]c3cc(Cl)c(F)cc3c2CC(=O)OCCOC(=O)c2ccc(-c3c4nc(c(-c5ccccc5)c5ccc([nH]5)c(-c5ccccc5)c5nc(c(-c6ccccc6)c6ccc3[nH]6)C=C5)C=C4)cc2)c1
REMARK SMILES IDX 24 1 23 2 21 3 22 4 20 5 19 6 9 7 10 8 11 9 18 11 12 12
REMARK SMILES IDX 17 13 13 14 15 15 14 16 16 17 7 18 8 19 6 20 1 21 2 22 3 23
REMARK SMILES IDX 77 24 4 25 5 26 25 27 26 28 27 29 28 30 29 31 30 32 76 33
REMARK SMILES IDX 31 34 75 35 32 36 33 37 34 38 69 39 35 40 74 41 68 42 70 43
REMARK SMILES IDX 36 44 73 45 67 46 66 47 37 49 59 50 44 51 58 52 45 53 48 54
REMARK SMILES IDX 57 55 71 56 46 57 47 58 56 60 72 61 49 62 38 63 39 64 43 65
REMARK SMILES IDX 40 66 42 67 41 68 60 69 61 70 65 71 62 72 64 73 63 74 50 75
REMARK SMILES IDX 51 76 55 77 52 78 54 79 53 80
REMARK H PARENT 10 10 70 48 48 59
REMARK Flexibility Score: inf
ROOT
ATOM      1  C   UNL A   1      34.175  29.320  27.224  1.00  0.00     0.274 C 
ENDROOT
BRANCH   1   2
ATOM      2  O   UNL A   1      32.870  28.705  27.414  1.00  0.00    -0.462 OA
BRANCH   2   3
ATOM      3  C   UNL A   1      32.729  27.521  26.776  1.00  0.00     0.310 C 
ATOM      4  O   UNL A   1      31.687  26.864  26.829  1.00  0.00    -0.252 OA
BRANCH   3   5
ATOM      5  C   UNL A   1      33.919  26.925  26.083  1.00  0.00     0.161 C 
BRANCH   5   6
ATOM      6  C   UNL A   1      33.961  26.003  24.887  1.00  0.00     0.000 A 
ATOM      7  C   UNL A   1      33.568  26.131  23.545  1.00  0.00     0.093 A 
ATOM      8  N   UNL A   1      33.515  24.864  23.006  1.00  0.00    -0.351 N 
ATOM      9  C   UNL A   1      33.881  23.913  23.912  1.00  0.00     0.048 A 
ATOM     10  H   UNL A   1      33.245  24.668  22.080  1.00  0.00     0.167 HD
ATOM     11  C   UNL A   1      34.156  24.577  25.100  1.00  0.00     0.007 A 
ATOM     12  C   UNL A   1      33.936  22.521  23.774  1.00  0.00     0.050 A 
ATOM     13  C   UNL A   1      34.459  23.793  26.237  1.00  0.00     0.051 A 
ATOM     14  C   UNL A   1      34.271  21.775  24.905  1.00  0.00     0.078 A 
ATOM     15  C   UNL A   1      34.516  22.405  26.119  1.00  0.00     0.142 A 
ATOM     16  Cl  UNL A   1      34.362  20.061  24.777  1.00  0.00    -0.081 Cl
ATOM     17  F   UNL A   1      34.803  21.688  27.216  1.00  0.00    -0.205 F 
BRANCH   7  18
ATOM     18  C   UNL A   1      33.113  27.211  22.675  1.00  0.00     0.227 C 
ATOM     19  O   UNL A   1      33.877  27.687  21.837  1.00  0.00    -0.285 OA
BRANCH  18  20
ATOM     20  C   UNL A   1      31.773  27.850  22.946  1.00  0.00     0.113 A 
ATOM     21  C   UNL A   1      28.323  26.659  23.876  1.00  0.00     0.044 C 
ATOM     22  C   UNL A   1      29.444  27.544  23.426  1.00  0.00    -0.047 A 
ATOM     23  C   UNL A   1      29.198  28.740  22.747  1.00  0.00     0.023 A 
ATOM     24  C   UNL A   1      30.763  27.108  23.551  1.00  0.00     0.036 A 
ATOM     25  C   UNL A   1      30.278  29.471  22.269  1.00  0.00     0.112 A 
ATOM     26  N   UNL A   1      31.567  29.079  22.391  1.00  0.00    -0.253 NA
ENDBRANCH  18  20
ENDBRANCH   7  18
ENDBRANCH   5   6
ENDBRANCH   3   5
ENDBRANCH   2   3
ENDBRANCH   1   2
BRANCH   1  27
ATOM     27  C   UNL A   1      34.185  30.857  27.343  1.00  0.00     0.275 C 
BRANCH  27  28
ATOM     28  O   UNL A   1      35.487  31.404  27.587  1.00  0.00    -0.458 OA
BRANCH  28  29
ATOM     29  C   UNL A   1      35.595  32.069  28.762  1.00  0.00     0.338 C 
ATOM     30  O   UNL A   1      34.736  32.786  29.230  1.00  0.00    -0.246 OA
BRANCH  29  31
ATOM     31  C   UNL A   1      36.650  31.504  29.605  1.00  0.00     0.060 A 
ATOM     32  C   UNL A   1      37.953  31.833  29.282  1.00  0.00     0.016 A 
ATOM     33  C   UNL A   1      36.327  30.288  30.227  1.00  0.00     0.016 A 
ATOM     34  C   UNL A   1      38.843  30.791  29.193  1.00  0.00     0.010 A 
ATOM     35  C   UNL A   1      37.236  29.253  30.173  1.00  0.00     0.010 A 
ATOM     36  C   UNL A   1      38.438  29.480  29.522  1.00  0.00    -0.014 A 
BRANCH  36  37
ATOM     37  C   UNL A   1      39.462  28.460  29.483  1.00  0.00     0.031 A 
ATOM     38  C   UNL A   1      39.836  28.129  30.865  1.00  0.00     0.074 A 
ATOM     39  C   UNL A   1      40.131  27.929  28.447  1.00  0.00     0.049 A 
ATOM     40  N   UNL A   1      40.822  28.674  31.489  1.00  0.00    -0.248 NA
ATOM     41  C   UNL A   1      38.889  27.389  31.700  1.00  0.00     0.031 C 
ATOM     42  C   UNL A   1      39.887  27.940  27.009  1.00  0.00     0.029 A 
ATOM     43  N   UNL A   1      41.284  27.210  28.557  1.00  0.00    -0.354 N 
ATOM     44  C   UNL A   1      40.685  28.286  32.803  1.00  0.00     0.074 A 
ATOM     45  C   UNL A   1      39.417  27.604  32.905  1.00  0.00     0.031 C 
ATOM     46  C   UNL A   1      40.767  27.103  26.397  1.00  0.00     0.029 A 
ATOM     47  C   UNL A   1      41.736  26.642  27.381  1.00  0.00     0.049 A 
ATOM     48  H   UNL A   1      41.761  27.103  29.411  1.00  0.00     0.167 HD
ATOM     49  C   UNL A   1      41.717  28.425  33.669  1.00  0.00     0.031 A 
ATOM     50  C   UNL A   1      42.859  25.897  27.238  1.00  0.00     0.031 A 
ATOM     51  C   UNL A   1      42.707  29.355  33.182  1.00  0.00     0.049 A 
ATOM     52  C   UNL A   1      43.790  26.303  28.320  1.00  0.00     0.074 A 
ATOM     53  C   UNL A   1      42.703  30.716  32.937  1.00  0.00     0.029 A 
ATOM     54  N   UNL A   1      43.761  28.842  32.459  1.00  0.00    -0.354 N 
ATOM     55  N   UNL A   1      44.388  27.460  28.347  1.00  0.00    -0.248 NA
ATOM     56  C   UNL A   1      43.732  25.601  29.592  1.00  0.00     0.031 C 
ATOM     57  C   UNL A   1      43.459  30.884  31.740  1.00  0.00     0.029 A 
ATOM     58  C   UNL A   1      43.934  29.631  31.347  1.00  0.00     0.049 A 
ATOM     59  H   UNL A   1      44.295  28.051  32.697  1.00  0.00     0.167 HD
ATOM     60  C   UNL A   1      44.381  27.829  29.685  1.00  0.00     0.074 A 
ATOM     61  C   UNL A   1      44.048  26.606  30.412  1.00  0.00     0.031 C 
ATOM     62  C   UNL A   1      44.387  29.143  30.058  1.00  0.00     0.031 A 
BRANCH  49  63
ATOM     63  C   UNL A   1      41.960  27.431  34.757  1.00  0.00    -0.014 A 
ATOM     64  C   UNL A   1      41.471  27.603  36.068  1.00  0.00     0.009 A 
ATOM     65  C   UNL A   1      42.467  26.168  34.425  1.00  0.00     0.009 A 
ATOM     66  C   UNL A   1      41.484  26.575  37.007  1.00  0.00     0.001 A 
ATOM     67  C   UNL A   1      42.445  25.121  35.351  1.00  0.00     0.001 A 
ATOM     68  C   UNL A   1      41.953  25.324  36.639  1.00  0.00     0.000 A 
ENDBRANCH  49  63
BRANCH  50  69
ATOM     69  C   UNL A   1      42.971  24.562  26.606  1.00  0.00    -0.014 A 
ATOM     70  C   UNL A   1      41.844  23.727  26.501  1.00  0.00     0.009 A 
ATOM     71  C   UNL A   1      44.237  23.984  26.404  1.00  0.00     0.009 A 
ATOM     72  C   UNL A   1      41.982  22.355  26.261  1.00  0.00     0.001 A 
ATOM     73  C   UNL A   1      44.374  22.611  26.164  1.00  0.00     0.001 A 
ATOM     74  C   UNL A   1      43.247  21.794  26.111  1.00  0.00     0.000 A 
ENDBRANCH  50  69
BRANCH  62  75
ATOM     75  C   UNL A   1      44.641  30.188  28.991  1.00  0.00    -0.014 A 
ATOM     76  C   UNL A   1      43.612  30.459  28.075  1.00  0.00     0.009 A 
ATOM     77  C   UNL A   1      45.897  30.781  28.769  1.00  0.00     0.009 A 
ATOM     78  C   UNL A   1      43.831  31.279  26.965  1.00  0.00     0.001 A 
ATOM     79  C   UNL A   1      46.108  31.627  27.672  1.00  0.00     0.001 A 
ATOM     80  C   UNL A   1      45.078  31.864  26.764  1.00  0.00     0.000 A 
ENDBRANCH  62  75
ENDBRANCH  36  37
ENDBRANCH  29  31
ENDBRANCH  28  29
ENDBRANCH  27  28
ENDBRANCH   1  27
TORSDOF 14
ENDMDL
