MODEL 1
REMARK VINA RESULT:     -11.8      0.000      0.000
REMARK SMILES O=C(CN1C(=O)N/C(=C/c2cc3c(cc2Cl)OCO3)C1=O)OCCOC(=O)c1ccc(-c2c3nc(c(-c4ccccc4)c4ccc([nH]4)c(-c4ccccc4)c4nc(c(-c5ccccc5)c5ccc2[nH]5)C=C4)C=C3)cc1
REMARK SMILES IDX 23 1 22 2 2 3 1 4 3 5 4 6 5 7 20 8 6 9 7 10 8 11 21 12 9 14
REMARK SMILES IDX 10 15 11 16 15 17 12 18 14 19 16 20 13 21 19 22 17 23 18 24
REMARK SMILES IDX 24 25 25 26 26 27 27 28 28 29 29 30 75 31 30 32 74 33 31 34
REMARK SMILES IDX 32 35 33 36 68 37 34 38 73 39 67 40 69 41 35 42 72 43 66 44
REMARK SMILES IDX 65 45 36 47 58 48 43 49 57 50 44 51 47 52 56 53 70 54 45 55
REMARK SMILES IDX 46 56 55 58 71 59 48 60 37 61 38 62 42 63 39 64 41 65 40 66
REMARK SMILES IDX 59 67 60 68 64 69 61 70 63 71 62 72 49 73 50 74 54 75 51 76
REMARK SMILES IDX 53 77 52 78
REMARK H PARENT 7 13 69 46 47 57
REMARK Flexibility Score: inf
ROOT
ATOM      1  C   UNL A   1      34.838  34.342  34.025  1.00  0.00     0.274 C 
ENDROOT
BRANCH   1   2
ATOM      2  O   UNL A   1      34.792  35.782  34.018  1.00  0.00    -0.461 OA
BRANCH   2   3
ATOM      3  C   UNL A   1      33.852  36.457  33.307  1.00  0.00     0.326 C 
ATOM      4  O   UNL A   1      33.709  37.668  33.462  1.00  0.00    -0.250 OA
BRANCH   3   5
ATOM      5  C   UNL A   1      32.917  35.640  32.427  1.00  0.00     0.253 C 
BRANCH   5   6
ATOM      6  N   UNL A   1      33.340  35.712  31.058  1.00  0.00    -0.247 N 
ATOM      7  C   UNL A   1      33.282  36.848  30.289  1.00  0.00     0.329 C 
ATOM      8  C   UNL A   1      33.929  34.682  30.386  1.00  0.00     0.279 C 
ATOM      9  O   UNL A   1      32.872  37.943  30.636  1.00  0.00    -0.248 OA
ATOM     10  N   UNL A   1      33.787  36.535  29.038  1.00  0.00    -0.303 N 
ATOM     11  C   UNL A   1      34.139  35.217  29.000  1.00  0.00     0.109 C 
ATOM     12  O   UNL A   1      34.309  33.612  30.837  1.00  0.00    -0.267 OA
ATOM     13  H   UNL A   1      33.877  37.168  28.289  1.00  0.00     0.172 HD
ATOM     14  C   UNL A   1      34.531  34.547  27.913  1.00  0.00     0.042 C 
BRANCH  14  15
ATOM     15  C   UNL A   1      34.730  33.092  27.932  1.00  0.00    -0.001 A 
ATOM     16  C   UNL A   1      33.629  32.273  27.646  1.00  0.00     0.060 A 
ATOM     17  C   UNL A   1      36.004  32.501  28.174  1.00  0.00     0.052 A 
ATOM     18  C   UNL A   1      33.845  30.914  27.580  1.00  0.00     0.166 A 
ATOM     19  C   UNL A   1      36.189  31.122  28.081  1.00  0.00     0.071 A 
ATOM     20  Cl  UNL A   1      37.386  33.451  28.608  1.00  0.00    -0.084 Cl
ATOM     21  C   UNL A   1      35.088  30.358  27.784  1.00  0.00     0.167 A 
ATOM     22  O   UNL A   1      32.905  29.975  27.303  1.00  0.00    -0.454 OA
ATOM     23  O   UNL A   1      35.079  29.005  27.673  1.00  0.00    -0.454 OA
ATOM     24  C   UNL A   1      33.720  28.785  27.258  1.00  0.00     0.468 C 
ENDBRANCH  14  15
ENDBRANCH   5   6
ENDBRANCH   3   5
ENDBRANCH   2   3
ENDBRANCH   1   2
BRANCH   1  25
ATOM     25  C   UNL A   1      36.168  33.801  33.492  1.00  0.00     0.275 C 
BRANCH  25  26
ATOM     26  O   UNL A   1      36.206  32.360  33.506  1.00  0.00    -0.458 OA
BRANCH  26  27
ATOM     27  C   UNL A   1      37.310  31.809  34.078  1.00  0.00     0.338 C 
ATOM     28  O   UNL A   1      37.480  31.590  35.263  1.00  0.00    -0.246 OA
BRANCH  27  29
ATOM     29  C   UNL A   1      38.242  31.343  33.021  1.00  0.00     0.060 A 
ATOM     30  C   UNL A   1      39.384  30.633  33.413  1.00  0.00     0.016 A 
ATOM     31  C   UNL A   1      37.997  31.572  31.664  1.00  0.00     0.016 A 
ATOM     32  C   UNL A   1      40.288  30.161  32.454  1.00  0.00     0.010 A 
ATOM     33  C   UNL A   1      38.912  31.112  30.706  1.00  0.00     0.010 A 
ATOM     34  C   UNL A   1      40.071  30.417  31.094  1.00  0.00    -0.014 A 
BRANCH  34  35
ATOM     35  C   UNL A   1      41.103  30.074  30.079  1.00  0.00     0.031 A 
ATOM     36  C   UNL A   1      41.064  28.714  29.431  1.00  0.00     0.074 A 
ATOM     37  C   UNL A   1      42.100  30.927  29.775  1.00  0.00     0.049 A 
ATOM     38  N   UNL A   1      41.892  28.183  28.565  1.00  0.00    -0.248 NA
ATOM     39  C   UNL A   1      39.949  27.831  29.815  1.00  0.00     0.031 C 
ATOM     40  C   UNL A   1      42.261  32.275  30.317  1.00  0.00     0.029 A 
ATOM     41  N   UNL A   1      43.188  30.767  28.948  1.00  0.00    -0.354 N 
ATOM     42  C   UNL A   1      41.412  26.904  28.319  1.00  0.00     0.074 A 
ATOM     43  C   UNL A   1      40.224  26.732  29.128  1.00  0.00     0.031 C 
ATOM     44  C   UNL A   1      43.401  32.804  29.835  1.00  0.00     0.029 A 
ATOM     45  C   UNL A   1      44.060  31.832  28.964  1.00  0.00     0.049 A 
ATOM     46  H   UNL A   1      43.330  29.964  28.396  1.00  0.00     0.167 HD
ATOM     47  C   UNL A   1      41.916  25.952  27.499  1.00  0.00     0.031 A 
ATOM     48  C   UNL A   1      45.259  31.990  28.362  1.00  0.00     0.031 A 
ATOM     49  C   UNL A   1      43.089  26.109  26.682  1.00  0.00     0.049 A 
ATOM     50  C   UNL A   1      45.801  30.888  27.484  1.00  0.00     0.074 A 
ATOM     51  C   UNL A   1      43.621  25.221  25.762  1.00  0.00     0.029 A 
ATOM     52  N   UNL A   1      43.922  27.212  26.703  1.00  0.00    -0.354 N 
ATOM     53  N   UNL A   1      45.250  29.753  27.136  1.00  0.00    -0.248 NA
ATOM     54  C   UNL A   1      47.138  31.102  26.903  1.00  0.00     0.031 C 
ATOM     55  C   UNL A   1      44.814  25.761  25.272  1.00  0.00     0.029 A 
ATOM     56  C   UNL A   1      44.997  27.002  25.856  1.00  0.00     0.049 A 
ATOM     57  H   UNL A   1      43.773  28.024  27.239  1.00  0.00     0.167 HD
ATOM     58  C   UNL A   1      46.154  29.141  26.275  1.00  0.00     0.074 A 
ATOM     59  C   UNL A   1      47.269  30.046  26.117  1.00  0.00     0.031 C 
ATOM     60  C   UNL A   1      46.084  27.924  25.684  1.00  0.00     0.031 A 
BRANCH  47  61
ATOM     61  C   UNL A   1      41.223  24.622  27.458  1.00  0.00    -0.014 A 
ATOM     62  C   UNL A   1      40.067  24.427  26.689  1.00  0.00     0.009 A 
ATOM     63  C   UNL A   1      41.795  23.528  28.126  1.00  0.00     0.009 A 
ATOM     64  C   UNL A   1      39.489  23.159  26.601  1.00  0.00     0.001 A 
ATOM     65  C   UNL A   1      41.227  22.259  28.020  1.00  0.00     0.001 A 
ATOM     66  C   UNL A   1      40.074  22.076  27.259  1.00  0.00     0.000 A 
ENDBRANCH  47  61
BRANCH  48  67
ATOM     67  C   UNL A   1      46.075  33.222  28.565  1.00  0.00    -0.014 A 
ATOM     68  C   UNL A   1      46.074  34.247  27.602  1.00  0.00     0.009 A 
ATOM     69  C   UNL A   1      46.927  33.344  29.671  1.00  0.00     0.009 A 
ATOM     70  C   UNL A   1      46.920  35.351  27.729  1.00  0.00     0.001 A 
ATOM     71  C   UNL A   1      47.751  34.464  29.813  1.00  0.00     0.001 A 
ATOM     72  C   UNL A   1      47.754  35.461  28.839  1.00  0.00     0.000 A 
ENDBRANCH  48  67
BRANCH  60  73
ATOM     73  C   UNL A   1      47.229  27.524  24.796  1.00  0.00    -0.014 A 
ATOM     74  C   UNL A   1      48.299  26.766  25.299  1.00  0.00     0.009 A 
ATOM     75  C   UNL A   1      47.234  27.896  23.444  1.00  0.00     0.009 A 
ATOM     76  C   UNL A   1      49.371  26.423  24.473  1.00  0.00     0.001 A 
ATOM     77  C   UNL A   1      48.293  27.526  22.613  1.00  0.00     0.001 A 
ATOM     78  C   UNL A   1      49.365  26.800  23.130  1.00  0.00     0.000 A 
ENDBRANCH  60  73
ENDBRANCH  34  35
ENDBRANCH  27  29
ENDBRANCH  26  27
ENDBRANCH  25  26
ENDBRANCH   1  25
TORSDOF 13
ENDMDL
MODEL 2
REMARK VINA RESULT:     -11.6      5.378     12.686
REMARK SMILES O=C(CN1C(=O)N/C(=C/c2cc3c(cc2Cl)OCO3)C1=O)OCCOC(=O)c1ccc(-c2c3nc(c(-c4ccccc4)c4ccc([nH]4)c(-c4ccccc4)c4nc(c(-c5ccccc5)c5ccc2[nH]5)C=C4)C=C3)cc1
REMARK SMILES IDX 23 1 22 2 2 3 1 4 3 5 4 6 5 7 20 8 6 9 7 10 8 11 21 12 9 14
REMARK SMILES IDX 10 15 11 16 15 17 12 18 14 19 16 20 13 21 19 22 17 23 18 24
REMARK SMILES IDX 24 25 25 26 26 27 27 28 28 29 29 30 75 31 30 32 74 33 31 34
REMARK SMILES IDX 32 35 33 36 68 37 34 38 73 39 67 40 69 41 35 42 72 43 66 44
REMARK SMILES IDX 65 45 36 47 58 48 43 49 57 50 44 51 47 52 56 53 70 54 45 55
REMARK SMILES IDX 46 56 55 58 71 59 48 60 37 61 38 62 42 63 39 64 41 65 40 66
REMARK SMILES IDX 59 67 60 68 64 69 61 70 63 71 62 72 49 73 50 74 54 75 51 76
REMARK SMILES IDX 53 77 52 78
REMARK H PARENT 7 13 69 46 47 57
REMARK Flexibility Score: inf
ROOT
ATOM      1  C   UNL A   1      45.983  22.808  24.352  1.00  0.00     0.274 C 
ENDROOT
BRANCH   1   2
ATOM      2  O   UNL A   1      46.491  21.670  25.074  1.00  0.00    -0.461 OA
BRANCH   2   3
ATOM      3  C   UNL A   1      46.277  20.402  24.639  1.00  0.00     0.326 C 
ATOM      4  O   UNL A   1      47.206  19.598  24.588  1.00  0.00    -0.250 OA
BRANCH   3   5
ATOM      5  C   UNL A   1      44.892  20.068  24.105  1.00  0.00     0.253 C 
BRANCH   5   6
ATOM      6  N   UNL A   1      44.007  19.753  25.189  1.00  0.00    -0.247 N 
ATOM      7  C   UNL A   1      44.086  18.609  25.945  1.00  0.00     0.329 C 
ATOM      8  C   UNL A   1      43.038  20.594  25.651  1.00  0.00     0.279 C 
ATOM      9  O   UNL A   1      44.894  17.705  25.817  1.00  0.00    -0.248 OA
ATOM     10  N   UNL A   1      43.083  18.666  26.898  1.00  0.00    -0.303 N 
ATOM     11  C   UNL A   1      42.361  19.813  26.739  1.00  0.00     0.109 C 
ATOM     12  O   UNL A   1      42.843  21.758  25.337  1.00  0.00    -0.267 OA
ATOM     13  H   UNL A   1      42.916  17.981  27.586  1.00  0.00     0.172 HD
ATOM     14  C   UNL A   1      41.239  20.125  27.395  1.00  0.00     0.042 C 
BRANCH  14  15
ATOM     15  C   UNL A   1      40.438  21.304  27.042  1.00  0.00    -0.001 A 
ATOM     16  C   UNL A   1      39.385  21.136  26.133  1.00  0.00     0.060 A 
ATOM     17  C   UNL A   1      40.665  22.582  27.629  1.00  0.00     0.052 A 
ATOM     18  C   UNL A   1      38.585  22.227  25.875  1.00  0.00     0.166 A 
ATOM     19  C   UNL A   1      39.824  23.660  27.357  1.00  0.00     0.071 A 
ATOM     20  Cl  UNL A   1      41.997  22.875  28.698  1.00  0.00    -0.084 Cl
ATOM     21  C   UNL A   1      38.795  23.448  26.474  1.00  0.00     0.167 A 
ATOM     22  O   UNL A   1      37.516  22.245  25.038  1.00  0.00    -0.454 OA
ATOM     23  O   UNL A   1      37.894  24.385  26.080  1.00  0.00    -0.454 OA
ATOM     24  C   UNL A   1      37.025  23.584  25.261  1.00  0.00     0.468 C 
ENDBRANCH  14  15
ENDBRANCH   5   6
ENDBRANCH   3   5
ENDBRANCH   2   3
ENDBRANCH   1   2
BRANCH   1  25
ATOM     25  C   UNL A   1      46.189  24.120  25.115  1.00  0.00     0.275 C 
BRANCH  25  26
ATOM     26  O   UNL A   1      44.984  24.909  25.162  1.00  0.00    -0.458 OA
BRANCH  26  27
ATOM     27  C   UNL A   1      45.168  26.254  25.242  1.00  0.00     0.338 C 
ATOM     28  O   UNL A   1      45.759  26.955  24.440  1.00  0.00    -0.246 OA
BRANCH  27  29
ATOM     29  C   UNL A   1      44.391  26.799  26.383  1.00  0.00     0.060 A 
ATOM     30  C   UNL A   1      44.532  28.160  26.689  1.00  0.00     0.016 A 
ATOM     31  C   UNL A   1      43.518  26.005  27.131  1.00  0.00     0.016 A 
ATOM     32  C   UNL A   1      43.812  28.725  27.748  1.00  0.00     0.010 A 
ATOM     33  C   UNL A   1      42.809  26.570  28.201  1.00  0.00     0.010 A 
ATOM     34  C   UNL A   1      42.962  27.929  28.527  1.00  0.00    -0.014 A 
BRANCH  34  35
ATOM     35  C   UNL A   1      42.323  28.472  29.756  1.00  0.00     0.031 A 
ATOM     36  C   UNL A   1      40.989  29.162  29.640  1.00  0.00     0.074 A 
ATOM     37  C   UNL A   1      42.939  28.412  30.953  1.00  0.00     0.049 A 
ATOM     38  N   UNL A   1      40.279  29.756  30.567  1.00  0.00    -0.248 NA
ATOM     39  C   UNL A   1      40.378  29.196  28.301  1.00  0.00     0.031 C 
ATOM     40  C   UNL A   1      44.226  27.771  31.216  1.00  0.00     0.029 A 
ATOM     41  N   UNL A   1      42.567  28.929  32.173  1.00  0.00    -0.354 N 
ATOM     42  C   UNL A   1      39.153  30.250  29.921  1.00  0.00     0.074 A 
ATOM     43  C   UNL A   1      39.272  29.892  28.524  1.00  0.00     0.031 C 
ATOM     44  C   UNL A   1      44.552  27.964  32.508  1.00  0.00     0.029 A 
ATOM     45  C   UNL A   1      43.509  28.754  33.161  1.00  0.00     0.049 A 
ATOM     46  H   UNL A   1      41.706  29.383  32.324  1.00  0.00     0.167 HD
ATOM     47  C   UNL A   1      38.113  30.944  30.441  1.00  0.00     0.031 A 
ATOM     48  C   UNL A   1      43.532  29.199  34.436  1.00  0.00     0.031 A 
ATOM     49  C   UNL A   1      37.974  31.299  31.827  1.00  0.00     0.049 A 
ATOM     50  C   UNL A   1      42.368  30.002  34.965  1.00  0.00     0.074 A 
ATOM     51  C   UNL A   1      36.911  31.934  32.449  1.00  0.00     0.029 A 
ATOM     52  N   UNL A   1      38.932  31.075  32.798  1.00  0.00    -0.354 N 
ATOM     53  N   UNL A   1      41.238  30.315  34.381  1.00  0.00    -0.248 NA
ATOM     54  C   UNL A   1      42.482  30.503  36.346  1.00  0.00     0.031 C 
ATOM     55  C   UNL A   1      37.254  32.150  33.787  1.00  0.00     0.029 A 
ATOM     56  C   UNL A   1      38.510  31.611  34.004  1.00  0.00     0.049 A 
ATOM     57  H   UNL A   1      39.784  30.605  32.655  1.00  0.00     0.167 HD
ATOM     58  C   UNL A   1      40.502  31.015  35.331  1.00  0.00     0.074 A 
ATOM     59  C   UNL A   1      41.291  31.044  36.541  1.00  0.00     0.031 C 
ATOM     60  C   UNL A   1      39.290  31.606  35.208  1.00  0.00     0.031 A 
BRANCH  47  61
ATOM     61  C   UNL A   1      37.039  31.407  29.501  1.00  0.00    -0.014 A 
ATOM     62  C   UNL A   1      35.980  30.565  29.134  1.00  0.00     0.009 A 
ATOM     63  C   UNL A   1      37.043  32.738  29.056  1.00  0.00     0.009 A 
ATOM     64  C   UNL A   1      34.949  31.047  28.325  1.00  0.00     0.001 A 
ATOM     65  C   UNL A   1      36.002  33.222  28.265  1.00  0.00     0.001 A 
ATOM     66  C   UNL A   1      34.956  32.376  27.899  1.00  0.00     0.000 A 
ENDBRANCH  47  61
BRANCH  48  67
ATOM     67  C   UNL A   1      44.697  28.937  35.331  1.00  0.00    -0.014 A 
ATOM     68  C   UNL A   1      44.708  27.817  36.181  1.00  0.00     0.009 A 
ATOM     69  C   UNL A   1      45.760  29.848  35.411  1.00  0.00     0.009 A 
ATOM     70  C   UNL A   1      45.741  27.626  37.102  1.00  0.00     0.001 A 
ATOM     71  C   UNL A   1      46.808  29.640  36.310  1.00  0.00     0.001 A 
ATOM     72  C   UNL A   1      46.794  28.535  37.161  1.00  0.00     0.000 A 
ENDBRANCH  48  67
BRANCH  60  73
ATOM     73  C   UNL A   1      38.741  32.304  36.420  1.00  0.00    -0.014 A 
ATOM     74  C   UNL A   1      37.941  31.615  37.348  1.00  0.00     0.009 A 
ATOM     75  C   UNL A   1      39.033  33.657  36.646  1.00  0.00     0.009 A 
ATOM     76  C   UNL A   1      37.413  32.280  38.456  1.00  0.00     0.001 A 
ATOM     77  C   UNL A   1      38.528  34.311  37.772  1.00  0.00     0.001 A 
ATOM     78  C   UNL A   1      37.710  33.626  38.669  1.00  0.00     0.000 A 
ENDBRANCH  60  73
ENDBRANCH  34  35
ENDBRANCH  27  29
ENDBRANCH  26  27
ENDBRANCH  25  26
ENDBRANCH   1  25
TORSDOF 13
ENDMDL
MODEL 3
REMARK VINA RESULT:     -11.5      0.605      5.930
REMARK SMILES O=C(CN1C(=O)N/C(=C/c2cc3c(cc2Cl)OCO3)C1=O)OCCOC(=O)c1ccc(-c2c3nc(c(-c4ccccc4)c4ccc([nH]4)c(-c4ccccc4)c4nc(c(-c5ccccc5)c5ccc2[nH]5)C=C4)C=C3)cc1
REMARK SMILES IDX 23 1 22 2 2 3 1 4 3 5 4 6 5 7 20 8 6 9 7 10 8 11 21 12 9 14
REMARK SMILES IDX 10 15 11 16 15 17 12 18 14 19 16 20 13 21 19 22 17 23 18 24
REMARK SMILES IDX 24 25 25 26 26 27 27 28 28 29 29 30 75 31 30 32 74 33 31 34
REMARK SMILES IDX 32 35 33 36 68 37 34 38 73 39 67 40 69 41 35 42 72 43 66 44
REMARK SMILES IDX 65 45 36 47 58 48 43 49 57 50 44 51 47 52 56 53 70 54 45 55
REMARK SMILES IDX 46 56 55 58 71 59 48 60 37 61 38 62 42 63 39 64 41 65 40 66
REMARK SMILES IDX 59 67 60 68 64 69 61 70 63 71 62 72 49 73 50 74 54 75 51 76
REMARK SMILES IDX 53 77 52 78
REMARK H PARENT 7 13 69 46 47 57
REMARK Flexibility Score: inf
ROOT
ATOM      1  C   UNL A   1      35.591  34.813  34.196  1.00  0.00     0.274 C 
ENDROOT
BRANCH   1   2
ATOM      2  O   UNL A   1      35.177  35.775  33.208  1.00  0.00    -0.461 OA
BRANCH   2   3
ATOM      3  C   UNL A   1      33.932  36.316  33.223  1.00  0.00     0.326 C 
ATOM      4  O   UNL A   1      33.657  37.220  34.010  1.00  0.00    -0.250 OA
BRANCH   3   5
ATOM      5  C   UNL A   1      32.878  35.676  32.330  1.00  0.00     0.253 C 
BRANCH   5   6
ATOM      6  N   UNL A   1      33.296  35.725  30.959  1.00  0.00    -0.247 N 
ATOM      7  C   UNL A   1      33.273  36.857  30.183  1.00  0.00     0.329 C 
ATOM      8  C   UNL A   1      33.846  34.671  30.292  1.00  0.00     0.279 C 
ATOM      9  O   UNL A   1      32.903  37.968  30.525  1.00  0.00    -0.248 OA
ATOM     10  N   UNL A   1      33.761  36.519  28.932  1.00  0.00    -0.303 N 
ATOM     11  C   UNL A   1      34.068  35.189  28.901  1.00  0.00     0.109 C 
ATOM     12  O   UNL A   1      34.192  33.591  30.748  1.00  0.00    -0.267 OA
ATOM     13  H   UNL A   1      33.870  37.143  28.179  1.00  0.00     0.172 HD
ATOM     14  C   UNL A   1      34.432  34.499  27.817  1.00  0.00     0.042 C 
BRANCH  14  15
ATOM     15  C   UNL A   1      34.582  33.038  27.844  1.00  0.00    -0.001 A 
ATOM     16  C   UNL A   1      33.452  32.255  27.570  1.00  0.00     0.060 A 
ATOM     17  C   UNL A   1      35.836  32.406  28.084  1.00  0.00     0.052 A 
ATOM     18  C   UNL A   1      33.622  30.890  27.511  1.00  0.00     0.166 A 
ATOM     19  C   UNL A   1      35.974  31.021  28.000  1.00  0.00     0.071 A 
ATOM     20  Cl  UNL A   1      37.252  33.311  28.506  1.00  0.00    -0.084 Cl
ATOM     21  C   UNL A   1      34.846  30.293  27.713  1.00  0.00     0.167 A 
ATOM     22  O   UNL A   1      32.649  29.981  27.245  1.00  0.00    -0.454 OA
ATOM     23  O   UNL A   1      34.791  28.940  27.611  1.00  0.00    -0.454 OA
ATOM     24  C   UNL A   1      33.423  28.764  27.204  1.00  0.00     0.468 C 
ENDBRANCH  14  15
ENDBRANCH   5   6
ENDBRANCH   3   5
ENDBRANCH   2   3
ENDBRANCH   1   2
BRANCH   1  25
ATOM     25  C   UNL A   1      34.971  33.432  33.958  1.00  0.00     0.275 C 
BRANCH  25  26
ATOM     26  O   UNL A   1      35.917  32.512  33.378  1.00  0.00    -0.458 OA
BRANCH  26  27
ATOM     27  C   UNL A   1      37.000  32.224  34.147  1.00  0.00     0.338 C 
ATOM     28  O   UNL A   1      37.040  32.195  35.364  1.00  0.00    -0.246 OA
BRANCH  27  29
ATOM     29  C   UNL A   1      38.122  31.774  33.285  1.00  0.00     0.060 A 
ATOM     30  C   UNL A   1      38.050  32.043  31.912  1.00  0.00     0.016 A 
ATOM     31  C   UNL A   1      39.242  31.120  33.808  1.00  0.00     0.016 A 
ATOM     32  C   UNL A   1      39.088  31.651  31.059  1.00  0.00     0.010 A 
ATOM     33  C   UNL A   1      40.272  30.715  32.949  1.00  0.00     0.010 A 
ATOM     34  C   UNL A   1      40.197  30.962  31.567  1.00  0.00    -0.014 A 
BRANCH  34  35
ATOM     35  C   UNL A   1      41.223  30.389  30.655  1.00  0.00     0.031 A 
ATOM     36  C   UNL A   1      42.438  31.213  30.316  1.00  0.00     0.074 A 
ATOM     37  C   UNL A   1      41.057  29.182  30.082  1.00  0.00     0.049 A 
ATOM     38  N   UNL A   1      43.427  30.937  29.503  1.00  0.00    -0.248 NA
ATOM     39  C   UNL A   1      42.550  32.526  30.974  1.00  0.00     0.031 C 
ATOM     40  C   UNL A   1      39.937  28.274  30.320  1.00  0.00     0.029 A 
ATOM     41  N   UNL A   1      41.829  28.523  29.152  1.00  0.00    -0.354 N 
ATOM     42  C   UNL A   1      44.264  32.044  29.535  1.00  0.00     0.074 A 
ATOM     43  C   UNL A   1      43.668  33.001  30.444  1.00  0.00     0.031 C 
ATOM     44  C   UNL A   1      40.077  27.193  29.530  1.00  0.00     0.029 A 
ATOM     45  C   UNL A   1      41.285  27.336  28.719  1.00  0.00     0.049 A 
ATOM     46  H   UNL A   1      42.692  28.870  28.827  1.00  0.00     0.167 HD
ATOM     47  C   UNL A   1      45.422  32.252  28.866  1.00  0.00     0.031 A 
ATOM     48  C   UNL A   1      41.706  26.478  27.763  1.00  0.00     0.031 A 
ATOM     49  C   UNL A   1      46.033  31.310  27.968  1.00  0.00     0.049 A 
ATOM     50  C   UNL A   1      42.984  26.767  27.015  1.00  0.00     0.074 A 
ATOM     51  C   UNL A   1      47.248  31.412  27.311  1.00  0.00     0.029 A 
ATOM     52  N   UNL A   1      45.468  30.109  27.583  1.00  0.00    -0.354 N 
ATOM     53  N   UNL A   1      43.845  27.740  27.181  1.00  0.00    -0.248 NA
ATOM     54  C   UNL A   1      43.356  25.821  25.948  1.00  0.00     0.031 C 
ATOM     55  C   UNL A   1      47.388  30.299  26.477  1.00  0.00     0.029 A 
ATOM     56  C   UNL A   1      46.282  29.487  26.651  1.00  0.00     0.049 A 
ATOM     57  H   UNL A   1      44.615  29.750  27.920  1.00  0.00     0.167 HD
ATOM     58  C   UNL A   1      44.866  27.503  26.268  1.00  0.00     0.074 A 
ATOM     59  C   UNL A   1      44.544  26.273  25.581  1.00  0.00     0.031 C 
ATOM     60  C   UNL A   1      45.965  28.248  25.999  1.00  0.00     0.031 A 
BRANCH  47  61
ATOM     61  C   UNL A   1      46.109  33.575  29.046  1.00  0.00    -0.014 A 
ATOM     62  C   UNL A   1      47.174  33.726  29.944  1.00  0.00     0.009 A 
ATOM     63  C   UNL A   1      45.739  34.657  28.232  1.00  0.00     0.009 A 
ATOM     64  C   UNL A   1      47.850  34.944  30.031  1.00  0.00     0.001 A 
ATOM     65  C   UNL A   1      46.429  35.866  28.307  1.00  0.00     0.001 A 
ATOM     66  C   UNL A   1      47.483  36.009  29.208  1.00  0.00     0.000 A 
ENDBRANCH  47  61
BRANCH  48  67
ATOM     67  C   UNL A   1      40.920  25.260  27.410  1.00  0.00    -0.014 A 
ATOM     68  C   UNL A   1      39.732  25.368  26.666  1.00  0.00     0.009 A 
ATOM     69  C   UNL A   1      41.296  23.998  27.891  1.00  0.00     0.009 A 
ATOM     70  C   UNL A   1      38.931  24.248  26.428  1.00  0.00     0.001 A 
ATOM     71  C   UNL A   1      40.511  22.874  27.626  1.00  0.00     0.001 A 
ATOM     72  C   UNL A   1      39.325  23.000  26.903  1.00  0.00     0.000 A 
ENDBRANCH  48  67
BRANCH  60  73
ATOM     73  C   UNL A   1      46.902  27.735  24.942  1.00  0.00    -0.014 A 
ATOM     74  C   UNL A   1      47.882  26.777  25.252  1.00  0.00     0.009 A 
ATOM     75  C   UNL A   1      46.798  28.201  23.623  1.00  0.00     0.009 A 
ATOM     76  C   UNL A   1      48.765  26.327  24.269  1.00  0.00     0.001 A 
ATOM     77  C   UNL A   1      47.664  27.726  22.636  1.00  0.00     0.001 A 
ATOM     78  C   UNL A   1      48.653  26.799  22.962  1.00  0.00     0.000 A 
ENDBRANCH  60  73
ENDBRANCH  34  35
ENDBRANCH  27  29
ENDBRANCH  26  27
ENDBRANCH  25  26
ENDBRANCH   1  25
TORSDOF 13
ENDMDL
