MODEL 1
REMARK VINA RESULT:     -11.8      0.000      0.000
REMARK SMILES O=C(OCCOC(=O)c1ccccc1/N=C/c1coc2ccccc2c1=O)c1ccc(-c2c3nc(c(-c4ccccc4)c4ccc([nH]4)c(-c4ccccc4)c4nc(c(-c5ccccc5)c5ccc2[nH]5)C=C4)C=C3)cc1
REMARK SMILES IDX 4 1 3 2 2 3 1 4 28 5 29 6 75 7 30 8 74 9 31 10 32 11 33 12
REMARK SMILES IDX 68 13 34 14 73 15 67 16 69 17 35 18 72 19 66 20 65 21 36 23
REMARK SMILES IDX 58 24 43 25 57 26 44 27 47 28 56 29 70 30 45 31 46 32 55 34
REMARK SMILES IDX 71 35 48 36 37 37 38 38 42 39 39 40 41 41 40 42 59 43 60 44
REMARK SMILES IDX 64 45 61 46 63 47 62 48 49 49 50 50 54 51 51 52 53 53 52 54
REMARK SMILES IDX 5 55 6 56 7 57 8 58 9 59 10 60 14 61 11 62 13 63 12 64 15 65
REMARK SMILES IDX 16 66 17 67 18 68 26 69 19 70 25 71 27 72 20 73 24 74 21 75
REMARK SMILES IDX 23 76 22 77
REMARK H PARENT 69 22 47 33
REMARK Flexibility Score: inf
ROOT
ATOM      1  C   UNL A   1      38.444  19.976  24.944  1.00  0.00     0.275 C 
ENDROOT
BRANCH   1   2
ATOM      2  O   UNL A   1      39.374  19.353  25.843  1.00  0.00    -0.458 OA
BRANCH   2   3
ATOM      3  C   UNL A   1      40.702  19.557  25.997  1.00  0.00     0.338 C 
ATOM      4  O   UNL A   1      41.469  18.670  25.619  1.00  0.00    -0.246 OA
BRANCH   3   5
ATOM      5  C   UNL A   1      41.318  20.787  26.599  1.00  0.00     0.060 A 
ATOM      6  C   UNL A   1      41.192  21.209  27.924  1.00  0.00     0.016 A 
ATOM      7  C   UNL A   1      42.027  21.626  25.717  1.00  0.00     0.016 A 
ATOM      8  C   UNL A   1      41.735  22.426  28.360  1.00  0.00     0.010 A 
ATOM      9  C   UNL A   1      42.579  22.838  26.148  1.00  0.00     0.010 A 
ATOM     10  C   UNL A   1      42.410  23.263  27.475  1.00  0.00    -0.014 A 
BRANCH  10  11
ATOM     11  C   UNL A   1      42.767  24.650  27.863  1.00  0.00     0.031 A 
ATOM     12  C   UNL A   1      44.206  24.954  28.103  1.00  0.00     0.074 A 
ATOM     13  C   UNL A   1      41.881  25.660  27.924  1.00  0.00     0.049 A 
ATOM     14  N   UNL A   1      44.750  26.119  28.316  1.00  0.00    -0.248 NA
ATOM     15  C   UNL A   1      45.161  23.843  27.971  1.00  0.00     0.031 C 
ATOM     16  C   UNL A   1      40.532  25.611  27.404  1.00  0.00     0.029 A 
ATOM     17  N   UNL A   1      41.956  26.915  28.473  1.00  0.00    -0.354 N 
ATOM     18  C   UNL A   1      46.111  25.903  28.227  1.00  0.00     0.074 A 
ATOM     19  C   UNL A   1      46.317  24.480  28.067  1.00  0.00     0.031 C 
ATOM     20  C   UNL A   1      39.825  26.657  27.855  1.00  0.00     0.029 A 
ATOM     21  C   UNL A   1      40.727  27.531  28.578  1.00  0.00     0.049 A 
ATOM     22  H   UNL A   1      42.799  27.334  28.761  1.00  0.00     0.167 HD
ATOM     23  C   UNL A   1      47.089  26.833  28.204  1.00  0.00     0.031 A 
ATOM     24  C   UNL A   1      40.366  28.700  29.133  1.00  0.00     0.031 A 
ATOM     25  C   UNL A   1      46.855  28.233  28.429  1.00  0.00     0.049 A 
ATOM     26  C   UNL A   1      41.476  29.667  29.392  1.00  0.00     0.074 A 
ATOM     27  C   UNL A   1      47.774  29.262  28.485  1.00  0.00     0.029 A 
ATOM     28  N   UNL A   1      45.605  28.795  28.670  1.00  0.00    -0.354 N 
ATOM     29  N   UNL A   1      42.766  29.469  29.260  1.00  0.00    -0.248 NA
ATOM     30  C   UNL A   1      41.096  31.044  29.716  1.00  0.00     0.031 C 
ATOM     31  C   UNL A   1      47.092  30.432  28.841  1.00  0.00     0.029 A 
ATOM     32  C   UNL A   1      45.738  30.148  28.937  1.00  0.00     0.049 A 
ATOM     33  H   UNL A   1      44.753  28.304  28.653  1.00  0.00     0.167 HD
ATOM     34  C   UNL A   1      43.350  30.716  29.378  1.00  0.00     0.074 A 
ATOM     35  C   UNL A   1      42.270  31.655  29.630  1.00  0.00     0.031 C 
ATOM     36  C   UNL A   1      44.655  31.054  29.238  1.00  0.00     0.031 A 
BRANCH  23  37
ATOM     37  C   UNL A   1      48.474  26.312  27.980  1.00  0.00    -0.014 A 
ATOM     38  C   UNL A   1      49.299  25.949  29.060  1.00  0.00     0.009 A 
ATOM     39  C   UNL A   1      48.994  26.276  26.681  1.00  0.00     0.009 A 
ATOM     40  C   UNL A   1      50.637  25.610  28.843  1.00  0.00     0.001 A 
ATOM     41  C   UNL A   1      50.323  25.911  26.465  1.00  0.00     0.001 A 
ATOM     42  C   UNL A   1      51.146  25.593  27.545  1.00  0.00     0.000 A 
ENDBRANCH  23  37
BRANCH  24  43
ATOM     43  C   UNL A   1      38.932  29.069  29.280  1.00  0.00    -0.014 A 
ATOM     44  C   UNL A   1      38.259  28.915  30.500  1.00  0.00     0.009 A 
ATOM     45  C   UNL A   1      38.229  29.605  28.188  1.00  0.00     0.009 A 
ATOM     46  C   UNL A   1      36.908  29.261  30.616  1.00  0.00     0.001 A 
ATOM     47  C   UNL A   1      36.881  29.964  28.310  1.00  0.00     0.001 A 
ATOM     48  C   UNL A   1      36.220  29.784  29.523  1.00  0.00     0.000 A 
ENDBRANCH  24  43
BRANCH  36  49
ATOM     49  C   UNL A   1      44.972  32.514  29.366  1.00  0.00    -0.014 A 
ATOM     50  C   UNL A   1      45.296  33.078  30.609  1.00  0.00     0.009 A 
ATOM     51  C   UNL A   1      44.944  33.332  28.227  1.00  0.00     0.009 A 
ATOM     52  C   UNL A   1      45.538  34.448  30.717  1.00  0.00     0.001 A 
ATOM     53  C   UNL A   1      45.222  34.694  28.333  1.00  0.00     0.001 A 
ATOM     54  C   UNL A   1      45.505  35.252  29.579  1.00  0.00     0.000 A 
ENDBRANCH  36  49
ENDBRANCH  10  11
ENDBRANCH   3   5
ENDBRANCH   2   3
ENDBRANCH   1   2
BRANCH   1  55
ATOM     55  C   UNL A   1      37.994  21.379  25.341  1.00  0.00     0.275 C 
BRANCH  55  56
ATOM     56  O   UNL A   1      36.904  21.868  24.549  1.00  0.00    -0.458 OA
BRANCH  56  57
ATOM     57  C   UNL A   1      35.809  22.259  25.239  1.00  0.00     0.340 C 
ATOM     58  O   UNL A   1      35.762  23.015  26.203  1.00  0.00    -0.246 OA
BRANCH  57  59
ATOM     59  C   UNL A   1      34.640  21.561  24.714  1.00  0.00     0.085 A 
ATOM     60  C   UNL A   1      34.605  20.168  24.926  1.00  0.00     0.018 A 
ATOM     61  C   UNL A   1      33.601  22.230  24.043  1.00  0.00     0.077 A 
ATOM     62  C   UNL A   1      33.517  19.416  24.490  1.00  0.00     0.001 A 
ATOM     63  C   UNL A   1      32.559  21.422  23.546  1.00  0.00     0.029 A 
ATOM     64  C   UNL A   1      32.499  20.042  23.781  1.00  0.00     0.002 A 
BRANCH  61  65
ATOM     65  N   UNL A   1      33.252  23.601  24.089  1.00  0.00    -0.255 NA
ATOM     66  C   UNL A   1      32.613  24.184  25.050  1.00  0.00     0.127 C 
BRANCH  66  67
ATOM     67  C   UNL A   1      31.385  25.014  24.712  1.00  0.00     0.076 A 
ATOM     68  C   UNL A   1      30.513  25.267  25.712  1.00  0.00     0.209 A 
ATOM     69  C   UNL A   1      31.877  26.324  24.175  1.00  0.00     0.201 A 
ATOM     70  O   UNL A   1      30.534  26.424  26.523  1.00  0.00    -0.463 OA
ATOM     71  C   UNL A   1      32.401  27.197  25.242  1.00  0.00     0.065 A 
ATOM     72  O   UNL A   1      31.899  26.581  22.982  1.00  0.00    -0.288 OA
ATOM     73  C   UNL A   1      31.661  27.208  26.419  1.00  0.00     0.137 A 
ATOM     74  C   UNL A   1      33.633  27.837  25.160  1.00  0.00     0.016 A 
ATOM     75  C   UNL A   1      32.089  27.972  27.497  1.00  0.00     0.048 A 
ATOM     76  C   UNL A   1      34.078  28.590  26.244  1.00  0.00     0.001 A 
ATOM     77  C   UNL A   1      33.300  28.667  27.404  1.00  0.00     0.004 A 
ENDBRANCH  66  67
ENDBRANCH  61  65
ENDBRANCH  57  59
ENDBRANCH  56  57
ENDBRANCH  55  56
ENDBRANCH   1  55
TORSDOF 13
ENDMDL
MODEL 2
REMARK VINA RESULT:     -11.7      4.402      9.473
REMARK SMILES O=C(OCCOC(=O)c1ccccc1/N=C/c1coc2ccccc2c1=O)c1ccc(-c2c3nc(c(-c4ccccc4)c4ccc([nH]4)c(-c4ccccc4)c4nc(c(-c5ccccc5)c5ccc2[nH]5)C=C4)C=C3)cc1
REMARK SMILES IDX 4 1 3 2 2 3 1 4 28 5 29 6 75 7 30 8 74 9 31 10 32 11 33 12
REMARK SMILES IDX 68 13 34 14 73 15 67 16 69 17 35 18 72 19 66 20 65 21 36 23
REMARK SMILES IDX 58 24 43 25 57 26 44 27 47 28 56 29 70 30 45 31 46 32 55 34
REMARK SMILES IDX 71 35 48 36 37 37 38 38 42 39 39 40 41 41 40 42 59 43 60 44
REMARK SMILES IDX 64 45 61 46 63 47 62 48 49 49 50 50 54 51 51 52 53 53 52 54
REMARK SMILES IDX 5 55 6 56 7 57 8 58 9 59 10 60 14 61 11 62 13 63 12 64 15 65
REMARK SMILES IDX 16 66 17 67 18 68 26 69 19 70 25 71 27 72 20 73 24 74 21 75
REMARK SMILES IDX 23 76 22 77
REMARK H PARENT 69 22 47 33
REMARK Flexibility Score: inf
ROOT
ATOM      1  C   UNL A   1      32.504  31.642  26.916  1.00  0.00     0.275 C 
ENDROOT
BRANCH   1   2
ATOM      2  O   UNL A   1      32.397  33.045  27.207  1.00  0.00    -0.458 OA
BRANCH   2   3
ATOM      3  C   UNL A   1      33.096  33.806  28.080  1.00  0.00     0.338 C 
ATOM      4  O   UNL A   1      32.641  34.912  28.373  1.00  0.00    -0.246 OA
BRANCH   3   5
ATOM      5  C   UNL A   1      34.393  33.405  28.723  1.00  0.00     0.060 A 
ATOM      6  C   UNL A   1      35.669  33.588  28.188  1.00  0.00     0.016 A 
ATOM      7  C   UNL A   1      34.296  32.713  29.946  1.00  0.00     0.016 A 
ATOM      8  C   UNL A   1      36.811  33.092  28.833  1.00  0.00     0.010 A 
ATOM      9  C   UNL A   1      35.433  32.223  30.599  1.00  0.00     0.010 A 
ATOM     10  C   UNL A   1      36.705  32.384  30.028  1.00  0.00    -0.014 A 
BRANCH  10  11
ATOM     11  C   UNL A   1      37.868  31.649  30.582  1.00  0.00     0.031 A 
ATOM     12  C   UNL A   1      38.347  32.033  31.939  1.00  0.00     0.074 A 
ATOM     13  C   UNL A   1      38.454  30.605  29.968  1.00  0.00     0.049 A 
ATOM     14  N   UNL A   1      39.252  31.436  32.664  1.00  0.00    -0.248 NA
ATOM     15  C   UNL A   1      37.650  33.139  32.614  1.00  0.00     0.031 C 
ATOM     16  C   UNL A   1      37.909  29.903  28.826  1.00  0.00     0.029 A 
ATOM     17  N   UNL A   1      39.646  29.962  30.186  1.00  0.00    -0.354 N 
ATOM     18  C   UNL A   1      39.153  32.015  33.913  1.00  0.00     0.074 A 
ATOM     19  C   UNL A   1      38.192  33.093  33.820  1.00  0.00     0.031 C 
ATOM     20  C   UNL A   1      38.840  29.103  28.288  1.00  0.00     0.029 A 
ATOM     21  C   UNL A   1      40.006  29.130  29.148  1.00  0.00     0.049 A 
ATOM     22  H   UNL A   1      40.188  30.083  30.999  1.00  0.00     0.167 HD
ATOM     23  C   UNL A   1      39.761  31.619  35.051  1.00  0.00     0.031 A 
ATOM     24  C   UNL A   1      41.120  28.409  28.936  1.00  0.00     0.031 A 
ATOM     25  C   UNL A   1      40.759  30.584  35.097  1.00  0.00     0.049 A 
ATOM     26  C   UNL A   1      41.986  28.182  30.133  1.00  0.00     0.074 A 
ATOM     27  C   UNL A   1      41.485  30.135  36.182  1.00  0.00     0.029 A 
ATOM     28  N   UNL A   1      41.194  29.860  33.992  1.00  0.00    -0.354 N 
ATOM     29  N   UNL A   1      41.857  28.699  31.332  1.00  0.00    -0.248 NA
ATOM     30  C   UNL A   1      43.037  27.170  30.010  1.00  0.00     0.031 C 
ATOM     31  C   UNL A   1      42.416  29.197  35.720  1.00  0.00     0.029 A 
ATOM     32  C   UNL A   1      42.224  29.009  34.359  1.00  0.00     0.049 A 
ATOM     33  H   UNL A   1      40.824  29.939  33.083  1.00  0.00     0.167 HD
ATOM     34  C   UNL A   1      42.738  28.003  32.137  1.00  0.00     0.074 A 
ATOM     35  C   UNL A   1      43.420  27.051  31.275  1.00  0.00     0.031 C 
ATOM     36  C   UNL A   1      42.924  28.108  33.474  1.00  0.00     0.031 A 
BRANCH  23  37
ATOM     37  C   UNL A   1      39.375  32.367  36.288  1.00  0.00    -0.014 A 
ATOM     38  C   UNL A   1      38.253  31.989  37.048  1.00  0.00     0.009 A 
ATOM     39  C   UNL A   1      40.083  33.521  36.644  1.00  0.00     0.009 A 
ATOM     40  C   UNL A   1      37.819  32.786  38.110  1.00  0.00     0.001 A 
ATOM     41  C   UNL A   1      39.662  34.300  37.722  1.00  0.00     0.001 A 
ATOM     42  C   UNL A   1      38.524  33.941  38.444  1.00  0.00     0.000 A 
ENDBRANCH  23  37
BRANCH  24  43
ATOM     43  C   UNL A   1      41.351  27.719  27.638  1.00  0.00    -0.014 A 
ATOM     44  C   UNL A   1      40.864  26.427  27.399  1.00  0.00     0.009 A 
ATOM     45  C   UNL A   1      42.054  28.372  26.611  1.00  0.00     0.009 A 
ATOM     46  C   UNL A   1      41.098  25.792  26.175  1.00  0.00     0.001 A 
ATOM     47  C   UNL A   1      42.276  27.742  25.381  1.00  0.00     0.001 A 
ATOM     48  C   UNL A   1      41.803  26.449  25.167  1.00  0.00     0.000 A 
ENDBRANCH  24  43
BRANCH  36  49
ATOM     49  C   UNL A   1      43.921  27.163  34.076  1.00  0.00    -0.014 A 
ATOM     50  C   UNL A   1      43.530  25.899  34.542  1.00  0.00     0.009 A 
ATOM     51  C   UNL A   1      45.266  27.546  34.178  1.00  0.00     0.009 A 
ATOM     52  C   UNL A   1      44.461  25.054  35.146  1.00  0.00     0.001 A 
ATOM     53  C   UNL A   1      46.201  26.685  34.749  1.00  0.00     0.001 A 
ATOM     54  C   UNL A   1      45.795  25.446  35.244  1.00  0.00     0.000 A 
ENDBRANCH  36  49
ENDBRANCH  10  11
ENDBRANCH   3   5
ENDBRANCH   2   3
ENDBRANCH   1   2
BRANCH   1  55
ATOM     55  C   UNL A   1      31.357  31.059  26.095  1.00  0.00     0.275 C 
BRANCH  55  56
ATOM     56  O   UNL A   1      31.659  29.774  25.536  1.00  0.00    -0.458 OA
BRANCH  56  57
ATOM     57  C   UNL A   1      31.093  29.509  24.338  1.00  0.00     0.340 C 
ATOM     58  O   UNL A   1      30.013  29.907  23.916  1.00  0.00    -0.246 OA
BRANCH  57  59
ATOM     59  C   UNL A   1      31.939  28.571  23.607  1.00  0.00     0.085 A 
ATOM     60  C   UNL A   1      33.126  29.103  23.066  1.00  0.00     0.018 A 
ATOM     61  C   UNL A   1      31.604  27.214  23.457  1.00  0.00     0.077 A 
ATOM     62  C   UNL A   1      34.016  28.282  22.378  1.00  0.00     0.001 A 
ATOM     63  C   UNL A   1      32.490  26.436  22.684  1.00  0.00     0.029 A 
ATOM     64  C   UNL A   1      33.688  26.948  22.170  1.00  0.00     0.002 A 
BRANCH  61  65
ATOM     65  N   UNL A   1      30.723  26.424  24.234  1.00  0.00    -0.255 NA
ATOM     66  C   UNL A   1      30.994  25.905  25.386  1.00  0.00     0.127 C 
BRANCH  66  67
ATOM     67  C   UNL A   1      30.747  24.419  25.592  1.00  0.00     0.076 A 
ATOM     68  C   UNL A   1      30.649  23.647  24.488  1.00  0.00     0.209 A 
ATOM     69  C   UNL A   1      31.877  23.899  26.429  1.00  0.00     0.201 A 
ATOM     70  O   UNL A   1      31.726  22.943  23.902  1.00  0.00    -0.463 OA
ATOM     71  C   UNL A   1      33.126  23.773  25.655  1.00  0.00     0.065 A 
ATOM     72  O   UNL A   1      31.767  23.687  27.626  1.00  0.00    -0.288 OA
ATOM     73  C   UNL A   1      32.979  23.269  24.368  1.00  0.00     0.137 A 
ATOM     74  C   UNL A   1      34.345  24.274  26.098  1.00  0.00     0.016 A 
ATOM     75  C   UNL A   1      34.091  23.142  23.545  1.00  0.00     0.048 A 
ATOM     76  C   UNL A   1      35.461  24.168  25.272  1.00  0.00     0.001 A 
ATOM     77  C   UNL A   1      35.335  23.591  24.003  1.00  0.00     0.004 A 
ENDBRANCH  66  67
ENDBRANCH  61  65
ENDBRANCH  57  59
ENDBRANCH  56  57
ENDBRANCH  55  56
ENDBRANCH   1  55
TORSDOF 13
ENDMDL
MODEL 3
REMARK VINA RESULT:     -11.6      0.860      6.064
REMARK SMILES O=C(OCCOC(=O)c1ccccc1/N=C/c1coc2ccccc2c1=O)c1ccc(-c2c3nc(c(-c4ccccc4)c4ccc([nH]4)c(-c4ccccc4)c4nc(c(-c5ccccc5)c5ccc2[nH]5)C=C4)C=C3)cc1
REMARK SMILES IDX 4 1 3 2 2 3 1 4 28 5 29 6 75 7 30 8 74 9 31 10 32 11 33 12
REMARK SMILES IDX 68 13 34 14 73 15 67 16 69 17 35 18 72 19 66 20 65 21 36 23
REMARK SMILES IDX 58 24 43 25 57 26 44 27 47 28 56 29 70 30 45 31 46 32 55 34
REMARK SMILES IDX 71 35 48 36 37 37 38 38 42 39 39 40 41 41 40 42 59 43 60 44
REMARK SMILES IDX 64 45 61 46 63 47 62 48 49 49 50 50 54 51 51 52 53 53 52 54
REMARK SMILES IDX 5 55 6 56 7 57 8 58 9 59 10 60 14 61 11 62 13 63 12 64 15 65
REMARK SMILES IDX 16 66 17 67 18 68 26 69 19 70 25 71 27 72 20 73 24 74 21 75
REMARK SMILES IDX 23 76 22 77
REMARK H PARENT 69 22 47 33
REMARK Flexibility Score: inf
ROOT
ATOM      1  C   UNL A   1      38.391  20.056  24.901  1.00  0.00     0.275 C 
ENDROOT
BRANCH   1   2
ATOM      2  O   UNL A   1      39.284  19.505  25.881  1.00  0.00    -0.458 OA
BRANCH   2   3
ATOM      3  C   UNL A   1      40.623  19.645  26.012  1.00  0.00     0.338 C 
ATOM      4  O   UNL A   1      41.337  18.705  25.661  1.00  0.00    -0.246 OA
BRANCH   3   5
ATOM      5  C   UNL A   1      41.310  20.863  26.558  1.00  0.00     0.060 A 
ATOM      6  C   UNL A   1      41.094  21.440  27.811  1.00  0.00     0.016 A 
ATOM      7  C   UNL A   1      42.202  21.520  25.687  1.00  0.00     0.016 A 
ATOM      8  C   UNL A   1      41.726  22.635  28.185  1.00  0.00     0.010 A 
ATOM      9  C   UNL A   1      42.842  22.708  26.058  1.00  0.00     0.010 A 
ATOM     10  C   UNL A   1      42.584  23.294  27.307  1.00  0.00    -0.014 A 
BRANCH  10  11
ATOM     11  C   UNL A   1      43.057  24.670  27.596  1.00  0.00     0.031 A 
ATOM     12  C   UNL A   1      42.033  25.746  27.705  1.00  0.00     0.074 A 
ATOM     13  C   UNL A   1      44.341  24.981  27.848  1.00  0.00     0.049 A 
ATOM     14  N   UNL A   1      42.210  26.982  28.082  1.00  0.00    -0.248 NA
ATOM     15  C   UNL A   1      40.628  25.366  27.483  1.00  0.00     0.031 C 
ATOM     16  C   UNL A   1      45.390  24.020  28.110  1.00  0.00     0.029 A 
ATOM     17  N   UNL A   1      45.002  26.182  27.898  1.00  0.00    -0.354 N 
ATOM     18  C   UNL A   1      40.940  27.492  28.255  1.00  0.00     0.074 A 
ATOM     19  C   UNL A   1      40.000  26.480  27.824  1.00  0.00     0.031 C 
ATOM     20  C   UNL A   1      46.589  24.617  28.053  1.00  0.00     0.029 A 
ATOM     21  C   UNL A   1      46.374  26.042  27.897  1.00  0.00     0.049 A 
ATOM     22  H   UNL A   1      44.545  27.054  27.931  1.00  0.00     0.167 HD
ATOM     23  C   UNL A   1      40.601  28.678  28.802  1.00  0.00     0.031 A 
ATOM     24  C   UNL A   1      47.358  26.955  27.846  1.00  0.00     0.031 A 
ATOM     25  C   UNL A   1      41.559  29.687  29.161  1.00  0.00     0.049 A 
ATOM     26  C   UNL A   1      46.960  28.358  28.174  1.00  0.00     0.074 A 
ATOM     27  C   UNL A   1      41.331  30.950  29.671  1.00  0.00     0.029 A 
ATOM     28  N   UNL A   1      42.936  29.555  29.013  1.00  0.00    -0.354 N 
ATOM     29  N   UNL A   1      45.754  28.827  28.384  1.00  0.00    -0.248 NA
ATOM     30  C   UNL A   1      48.042  29.316  28.414  1.00  0.00     0.031 C 
ATOM     31  C   UNL A   1      42.562  31.611  29.755  1.00  0.00     0.029 A 
ATOM     32  C   UNL A   1      43.566  30.738  29.364  1.00  0.00     0.049 A 
ATOM     33  H   UNL A   1      43.395  28.741  28.705  1.00  0.00     0.167 HD
ATOM     34  C   UNL A   1      45.929  30.103  28.885  1.00  0.00     0.074 A 
ATOM     35  C   UNL A   1      47.363  30.342  28.910  1.00  0.00     0.031 C 
ATOM     36  C   UNL A   1      44.991  30.972  29.331  1.00  0.00     0.031 A 
BRANCH  23  37
ATOM     37  C   UNL A   1      39.133  28.919  28.970  1.00  0.00    -0.014 A 
ATOM     38  C   UNL A   1      38.364  29.486  27.937  1.00  0.00     0.009 A 
ATOM     39  C   UNL A   1      38.532  28.667  30.209  1.00  0.00     0.009 A 
ATOM     40  C   UNL A   1      37.033  29.842  28.162  1.00  0.00     0.001 A 
ATOM     41  C   UNL A   1      37.195  29.001  30.423  1.00  0.00     0.001 A 
ATOM     42  C   UNL A   1      36.451  29.600  29.406  1.00  0.00     0.000 A 
ENDBRANCH  23  37
BRANCH  24  43
ATOM     43  C   UNL A   1      48.778  26.544  27.675  1.00  0.00    -0.014 A 
ATOM     44  C   UNL A   1      49.366  26.455  26.406  1.00  0.00     0.009 A 
ATOM     45  C   UNL A   1      49.566  26.256  28.802  1.00  0.00     0.009 A 
ATOM     46  C   UNL A   1      50.700  26.060  26.265  1.00  0.00     0.001 A 
ATOM     47  C   UNL A   1      50.906  25.874  28.661  1.00  0.00     0.001 A 
ATOM     48  C   UNL A   1      51.469  25.770  27.391  1.00  0.00     0.000 A 
ENDBRANCH  24  43
BRANCH  36  49
ATOM     49  C   UNL A   1      45.504  32.271  29.877  1.00  0.00    -0.014 A 
ATOM     50  C   UNL A   1      45.699  33.381  29.043  1.00  0.00     0.009 A 
ATOM     51  C   UNL A   1      45.797  32.380  31.245  1.00  0.00     0.009 A 
ATOM     52  C   UNL A   1      46.226  34.564  29.559  1.00  0.00     0.001 A 
ATOM     53  C   UNL A   1      46.289  33.576  31.765  1.00  0.00     0.001 A 
ATOM     54  C   UNL A   1      46.516  34.661  30.919  1.00  0.00     0.000 A 
ENDBRANCH  36  49
ENDBRANCH  10  11
ENDBRANCH   3   5
ENDBRANCH   2   3
ENDBRANCH   1   2
BRANCH   1  55
ATOM     55  C   UNL A   1      37.915  21.479  25.180  1.00  0.00     0.275 C 
BRANCH  55  56
ATOM     56  O   UNL A   1      36.892  21.920  24.277  1.00  0.00    -0.458 OA
BRANCH  56  57
ATOM     57  C   UNL A   1      35.871  22.604  24.839  1.00  0.00     0.340 C 
ATOM     58  O   UNL A   1      35.910  23.331  25.826  1.00  0.00    -0.246 OA
BRANCH  57  59
ATOM     59  C   UNL A   1      34.635  22.281  24.134  1.00  0.00     0.085 A 
ATOM     60  C   UNL A   1      34.010  21.074  24.505  1.00  0.00     0.018 A 
ATOM     61  C   UNL A   1      34.088  23.122  23.149  1.00  0.00     0.077 A 
ATOM     62  C   UNL A   1      32.809  20.692  23.912  1.00  0.00     0.001 A 
ATOM     63  C   UNL A   1      32.917  22.659  22.515  1.00  0.00     0.029 A 
ATOM     64  C   UNL A   1      32.271  21.477  22.901  1.00  0.00     0.002 A 
BRANCH  61  65
ATOM     65  N   UNL A   1      34.313  24.503  22.933  1.00  0.00    -0.255 NA
ATOM     66  C   UNL A   1      33.854  25.464  23.667  1.00  0.00     0.127 C 
BRANCH  66  67
ATOM     67  C   UNL A   1      33.108  26.604  22.991  1.00  0.00     0.076 A 
ATOM     68  C   UNL A   1      31.765  26.637  23.135  1.00  0.00     0.209 A 
ATOM     69  C   UNL A   1      33.670  27.880  23.540  1.00  0.00     0.201 A 
ATOM     70  O   UNL A   1      31.082  27.361  24.137  1.00  0.00    -0.463 OA
ATOM     71  C   UNL A   1      33.204  28.144  24.915  1.00  0.00     0.065 A 
ATOM     72  O   UNL A   1      34.476  28.563  22.928  1.00  0.00    -0.288 OA
ATOM     73  C   UNL A   1      31.864  27.863  25.153  1.00  0.00     0.137 A 
ATOM     74  C   UNL A   1      34.065  28.484  25.954  1.00  0.00     0.016 A 
ATOM     75  C   UNL A   1      31.335  28.045  26.424  1.00  0.00     0.048 A 
ATOM     76  C   UNL A   1      33.546  28.650  27.236  1.00  0.00     0.001 A 
ATOM     77  C   UNL A   1      32.182  28.444  27.466  1.00  0.00     0.004 A 
ENDBRANCH  66  67
ENDBRANCH  61  65
ENDBRANCH  57  59
ENDBRANCH  56  57
ENDBRANCH  55  56
ENDBRANCH   1  55
TORSDOF 13
ENDMDL
