MODEL 1
REMARK VINA RESULT:     -10.5      0.000      0.000
REMARK SMILES C[C@@](C(=O)OCCOC(=O)c1ccc(-c2c3nc(c(-c4ccccc4)c4ccc([nH]4)c(-c4ccccc4)c4nc(c(-c5ccccc5)c5ccc2[nH]5)C=C4)C=C3)cc1)(N1C(=O)COCC1=O)C(F)(F)F
REMARK SMILES IDX 7 1 6 2 5 3 3 4 4 5 2 6 1 7 59 8 60 9 65 10 61 11 62 12
REMARK SMILES IDX 64 13 66 14 63 15 67 16 68 17 69 18 70 19 8 20 9 21 10 22
REMARK SMILES IDX 11 23 12 24 58 25 13 26 57 27 14 28 15 29 16 30 51 31 17 32
REMARK SMILES IDX 56 33 50 34 52 35 18 36 55 37 49 38 48 39 19 41 41 42 26 43
REMARK SMILES IDX 40 44 27 45 30 46 39 47 53 48 28 49 29 50 38 52 54 53 31 54
REMARK SMILES IDX 20 55 21 56 25 57 22 58 24 59 23 60 42 61 43 62 47 63 44 64
REMARK SMILES IDX 46 65 45 66 32 67 33 68 37 69 34 70 36 71 35 72
REMARK H PARENT 52 40 30 51
REMARK Flexibility Score: inf
ROOT
ATOM      1  C   UNL A   1      47.156  27.038  28.530  1.00  0.00     0.275 C 
ENDROOT
BRANCH   1   2
ATOM      2  C   UNL A   1      47.536  26.439  27.178  1.00  0.00     0.274 C 
BRANCH   2   3
ATOM      3  O   UNL A   1      46.380  25.882  26.513  1.00  0.00    -0.460 OA
BRANCH   3   4
ATOM      4  C   UNL A   1      46.283  24.522  26.487  1.00  0.00     0.341 C 
ATOM      5  O   UNL A   1      47.110  23.773  26.992  1.00  0.00    -0.249 OA
BRANCH   4   6
ATOM      6  C   UNL A   1      45.068  24.034  25.703  1.00  0.00     0.240 C 
ATOM      7  C   UNL A   1      44.258  25.203  25.072  1.00  0.00     0.058 C 
BRANCH   6   8
ATOM      8  N   UNL A   1      44.141  23.192  26.587  1.00  0.00    -0.253 N 
ATOM      9  C   UNL A   1      43.287  22.261  25.997  1.00  0.00     0.256 C 
ATOM     10  C   UNL A   1      43.946  23.538  27.923  1.00  0.00     0.256 C 
ATOM     11  O   UNL A   1      43.097  22.187  24.785  1.00  0.00    -0.272 OA
ATOM     12  C   UNL A   1      42.568  21.293  26.940  1.00  0.00     0.261 C 
ATOM     13  C   UNL A   1      43.198  22.524  28.789  1.00  0.00     0.261 C 
ATOM     14  O   UNL A   1      44.368  24.572  28.430  1.00  0.00    -0.272 OA
ATOM     15  O   UNL A   1      42.117  21.899  28.132  1.00  0.00    -0.362 OA
ENDBRANCH   6   8
BRANCH   6  16
ATOM     16  C   UNL A   1      45.713  23.281  24.518  1.00  0.00     0.422 C 
ATOM     17  F   UNL A   1      46.826  23.939  24.100  1.00  0.00    -0.168 F 
ATOM     18  F   UNL A   1      46.131  22.041  24.892  1.00  0.00    -0.168 F 
ATOM     19  F   UNL A   1      44.923  23.076  23.450  1.00  0.00    -0.168 F 
ENDBRANCH   6  16
ENDBRANCH   4   6
ENDBRANCH   3   4
ENDBRANCH   2   3
ENDBRANCH   1   2
BRANCH   1  20
ATOM     20  O   UNL A   1      46.169  28.059  28.326  1.00  0.00    -0.458 OA
BRANCH  20  21
ATOM     21  C   UNL A   1      45.361  28.329  29.376  1.00  0.00     0.338 C 
ATOM     22  O   UNL A   1      45.686  28.776  30.462  1.00  0.00    -0.246 OA
BRANCH  21  23
ATOM     23  C   UNL A   1      43.975  27.959  29.027  1.00  0.00     0.060 A 
ATOM     24  C   UNL A   1      43.531  28.024  27.707  1.00  0.00     0.016 A 
ATOM     25  C   UNL A   1      43.083  27.616  30.041  1.00  0.00     0.016 A 
ATOM     26  C   UNL A   1      42.187  27.839  27.404  1.00  0.00     0.010 A 
ATOM     27  C   UNL A   1      41.750  27.336  29.724  1.00  0.00     0.010 A 
ATOM     28  C   UNL A   1      41.279  27.480  28.406  1.00  0.00    -0.014 A 
BRANCH  28  29
ATOM     29  C   UNL A   1      39.838  27.308  28.087  1.00  0.00     0.031 A 
ATOM     30  C   UNL A   1      39.335  25.985  27.575  1.00  0.00     0.074 A 
ATOM     31  C   UNL A   1      38.967  28.322  28.270  1.00  0.00     0.049 A 
ATOM     32  N   UNL A   1      38.172  25.688  27.052  1.00  0.00    -0.248 NA
ATOM     33  C   UNL A   1      40.269  24.849  27.645  1.00  0.00     0.031 C 
ATOM     34  C   UNL A   1      39.294  29.638  28.823  1.00  0.00     0.029 A 
ATOM     35  N   UNL A   1      37.620  28.395  28.016  1.00  0.00    -0.354 N 
ATOM     36  C   UNL A   1      38.259  24.356  26.671  1.00  0.00     0.074 A 
ATOM     37  C   UNL A   1      39.583  23.896  27.029  1.00  0.00     0.031 C 
ATOM     38  C   UNL A   1      38.173  30.370  28.906  1.00  0.00     0.029 A 
ATOM     39  C   UNL A   1      37.070  29.614  28.327  1.00  0.00     0.049 A 
ATOM     40  H   UNL A   1      37.098  27.646  27.648  1.00  0.00     0.167 HD
ATOM     41  C   UNL A   1      37.321  23.587  26.068  1.00  0.00     0.031 A 
ATOM     42  C   UNL A   1      35.828  30.092  28.128  1.00  0.00     0.031 A 
ATOM     43  C   UNL A   1      35.989  24.030  25.754  1.00  0.00     0.049 A 
ATOM     44  C   UNL A   1      34.813  29.234  27.433  1.00  0.00     0.074 A 
ATOM     45  C   UNL A   1      34.968  23.327  25.138  1.00  0.00     0.029 A 
ATOM     46  N   UNL A   1      35.486  25.285  26.055  1.00  0.00    -0.354 N 
ATOM     47  N   UNL A   1      34.934  28.003  26.998  1.00  0.00    -0.248 NA
ATOM     48  C   UNL A   1      33.498  29.837  27.183  1.00  0.00     0.031 C 
ATOM     49  C   UNL A   1      33.855  24.170  25.040  1.00  0.00     0.029 A 
ATOM     50  C   UNL A   1      34.171  25.381  25.632  1.00  0.00     0.049 A 
ATOM     51  H   UNL A   1      35.990  26.004  26.502  1.00  0.00     0.167 HD
ATOM     52  C   UNL A   1      33.713  27.686  26.420  1.00  0.00     0.074 A 
ATOM     53  C   UNL A   1      32.856  28.843  26.586  1.00  0.00     0.031 C 
ATOM     54  C   UNL A   1      33.338  26.542  25.799  1.00  0.00     0.031 A 
BRANCH  41  55
ATOM     55  C   UNL A   1      37.722  22.197  25.664  1.00  0.00    -0.014 A 
ATOM     56  C   UNL A   1      38.999  21.689  25.942  1.00  0.00     0.009 A 
ATOM     57  C   UNL A   1      36.786  21.373  25.018  1.00  0.00     0.009 A 
ATOM     58  C   UNL A   1      39.339  20.390  25.557  1.00  0.00     0.001 A 
ATOM     59  C   UNL A   1      37.121  20.068  24.656  1.00  0.00     0.001 A 
ATOM     60  C   UNL A   1      38.400  19.580  24.919  1.00  0.00     0.000 A 
ENDBRANCH  41  55
BRANCH  42  61
ATOM     61  C   UNL A   1      35.497  31.482  28.538  1.00  0.00    -0.014 A 
ATOM     62  C   UNL A   1      35.084  31.760  29.848  1.00  0.00     0.009 A 
ATOM     63  C   UNL A   1      35.613  32.539  27.622  1.00  0.00     0.009 A 
ATOM     64  C   UNL A   1      34.781  33.069  30.229  1.00  0.00     0.001 A 
ATOM     65  C   UNL A   1      35.338  33.850  28.013  1.00  0.00     0.001 A 
ATOM     66  C   UNL A   1      34.916  34.113  29.315  1.00  0.00     0.000 A 
ENDBRANCH  42  61
BRANCH  54  67
ATOM     67  C   UNL A   1      31.935  26.486  25.272  1.00  0.00    -0.014 A 
ATOM     68  C   UNL A   1      31.625  26.974  23.994  1.00  0.00     0.009 A 
ATOM     69  C   UNL A   1      30.920  25.914  26.054  1.00  0.00     0.009 A 
ATOM     70  C   UNL A   1      30.313  26.918  23.520  1.00  0.00     0.001 A 
ATOM     71  C   UNL A   1      29.614  25.841  25.568  1.00  0.00     0.001 A 
ATOM     72  C   UNL A   1      29.310  26.350  24.306  1.00  0.00     0.000 A 
ENDBRANCH  54  67
ENDBRANCH  28  29
ENDBRANCH  21  23
ENDBRANCH  20  21
ENDBRANCH   1  20
TORSDOF 13
ENDMDL
MODEL 2
REMARK VINA RESULT:     -10.4      4.920     11.736
REMARK SMILES C[C@@](C(=O)OCCOC(=O)c1ccc(-c2c3nc(c(-c4ccccc4)c4ccc([nH]4)c(-c4ccccc4)c4nc(c(-c5ccccc5)c5ccc2[nH]5)C=C4)C=C3)cc1)(N1C(=O)COCC1=O)C(F)(F)F
REMARK SMILES IDX 7 1 6 2 5 3 3 4 4 5 2 6 1 7 59 8 60 9 65 10 61 11 62 12
REMARK SMILES IDX 64 13 66 14 63 15 67 16 68 17 69 18 70 19 8 20 9 21 10 22
REMARK SMILES IDX 11 23 12 24 58 25 13 26 57 27 14 28 15 29 16 30 51 31 17 32
REMARK SMILES IDX 56 33 50 34 52 35 18 36 55 37 49 38 48 39 19 41 41 42 26 43
REMARK SMILES IDX 40 44 27 45 30 46 39 47 53 48 28 49 29 50 38 52 54 53 31 54
REMARK SMILES IDX 20 55 21 56 25 57 22 58 24 59 23 60 42 61 43 62 47 63 44 64
REMARK SMILES IDX 46 65 45 66 32 67 33 68 37 69 34 70 36 71 35 72
REMARK H PARENT 52 40 30 51
REMARK Flexibility Score: inf
ROOT
ATOM      1  C   UNL A   1      36.436  20.371  24.956  1.00  0.00     0.275 C 
ENDROOT
BRANCH   1   2
ATOM      2  C   UNL A   1      34.956  20.741  25.011  1.00  0.00     0.274 C 
BRANCH   2   3
ATOM      3  O   UNL A   1      34.761  22.147  24.740  1.00  0.00    -0.460 OA
BRANCH   3   4
ATOM      4  C   UNL A   1      33.556  22.509  24.213  1.00  0.00     0.341 C 
ATOM      5  O   UNL A   1      32.806  21.731  23.638  1.00  0.00    -0.249 OA
BRANCH   4   6
ATOM      6  C   UNL A   1      33.276  24.002  24.359  1.00  0.00     0.240 C 
ATOM      7  C   UNL A   1      34.436  24.760  25.067  1.00  0.00     0.058 C 
BRANCH   6   8
ATOM      8  N   UNL A   1      31.969  24.248  25.121  1.00  0.00    -0.253 N 
ATOM      9  C   UNL A   1      31.326  25.480  25.005  1.00  0.00     0.256 C 
ATOM     10  C   UNL A   1      31.572  23.369  26.127  1.00  0.00     0.256 C 
ATOM     11  O   UNL A   1      31.831  26.460  24.463  1.00  0.00    -0.272 OA
ATOM     12  C   UNL A   1      29.916  25.578  25.592  1.00  0.00     0.261 C 
ATOM     13  C   UNL A   1      30.155  23.552  26.674  1.00  0.00     0.261 C 
ATOM     14  O   UNL A   1      32.272  22.458  26.555  1.00  0.00    -0.272 OA
ATOM     15  O   UNL A   1      29.770  24.901  26.822  1.00  0.00    -0.362 OA
ENDBRANCH   6   8
BRANCH   6  16
ATOM     16  C   UNL A   1      33.286  24.491  22.893  1.00  0.00     0.422 C 
ATOM     17  F   UNL A   1      33.821  25.739  22.823  1.00  0.00    -0.168 F 
ATOM     18  F   UNL A   1      34.078  23.702  22.117  1.00  0.00    -0.168 F 
ATOM     19  F   UNL A   1      32.095  24.511  22.270  1.00  0.00    -0.168 F 
ENDBRANCH   6  16
ENDBRANCH   4   6
ENDBRANCH   3   4
ENDBRANCH   2   3
ENDBRANCH   1   2
BRANCH   1  20
ATOM     20  O   UNL A   1      37.184  21.324  25.726  1.00  0.00    -0.458 OA
BRANCH  20  21
ATOM     21  C   UNL A   1      38.515  21.106  25.821  1.00  0.00     0.338 C 
ATOM     22  O   UNL A   1      39.115  20.081  25.551  1.00  0.00    -0.246 OA
BRANCH  21  23
ATOM     23  C   UNL A   1      39.166  22.318  26.354  1.00  0.00     0.060 A 
ATOM     24  C   UNL A   1      38.597  23.576  26.161  1.00  0.00     0.016 A 
ATOM     25  C   UNL A   1      40.402  22.207  26.989  1.00  0.00     0.016 A 
ATOM     26  C   UNL A   1      39.293  24.727  26.514  1.00  0.00     0.010 A 
ATOM     27  C   UNL A   1      41.058  23.361  27.431  1.00  0.00     0.010 A 
ATOM     28  C   UNL A   1      40.528  24.636  27.165  1.00  0.00    -0.014 A 
BRANCH  28  29
ATOM     29  C   UNL A   1      41.283  25.866  27.519  1.00  0.00     0.031 A 
ATOM     30  C   UNL A   1      40.686  26.864  28.475  1.00  0.00     0.074 A 
ATOM     31  C   UNL A   1      42.510  26.090  27.008  1.00  0.00     0.049 A 
ATOM     32  N   UNL A   1      41.082  28.080  28.755  1.00  0.00    -0.248 NA
ATOM     33  C   UNL A   1      39.475  26.446  29.199  1.00  0.00     0.031 C 
ATOM     34  C   UNL A   1      43.246  25.183  26.124  1.00  0.00     0.029 A 
ATOM     35  N   UNL A   1      43.361  27.155  27.169  1.00  0.00    -0.354 N 
ATOM     36  C   UNL A   1      40.136  28.593  29.631  1.00  0.00     0.074 A 
ATOM     37  C   UNL A   1      39.149  27.557  29.845  1.00  0.00     0.031 C 
ATOM     38  C   UNL A   1      44.450  25.709  25.857  1.00  0.00     0.029 A 
ATOM     39  C   UNL A   1      44.536  27.028  26.471  1.00  0.00     0.049 A 
ATOM     40  H   UNL A   1      43.150  27.935  27.731  1.00  0.00     0.167 HD
ATOM     41  C   UNL A   1      40.088  29.822  30.199  1.00  0.00     0.031 A 
ATOM     42  C   UNL A   1      45.554  27.893  26.300  1.00  0.00     0.031 A 
ATOM     43  C   UNL A   1      41.094  30.836  30.023  1.00  0.00     0.049 A 
ATOM     44  C   UNL A   1      45.468  29.258  26.916  1.00  0.00     0.074 A 
ATOM     45  C   UNL A   1      41.132  32.115  30.552  1.00  0.00     0.029 A 
ATOM     46  N   UNL A   1      42.249  30.676  29.277  1.00  0.00    -0.354 N 
ATOM     47  N   UNL A   1      44.523  29.763  27.671  1.00  0.00    -0.248 NA
ATOM     48  C   UNL A   1      46.576  30.180  26.635  1.00  0.00     0.031 C 
ATOM     49  C   UNL A   1      42.300  32.739  30.100  1.00  0.00     0.029 A 
ATOM     50  C   UNL A   1      43.007  31.834  29.325  1.00  0.00     0.049 A 
ATOM     51  H   UNL A   1      42.496  29.859  28.784  1.00  0.00     0.167 HD
ATOM     52  C   UNL A   1      44.922  31.062  27.955  1.00  0.00     0.074 A 
ATOM     53  C   UNL A   1      46.207  31.257  27.314  1.00  0.00     0.031 C 
ATOM     54  C   UNL A   1      44.278  32.011  28.675  1.00  0.00     0.031 A 
BRANCH  41  55
ATOM     55  C   UNL A   1      38.881  30.154  31.029  1.00  0.00    -0.014 A 
ATOM     56  C   UNL A   1      38.862  29.949  32.416  1.00  0.00     0.009 A 
ATOM     57  C   UNL A   1      37.753  30.713  30.407  1.00  0.00     0.009 A 
ATOM     58  C   UNL A   1      37.725  30.273  33.160  1.00  0.00     0.001 A 
ATOM     59  C   UNL A   1      36.627  31.057  31.156  1.00  0.00     0.001 A 
ATOM     60  C   UNL A   1      36.612  30.830  32.531  1.00  0.00     0.000 A 
ENDBRANCH  41  55
BRANCH  42  61
ATOM     61  C   UNL A   1      46.714  27.510  25.455  1.00  0.00    -0.014 A 
ATOM     62  C   UNL A   1      47.766  26.751  25.989  1.00  0.00     0.009 A 
ATOM     63  C   UNL A   1      46.765  27.887  24.104  1.00  0.00     0.009 A 
ATOM     64  C   UNL A   1      48.851  26.388  25.188  1.00  0.00     0.001 A 
ATOM     65  C   UNL A   1      47.836  27.499  23.299  1.00  0.00     0.001 A 
ATOM     66  C   UNL A   1      48.881  26.755  23.843  1.00  0.00     0.000 A 
ENDBRANCH  42  61
BRANCH  54  67
ATOM     67  C   UNL A   1      44.965  33.336  28.818  1.00  0.00    -0.014 A 
ATOM     68  C   UNL A   1      45.872  33.568  29.863  1.00  0.00     0.009 A 
ATOM     69  C   UNL A   1      44.721  34.353  27.883  1.00  0.00     0.009 A 
ATOM     70  C   UNL A   1      46.501  34.809  29.985  1.00  0.00     0.001 A 
ATOM     71  C   UNL A   1      45.366  35.584  27.997  1.00  0.00     0.001 A 
ATOM     72  C   UNL A   1      46.249  35.814  29.052  1.00  0.00     0.000 A 
ENDBRANCH  54  67
ENDBRANCH  28  29
ENDBRANCH  21  23
ENDBRANCH  20  21
ENDBRANCH   1  20
TORSDOF 13
ENDMDL
MODEL 3
REMARK VINA RESULT:     -10.3      5.457     12.953
REMARK SMILES C[C@@](C(=O)OCCOC(=O)c1ccc(-c2c3nc(c(-c4ccccc4)c4ccc([nH]4)c(-c4ccccc4)c4nc(c(-c5ccccc5)c5ccc2[nH]5)C=C4)C=C3)cc1)(N1C(=O)COCC1=O)C(F)(F)F
REMARK SMILES IDX 7 1 6 2 5 3 3 4 4 5 2 6 1 7 59 8 60 9 65 10 61 11 62 12
REMARK SMILES IDX 64 13 66 14 63 15 67 16 68 17 69 18 70 19 8 20 9 21 10 22
REMARK SMILES IDX 11 23 12 24 58 25 13 26 57 27 14 28 15 29 16 30 51 31 17 32
REMARK SMILES IDX 56 33 50 34 52 35 18 36 55 37 49 38 48 39 19 41 41 42 26 43
REMARK SMILES IDX 40 44 27 45 30 46 39 47 53 48 28 49 29 50 38 52 54 53 31 54
REMARK SMILES IDX 20 55 21 56 25 57 22 58 24 59 23 60 42 61 43 62 47 63 44 64
REMARK SMILES IDX 46 65 45 66 32 67 33 68 37 69 34 70 36 71 35 72
REMARK H PARENT 52 40 30 51
REMARK Flexibility Score: inf
ROOT
ATOM      1  C   UNL A   1      39.358  23.429  26.833  1.00  0.00     0.275 C 
ENDROOT
BRANCH   1   2
ATOM      2  C   UNL A   1      40.366  22.290  26.700  1.00  0.00     0.274 C 
BRANCH   2   3
ATOM      3  O   UNL A   1      41.606  22.758  26.124  1.00  0.00    -0.460 OA
BRANCH   3   4
ATOM      4  C   UNL A   1      42.757  22.238  26.640  1.00  0.00     0.341 C 
ATOM      5  O   UNL A   1      42.851  21.793  27.777  1.00  0.00    -0.249 OA
BRANCH   4   6
ATOM      6  C   UNL A   1      43.930  22.329  25.668  1.00  0.00     0.240 C 
ATOM      7  C   UNL A   1      43.525  22.952  24.302  1.00  0.00     0.058 C 
BRANCH   6   8
ATOM      8  N   UNL A   1      44.563  20.953  25.432  1.00  0.00    -0.253 N 
ATOM      9  C   UNL A   1      45.886  20.868  25.002  1.00  0.00     0.256 C 
ATOM     10  C   UNL A   1      43.758  19.816  25.376  1.00  0.00     0.256 C 
ATOM     11  O   UNL A   1      46.541  21.839  24.626  1.00  0.00    -0.272 OA
ATOM     12  C   UNL A   1      46.526  19.479  25.016  1.00  0.00     0.261 C 
ATOM     13  C   UNL A   1      44.481  18.468  25.369  1.00  0.00     0.261 C 
ATOM     14  O   UNL A   1      42.532  19.845  25.368  1.00  0.00    -0.272 OA
ATOM     15  O   UNL A   1      45.656  18.453  24.589  1.00  0.00    -0.362 OA
ENDBRANCH   6   8
BRANCH   6  16
ATOM     16  C   UNL A   1      44.849  23.369  26.349  1.00  0.00     0.422 C 
ATOM     17  F   UNL A   1      45.533  24.071  25.407  1.00  0.00    -0.168 F 
ATOM     18  F   UNL A   1      44.124  24.286  27.044  1.00  0.00    -0.168 F 
ATOM     19  F   UNL A   1      45.736  22.881  27.233  1.00  0.00    -0.168 F 
ENDBRANCH   6  16
ENDBRANCH   4   6
ENDBRANCH   3   4
ENDBRANCH   2   3
ENDBRANCH   1   2
BRANCH   1  20
ATOM     20  O   UNL A   1      40.041  24.679  26.655  1.00  0.00    -0.458 OA
BRANCH  20  21
ATOM     21  C   UNL A   1      40.218  25.429  27.766  1.00  0.00     0.338 C 
ATOM     22  O   UNL A   1      39.464  25.526  28.718  1.00  0.00    -0.246 OA
BRANCH  21  23
ATOM     23  C   UNL A   1      41.487  26.174  27.649  1.00  0.00     0.060 A 
ATOM     24  C   UNL A   1      42.275  26.418  28.772  1.00  0.00     0.016 A 
ATOM     25  C   UNL A   1      41.857  26.703  26.414  1.00  0.00     0.016 A 
ATOM     26  C   UNL A   1      43.379  27.260  28.690  1.00  0.00     0.010 A 
ATOM     27  C   UNL A   1      43.021  27.472  26.313  1.00  0.00     0.010 A 
ATOM     28  C   UNL A   1      43.774  27.790  27.457  1.00  0.00    -0.014 A 
BRANCH  28  29
ATOM     29  C   UNL A   1      44.938  28.711  27.374  1.00  0.00     0.031 A 
ATOM     30  C   UNL A   1      44.731  30.196  27.506  1.00  0.00     0.074 A 
ATOM     31  C   UNL A   1      46.185  28.228  27.201  1.00  0.00     0.049 A 
ATOM     32  N   UNL A   1      45.570  31.172  27.264  1.00  0.00    -0.248 NA
ATOM     33  C   UNL A   1      43.402  30.643  27.954  1.00  0.00     0.031 C 
ATOM     34  C   UNL A   1      46.550  26.812  27.125  1.00  0.00     0.029 A 
ATOM     35  N   UNL A   1      47.384  28.885  27.066  1.00  0.00    -0.354 N 
ATOM     36  C   UNL A   1      44.851  32.344  27.463  1.00  0.00     0.074 A 
ATOM     37  C   UNL A   1      43.512  31.960  27.854  1.00  0.00     0.031 C 
ATOM     38  C   UNL A   1      47.881  26.706  27.001  1.00  0.00     0.029 A 
ATOM     39  C   UNL A   1      48.454  28.042  26.893  1.00  0.00     0.049 A 
ATOM     40  H   UNL A   1      47.468  29.865  27.092  1.00  0.00     0.167 HD
ATOM     41  C   UNL A   1      45.269  33.624  27.323  1.00  0.00     0.031 A 
ATOM     42  C   UNL A   1      49.746  28.308  26.631  1.00  0.00     0.031 A 
ATOM     43  C   UNL A   1      46.613  34.006  26.980  1.00  0.00     0.049 A 
ATOM     44  C   UNL A   1      50.181  29.733  26.453  1.00  0.00     0.074 A 
ATOM     45  C   UNL A   1      47.132  35.278  26.809  1.00  0.00     0.029 A 
ATOM     46  N   UNL A   1      47.656  33.117  26.779  1.00  0.00    -0.354 N 
ATOM     47  N   UNL A   1      49.472  30.830  26.557  1.00  0.00    -0.248 NA
ATOM     48  C   UNL A   1      51.589  29.954  26.098  1.00  0.00     0.031 C 
ATOM     49  C   UNL A   1      48.485  35.156  26.475  1.00  0.00     0.029 A 
ATOM     50  C   UNL A   1      48.816  33.811  26.479  1.00  0.00     0.049 A 
ATOM     51  H   UNL A   1      47.583  32.137  26.839  1.00  0.00     0.167 HD
ATOM     52  C   UNL A   1      50.346  31.871  26.279  1.00  0.00     0.074 A 
ATOM     53  C   UNL A   1      51.644  31.276  26.030  1.00  0.00     0.031 C 
ATOM     54  C   UNL A   1      50.094  33.201  26.226  1.00  0.00     0.031 A 
BRANCH  41  55
ATOM     55  C   UNL A   1      44.244  34.708  27.496  1.00  0.00    -0.014 A 
ATOM     56  C   UNL A   1      44.001  35.300  28.744  1.00  0.00     0.009 A 
ATOM     57  C   UNL A   1      43.531  35.164  26.376  1.00  0.00     0.009 A 
ATOM     58  C   UNL A   1      43.044  36.310  28.871  1.00  0.00     0.001 A 
ATOM     59  C   UNL A   1      42.592  36.189  26.501  1.00  0.00     0.001 A 
ATOM     60  C   UNL A   1      42.344  36.756  27.750  1.00  0.00     0.000 A 
ENDBRANCH  41  55
BRANCH  42  61
ATOM     61  C   UNL A   1      50.710  27.190  26.457  1.00  0.00    -0.014 A 
ATOM     62  C   UNL A   1      51.370  26.639  27.564  1.00  0.00     0.009 A 
ATOM     63  C   UNL A   1      50.957  26.658  25.182  1.00  0.00     0.009 A 
ATOM     64  C   UNL A   1      52.270  25.584  27.394  1.00  0.00     0.001 A 
ATOM     65  C   UNL A   1      51.834  25.584  25.019  1.00  0.00     0.001 A 
ATOM     66  C   UNL A   1      52.494  25.052  26.124  1.00  0.00     0.000 A 
ENDBRANCH  42  61
BRANCH  54  67
ATOM     67  C   UNL A   1      51.252  34.098  25.904  1.00  0.00    -0.014 A 
ATOM     68  C   UNL A   1      51.521  34.481  24.581  1.00  0.00     0.009 A 
ATOM     69  C   UNL A   1      52.067  34.584  26.938  1.00  0.00     0.009 A 
ATOM     70  C   UNL A   1      52.605  35.313  24.297  1.00  0.00     0.001 A 
ATOM     71  C   UNL A   1      53.137  35.431  26.652  1.00  0.00     0.001 A 
ATOM     72  C   UNL A   1      53.410  35.788  25.332  1.00  0.00     0.000 A 
ENDBRANCH  54  67
ENDBRANCH  28  29
ENDBRANCH  21  23
ENDBRANCH  20  21
ENDBRANCH   1  20
TORSDOF 13
ENDMDL
