MODEL 1
REMARK VINA RESULT:     -10.4      0.000      0.000
REMARK SMILES Cc1cccc2c1[C@H]1c3c(C)cccc3[C@H](CC(=O)OCCOC(=O)c3ccc(-c4c5nc(c(-c6ccccc6)c6ccc([nH]6)c(-c6ccccc6)c6nc(c(-c7ccccc7)c7ccc4[nH]7)C=C6)C=C5)cc3)C[C@H]1CC2
REMARK SMILES IDX 22 1 21 2 20 3 18 4 19 5 17 6 16 7 1 8 2 9 3 10 7 11 4 12
REMARK SMILES IDX 6 13 8 14 5 15 77 16 9 17 75 18 76 19 10 20 15 21 74 22
REMARK SMILES IDX 12 23 11 24 14 25 13 26 23 27 24 28 25 29 26 30 27 31 73 32
REMARK SMILES IDX 28 33 72 34 29 35 30 36 31 37 66 38 32 39 71 40 65 41 67 42
REMARK SMILES IDX 33 43 70 44 64 45 63 46 34 48 56 49 41 50 55 51 42 52 45 53
REMARK SMILES IDX 54 54 68 55 43 56 44 57 53 59 69 60 46 61 35 62 36 63 40 64
REMARK SMILES IDX 37 65 39 66 38 67 57 68 58 69 62 70 59 71 61 72 60 73 47 74
REMARK SMILES IDX 48 75 52 76 49 77 51 78 50 79
REMARK H PARENT 67 47 45 58
REMARK Flexibility Score: inf
ROOT
ATOM      1  C   UNL A   1      39.514  20.783  26.112  1.00  0.00     0.275 C 
ENDROOT
BRANCH   1   2
ATOM      2  C   UNL A   1      40.753  20.003  26.560  1.00  0.00     0.274 C 
BRANCH   2   3
ATOM      3  O   UNL A   1      41.517  19.492  25.448  1.00  0.00    -0.462 OA
BRANCH   3   4
ATOM      4  C   UNL A   1      42.819  19.852  25.468  1.00  0.00     0.306 C 
ATOM      5  O   UNL A   1      43.680  19.369  24.735  1.00  0.00    -0.252 OA
BRANCH   4   6
ATOM      6  C   UNL A   1      43.208  20.866  26.510  1.00  0.00     0.131 C 
BRANCH   6   7
ATOM      7  C   UNL A   1      43.401  22.377  26.253  1.00  0.00     0.031 C 
ATOM      8  C   UNL A   1      48.707  25.112  26.723  1.00  0.00     0.044 C 
ATOM      9  C   UNL A   1      47.608  26.137  26.590  1.00  0.00    -0.047 A 
ATOM     10  C   UNL A   1      48.005  27.487  26.671  1.00  0.00     0.004 A 
ATOM     11  C   UNL A   1      46.250  25.820  26.323  1.00  0.00    -0.034 A 
ATOM     12  C   UNL A   1      47.099  28.519  26.460  1.00  0.00     0.001 A 
ATOM     13  C   UNL A   1      45.384  26.877  25.953  1.00  0.00    -0.044 A 
ATOM     14  C   UNL A   1      45.689  24.392  26.404  1.00  0.00     0.053 C 
ATOM     15  C   UNL A   1      45.804  28.214  26.068  1.00  0.00     0.004 A 
ATOM     16  C   UNL A   1      44.062  26.638  25.266  1.00  0.00     0.036 C 
ATOM     17  C   UNL A   1      44.922  23.975  27.693  1.00  0.00    -0.034 A 
ATOM     18  C   UNL A   1      44.801  24.188  25.153  1.00  0.00     0.002 C 
ATOM     19  C   UNL A   1      43.623  25.182  25.147  1.00  0.00     0.009 C 
ATOM     20  C   UNL A   1      45.282  24.397  29.008  1.00  0.00    -0.047 A 
ATOM     21  C   UNL A   1      43.826  23.058  27.580  1.00  0.00    -0.040 A 
ATOM     22  C   UNL A   1      44.349  22.723  25.105  1.00  0.00     0.013 C 
ATOM     23  C   UNL A   1      44.522  23.984  30.124  1.00  0.00     0.004 A 
ATOM     24  C   UNL A   1      46.450  25.281  29.351  1.00  0.00     0.044 C 
ATOM     25  C   UNL A   1      43.059  22.733  28.724  1.00  0.00     0.004 A 
ATOM     26  C   UNL A   1      43.411  23.178  29.985  1.00  0.00     0.001 A 
ENDBRANCH   6   7
ENDBRANCH   4   6
ENDBRANCH   3   4
ENDBRANCH   2   3
ENDBRANCH   1   2
BRANCH   1  27
ATOM     27  O   UNL A   1      39.820  22.161  25.832  1.00  0.00    -0.458 OA
BRANCH  27  28
ATOM     28  C   UNL A   1      38.845  23.044  26.151  1.00  0.00     0.338 C 
ATOM     29  O   UNL A   1      37.654  22.953  25.914  1.00  0.00    -0.246 OA
BRANCH  28  30
ATOM     30  C   UNL A   1      39.419  24.214  26.836  1.00  0.00     0.060 A 
ATOM     31  C   UNL A   1      39.156  24.445  28.188  1.00  0.00     0.016 A 
ATOM     32  C   UNL A   1      40.102  25.165  26.076  1.00  0.00     0.016 A 
ATOM     33  C   UNL A   1      39.532  25.654  28.774  1.00  0.00     0.010 A 
ATOM     34  C   UNL A   1      40.517  26.355  26.674  1.00  0.00     0.010 A 
ATOM     35  C   UNL A   1      40.209  26.623  28.018  1.00  0.00    -0.014 A 
BRANCH  35  36
ATOM     36  C   UNL A   1      40.557  27.938  28.604  1.00  0.00     0.031 A 
ATOM     37  C   UNL A   1      41.952  28.191  29.103  1.00  0.00     0.074 A 
ATOM     38  C   UNL A   1      39.623  28.902  28.705  1.00  0.00     0.049 A 
ATOM     39  N   UNL A   1      42.414  29.216  29.772  1.00  0.00    -0.248 NA
ATOM     40  C   UNL A   1      42.958  27.157  28.811  1.00  0.00     0.031 C 
ATOM     41  C   UNL A   1      38.250  28.807  28.211  1.00  0.00     0.029 A 
ATOM     42  N   UNL A   1      39.695  30.154  29.266  1.00  0.00    -0.354 N 
ATOM     43  C   UNL A   1      43.756  28.944  29.999  1.00  0.00     0.074 A 
ATOM     44  C   UNL A   1      44.035  27.654  29.405  1.00  0.00     0.031 C 
ATOM     45  C   UNL A   1      37.611  29.957  28.480  1.00  0.00     0.029 A 
ATOM     46  C   UNL A   1      38.511  30.845  29.209  1.00  0.00     0.049 A 
ATOM     47  H   UNL A   1      40.516  30.519  29.668  1.00  0.00     0.167 HD
ATOM     48  C   UNL A   1      44.674  29.702  30.644  1.00  0.00     0.031 A 
ATOM     49  C   UNL A   1      38.178  32.048  29.712  1.00  0.00     0.031 A 
ATOM     50  C   UNL A   1      44.404  30.988  31.228  1.00  0.00     0.049 A 
ATOM     51  C   UNL A   1      39.189  32.834  30.495  1.00  0.00     0.074 A 
ATOM     52  C   UNL A   1      45.275  31.824  31.904  1.00  0.00     0.029 A 
ATOM     53  N   UNL A   1      43.175  31.626  31.199  1.00  0.00    -0.354 N 
ATOM     54  N   UNL A   1      40.441  32.543  30.746  1.00  0.00    -0.248 NA
ATOM     55  C   UNL A   1      38.736  34.107  31.078  1.00  0.00     0.031 C 
ATOM     56  C   UNL A   1      44.564  32.957  32.312  1.00  0.00     0.029 A 
ATOM     57  C   UNL A   1      43.261  32.839  31.859  1.00  0.00     0.049 A 
ATOM     58  H   UNL A   1      42.363  31.268  30.773  1.00  0.00     0.167 HD
ATOM     59  C   UNL A   1      40.929  33.596  31.509  1.00  0.00     0.074 A 
ATOM     60  C   UNL A   1      39.842  34.538  31.673  1.00  0.00     0.031 C 
ATOM     61  C   UNL A   1      42.170  33.762  32.023  1.00  0.00     0.031 A 
BRANCH  48  62
ATOM     62  C   UNL A   1      46.062  29.154  30.772  1.00  0.00    -0.014 A 
ATOM     63  C   UNL A   1      47.060  29.494  29.848  1.00  0.00     0.009 A 
ATOM     64  C   UNL A   1      46.393  28.348  31.873  1.00  0.00     0.009 A 
ATOM     65  C   UNL A   1      48.364  29.026  30.018  1.00  0.00     0.001 A 
ATOM     66  C   UNL A   1      47.701  27.894  32.047  1.00  0.00     0.001 A 
ATOM     67  C   UNL A   1      48.686  28.232  31.119  1.00  0.00     0.000 A 
ENDBRANCH  48  62
BRANCH  49  68
ATOM     68  C   UNL A   1      36.804  32.567  29.507  1.00  0.00    -0.014 A 
ATOM     69  C   UNL A   1      35.824  32.380  30.492  1.00  0.00     0.009 A 
ATOM     70  C   UNL A   1      36.481  33.289  28.347  1.00  0.00     0.009 A 
ATOM     71  C   UNL A   1      34.542  32.906  30.318  1.00  0.00     0.001 A 
ATOM     72  C   UNL A   1      35.203  33.828  28.185  1.00  0.00     0.001 A 
ATOM     73  C   UNL A   1      34.236  33.635  29.169  1.00  0.00     0.000 A 
ENDBRANCH  49  68
BRANCH  61  74
ATOM     74  C   UNL A   1      42.436  35.011  32.809  1.00  0.00    -0.014 A 
ATOM     75  C   UNL A   1      42.032  35.114  34.148  1.00  0.00     0.009 A 
ATOM     76  C   UNL A   1      43.176  36.054  32.232  1.00  0.00     0.009 A 
ATOM     77  C   UNL A   1      42.362  36.245  34.895  1.00  0.00     0.001 A 
ATOM     78  C   UNL A   1      43.517  37.177  32.987  1.00  0.00     0.001 A 
ATOM     79  C   UNL A   1      43.109  37.273  34.317  1.00  0.00     0.000 A 
ENDBRANCH  61  74
ENDBRANCH  35  36
ENDBRANCH  28  30
ENDBRANCH  27  28
ENDBRANCH   1  27
TORSDOF 12
ENDMDL
MODEL 2
REMARK VINA RESULT:     -10.3      3.329     10.598
REMARK SMILES Cc1cccc2c1[C@H]1c3c(C)cccc3[C@H](CC(=O)OCCOC(=O)c3ccc(-c4c5nc(c(-c6ccccc6)c6ccc([nH]6)c(-c6ccccc6)c6nc(c(-c7ccccc7)c7ccc4[nH]7)C=C6)C=C5)cc3)C[C@H]1CC2
REMARK SMILES IDX 22 1 21 2 20 3 18 4 19 5 17 6 16 7 1 8 2 9 3 10 7 11 4 12
REMARK SMILES IDX 6 13 8 14 5 15 77 16 9 17 75 18 76 19 10 20 15 21 74 22
REMARK SMILES IDX 12 23 11 24 14 25 13 26 23 27 24 28 25 29 26 30 27 31 73 32
REMARK SMILES IDX 28 33 72 34 29 35 30 36 31 37 66 38 32 39 71 40 65 41 67 42
REMARK SMILES IDX 33 43 70 44 64 45 63 46 34 48 56 49 41 50 55 51 42 52 45 53
REMARK SMILES IDX 54 54 68 55 43 56 44 57 53 59 69 60 46 61 35 62 36 63 40 64
REMARK SMILES IDX 37 65 39 66 38 67 57 68 58 69 62 70 59 71 61 72 60 73 47 74
REMARK SMILES IDX 48 75 52 76 49 77 51 78 50 79
REMARK H PARENT 67 47 45 58
REMARK Flexibility Score: inf
ROOT
ATOM      1  C   UNL A   1      33.376  32.125  27.946  1.00  0.00     0.275 C 
ENDROOT
BRANCH   1   2
ATOM      2  C   UNL A   1      33.650  33.628  28.043  1.00  0.00     0.274 C 
BRANCH   2   3
ATOM      3  O   UNL A   1      32.734  34.302  28.930  1.00  0.00    -0.462 OA
BRANCH   3   4
ATOM      4  C   UNL A   1      33.309  34.767  30.061  1.00  0.00     0.306 C 
ATOM      5  O   UNL A   1      32.695  35.315  30.974  1.00  0.00    -0.252 OA
BRANCH   4   6
ATOM      6  C   UNL A   1      34.808  34.642  30.139  1.00  0.00     0.131 C 
BRANCH   6   7
ATOM      7  C   UNL A   1      35.570  33.534  30.899  1.00  0.00     0.031 C 
ATOM      8  C   UNL A   1      38.869  34.609  35.779  1.00  0.00     0.044 C 
ATOM      9  C   UNL A   1      39.117  33.205  35.288  1.00  0.00    -0.047 A 
ATOM     10  C   UNL A   1      40.088  32.464  35.990  1.00  0.00     0.004 A 
ATOM     11  C   UNL A   1      38.391  32.589  34.234  1.00  0.00    -0.034 A 
ATOM     12  C   UNL A   1      40.329  31.128  35.696  1.00  0.00     0.001 A 
ATOM     13  C   UNL A   1      38.536  31.191  34.059  1.00  0.00    -0.044 A 
ATOM     14  C   UNL A   1      37.456  33.363  33.293  1.00  0.00     0.053 C 
ATOM     15  C   UNL A   1      39.531  30.487  34.759  1.00  0.00     0.004 A 
ATOM     16  C   UNL A   1      37.547  30.368  33.272  1.00  0.00     0.036 C 
ATOM     17  C   UNL A   1      37.998  33.776  31.893  1.00  0.00    -0.034 A 
ATOM     18  C   UNL A   1      36.166  32.521  33.150  1.00  0.00     0.002 C 
ATOM     19  C   UNL A   1      36.472  31.147  32.522  1.00  0.00     0.009 C 
ATOM     20  C   UNL A   1      39.339  34.197  31.648  1.00  0.00    -0.047 A 
ATOM     21  C   UNL A   1      37.092  33.805  30.782  1.00  0.00    -0.040 A 
ATOM     22  C   UNL A   1      35.136  33.330  32.351  1.00  0.00     0.013 C 
ATOM     23  C   UNL A   1      39.753  34.539  30.342  1.00  0.00     0.004 A 
ATOM     24  C   UNL A   1      40.417  34.323  32.689  1.00  0.00     0.044 C 
ATOM     25  C   UNL A   1      37.578  34.090  29.484  1.00  0.00     0.004 A 
ATOM     26  C   UNL A   1      38.890  34.468  29.267  1.00  0.00     0.001 A 
ENDBRANCH   6   7
ENDBRANCH   4   6
ENDBRANCH   3   4
ENDBRANCH   2   3
ENDBRANCH   1   2
BRANCH   1  27
ATOM     27  O   UNL A   1      34.435  31.430  27.264  1.00  0.00    -0.458 OA
BRANCH  27  28
ATOM     28  C   UNL A   1      34.606  30.139  27.630  1.00  0.00     0.338 C 
ATOM     29  O   UNL A   1      33.775  29.248  27.623  1.00  0.00    -0.246 OA
BRANCH  28  30
ATOM     30  C   UNL A   1      35.986  29.917  28.091  1.00  0.00     0.060 A 
ATOM     31  C   UNL A   1      37.065  30.120  27.227  1.00  0.00     0.016 A 
ATOM     32  C   UNL A   1      36.187  29.356  29.353  1.00  0.00     0.016 A 
ATOM     33  C   UNL A   1      38.345  29.715  27.604  1.00  0.00     0.010 A 
ATOM     34  C   UNL A   1      37.475  28.992  29.747  1.00  0.00     0.010 A 
ATOM     35  C   UNL A   1      38.559  29.139  28.865  1.00  0.00    -0.014 A 
BRANCH  35  36
ATOM     36  C   UNL A   1      39.899  28.642  29.258  1.00  0.00     0.031 A 
ATOM     37  C   UNL A   1      40.796  29.497  30.107  1.00  0.00     0.074 A 
ATOM     38  C   UNL A   1      40.320  27.434  28.843  1.00  0.00     0.049 A 
ATOM     39  N   UNL A   1      42.048  29.305  30.435  1.00  0.00    -0.248 NA
ATOM     40  C   UNL A   1      40.210  30.730  30.658  1.00  0.00     0.031 C 
ATOM     41  C   UNL A   1      39.529  26.482  28.063  1.00  0.00     0.029 A 
ATOM     42  N   UNL A   1      41.527  26.804  29.021  1.00  0.00    -0.354 N 
ATOM     43  C   UNL A   1      42.406  30.397  31.214  1.00  0.00     0.074 A 
ATOM     44  C   UNL A   1      41.245  31.255  31.303  1.00  0.00     0.031 C 
ATOM     45  C   UNL A   1      40.268  25.383  27.839  1.00  0.00     0.029 A 
ATOM     46  C   UNL A   1      41.597  25.576  28.413  1.00  0.00     0.049 A 
ATOM     47  H   UNL A   1      42.270  27.195  29.535  1.00  0.00     0.167 HD
ATOM     48  C   UNL A   1      43.597  30.660  31.801  1.00  0.00     0.031 A 
ATOM     49  C   UNL A   1      42.623  24.712  28.303  1.00  0.00     0.031 A 
ATOM     50  C   UNL A   1      44.751  29.807  31.723  1.00  0.00     0.049 A 
ATOM     51  C   UNL A   1      43.958  25.063  28.893  1.00  0.00     0.074 A 
ATOM     52  C   UNL A   1      46.001  29.999  32.287  1.00  0.00     0.029 A 
ATOM     53  N   UNL A   1      44.796  28.600  31.047  1.00  0.00    -0.354 N 
ATOM     54  N   UNL A   1      44.298  26.123  29.584  1.00  0.00    -0.248 NA
ATOM     55  C   UNL A   1      45.055  24.108  28.675  1.00  0.00     0.031 C 
ATOM     56  C   UNL A   1      46.813  28.919  31.924  1.00  0.00     0.029 A 
ATOM     57  C   UNL A   1      46.056  28.042  31.166  1.00  0.00     0.049 A 
ATOM     58  H   UNL A   1      44.043  28.199  30.555  1.00  0.00     0.167 HD
ATOM     59  C   UNL A   1      45.643  25.961  29.889  1.00  0.00     0.074 A 
ATOM     60  C   UNL A   1      46.056  24.697  29.315  1.00  0.00     0.031 C 
ATOM     61  C   UNL A   1      46.458  26.789  30.583  1.00  0.00     0.031 A 
BRANCH  48  62
ATOM     62  C   UNL A   1      43.724  31.939  32.573  1.00  0.00    -0.014 A 
ATOM     63  C   UNL A   1      44.096  33.131  31.936  1.00  0.00     0.009 A 
ATOM     64  C   UNL A   1      43.394  31.964  33.937  1.00  0.00     0.009 A 
ATOM     65  C   UNL A   1      44.147  34.326  32.657  1.00  0.00     0.001 A 
ATOM     66  C   UNL A   1      43.432  33.162  34.651  1.00  0.00     0.001 A 
ATOM     67  C   UNL A   1      43.810  34.343  34.010  1.00  0.00     0.000 A 
ENDBRANCH  48  62
BRANCH  49  68
ATOM     68  C   UNL A   1      42.425  23.435  27.576  1.00  0.00    -0.014 A 
ATOM     69  C   UNL A   1      42.762  23.336  26.219  1.00  0.00     0.009 A 
ATOM     70  C   UNL A   1      41.942  22.301  28.247  1.00  0.00     0.009 A 
ATOM     71  C   UNL A   1      42.616  22.122  25.545  1.00  0.00     0.001 A 
ATOM     72  C   UNL A   1      41.814  21.084  27.574  1.00  0.00     0.001 A 
ATOM     73  C   UNL A   1      42.150  20.997  26.224  1.00  0.00     0.000 A 
ENDBRANCH  49  68
BRANCH  61  74
ATOM     74  C   UNL A   1      47.881  26.362  30.778  1.00  0.00    -0.014 A 
ATOM     75  C   UNL A   1      48.275  25.694  31.946  1.00  0.00     0.009 A 
ATOM     76  C   UNL A   1      48.813  26.548  29.745  1.00  0.00     0.009 A 
ATOM     77  C   UNL A   1      49.583  25.224  32.079  1.00  0.00     0.001 A 
ATOM     78  C   UNL A   1      50.115  26.064  29.876  1.00  0.00     0.001 A 
ATOM     79  C   UNL A   1      50.500  25.404  31.042  1.00  0.00     0.000 A 
ENDBRANCH  61  74
ENDBRANCH  35  36
ENDBRANCH  28  30
ENDBRANCH  27  28
ENDBRANCH   1  27
TORSDOF 12
ENDMDL
MODEL 3
REMARK VINA RESULT:     -10.0      3.514     10.427
REMARK SMILES Cc1cccc2c1[C@H]1c3c(C)cccc3[C@H](CC(=O)OCCOC(=O)c3ccc(-c4c5nc(c(-c6ccccc6)c6ccc([nH]6)c(-c6ccccc6)c6nc(c(-c7ccccc7)c7ccc4[nH]7)C=C6)C=C5)cc3)C[C@H]1CC2
REMARK SMILES IDX 22 1 21 2 20 3 18 4 19 5 17 6 16 7 1 8 2 9 3 10 7 11 4 12
REMARK SMILES IDX 6 13 8 14 5 15 77 16 9 17 75 18 76 19 10 20 15 21 74 22
REMARK SMILES IDX 12 23 11 24 14 25 13 26 23 27 24 28 25 29 26 30 27 31 73 32
REMARK SMILES IDX 28 33 72 34 29 35 30 36 31 37 66 38 32 39 71 40 65 41 67 42
REMARK SMILES IDX 33 43 70 44 64 45 63 46 34 48 56 49 41 50 55 51 42 52 45 53
REMARK SMILES IDX 54 54 68 55 43 56 44 57 53 59 69 60 46 61 35 62 36 63 40 64
REMARK SMILES IDX 37 65 39 66 38 67 57 68 58 69 62 70 59 71 61 72 60 73 47 74
REMARK SMILES IDX 48 75 52 76 49 77 51 78 50 79
REMARK H PARENT 67 47 45 58
REMARK Flexibility Score: inf
ROOT
ATOM      1  C   UNL A   1      33.139  32.240  27.439  1.00  0.00     0.275 C 
ENDROOT
BRANCH   1   2
ATOM      2  C   UNL A   1      33.538  33.661  27.847  1.00  0.00     0.274 C 
BRANCH   2   3
ATOM      3  O   UNL A   1      32.756  34.160  28.950  1.00  0.00    -0.462 OA
BRANCH   3   4
ATOM      4  C   UNL A   1      33.496  34.578  30.001  1.00  0.00     0.306 C 
ATOM      5  O   UNL A   1      33.039  35.177  30.973  1.00  0.00    -0.252 OA
BRANCH   4   6
ATOM      6  C   UNL A   1      34.977  34.326  29.907  1.00  0.00     0.131 C 
BRANCH   6   7
ATOM      7  C   UNL A   1      35.757  33.280  30.733  1.00  0.00     0.031 C 
ATOM      8  C   UNL A   1      38.367  34.553  35.970  1.00  0.00     0.044 C 
ATOM      9  C   UNL A   1      38.808  33.193  35.491  1.00  0.00    -0.047 A 
ATOM     10  C   UNL A   1      39.765  32.534  36.289  1.00  0.00     0.004 A 
ATOM     11  C   UNL A   1      38.270  32.535  34.353  1.00  0.00    -0.034 A 
ATOM     12  C   UNL A   1      40.170  31.236  36.005  1.00  0.00     0.001 A 
ATOM     13  C   UNL A   1      38.573  31.163  34.177  1.00  0.00    -0.044 A 
ATOM     14  C   UNL A   1      37.373  33.237  33.323  1.00  0.00     0.053 C 
ATOM     15  C   UNL A   1      39.550  30.543  34.976  1.00  0.00     0.004 A 
ATOM     16  C   UNL A   1      37.766  30.266  33.272  1.00  0.00     0.036 C 
ATOM     17  C   UNL A   1      38.023  33.735  31.999  1.00  0.00    -0.034 A 
ATOM     18  C   UNL A   1      36.198  32.276  33.024  1.00  0.00     0.002 C 
ATOM     19  C   UNL A   1      36.709  30.955  32.415  1.00  0.00     0.009 C 
ATOM     20  C   UNL A   1      39.334  34.292  31.913  1.00  0.00    -0.047 A 
ATOM     21  C   UNL A   1      37.248  33.703  30.793  1.00  0.00    -0.040 A 
ATOM     22  C   UNL A   1      35.187  32.999  32.124  1.00  0.00     0.013 C 
ATOM     23  C   UNL A   1      39.854  34.706  30.667  1.00  0.00     0.004 A 
ATOM     24  C   UNL A   1      40.271  34.498  33.071  1.00  0.00     0.044 C 
ATOM     25  C   UNL A   1      37.845  34.067  29.563  1.00  0.00     0.004 A 
ATOM     26  C   UNL A   1      39.128  34.578  29.501  1.00  0.00     0.001 A 
ENDBRANCH   6   7
ENDBRANCH   4   6
ENDBRANCH   3   4
ENDBRANCH   2   3
ENDBRANCH   1   2
BRANCH   1  27
ATOM     27  O   UNL A   1      33.778  31.247  28.262  1.00  0.00    -0.458 OA
BRANCH  27  28
ATOM     28  C   UNL A   1      34.391  30.247  27.588  1.00  0.00     0.338 C 
ATOM     29  O   UNL A   1      33.924  29.551  26.704  1.00  0.00    -0.246 OA
BRANCH  28  30
ATOM     30  C   UNL A   1      35.764  30.062  28.085  1.00  0.00     0.060 A 
ATOM     31  C   UNL A   1      36.860  30.410  27.293  1.00  0.00     0.016 A 
ATOM     32  C   UNL A   1      35.952  29.394  29.296  1.00  0.00     0.016 A 
ATOM     33  C   UNL A   1      38.148  30.045  27.686  1.00  0.00     0.010 A 
ATOM     34  C   UNL A   1      37.244  29.068  29.710  1.00  0.00     0.010 A 
ATOM     35  C   UNL A   1      38.349  29.363  28.894  1.00  0.00    -0.014 A 
BRANCH  35  36
ATOM     36  C   UNL A   1      39.701  28.909  29.296  1.00  0.00     0.031 A 
ATOM     37  C   UNL A   1      40.214  27.576  28.830  1.00  0.00     0.074 A 
ATOM     38  C   UNL A   1      40.465  29.681  30.089  1.00  0.00     0.049 A 
ATOM     39  N   UNL A   1      41.302  26.941  29.185  1.00  0.00    -0.248 NA
ATOM     40  C   UNL A   1      39.396  26.862  27.835  1.00  0.00     0.031 C 
ATOM     41  C   UNL A   1      40.112  31.018  30.566  1.00  0.00     0.029 A 
ATOM     42  N   UNL A   1      41.702  29.442  30.637  1.00  0.00    -0.354 N 
ATOM     43  C   UNL A   1      41.292  25.749  28.475  1.00  0.00     0.074 A 
ATOM     44  C   UNL A   1      40.086  25.740  27.675  1.00  0.00     0.031 C 
ATOM     45  C   UNL A   1      41.114  31.487  31.327  1.00  0.00     0.029 A 
ATOM     46  C   UNL A   1      42.153  30.466  31.433  1.00  0.00     0.049 A 
ATOM     47  H   UNL A   1      42.214  28.618  30.475  1.00  0.00     0.167 HD
ATOM     48  C   UNL A   1      42.206  24.750  28.489  1.00  0.00     0.031 A 
ATOM     49  C   UNL A   1      43.263  30.562  32.187  1.00  0.00     0.031 A 
ATOM     50  C   UNL A   1      43.410  24.758  29.275  1.00  0.00     0.049 A 
ATOM     51  C   UNL A   1      44.222  29.409  32.251  1.00  0.00     0.074 A 
ATOM     52  C   UNL A   1      44.392  23.786  29.352  1.00  0.00     0.029 A 
ATOM     53  N   UNL A   1      43.799  25.790  30.112  1.00  0.00    -0.354 N 
ATOM     54  N   UNL A   1      44.176  28.266  31.613  1.00  0.00    -0.248 NA
ATOM     55  C   UNL A   1      45.377  29.552  33.150  1.00  0.00     0.031 C 
ATOM     56  C   UNL A   1      45.362  24.217  30.262  1.00  0.00     0.029 A 
ATOM     57  C   UNL A   1      44.999  25.472  30.723  1.00  0.00     0.049 A 
ATOM     58  H   UNL A   1      43.295  26.624  30.253  1.00  0.00     0.167 HD
ATOM     59  C   UNL A   1      45.295  27.555  32.027  1.00  0.00     0.074 A 
ATOM     60  C   UNL A   1      46.007  28.399  32.964  1.00  0.00     0.031 C 
ATOM     61  C   UNL A   1      45.693  26.315  31.659  1.00  0.00     0.031 A 
BRANCH  48  62
ATOM     62  C   UNL A   1      41.935  23.547  27.637  1.00  0.00    -0.014 A 
ATOM     63  C   UNL A   1      42.513  23.418  26.367  1.00  0.00     0.009 A 
ATOM     64  C   UNL A   1      41.152  22.498  28.145  1.00  0.00     0.009 A 
ATOM     65  C   UNL A   1      42.301  22.262  25.613  1.00  0.00     0.001 A 
ATOM     66  C   UNL A   1      40.956  21.338  27.395  1.00  0.00     0.001 A 
ATOM     67  C   UNL A   1      41.529  21.221  26.129  1.00  0.00     0.000 A 
ENDBRANCH  48  62
BRANCH  49  68
ATOM     68  C   UNL A   1      43.509  31.800  32.965  1.00  0.00    -0.014 A 
ATOM     69  C   UNL A   1      44.146  32.896  32.365  1.00  0.00     0.009 A 
ATOM     70  C   UNL A   1      43.071  31.905  34.294  1.00  0.00     0.009 A 
ATOM     71  C   UNL A   1      44.340  34.077  33.085  1.00  0.00     0.001 A 
ATOM     72  C   UNL A   1      43.251  33.094  35.004  1.00  0.00     0.001 A 
ATOM     73  C   UNL A   1      43.886  34.177  34.400  1.00  0.00     0.000 A 
ENDBRANCH  49  68
BRANCH  61  74
ATOM     74  C   UNL A   1      46.961  25.785  32.256  1.00  0.00    -0.014 A 
ATOM     75  C   UNL A   1      46.942  25.083  33.470  1.00  0.00     0.009 A 
ATOM     76  C   UNL A   1      48.169  25.910  31.553  1.00  0.00     0.009 A 
ATOM     77  C   UNL A   1      48.116  24.518  33.972  1.00  0.00     0.001 A 
ATOM     78  C   UNL A   1      49.337  25.331  32.051  1.00  0.00     0.001 A 
ATOM     79  C   UNL A   1      49.310  24.637  33.260  1.00  0.00     0.000 A 
ENDBRANCH  61  74
ENDBRANCH  35  36
ENDBRANCH  28  30
ENDBRANCH  27  28
ENDBRANCH   1  27
TORSDOF 12
ENDMDL
