MODEL 1
REMARK VINA RESULT:     -10.0      0.000      0.000
REMARK SMILES Cc1c(Cl)cc2c(c1C)O[C@H](C(F)(F)F)C(C(=O)OCCOC(=O)c1ccc(-c3c4nc(c(-c5ccccc5)c5ccc([nH]5)c(-c5ccccc5)c5nc(c(-c6ccccc6)c6ccc3[nH]6)C=C5)C=C4)cc1)=C2
REMARK SMILES IDX 21 1 20 2 19 3 17 4 18 5 16 6 1 7 2 8 3 9 8 10 4 11 5 12
REMARK SMILES IDX 7 13 9 14 6 15 10 16 73 17 11 18 12 19 13 20 14 21 15 22
REMARK SMILES IDX 22 23 23 24 24 25 25 26 26 27 72 28 27 29 71 30 28 31 29 32
REMARK SMILES IDX 30 33 65 34 31 35 70 36 64 37 66 38 32 39 69 40 63 41 62 42
REMARK SMILES IDX 33 44 55 45 40 46 54 47 41 48 44 49 53 50 67 51 42 52 43 53
REMARK SMILES IDX 52 55 68 56 45 57 34 58 35 59 39 60 36 61 38 62 37 63 56 64
REMARK SMILES IDX 57 65 61 66 58 67 60 68 59 69 46 70 47 71 51 72 48 73 50 74
REMARK SMILES IDX 49 75
REMARK H PARENT 66 43 44 54
REMARK Flexibility Score: inf
ROOT
ATOM      1  C   UNL A   1      33.230  34.254  28.201  1.00  0.00     0.275 C 
ENDROOT
BRANCH   1   2
ATOM      2  C   UNL A   1      34.007  35.259  29.052  1.00  0.00     0.275 C 
BRANCH   2   3
ATOM      3  O   UNL A   1      33.832  35.003  30.463  1.00  0.00    -0.459 OA
BRANCH   3   4
ATOM      4  C   UNL A   1      34.434  33.885  30.929  1.00  0.00     0.338 C 
ATOM      5  O   UNL A   1      34.028  32.738  30.816  1.00  0.00    -0.246 OA
BRANCH   4   6
ATOM      6  C   UNL A   1      35.711  34.216  31.586  1.00  0.00     0.087 C 
ATOM      7  C   UNL A   1      41.923  34.406  33.591  1.00  0.00     0.046 C 
ATOM      8  C   UNL A   1      40.589  34.347  32.888  1.00  0.00    -0.026 A 
ATOM      9  C   UNL A   1      40.512  33.904  31.553  1.00  0.00     0.045 A 
ATOM     10  C   UNL A   1      39.384  34.662  33.574  1.00  0.00    -0.004 A 
ATOM     11  Cl  UNL A   1      41.906  33.423  30.648  1.00  0.00    -0.084 Cl
ATOM     12  C   UNL A   1      39.284  33.809  30.903  1.00  0.00     0.032 A 
ATOM     13  C   UNL A   1      38.150  34.576  32.894  1.00  0.00     0.131 A 
ATOM     14  C   UNL A   1      39.363  35.096  35.019  1.00  0.00     0.049 C 
ATOM     15  C   UNL A   1      38.107  34.138  31.574  1.00  0.00     0.019 A 
ATOM     16  O   UNL A   1      37.020  34.952  33.578  1.00  0.00    -0.475 OA
ATOM     17  C   UNL A   1      36.834  33.971  30.906  1.00  0.00     0.027 C 
ATOM     18  C   UNL A   1      35.708  34.661  33.019  1.00  0.00     0.316 C 
BRANCH  18  19
ATOM     19  C   UNL A   1      35.004  33.632  33.919  1.00  0.00     0.430 C 
ATOM     20  F   UNL A   1      33.662  33.657  33.740  1.00  0.00    -0.167 F 
ATOM     21  F   UNL A   1      35.407  32.369  33.641  1.00  0.00    -0.167 F 
ATOM     22  F   UNL A   1      35.244  33.854  35.231  1.00  0.00    -0.167 F 
ENDBRANCH  18  19
ENDBRANCH   4   6
ENDBRANCH   3   4
ENDBRANCH   2   3
ENDBRANCH   1   2
BRANCH   1  23
ATOM     23  O   UNL A   1      34.134  33.441  27.428  1.00  0.00    -0.458 OA
BRANCH  23  24
ATOM     24  C   UNL A   1      33.941  32.108  27.533  1.00  0.00     0.338 C 
ATOM     25  O   UNL A   1      32.922  31.483  27.298  1.00  0.00    -0.246 OA
BRANCH  24  26
ATOM     26  C   UNL A   1      35.197  31.440  27.905  1.00  0.00     0.060 A 
ATOM     27  C   UNL A   1      35.137  30.131  28.363  1.00  0.00     0.016 A 
ATOM     28  C   UNL A   1      36.387  32.156  28.001  1.00  0.00     0.016 A 
ATOM     29  C   UNL A   1      36.201  29.592  29.077  1.00  0.00     0.010 A 
ATOM     30  C   UNL A   1      37.513  31.548  28.574  1.00  0.00     0.010 A 
ATOM     31  C   UNL A   1      37.421  30.276  29.169  1.00  0.00    -0.014 A 
BRANCH  31  32
ATOM     32  C   UNL A   1      38.575  29.663  29.895  1.00  0.00     0.031 A 
ATOM     33  C   UNL A   1      38.829  29.984  31.348  1.00  0.00     0.074 A 
ATOM     34  C   UNL A   1      39.386  28.787  29.263  1.00  0.00     0.049 A 
ATOM     35  N   UNL A   1      39.867  29.684  32.090  1.00  0.00    -0.248 NA
ATOM     36  C   UNL A   1      37.793  30.751  32.061  1.00  0.00     0.031 C 
ATOM     37  C   UNL A   1      39.234  28.328  27.879  1.00  0.00     0.029 A 
ATOM     38  N   UNL A   1      40.491  28.101  29.710  1.00  0.00    -0.354 N 
ATOM     39  C   UNL A   1      39.633  30.267  33.330  1.00  0.00     0.074 A 
ATOM     40  C   UNL A   1      38.362  30.950  33.242  1.00  0.00     0.031 C 
ATOM     41  C   UNL A   1      40.152  27.387  27.619  1.00  0.00     0.029 A 
ATOM     42  C   UNL A   1      41.038  27.263  28.767  1.00  0.00     0.049 A 
ATOM     43  H   UNL A   1      40.855  28.201  30.619  1.00  0.00     0.167 HD
ATOM     44  C   UNL A   1      40.406  30.234  34.444  1.00  0.00     0.031 A 
ATOM     45  C   UNL A   1      42.154  26.510  28.793  1.00  0.00     0.031 A 
ATOM     46  C   UNL A   1      41.649  29.516  34.545  1.00  0.00     0.049 A 
ATOM     47  C   UNL A   1      43.029  26.550  30.010  1.00  0.00     0.074 A 
ATOM     48  C   UNL A   1      42.508  29.431  35.627  1.00  0.00     0.029 A 
ATOM     49  N   UNL A   1      42.197  28.738  33.537  1.00  0.00    -0.354 N 
ATOM     50  N   UNL A   1      42.834  27.175  31.145  1.00  0.00    -0.248 NA
ATOM     51  C   UNL A   1      44.293  25.802  29.941  1.00  0.00     0.031 C 
ATOM     52  C   UNL A   1      43.599  28.639  35.258  1.00  0.00     0.029 A 
ATOM     53  C   UNL A   1      43.391  28.184  33.967  1.00  0.00     0.049 A 
ATOM     54  H   UNL A   1      41.798  28.602  32.647  1.00  0.00     0.167 HD
ATOM     55  C   UNL A   1      43.940  26.885  31.930  1.00  0.00     0.074 A 
ATOM     56  C   UNL A   1      44.793  26.011  31.151  1.00  0.00     0.031 C 
ATOM     57  C   UNL A   1      44.226  27.312  33.183  1.00  0.00     0.031 A 
BRANCH  44  58
ATOM     58  C   UNL A   1      39.950  31.015  35.646  1.00  0.00    -0.014 A 
ATOM     59  C   UNL A   1      40.787  31.954  36.269  1.00  0.00     0.009 A 
ATOM     60  C   UNL A   1      38.631  30.869  36.108  1.00  0.00     0.009 A 
ATOM     61  C   UNL A   1      40.317  32.716  37.343  1.00  0.00     0.001 A 
ATOM     62  C   UNL A   1      38.157  31.651  37.163  1.00  0.00     0.001 A 
ATOM     63  C   UNL A   1      39.002  32.570  37.783  1.00  0.00     0.000 A 
ENDBRANCH  44  58
BRANCH  45  64
ATOM     64  C   UNL A   1      42.530  25.695  27.606  1.00  0.00    -0.014 A 
ATOM     65  C   UNL A   1      42.099  24.365  27.491  1.00  0.00     0.009 A 
ATOM     66  C   UNL A   1      43.307  26.247  26.574  1.00  0.00     0.009 A 
ATOM     67  C   UNL A   1      42.447  23.604  26.371  1.00  0.00     0.001 A 
ATOM     68  C   UNL A   1      43.622  25.495  25.440  1.00  0.00     0.001 A 
ATOM     69  C   UNL A   1      43.198  24.171  25.343  1.00  0.00     0.000 A 
ENDBRANCH  45  64
BRANCH  57  70
ATOM     70  C   UNL A   1      45.497  26.817  33.808  1.00  0.00    -0.014 A 
ATOM     71  C   UNL A   1      46.687  27.555  33.714  1.00  0.00     0.009 A 
ATOM     72  C   UNL A   1      45.486  25.632  34.559  1.00  0.00     0.009 A 
ATOM     73  C   UNL A   1      47.847  27.103  34.343  1.00  0.00     0.001 A 
ATOM     74  C   UNL A   1      46.641  25.197  35.211  1.00  0.00     0.001 A 
ATOM     75  C   UNL A   1      47.820  25.930  35.097  1.00  0.00     0.000 A 
ENDBRANCH  57  70
ENDBRANCH  31  32
ENDBRANCH  24  26
ENDBRANCH  23  24
ENDBRANCH   1  23
TORSDOF 12
ENDMDL
MODEL 2
REMARK VINA RESULT:      -9.7      5.337      8.356
REMARK SMILES Cc1c(Cl)cc2c(c1C)O[C@H](C(F)(F)F)C(C(=O)OCCOC(=O)c1ccc(-c3c4nc(c(-c5ccccc5)c5ccc([nH]5)c(-c5ccccc5)c5nc(c(-c6ccccc6)c6ccc3[nH]6)C=C5)C=C4)cc1)=C2
REMARK SMILES IDX 21 1 20 2 19 3 17 4 18 5 16 6 1 7 2 8 3 9 8 10 4 11 5 12
REMARK SMILES IDX 7 13 9 14 6 15 10 16 73 17 11 18 12 19 13 20 14 21 15 22
REMARK SMILES IDX 22 23 23 24 24 25 25 26 26 27 72 28 27 29 71 30 28 31 29 32
REMARK SMILES IDX 30 33 65 34 31 35 70 36 64 37 66 38 32 39 69 40 63 41 62 42
REMARK SMILES IDX 33 44 55 45 40 46 54 47 41 48 44 49 53 50 67 51 42 52 43 53
REMARK SMILES IDX 52 55 68 56 45 57 34 58 35 59 39 60 36 61 38 62 37 63 56 64
REMARK SMILES IDX 57 65 61 66 58 67 60 68 59 69 46 70 47 71 51 72 48 73 50 74
REMARK SMILES IDX 49 75
REMARK H PARENT 66 43 44 54
REMARK Flexibility Score: inf
ROOT
ATOM      1  C   UNL A   1      34.064  28.563  26.267  1.00  0.00     0.275 C 
ENDROOT
BRANCH   1   2
ATOM      2  C   UNL A   1      32.676  28.531  25.625  1.00  0.00     0.275 C 
BRANCH   2   3
ATOM      3  O   UNL A   1      32.395  27.241  25.038  1.00  0.00    -0.459 OA
BRANCH   3   4
ATOM      4  C   UNL A   1      31.809  26.344  25.863  1.00  0.00     0.338 C 
ATOM      5  O   UNL A   1      30.846  26.541  26.589  1.00  0.00    -0.246 OA
BRANCH   4   6
ATOM      6  C   UNL A   1      32.468  25.030  25.756  1.00  0.00     0.087 C 
ATOM      7  C   UNL A   1      36.701  20.135  24.878  1.00  0.00     0.046 C 
ATOM      8  C   UNL A   1      35.912  21.375  25.222  1.00  0.00    -0.026 A 
ATOM      9  C   UNL A   1      36.572  22.520  25.710  1.00  0.00     0.045 A 
ATOM     10  C   UNL A   1      34.510  21.440  24.994  1.00  0.00    -0.004 A 
ATOM     11  Cl  UNL A   1      38.285  22.578  25.952  1.00  0.00    -0.084 Cl
ATOM     12  C   UNL A   1      35.863  23.684  25.997  1.00  0.00     0.032 A 
ATOM     13  C   UNL A   1      33.805  22.622  25.308  1.00  0.00     0.131 A 
ATOM     14  C   UNL A   1      33.726  20.282  24.427  1.00  0.00     0.049 C 
ATOM     15  C   UNL A   1      34.485  23.735  25.791  1.00  0.00     0.019 A 
ATOM     16  O   UNL A   1      32.443  22.615  25.131  1.00  0.00    -0.475 OA
ATOM     17  C   UNL A   1      33.774  24.972  26.032  1.00  0.00     0.027 C 
ATOM     18  C   UNL A   1      31.700  23.865  25.206  1.00  0.00     0.316 C 
BRANCH  18  19
ATOM     19  C   UNL A   1      31.126  24.183  23.816  1.00  0.00     0.430 C 
ATOM     20  F   UNL A   1      30.770  23.054  23.158  1.00  0.00    -0.167 F 
ATOM     21  F   UNL A   1      30.012  24.948  23.901  1.00  0.00    -0.167 F 
ATOM     22  F   UNL A   1      32.013  24.845  23.038  1.00  0.00    -0.167 F 
ENDBRANCH  18  19
ENDBRANCH   4   6
ENDBRANCH   3   4
ENDBRANCH   2   3
ENDBRANCH   1   2
BRANCH   1  23
ATOM     23  O   UNL A   1      33.971  28.935  27.655  1.00  0.00    -0.458 OA
BRANCH  23  24
ATOM     24  C   UNL A   1      34.512  30.132  27.967  1.00  0.00     0.338 C 
ATOM     25  O   UNL A   1      33.946  31.209  28.039  1.00  0.00    -0.246 OA
BRANCH  24  26
ATOM     26  C   UNL A   1      35.932  29.973  28.316  1.00  0.00     0.060 A 
ATOM     27  C   UNL A   1      36.884  30.260  27.347  1.00  0.00     0.016 A 
ATOM     28  C   UNL A   1      36.312  29.353  29.502  1.00  0.00     0.016 A 
ATOM     29  C   UNL A   1      38.180  29.773  27.477  1.00  0.00     0.010 A 
ATOM     30  C   UNL A   1      37.657  29.012  29.701  1.00  0.00     0.010 A 
ATOM     31  C   UNL A   1      38.601  29.168  28.669  1.00  0.00    -0.014 A 
BRANCH  31  32
ATOM     32  C   UNL A   1      40.012  28.696  28.816  1.00  0.00     0.031 A 
ATOM     33  C   UNL A   1      41.077  29.614  29.365  1.00  0.00     0.074 A 
ATOM     34  C   UNL A   1      40.341  27.428  28.488  1.00  0.00     0.049 A 
ATOM     35  N   UNL A   1      42.376  29.439  29.408  1.00  0.00    -0.248 NA
ATOM     36  C   UNL A   1      40.634  30.900  29.930  1.00  0.00     0.031 C 
ATOM     37  C   UNL A   1      39.413  26.403  28.003  1.00  0.00     0.029 A 
ATOM     38  N   UNL A   1      41.549  26.772  28.537  1.00  0.00    -0.354 N 
ATOM     39  C   UNL A   1      42.902  30.607  29.950  1.00  0.00     0.074 A 
ATOM     40  C   UNL A   1      41.788  31.491  30.210  1.00  0.00     0.031 C 
ATOM     41  C   UNL A   1      40.062  25.238  27.876  1.00  0.00     0.029 A 
ATOM     42  C   UNL A   1      41.476  25.455  28.146  1.00  0.00     0.049 A 
ATOM     43  H   UNL A   1      42.385  27.203  28.824  1.00  0.00     0.167 HD
ATOM     44  C   UNL A   1      44.196  30.913  30.210  1.00  0.00     0.031 A 
ATOM     45  C   UNL A   1      42.438  24.529  27.974  1.00  0.00     0.031 A 
ATOM     46  C   UNL A   1      45.301  30.016  29.991  1.00  0.00     0.049 A 
ATOM     47  C   UNL A   1      43.870  24.917  28.197  1.00  0.00     0.074 A 
ATOM     48  C   UNL A   1      46.648  30.240  30.214  1.00  0.00     0.029 A 
ATOM     49  N   UNL A   1      45.182  28.716  29.526  1.00  0.00    -0.354 N 
ATOM     50  N   UNL A   1      44.357  26.054  28.630  1.00  0.00    -0.248 NA
ATOM     51  C   UNL A   1      44.887  23.904  27.883  1.00  0.00     0.031 C 
ATOM     52  C   UNL A   1      47.350  29.091  29.840  1.00  0.00     0.029 A 
ATOM     53  C   UNL A   1      46.435  28.131  29.440  1.00  0.00     0.049 A 
ATOM     54  H   UNL A   1      44.334  28.274  29.291  1.00  0.00     0.167 HD
ATOM     55  C   UNL A   1      45.734  25.889  28.655  1.00  0.00     0.074 A 
ATOM     56  C   UNL A   1      46.004  24.536  28.213  1.00  0.00     0.031 C 
ATOM     57  C   UNL A   1      46.688  26.783  29.005  1.00  0.00     0.031 A 
BRANCH  44  58
ATOM     58  C   UNL A   1      44.507  32.288  30.738  1.00  0.00    -0.014 A 
ATOM     59  C   UNL A   1      44.612  32.537  32.114  1.00  0.00     0.009 A 
ATOM     60  C   UNL A   1      44.783  33.330  29.836  1.00  0.00     0.009 A 
ATOM     61  C   UNL A   1      44.968  33.808  32.577  1.00  0.00     0.001 A 
ATOM     62  C   UNL A   1      45.164  34.590  30.301  1.00  0.00     0.001 A 
ATOM     63  C   UNL A   1      45.251  34.829  31.672  1.00  0.00     0.000 A 
ENDBRANCH  44  58
BRANCH  45  64
ATOM     64  C   UNL A   1      42.079  23.158  27.519  1.00  0.00    -0.014 A 
ATOM     65  C   UNL A   1      41.589  22.211  28.429  1.00  0.00     0.009 A 
ATOM     66  C   UNL A   1      42.209  22.794  26.168  1.00  0.00     0.009 A 
ATOM     67  C   UNL A   1      41.245  20.927  27.998  1.00  0.00     0.001 A 
ATOM     68  C   UNL A   1      41.830  21.523  25.734  1.00  0.00     0.001 A 
ATOM     69  C   UNL A   1      41.355  20.587  26.651  1.00  0.00     0.000 A 
ENDBRANCH  45  64
BRANCH  57  70
ATOM     70  C   UNL A   1      48.116  26.323  28.959  1.00  0.00    -0.014 A 
ATOM     71  C   UNL A   1      48.743  25.791  30.095  1.00  0.00     0.009 A 
ATOM     72  C   UNL A   1      48.818  26.359  27.744  1.00  0.00     0.009 A 
ATOM     73  C   UNL A   1      50.056  25.323  30.019  1.00  0.00     0.001 A 
ATOM     74  C   UNL A   1      50.120  25.864  27.665  1.00  0.00     0.001 A 
ATOM     75  C   UNL A   1      50.739  25.352  28.804  1.00  0.00     0.000 A 
ENDBRANCH  57  70
ENDBRANCH  31  32
ENDBRANCH  24  26
ENDBRANCH  23  24
ENDBRANCH   1  23
TORSDOF 12
ENDMDL
MODEL 3
REMARK VINA RESULT:      -9.7      5.753      9.274
REMARK SMILES Cc1c(Cl)cc2c(c1C)O[C@H](C(F)(F)F)C(C(=O)OCCOC(=O)c1ccc(-c3c4nc(c(-c5ccccc5)c5ccc([nH]5)c(-c5ccccc5)c5nc(c(-c6ccccc6)c6ccc3[nH]6)C=C5)C=C4)cc1)=C2
REMARK SMILES IDX 21 1 20 2 19 3 17 4 18 5 16 6 1 7 2 8 3 9 8 10 4 11 5 12
REMARK SMILES IDX 7 13 9 14 6 15 10 16 73 17 11 18 12 19 13 20 14 21 15 22
REMARK SMILES IDX 22 23 23 24 24 25 25 26 26 27 72 28 27 29 71 30 28 31 29 32
REMARK SMILES IDX 30 33 65 34 31 35 70 36 64 37 66 38 32 39 69 40 63 41 62 42
REMARK SMILES IDX 33 44 55 45 40 46 54 47 41 48 44 49 53 50 67 51 42 52 43 53
REMARK SMILES IDX 52 55 68 56 45 57 34 58 35 59 39 60 36 61 38 62 37 63 56 64
REMARK SMILES IDX 57 65 61 66 58 67 60 68 59 69 46 70 47 71 51 72 48 73 50 74
REMARK SMILES IDX 49 75
REMARK H PARENT 66 43 44 54
REMARK Flexibility Score: inf
ROOT
ATOM      1  C   UNL A   1      35.873  20.765  25.186  1.00  0.00     0.275 C 
ENDROOT
BRANCH   1   2
ATOM      2  C   UNL A   1      34.532  21.455  24.928  1.00  0.00     0.275 C 
BRANCH   2   3
ATOM      3  O   UNL A   1      34.672  22.893  24.915  1.00  0.00    -0.459 OA
BRANCH   3   4
ATOM      4  C   UNL A   1      34.552  23.477  23.701  1.00  0.00     0.338 C 
ATOM      5  O   UNL A   1      34.908  23.009  22.629  1.00  0.00    -0.246 OA
BRANCH   4   6
ATOM      6  C   UNL A   1      33.878  24.782  23.815  1.00  0.00     0.087 C 
ATOM      7  C   UNL A   1      31.416  30.464  25.889  1.00  0.00     0.046 C 
ATOM      8  C   UNL A   1      32.204  29.229  25.528  1.00  0.00    -0.026 A 
ATOM      9  C   UNL A   1      33.396  28.924  26.213  1.00  0.00     0.045 A 
ATOM     10  C   UNL A   1      31.726  28.313  24.551  1.00  0.00    -0.004 A 
ATOM     11  Cl  UNL A   1      34.030  29.928  27.474  1.00  0.00    -0.084 Cl
ATOM     12  C   UNL A   1      34.115  27.769  25.918  1.00  0.00     0.032 A 
ATOM     13  C   UNL A   1      32.476  27.155  24.251  1.00  0.00     0.131 A 
ATOM     14  C   UNL A   1      30.434  28.528  23.802  1.00  0.00     0.049 C 
ATOM     15  C   UNL A   1      33.652  26.885  24.944  1.00  0.00     0.019 A 
ATOM     16  O   UNL A   1      32.007  26.335  23.255  1.00  0.00    -0.475 OA
ATOM     17  C   UNL A   1      34.375  25.656  24.695  1.00  0.00     0.027 C 
ATOM     18  C   UNL A   1      32.599  25.018  23.067  1.00  0.00     0.316 C 
BRANCH  18  19
ATOM     19  C   UNL A   1      31.548  23.950  23.412  1.00  0.00     0.430 C 
ATOM     20  F   UNL A   1      31.774  22.799  22.735  1.00  0.00    -0.167 F 
ATOM     21  F   UNL A   1      31.575  23.634  24.729  1.00  0.00    -0.167 F 
ATOM     22  F   UNL A   1      30.292  24.357  23.119  1.00  0.00    -0.167 F 
ENDBRANCH  18  19
ENDBRANCH   4   6
ENDBRANCH   3   4
ENDBRANCH   2   3
ENDBRANCH   1   2
BRANCH   1  23
ATOM     23  O   UNL A   1      36.960  21.692  25.012  1.00  0.00    -0.458 OA
BRANCH  23  24
ATOM     24  C   UNL A   1      38.144  21.294  25.526  1.00  0.00     0.338 C 
ATOM     25  O   UNL A   1      38.677  20.204  25.409  1.00  0.00    -0.246 OA
BRANCH  24  26
ATOM     26  C   UNL A   1      38.802  22.413  26.216  1.00  0.00     0.060 A 
ATOM     27  C   UNL A   1      38.246  23.680  26.096  1.00  0.00     0.016 A 
ATOM     28  C   UNL A   1      40.059  22.258  26.795  1.00  0.00     0.016 A 
ATOM     29  C   UNL A   1      39.007  24.806  26.386  1.00  0.00     0.010 A 
ATOM     30  C   UNL A   1      40.756  23.389  27.241  1.00  0.00     0.010 A 
ATOM     31  C   UNL A   1      40.264  24.684  26.993  1.00  0.00    -0.014 A 
BRANCH  31  32
ATOM     32  C   UNL A   1      41.051  25.904  27.349  1.00  0.00     0.031 A 
ATOM     33  C   UNL A   1      40.505  26.913  28.331  1.00  0.00     0.074 A 
ATOM     34  C   UNL A   1      42.276  26.101  26.817  1.00  0.00     0.049 A 
ATOM     35  N   UNL A   1      40.963  28.104  28.632  1.00  0.00    -0.248 NA
ATOM     36  C   UNL A   1      39.282  26.546  29.065  1.00  0.00     0.031 C 
ATOM     37  C   UNL A   1      42.966  25.188  25.901  1.00  0.00     0.029 A 
ATOM     38  N   UNL A   1      43.177  27.126  26.988  1.00  0.00    -0.354 N 
ATOM     39  C   UNL A   1      40.060  28.643  29.541  1.00  0.00     0.074 A 
ATOM     40  C   UNL A   1      39.019  27.659  29.737  1.00  0.00     0.031 C 
ATOM     41  C   UNL A   1      44.200  25.650  25.657  1.00  0.00     0.029 A 
ATOM     42  C   UNL A   1      44.351  26.951  26.292  1.00  0.00     0.049 A 
ATOM     43  H   UNL A   1      42.999  27.910  27.556  1.00  0.00     0.167 HD
ATOM     44  C   UNL A   1      40.096  29.849  30.160  1.00  0.00     0.031 A 
ATOM     45  C   UNL A   1      45.415  27.760  26.134  1.00  0.00     0.031 A 
ATOM     46  C   UNL A   1      41.156  30.810  29.999  1.00  0.00     0.049 A 
ATOM     47  C   UNL A   1      45.396  29.119  26.769  1.00  0.00     0.074 A 
ATOM     48  C   UNL A   1      41.276  32.062  30.575  1.00  0.00     0.029 A 
ATOM     49  N   UNL A   1      42.290  30.614  29.225  1.00  0.00    -0.354 N 
ATOM     50  N   UNL A   1      44.493  29.646  27.559  1.00  0.00    -0.248 NA
ATOM     51  C   UNL A   1      46.529  30.005  26.470  1.00  0.00     0.031 C 
ATOM     52  C   UNL A   1      42.460  32.644  30.114  1.00  0.00     0.029 A 
ATOM     53  C   UNL A   1      43.106  31.731  29.297  1.00  0.00     0.049 A 
ATOM     54  H   UNL A   1      42.484  29.803  28.702  1.00  0.00     0.167 HD
ATOM     55  C   UNL A   1      44.956  30.918  27.864  1.00  0.00     0.074 A 
ATOM     56  C   UNL A   1      46.228  31.076  27.190  1.00  0.00     0.031 C 
ATOM     57  C   UNL A   1      44.371  31.872  28.627  1.00  0.00     0.031 A 
BRANCH  44  58
ATOM     58  C   UNL A   1      38.945  30.221  31.055  1.00  0.00    -0.014 A 
ATOM     59  C   UNL A   1      37.791  30.834  30.546  1.00  0.00     0.009 A 
ATOM     60  C   UNL A   1      38.985  29.873  32.416  1.00  0.00     0.009 A 
ATOM     61  C   UNL A   1      36.708  31.109  31.386  1.00  0.00     0.001 A 
ATOM     62  C   UNL A   1      37.892  30.124  33.246  1.00  0.00     0.001 A 
ATOM     63  C   UNL A   1      36.756  30.747  32.731  1.00  0.00     0.000 A 
ENDBRANCH  44  58
BRANCH  45  64
ATOM     64  C   UNL A   1      46.565  27.322  25.298  1.00  0.00    -0.014 A 
ATOM     65  C   UNL A   1      46.737  27.830  24.002  1.00  0.00     0.009 A 
ATOM     66  C   UNL A   1      47.507  26.406  25.796  1.00  0.00     0.009 A 
ATOM     67  C   UNL A   1      47.822  27.424  23.221  1.00  0.00     0.001 A 
ATOM     68  C   UNL A   1      48.610  26.031  25.027  1.00  0.00     0.001 A 
ATOM     69  C   UNL A   1      48.763  26.534  23.737  1.00  0.00     0.000 A 
ENDBRANCH  45  64
BRANCH  57  70
ATOM     70  C   UNL A   1      45.115  33.163  28.807  1.00  0.00    -0.014 A 
ATOM     71  C   UNL A   1      44.884  34.256  27.959  1.00  0.00     0.009 A 
ATOM     72  C   UNL A   1      46.006  33.308  29.881  1.00  0.00     0.009 A 
ATOM     73  C   UNL A   1      45.549  35.465  28.172  1.00  0.00     0.001 A 
ATOM     74  C   UNL A   1      46.648  34.525  30.108  1.00  0.00     0.001 A 
ATOM     75  C   UNL A   1      46.423  35.600  29.250  1.00  0.00     0.000 A 
ENDBRANCH  57  70
ENDBRANCH  31  32
ENDBRANCH  24  26
ENDBRANCH  23  24
ENDBRANCH   1  23
TORSDOF 12
ENDMDL
