MODEL 1
REMARK VINA RESULT:     -12.1      0.000      0.000
REMARK SMILES Cc1nn(C(C)C)c(C)c1S(=O)(=O)Nc1cccc(C(=O)OCCOC(=O)c2ccc(-c3c4nc(c(-c5ccccc5)c5ccc([nH]5)c(-c5ccccc5)c5nc(c(-c6ccccc6)c6ccc3[nH]6)C=C5)C=C4)cc2)c1C
REMARK SMILES IDX 23 1 22 2 20 3 21 4 19 5 15 6 16 7 76 8 17 9 77 10 18 11
REMARK SMILES IDX 14 12 11 14 12 15 13 16 10 17 1 18 2 19 3 20 4 21 8 22 9 23
REMARK SMILES IDX 5 24 6 25 7 26 24 27 25 28 26 29 27 30 28 31 29 32 75 33
REMARK SMILES IDX 30 34 74 35 31 36 32 37 33 38 68 39 34 40 73 41 67 42 69 43
REMARK SMILES IDX 35 44 72 45 66 46 65 47 36 49 58 50 43 51 57 52 44 53 47 54
REMARK SMILES IDX 56 55 70 56 45 57 46 58 55 60 71 61 48 62 37 63 38 64 42 65
REMARK SMILES IDX 39 66 41 67 40 68 59 69 60 70 64 71 61 72 63 73 62 74 49 75
REMARK SMILES IDX 50 76 54 77 51 78 53 79 52 80
REMARK H PARENT 14 13 69 48 47 59
REMARK Flexibility Score: inf
ROOT
ATOM      1  C   UNL A   1      42.218  19.536  26.069  1.00  0.00     0.275 C 
ENDROOT
BRANCH   1   2
ATOM      2  O   UNL A   1      41.060  20.115  26.698  1.00  0.00    -0.458 OA
BRANCH   2   3
ATOM      3  C   UNL A   1      39.764  20.058  25.939  1.00  0.00     0.338 C 
ATOM      4  O   UNL A   1      39.863  18.870  25.491  1.00  0.00    -0.246 OA
BRANCH   3   5
ATOM      5  C   UNL A   1      38.248  21.577  25.755  1.00  0.00     0.065 A 
ATOM      6  C   UNL A   1      35.733  22.690  25.242  1.00  0.00     0.053 A 
ATOM      7  C   UNL A   1      36.108  23.954  25.644  1.00  0.00     0.027 A 
ATOM      8  C   UNL A   1      36.648  21.525  25.335  1.00  0.00    -0.012 A 
ATOM      9  C   UNL A   1      37.410  24.167  25.993  1.00  0.00     0.003 A 
ATOM     10  C   UNL A   1      35.751  20.293  24.959  1.00  0.00     0.047 C 
ATOM     11  C   UNL A   1      38.362  23.107  25.996  1.00  0.00     0.016 A 
BRANCH   6  12
ATOM     12  N   UNL A   1      34.365  22.655  24.795  1.00  0.00    -0.279 N 
ATOM     13  H   UNL A   1      33.724  22.162  25.357  1.00  0.00     0.180 HD
BRANCH  12  14
ATOM     14  S   UNL A   1      33.753  23.382  23.391  1.00  0.00     0.265 S 
ATOM     15  O   UNL A   1      32.522  22.657  23.139  1.00  0.00    -0.201 OA
ATOM     16  O   UNL A   1      34.793  23.384  22.387  1.00  0.00    -0.201 OA
BRANCH  14  17
ATOM     17  C   UNL A   1      33.250  25.032  23.451  1.00  0.00     0.131 A 
ATOM     18  C   UNL A   1      32.639  25.594  20.951  1.00  0.00     0.070 C 
ATOM     19  C   UNL A   1      32.870  25.863  22.377  1.00  0.00     0.080 A 
ATOM     20  N   UNL A   1      32.602  27.103  22.789  1.00  0.00    -0.176 NA
ATOM     21  N   UNL A   1      32.528  27.006  24.121  1.00  0.00    -0.266 N 
ATOM     22  C   UNL A   1      32.844  25.750  24.582  1.00  0.00     0.056 A 
ATOM     23  C   UNL A   1      32.640  25.349  26.001  1.00  0.00     0.068 C 
BRANCH  21  24
ATOM     24  C   UNL A   1      32.059  28.184  24.852  1.00  0.00     0.101 C 
ATOM     25  C   UNL A   1      33.248  29.043  25.280  1.00  0.00     0.033 C 
ATOM     26  C   UNL A   1      31.074  29.002  24.007  1.00  0.00     0.033 C 
ENDBRANCH  21  24
ENDBRANCH  14  17
ENDBRANCH  12  14
ENDBRANCH   6  12
ENDBRANCH   3   5
ENDBRANCH   2   3
ENDBRANCH   1   2
BRANCH   1  27
ATOM     27  C   UNL A   1      43.219  20.653  25.736  1.00  0.00     0.275 C 
BRANCH  27  28
ATOM     28  O   UNL A   1      42.636  21.957  25.456  1.00  0.00    -0.458 OA
BRANCH  28  29
ATOM     29  C   UNL A   1      42.948  23.017  26.258  1.00  0.00     0.338 C 
ATOM     30  O   UNL A   1      43.898  23.084  27.013  1.00  0.00    -0.246 OA
BRANCH  29  31
ATOM     31  C   UNL A   1      41.818  23.966  26.320  1.00  0.00     0.060 A 
ATOM     32  C   UNL A   1      42.043  25.463  25.338  1.00  0.00     0.016 A 
ATOM     33  C   UNL A   1      41.029  24.057  27.923  1.00  0.00     0.016 A 
ATOM     34  C   UNL A   1      41.502  27.112  26.021  1.00  0.00     0.010 A 
ATOM     35  C   UNL A   1      40.523  25.686  28.607  1.00  0.00     0.010 A 
ATOM     36  C   UNL A   1      40.785  27.201  27.667  1.00  0.00    -0.014 A 
BRANCH  36  37
ATOM     37  C   UNL A   1      41.049  28.333  28.567  1.00  0.00     0.031 A 
ATOM     38  C   UNL A   1      39.925  29.241  28.849  1.00  0.00     0.074 A 
ATOM     39  C   UNL A   1      42.207  28.393  29.273  1.00  0.00     0.049 A 
ATOM     40  N   UNL A   1      40.058  30.382  29.414  1.00  0.00    -0.248 NA
ATOM     41  C   UNL A   1      38.544  28.980  28.443  1.00  0.00     0.031 C 
ATOM     42  C   UNL A   1      42.523  29.161  30.481  1.00  0.00     0.029 A 
ATOM     43  N   UNL A   1      43.432  27.832  28.951  1.00  0.00    -0.354 N 
ATOM     44  C   UNL A   1      38.803  30.871  29.689  1.00  0.00     0.074 A 
ATOM     45  C   UNL A   1      37.894  30.012  28.984  1.00  0.00     0.031 C 
ATOM     46  C   UNL A   1      43.860  29.220  30.642  1.00  0.00     0.029 A 
ATOM     47  C   UNL A   1      44.474  28.589  29.487  1.00  0.00     0.049 A 
ATOM     48  H   UNL A   1      43.552  27.013  28.418  1.00  0.00     0.167 HD
ATOM     49  C   UNL A   1      38.699  31.886  30.584  1.00  0.00     0.031 A 
ATOM     50  C   UNL A   1      45.365  29.201  28.648  1.00  0.00     0.031 A 
ATOM     51  C   UNL A   1      40.031  32.397  30.903  1.00  0.00     0.049 A 
ATOM     52  C   UNL A   1      45.112  30.696  28.567  1.00  0.00     0.074 A 
ATOM     53  C   UNL A   1      40.911  32.137  31.939  1.00  0.00     0.029 A 
ATOM     54  N   UNL A   1      40.785  32.939  29.868  1.00  0.00    -0.354 N 
ATOM     55  N   UNL A   1      44.021  31.273  29.000  1.00  0.00    -0.248 NA
ATOM     56  C   UNL A   1      46.063  31.661  28.025  1.00  0.00     0.031 C 
ATOM     57  C   UNL A   1      42.223  32.444  31.472  1.00  0.00     0.029 A 
ATOM     58  C   UNL A   1      42.131  32.941  30.181  1.00  0.00     0.049 A 
ATOM     59  H   UNL A   1      40.410  33.276  29.023  1.00  0.00     0.167 HD
ATOM     60  C   UNL A   1      44.107  32.627  28.839  1.00  0.00     0.074 A 
ATOM     61  C   UNL A   1      45.409  32.820  28.225  1.00  0.00     0.031 C 
ATOM     62  C   UNL A   1      43.103  33.474  29.228  1.00  0.00     0.031 A 
BRANCH  49  63
ATOM     63  C   UNL A   1      37.448  32.261  31.335  1.00  0.00    -0.014 A 
ATOM     64  C   UNL A   1      37.529  32.425  32.730  1.00  0.00     0.009 A 
ATOM     65  C   UNL A   1      36.161  32.376  30.778  1.00  0.00     0.009 A 
ATOM     66  C   UNL A   1      36.395  32.652  33.523  1.00  0.00     0.001 A 
ATOM     67  C   UNL A   1      35.022  32.605  31.564  1.00  0.00     0.001 A 
ATOM     68  C   UNL A   1      35.139  32.737  32.940  1.00  0.00     0.000 A 
ENDBRANCH  49  63
BRANCH  50  69
ATOM     69  C   UNL A   1      45.798  28.301  27.533  1.00  0.00    -0.014 A 
ATOM     70  C   UNL A   1      46.380  27.070  27.918  1.00  0.00     0.009 A 
ATOM     71  C   UNL A   1      45.284  28.415  26.237  1.00  0.00     0.009 A 
ATOM     72  C   UNL A   1      46.225  25.927  27.131  1.00  0.00     0.001 A 
ATOM     73  C   UNL A   1      45.210  27.278  25.414  1.00  0.00     0.001 A 
ATOM     74  C   UNL A   1      45.610  26.027  25.891  1.00  0.00     0.000 A 
ENDBRANCH  50  69
BRANCH  62  75
ATOM     75  C   UNL A   1      42.964  34.923  28.805  1.00  0.00    -0.014 A 
ATOM     76  C   UNL A   1      42.389  35.347  27.603  1.00  0.00     0.009 A 
ATOM     77  C   UNL A   1      43.333  35.947  29.711  1.00  0.00     0.009 A 
ATOM     78  C   UNL A   1      42.270  36.707  27.287  1.00  0.00     0.001 A 
ATOM     79  C   UNL A   1      43.139  37.301  29.437  1.00  0.00     0.001 A 
ATOM     80  C   UNL A   1      42.633  37.682  28.207  1.00  0.00     0.000 A 
ENDBRANCH  62  75
ENDBRANCH  36  37
ENDBRANCH  29  31
ENDBRANCH  28  29
ENDBRANCH  27  28
ENDBRANCH   1  27
TORSDOF 15
ENDMDL
MODEL 2
REMARK VINA RESULT:     -12.0      4.484      9.869
REMARK SMILES Cc1nn(C(C)C)c(C)c1S(=O)(=O)Nc1cccc(C(=O)OCCOC(=O)c2ccc(-c3c4nc(c(-c5ccccc5)c5ccc([nH]5)c(-c5ccccc5)c5nc(c(-c6ccccc6)c6ccc3[nH]6)C=C5)C=C4)cc2)c1C
REMARK SMILES IDX 23 1 22 2 20 3 21 4 19 5 15 6 16 7 76 8 17 9 77 10 18 11
REMARK SMILES IDX 14 12 11 14 12 15 13 16 10 17 1 18 2 19 3 20 4 21 8 22 9 23
REMARK SMILES IDX 5 24 6 25 7 26 24 27 25 28 26 29 27 30 28 31 29 32 75 33
REMARK SMILES IDX 30 34 74 35 31 36 32 37 33 38 68 39 34 40 73 41 67 42 69 43
REMARK SMILES IDX 35 44 72 45 66 46 65 47 36 49 58 50 43 51 57 52 44 53 47 54
REMARK SMILES IDX 56 55 70 56 45 57 46 58 55 60 71 61 48 62 37 63 38 64 42 65
REMARK SMILES IDX 39 66 41 67 40 68 59 69 60 70 64 71 61 72 63 73 62 74 49 75
REMARK SMILES IDX 50 76 54 77 51 78 53 79 52 80
REMARK H PARENT 14 13 69 48 47 59
REMARK Flexibility Score: inf
ROOT
ATOM      1  C   UNL A   1      33.012  36.224  29.975  1.00  0.00     0.275 C 
ENDROOT
BRANCH   1   2
ATOM      2  O   UNL A   1      32.569  34.967  29.431  1.00  0.00    -0.458 OA
BRANCH   2   3
ATOM      3  C   UNL A   1      33.438  34.323  28.388  1.00  0.00     0.338 C 
ATOM      4  O   UNL A   1      34.058  35.364  27.995  1.00  0.00    -0.246 OA
BRANCH   3   5
ATOM      5  C   UNL A   1      33.549  32.247  27.827  1.00  0.00     0.065 A 
ATOM      6  C   UNL A   1      32.746  29.809  26.715  1.00  0.00     0.053 A 
ATOM      7  C   UNL A   1      33.944  29.184  26.988  1.00  0.00     0.027 A 
ATOM      8  C   UNL A   1      32.517  31.246  27.008  1.00  0.00    -0.012 A 
ATOM      9  C   UNL A   1      34.892  29.871  27.689  1.00  0.00     0.003 A 
ATOM     10  C   UNL A   1      31.119  31.557  26.366  1.00  0.00     0.047 C 
ATOM     11  C   UNL A   1      34.684  31.221  28.094  1.00  0.00     0.016 A 
BRANCH   6  12
ATOM     12  N   UNL A   1      31.812  28.918  26.077  1.00  0.00    -0.279 N 
ATOM     13  H   UNL A   1      31.020  28.652  26.599  1.00  0.00     0.180 HD
BRANCH  12  14
ATOM     14  S   UNL A   1      31.948  28.283  24.511  1.00  0.00     0.265 S 
ATOM     15  O   UNL A   1      33.102  28.971  23.962  1.00  0.00    -0.201 OA
ATOM     16  O   UNL A   1      30.667  28.410  23.852  1.00  0.00    -0.201 OA
BRANCH  14  17
ATOM     17  C   UNL A   1      32.336  26.613  24.313  1.00  0.00     0.131 A 
ATOM     18  C   UNL A   1      30.864  25.405  26.134  1.00  0.00     0.070 C 
ATOM     19  C   UNL A   1      31.877  25.518  25.076  1.00  0.00     0.080 A 
ATOM     20  N   UNL A   1      32.438  24.376  24.678  1.00  0.00    -0.176 NA
ATOM     21  N   UNL A   1      33.016  24.674  23.509  1.00  0.00    -0.266 N 
ATOM     22  C   UNL A   1      32.928  26.010  23.197  1.00  0.00     0.056 A 
ATOM     23  C   UNL A   1      33.320  26.543  21.863  1.00  0.00     0.068 C 
BRANCH  21  24
ATOM     24  C   UNL A   1      33.561  23.562  22.730  1.00  0.00     0.101 C 
ATOM     25  C   UNL A   1      34.849  23.051  23.376  1.00  0.00     0.033 C 
ATOM     26  C   UNL A   1      32.536  22.429  22.592  1.00  0.00     0.033 C 
ENDBRANCH  21  24
ENDBRANCH  14  17
ENDBRANCH  12  14
ENDBRANCH   6  12
ENDBRANCH   3   5
ENDBRANCH   2   3
ENDBRANCH   1   2
BRANCH   1  27
ATOM     27  C   UNL A   1      33.122  36.098  31.502  1.00  0.00     0.275 C 
BRANCH  27  28
ATOM     28  O   UNL A   1      33.633  34.827  31.993  1.00  0.00    -0.458 OA
BRANCH  28  29
ATOM     29  C   UNL A   1      34.979  34.598  31.989  1.00  0.00     0.338 C 
ATOM     30  O   UNL A   1      35.830  35.341  32.437  1.00  0.00    -0.246 OA
BRANCH  29  31
ATOM     31  C   UNL A   1      35.306  33.465  31.100  1.00  0.00     0.060 A 
ATOM     32  C   UNL A   1      35.256  31.848  31.898  1.00  0.00     0.016 A 
ATOM     33  C   UNL A   1      36.575  33.828  29.891  1.00  0.00     0.016 A 
ATOM     34  C   UNL A   1      36.562  30.577  31.504  1.00  0.00     0.010 A 
ATOM     35  C   UNL A   1      37.877  32.585  29.525  1.00  0.00     0.010 A 
ATOM     36  C   UNL A   1      37.879  30.983  30.349  1.00  0.00    -0.014 A 
BRANCH  36  37
ATOM     37  C   UNL A   1      39.253  30.496  30.538  1.00  0.00     0.031 A 
ATOM     38  C   UNL A   1      39.661  29.320  29.754  1.00  0.00     0.074 A 
ATOM     39  C   UNL A   1      40.156  31.239  31.229  1.00  0.00     0.049 A 
ATOM     40  N   UNL A   1      40.729  28.649  29.980  1.00  0.00    -0.248 NA
ATOM     41  C   UNL A   1      38.856  28.735  28.681  1.00  0.00     0.031 C 
ATOM     42  C   UNL A   1      41.620  31.177  31.214  1.00  0.00     0.029 A 
ATOM     43  N   UNL A   1      39.909  32.169  32.227  1.00  0.00    -0.354 N 
ATOM     44  C   UNL A   1      40.892  27.747  28.956  1.00  0.00     0.074 A 
ATOM     45  C   UNL A   1      39.658  27.771  28.223  1.00  0.00     0.031 C 
ATOM     46  C   UNL A   1      42.110  31.821  32.292  1.00  0.00     0.029 A 
ATOM     47  C   UNL A   1      40.985  32.233  33.112  1.00  0.00     0.049 A 
ATOM     48  H   UNL A   1      39.090  32.709  32.300  1.00  0.00     0.167 HD
ATOM     49  C   UNL A   1      42.114  27.178  28.799  1.00  0.00     0.031 A 
ATOM     50  C   UNL A   1      40.804  31.878  34.421  1.00  0.00     0.031 A 
ATOM     51  C   UNL A   1      42.959  27.508  29.947  1.00  0.00     0.049 A 
ATOM     52  C   UNL A   1      41.412  30.517  34.713  1.00  0.00     0.074 A 
ATOM     53  C   UNL A   1      43.910  28.489  30.159  1.00  0.00     0.029 A 
ATOM     54  N   UNL A   1      42.546  27.077  31.203  1.00  0.00    -0.354 N 
ATOM     55  N   UNL A   1      41.791  29.676  33.787  1.00  0.00    -0.248 NA
ATOM     56  C   UNL A   1      41.668  30.004  36.056  1.00  0.00     0.031 C 
ATOM     57  C   UNL A   1      43.993  28.709  31.566  1.00  0.00     0.029 A 
ATOM     58  C   UNL A   1      43.138  27.823  32.204  1.00  0.00     0.049 A 
ATOM     59  H   UNL A   1      41.915  26.338  31.359  1.00  0.00     0.167 HD
ATOM     60  C   UNL A   1      42.346  28.564  34.355  1.00  0.00     0.074 A 
ATOM     61  C   UNL A   1      42.248  28.820  35.782  1.00  0.00     0.031 C 
ATOM     62  C   UNL A   1      42.843  27.531  33.606  1.00  0.00     0.031 A 
BRANCH  49  63
ATOM     63  C   UNL A   1      42.620  26.534  27.536  1.00  0.00    -0.014 A 
ATOM     64  C   UNL A   1      42.954  25.167  27.569  1.00  0.00     0.009 A 
ATOM     65  C   UNL A   1      42.881  27.200  26.324  1.00  0.00     0.009 A 
ATOM     66  C   UNL A   1      43.546  24.516  26.477  1.00  0.00     0.001 A 
ATOM     67  C   UNL A   1      43.471  26.555  25.227  1.00  0.00     0.001 A 
ATOM     68  C   UNL A   1      43.810  25.212  25.306  1.00  0.00     0.000 A 
ENDBRANCH  49  63
BRANCH  50  69
ATOM     69  C   UNL A   1      39.536  32.435  34.986  1.00  0.00    -0.014 A 
ATOM     70  C   UNL A   1      39.480  33.842  35.121  1.00  0.00     0.009 A 
ATOM     71  C   UNL A   1      38.331  31.724  34.967  1.00  0.00     0.009 A 
ATOM     72  C   UNL A   1      38.273  34.529  34.985  1.00  0.00     0.001 A 
ATOM     73  C   UNL A   1      37.111  32.419  34.918  1.00  0.00     0.001 A 
ATOM     74  C   UNL A   1      37.090  33.814  34.851  1.00  0.00     0.000 A 
ENDBRANCH  50  69
BRANCH  62  75
ATOM     75  C   UNL A   1      43.171  26.146  34.128  1.00  0.00    -0.014 A 
ATOM     76  C   UNL A   1      44.414  25.522  33.994  1.00  0.00     0.009 A 
ATOM     77  C   UNL A   1      42.209  25.451  34.901  1.00  0.00     0.009 A 
ATOM     78  C   UNL A   1      44.657  24.247  34.523  1.00  0.00     0.001 A 
ATOM     79  C   UNL A   1      42.471  24.220  35.502  1.00  0.00     0.001 A 
ATOM     80  C   UNL A   1      43.691  23.602  35.286  1.00  0.00     0.000 A 
ENDBRANCH  62  75
ENDBRANCH  36  37
ENDBRANCH  29  31
ENDBRANCH  28  29
ENDBRANCH  27  28
ENDBRANCH   1  27
TORSDOF 15
ENDMDL
MODEL 3
REMARK VINA RESULT:     -11.5      3.825      9.406
REMARK SMILES Cc1nn(C(C)C)c(C)c1S(=O)(=O)Nc1cccc(C(=O)OCCOC(=O)c2ccc(-c3c4nc(c(-c5ccccc5)c5ccc([nH]5)c(-c5ccccc5)c5nc(c(-c6ccccc6)c6ccc3[nH]6)C=C5)C=C4)cc2)c1C
REMARK SMILES IDX 23 1 22 2 20 3 21 4 19 5 15 6 16 7 76 8 17 9 77 10 18 11
REMARK SMILES IDX 14 12 11 14 12 15 13 16 10 17 1 18 2 19 3 20 4 21 8 22 9 23
REMARK SMILES IDX 5 24 6 25 7 26 24 27 25 28 26 29 27 30 28 31 29 32 75 33
REMARK SMILES IDX 30 34 74 35 31 36 32 37 33 38 68 39 34 40 73 41 67 42 69 43
REMARK SMILES IDX 35 44 72 45 66 46 65 47 36 49 58 50 43 51 57 52 44 53 47 54
REMARK SMILES IDX 56 55 70 56 45 57 46 58 55 60 71 61 48 62 37 63 38 64 42 65
REMARK SMILES IDX 39 66 41 67 40 68 59 69 60 70 64 71 61 72 63 73 62 74 49 75
REMARK SMILES IDX 50 76 54 77 51 78 53 79 52 80
REMARK H PARENT 14 13 69 48 47 59
REMARK Flexibility Score: inf
ROOT
ATOM      1  C   UNL A   1      33.504  31.044  27.809  1.00  0.00     0.275 C 
ENDROOT
BRANCH   1   2
ATOM      2  O   UNL A   1      33.491  30.616  26.435  1.00  0.00    -0.458 OA
BRANCH   2   3
ATOM      3  C   UNL A   1      32.257  29.910  25.945  1.00  0.00     0.338 C 
ATOM      4  O   UNL A   1      31.499  30.926  25.819  1.00  0.00    -0.246 OA
BRANCH   3   5
ATOM      5  C   UNL A   1      31.973  27.808  25.569  1.00  0.00     0.065 A 
ATOM      6  C   UNL A   1      32.299  25.323  24.327  1.00  0.00     0.053 A 
ATOM      7  C   UNL A   1      31.500  24.661  25.235  1.00  0.00     0.027 A 
ATOM      8  C   UNL A   1      32.622  26.766  24.460  1.00  0.00    -0.012 A 
ATOM      9  C   UNL A   1      30.865  25.391  26.197  1.00  0.00     0.003 A 
ATOM     10  C   UNL A   1      33.690  27.031  23.341  1.00  0.00     0.047 C 
ATOM     11  C   UNL A   1      31.052  26.799  26.307  1.00  0.00     0.016 A 
BRANCH   6  12
ATOM     12  N   UNL A   1      32.800  24.436  23.309  1.00  0.00    -0.279 N 
ATOM     13  H   UNL A   1      32.324  24.431  22.448  1.00  0.00     0.180 HD
BRANCH  12  14
ATOM     14  S   UNL A   1      34.133  23.399  23.456  1.00  0.00     0.265 S 
ATOM     15  O   UNL A   1      34.925  24.009  24.509  1.00  0.00    -0.201 OA
ATOM     16  O   UNL A   1      34.717  23.215  22.147  1.00  0.00    -0.201 OA
BRANCH  14  17
ATOM     17  C   UNL A   1      33.884  21.786  24.015  1.00  0.00     0.131 A 
ATOM     18  C   UNL A   1      34.826  21.820  26.475  1.00  0.00     0.070 C 
ATOM     19  C   UNL A   1      34.263  21.228  25.254  1.00  0.00     0.080 A 
ATOM     20  N   UNL A   1      33.964  19.930  25.318  1.00  0.00    -0.176 NA
ATOM     21  N   UNL A   1      33.156  19.719  24.273  1.00  0.00    -0.266 N 
ATOM     22  C   UNL A   1      33.011  20.832  23.478  1.00  0.00     0.056 A 
ATOM     23  C   UNL A   1      32.011  20.899  22.377  1.00  0.00     0.068 C 
BRANCH  21  24
ATOM     24  C   UNL A   1      32.508  18.410  24.182  1.00  0.00     0.101 C 
ATOM     25  C   UNL A   1      33.188  17.561  23.108  1.00  0.00     0.033 C 
ATOM     26  C   UNL A   1      32.526  17.690  25.537  1.00  0.00     0.033 C 
ENDBRANCH  21  24
ENDBRANCH  14  17
ENDBRANCH  12  14
ENDBRANCH   6  12
ENDBRANCH   3   5
ENDBRANCH   2   3
ENDBRANCH   1   2
BRANCH   1  27
ATOM     27  C   UNL A   1      34.544  32.161  27.976  1.00  0.00     0.275 C 
BRANCH  27  28
ATOM     28  O   UNL A   1      35.011  32.388  29.336  1.00  0.00    -0.458 OA
BRANCH  28  29
ATOM     29  C   UNL A   1      36.274  32.006  29.684  1.00  0.00     0.338 C 
ATOM     30  O   UNL A   1      37.171  32.745  30.038  1.00  0.00    -0.246 OA
BRANCH  29  31
ATOM     31  C   UNL A   1      36.513  30.602  29.291  1.00  0.00     0.060 A 
ATOM     32  C   UNL A   1      36.658  29.451  30.672  1.00  0.00     0.016 A 
ATOM     33  C   UNL A   1      37.567  30.415  27.856  1.00  0.00     0.016 A 
ATOM     34  C   UNL A   1      37.945  28.103  30.628  1.00  0.00     0.010 A 
ATOM     35  C   UNL A   1      38.854  29.104  27.825  1.00  0.00     0.010 A 
ATOM     36  C   UNL A   1      39.053  27.977  29.217  1.00  0.00    -0.014 A 
BRANCH  36  37
ATOM     37  C   UNL A   1      40.460  27.580  29.369  1.00  0.00     0.031 A 
ATOM     38  C   UNL A   1      40.855  26.280  28.804  1.00  0.00     0.074 A 
ATOM     39  C   UNL A   1      41.382  28.477  29.805  1.00  0.00     0.049 A 
ATOM     40  N   UNL A   1      41.969  25.703  29.059  1.00  0.00    -0.248 NA
ATOM     41  C   UNL A   1      39.989  25.463  27.954  1.00  0.00     0.031 C 
ATOM     42  C   UNL A   1      42.841  28.456  29.664  1.00  0.00     0.029 A 
ATOM     43  N   UNL A   1      41.179  29.585  30.612  1.00  0.00    -0.354 N 
ATOM     44  C   UNL A   1      42.087  24.614  28.228  1.00  0.00     0.074 A 
ATOM     45  C   UNL A   1      40.794  24.449  27.627  1.00  0.00     0.031 C 
ATOM     46  C   UNL A   1      43.391  29.324  30.537  1.00  0.00     0.029 A 
ATOM     47  C   UNL A   1      42.323  29.863  31.359  1.00  0.00     0.049 A 
ATOM     48  H   UNL A   1      40.343  30.103  30.653  1.00  0.00     0.167 HD
ATOM     49  C   UNL A   1      43.317  24.062  28.075  1.00  0.00     0.031 A 
ATOM     50  C   UNL A   1      42.274  29.780  32.725  1.00  0.00     0.031 A 
ATOM     51  C   UNL A   1      44.241  24.646  29.046  1.00  0.00     0.049 A 
ATOM     52  C   UNL A   1      42.970  28.528  33.227  1.00  0.00     0.074 A 
ATOM     53  C   UNL A   1      45.159  25.678  28.963  1.00  0.00     0.029 A 
ATOM     54  N   UNL A   1      43.961  24.472  30.397  1.00  0.00    -0.354 N 
ATOM     55  N   UNL A   1      43.308  27.525  32.459  1.00  0.00    -0.248 NA
ATOM     56  C   UNL A   1      43.367  28.311  34.616  1.00  0.00     0.031 C 
ATOM     57  C   UNL A   1      45.353  26.186  30.282  1.00  0.00     0.029 A 
ATOM     58  C   UNL A   1      44.601  25.426  31.165  1.00  0.00     0.049 A 
ATOM     59  H   UNL A   1      43.383  23.763  30.759  1.00  0.00     0.167 HD
ATOM     60  C   UNL A   1      43.964  26.572  33.186  1.00  0.00     0.074 A 
ATOM     61  C   UNL A   1      43.978  27.114  34.534  1.00  0.00     0.031 C 
ATOM     62  C   UNL A   1      44.443  25.422  32.619  1.00  0.00     0.031 A 
BRANCH  49  63
ATOM     63  C   UNL A   1      43.742  23.185  26.926  1.00  0.00    -0.014 A 
ATOM     64  C   UNL A   1      43.107  21.940  26.764  1.00  0.00     0.009 A 
ATOM     65  C   UNL A   1      44.795  23.458  26.034  1.00  0.00     0.009 A 
ATOM     66  C   UNL A   1      43.522  21.011  25.799  1.00  0.00     0.001 A 
ATOM     67  C   UNL A   1      45.214  22.534  25.065  1.00  0.00     0.001 A 
ATOM     68  C   UNL A   1      44.581  21.305  24.952  1.00  0.00     0.000 A 
ENDBRANCH  49  63
BRANCH  50  69
ATOM     69  C   UNL A   1      41.034  30.404  33.283  1.00  0.00    -0.014 A 
ATOM     70  C   UNL A   1      40.894  31.797  33.081  1.00  0.00     0.009 A 
ATOM     71  C   UNL A   1      39.887  29.658  33.576  1.00  0.00     0.009 A 
ATOM     72  C   UNL A   1      39.633  32.376  32.925  1.00  0.00     0.001 A 
ATOM     73  C   UNL A   1      38.622  30.267  33.503  1.00  0.00     0.001 A 
ATOM     74  C   UNL A   1      38.496  31.600  33.106  1.00  0.00     0.000 A 
ENDBRANCH  50  69
BRANCH  62  75
ATOM     75  C   UNL A   1      44.882  24.185  33.377  1.00  0.00    -0.014 A 
ATOM     76  C   UNL A   1      46.209  23.876  33.692  1.00  0.00     0.009 A 
ATOM     77  C   UNL A   1      43.901  23.314  33.910  1.00  0.00     0.009 A 
ATOM     78  C   UNL A   1      46.543  22.726  34.418  1.00  0.00     0.001 A 
ATOM     79  C   UNL A   1      44.221  22.214  34.706  1.00  0.00     0.001 A 
ATOM     80  C   UNL A   1      45.550  21.902  34.934  1.00  0.00     0.000 A 
ENDBRANCH  62  75
ENDBRANCH  36  37
ENDBRANCH  29  31
ENDBRANCH  28  29
ENDBRANCH  27  28
ENDBRANCH   1  27
TORSDOF 15
ENDMDL
