MODEL 1
REMARK VINA RESULT:     -11.0      0.000      0.000
REMARK SMILES Cc1[nH]c2ccccc2c1[C@@H](C(=O)OCCOC(=O)c1ccc(-c2c3nc(c(-c4ccccc4)c4ccc([nH]4)c(-c4ccccc4)c4nc(c(-c5ccccc5)c5ccc2[nH]5)C=C4)C=C3)cc1)[NH+]1CCCC1
REMARK SMILES IDX 16 1 15 2 14 3 12 4 13 5 11 6 10 7 1 8 2 9 3 10 4 11 9 13
REMARK SMILES IDX 5 14 8 15 6 16 7 17 68 18 69 19 72 20 70 22 71 23 17 24
REMARK SMILES IDX 18 25 19 26 20 27 21 28 67 29 22 30 66 31 23 32 24 33 25 34
REMARK SMILES IDX 60 35 26 36 65 37 59 38 61 39 27 40 64 41 58 42 57 43 28 45
REMARK SMILES IDX 50 46 35 47 49 48 36 49 39 50 48 51 62 52 37 53 38 54 47 56
REMARK SMILES IDX 63 57 40 58 29 59 30 60 34 61 31 62 33 63 32 64 51 65 52 66
REMARK SMILES IDX 56 67 53 68 55 69 54 70 41 71 42 72 46 73 43 74 45 75 44 76
REMARK H PARENT 3 12 68 21 61 44 39 55
REMARK Flexibility Score: inf
ROOT
ATOM      1  C   UNL A   1      36.784  21.448  24.241  1.00  0.00     0.275 C 
ENDROOT
BRANCH   1   2
ATOM      2  C   UNL A   1      36.713  22.709  23.382  1.00  0.00     0.274 C 
BRANCH   2   3
ATOM      3  O   UNL A   1      35.698  23.621  23.853  1.00  0.00    -0.457 OA
BRANCH   3   4
ATOM      4  C   UNL A   1      34.420  23.329  23.470  1.00  0.00     0.370 C 
ATOM      5  O   UNL A   1      34.044  23.390  22.300  1.00  0.00    -0.245 OA
BRANCH   4   6
ATOM      6  C   UNL A   1      33.451  23.105  24.643  1.00  0.00     0.328 C 
BRANCH   6   7
ATOM      7  C   UNL A   1      33.411  21.733  25.285  1.00  0.00     0.049 A 
ATOM      8  C   UNL A   1      34.091  22.399  27.739  1.00  0.00     0.065 C 
ATOM      9  C   UNL A   1      33.660  21.495  26.638  1.00  0.00     0.022 A 
ATOM     10  N   UNL A   1      33.389  20.178  26.895  1.00  0.00    -0.358 N 
ATOM     11  C   UNL A   1      33.010  19.528  25.750  1.00  0.00     0.046 A 
ATOM     12  H   UNL A   1      33.456  19.757  27.782  1.00  0.00     0.166 HD
ATOM     13  C   UNL A   1      33.108  20.445  24.702  1.00  0.00     0.009 A 
ATOM     14  C   UNL A   1      32.596  18.202  25.580  1.00  0.00     0.027 A 
ATOM     15  C   UNL A   1      32.854  19.963  23.397  1.00  0.00     0.011 A 
ATOM     16  C   UNL A   1      32.286  17.778  24.287  1.00  0.00     0.002 A 
ATOM     17  C   UNL A   1      32.430  18.639  23.206  1.00  0.00     0.001 A 
ENDBRANCH   6   7
BRANCH   6  18
ATOM     18  N   UNL A   1      32.121  23.732  24.402  1.00  0.00    -0.319 N 
ATOM     19  C   UNL A   1      32.075  25.178  24.615  1.00  0.00     0.263 C 
ATOM     20  C   UNL A   1      30.960  23.202  25.106  1.00  0.00     0.263 C 
ATOM     21  H   UNL A   1      32.041  23.477  23.418  1.00  0.00     0.349 HD
ATOM     22  C   UNL A   1      31.482  25.384  25.999  1.00  0.00     0.067 C 
ATOM     23  C   UNL A   1      30.660  24.135  26.270  1.00  0.00     0.067 C 
ENDBRANCH   6  18
ENDBRANCH   4   6
ENDBRANCH   3   4
ENDBRANCH   2   3
ENDBRANCH   1   2
BRANCH   1  24
ATOM     24  O   UNL A   1      37.162  21.799  25.583  1.00  0.00    -0.458 OA
BRANCH  24  25
ATOM     25  C   UNL A   1      38.449  21.563  25.924  1.00  0.00     0.338 C 
ATOM     26  O   UNL A   1      39.070  20.528  25.747  1.00  0.00    -0.246 OA
BRANCH  25  27
ATOM     27  C   UNL A   1      39.068  22.780  26.506  1.00  0.00     0.060 A 
ATOM     28  C   UNL A   1      38.581  24.054  26.224  1.00  0.00     0.016 A 
ATOM     29  C   UNL A   1      40.241  22.654  27.255  1.00  0.00     0.016 A 
ATOM     30  C   UNL A   1      39.316  25.185  26.583  1.00  0.00     0.010 A 
ATOM     31  C   UNL A   1      40.926  23.797  27.696  1.00  0.00     0.010 A 
ATOM     32  C   UNL A   1      40.502  25.083  27.322  1.00  0.00    -0.014 A 
BRANCH  32  33
ATOM     33  C   UNL A   1      41.312  26.297  27.650  1.00  0.00     0.031 A 
ATOM     34  C   UNL A   1      40.808  27.314  28.650  1.00  0.00     0.074 A 
ATOM     35  C   UNL A   1      42.523  26.502  27.090  1.00  0.00     0.049 A 
ATOM     36  N   UNL A   1      41.254  28.524  28.896  1.00  0.00    -0.248 NA
ATOM     37  C   UNL A   1      39.645  26.933  29.468  1.00  0.00     0.031 C 
ATOM     38  C   UNL A   1      43.194  25.604  26.149  1.00  0.00     0.029 A 
ATOM     39  N   UNL A   1      43.420  27.532  27.252  1.00  0.00    -0.354 N 
ATOM     40  C   UNL A   1      40.374  29.075  29.820  1.00  0.00     0.074 A 
ATOM     41  C   UNL A   1      39.381  28.063  30.111  1.00  0.00     0.031 C 
ATOM     42  C   UNL A   1      44.421  26.075  25.884  1.00  0.00     0.029 A 
ATOM     43  C   UNL A   1      44.582  27.369  26.538  1.00  0.00     0.049 A 
ATOM     44  H   UNL A   1      43.246  28.312  27.827  1.00  0.00     0.167 HD
ATOM     45  C   UNL A   1      40.383  30.315  30.368  1.00  0.00     0.031 A 
ATOM     46  C   UNL A   1      45.645  28.178  26.377  1.00  0.00     0.031 A 
ATOM     47  C   UNL A   1      41.412  31.300  30.151  1.00  0.00     0.049 A 
ATOM     48  C   UNL A   1      45.642  29.541  26.999  1.00  0.00     0.074 A 
ATOM     49  C   UNL A   1      41.503  32.581  30.671  1.00  0.00     0.029 A 
ATOM     50  N   UNL A   1      42.545  31.102  29.382  1.00  0.00    -0.354 N 
ATOM     51  N   UNL A   1      44.736  30.095  27.765  1.00  0.00    -0.248 NA
ATOM     52  C   UNL A   1      46.795  30.403  26.702  1.00  0.00     0.031 C 
ATOM     53  C   UNL A   1      42.680  33.168  30.195  1.00  0.00     0.029 A 
ATOM     54  C   UNL A   1      43.342  32.236  29.413  1.00  0.00     0.049 A 
ATOM     55  H   UNL A   1      42.755  30.278  28.885  1.00  0.00     0.167 HD
ATOM     56  C   UNL A   1      45.203  31.375  28.031  1.00  0.00     0.074 A 
ATOM     57  C   UNL A   1      46.487  31.502  27.377  1.00  0.00     0.031 C 
ATOM     58  C   UNL A   1      44.608  32.362  28.743  1.00  0.00     0.031 A 
BRANCH  45  59
ATOM     59  C   UNL A   1      39.215  30.709  31.230  1.00  0.00    -0.014 A 
ATOM     60  C   UNL A   1      38.054  31.278  30.688  1.00  0.00     0.009 A 
ATOM     61  C   UNL A   1      39.261  30.434  32.607  1.00  0.00     0.009 A 
ATOM     62  C   UNL A   1      36.969  31.584  31.514  1.00  0.00     0.001 A 
ATOM     63  C   UNL A   1      38.166  30.718  33.425  1.00  0.00     0.001 A 
ATOM     64  C   UNL A   1      37.023  31.297  32.879  1.00  0.00     0.000 A 
ENDBRANCH  45  59
BRANCH  46  65
ATOM     65  C   UNL A   1      46.780  27.737  25.526  1.00  0.00    -0.014 A 
ATOM     66  C   UNL A   1      46.769  27.977  24.145  1.00  0.00     0.009 A 
ATOM     67  C   UNL A   1      47.892  27.099  26.098  1.00  0.00     0.009 A 
ATOM     68  C   UNL A   1      47.849  27.583  23.353  1.00  0.00     0.001 A 
ATOM     69  C   UNL A   1      48.984  26.735  25.309  1.00  0.00     0.001 A 
ATOM     70  C   UNL A   1      48.959  26.972  23.936  1.00  0.00     0.000 A 
ENDBRANCH  46  65
BRANCH  58  71
ATOM     71  C   UNL A   1      45.354  33.659  28.852  1.00  0.00    -0.014 A 
ATOM     72  C   UNL A   1      46.287  33.870  29.879  1.00  0.00     0.009 A 
ATOM     73  C   UNL A   1      45.117  34.682  27.922  1.00  0.00     0.009 A 
ATOM     74  C   UNL A   1      46.942  35.097  29.995  1.00  0.00     0.001 A 
ATOM     75  C   UNL A   1      45.789  35.901  28.029  1.00  0.00     0.001 A 
ATOM     76  C   UNL A   1      46.692  36.111  29.070  1.00  0.00     0.000 A 
ENDBRANCH  58  71
ENDBRANCH  32  33
ENDBRANCH  25  27
ENDBRANCH  24  25
ENDBRANCH   1  24
TORSDOF 13
ENDMDL
MODEL 2
REMARK VINA RESULT:     -10.9      4.464      9.216
REMARK SMILES Cc1[nH]c2ccccc2c1[C@@H](C(=O)OCCOC(=O)c1ccc(-c2c3nc(c(-c4ccccc4)c4ccc([nH]4)c(-c4ccccc4)c4nc(c(-c5ccccc5)c5ccc2[nH]5)C=C4)C=C3)cc1)[NH+]1CCCC1
REMARK SMILES IDX 16 1 15 2 14 3 12 4 13 5 11 6 10 7 1 8 2 9 3 10 4 11 9 13
REMARK SMILES IDX 5 14 8 15 6 16 7 17 68 18 69 19 72 20 70 22 71 23 17 24
REMARK SMILES IDX 18 25 19 26 20 27 21 28 67 29 22 30 66 31 23 32 24 33 25 34
REMARK SMILES IDX 60 35 26 36 65 37 59 38 61 39 27 40 64 41 58 42 57 43 28 45
REMARK SMILES IDX 50 46 35 47 49 48 36 49 39 50 48 51 62 52 37 53 38 54 47 56
REMARK SMILES IDX 63 57 40 58 29 59 30 60 34 61 31 62 33 63 32 64 51 65 52 66
REMARK SMILES IDX 56 67 53 68 55 69 54 70 41 71 42 72 46 73 43 74 45 75 44 76
REMARK H PARENT 3 12 68 21 61 44 39 55
REMARK Flexibility Score: inf
ROOT
ATOM      1  C   UNL A   1      31.619  29.788  26.655  1.00  0.00     0.275 C 
ENDROOT
BRANCH   1   2
ATOM      2  C   UNL A   1      31.649  28.536  27.529  1.00  0.00     0.274 C 
BRANCH   2   3
ATOM      3  O   UNL A   1      32.233  27.413  26.835  1.00  0.00    -0.457 OA
BRANCH   3   4
ATOM      4  C   UNL A   1      31.395  26.741  25.993  1.00  0.00     0.370 C 
ATOM      5  O   UNL A   1      30.432  26.085  26.393  1.00  0.00    -0.245 OA
BRANCH   4   6
ATOM      6  C   UNL A   1      31.865  26.714  24.529  1.00  0.00     0.328 C 
BRANCH   6   7
ATOM      7  C   UNL A   1      31.506  27.889  23.643  1.00  0.00     0.049 A 
ATOM      8  C   UNL A   1      33.929  28.649  22.950  1.00  0.00     0.065 C 
ATOM      9  C   UNL A   1      32.440  28.665  22.954  1.00  0.00     0.022 A 
ATOM     10  N   UNL A   1      31.759  29.530  22.141  1.00  0.00    -0.358 N 
ATOM     11  C   UNL A   1      30.407  29.382  22.299  1.00  0.00     0.046 A 
ATOM     12  H   UNL A   1      32.184  30.170  21.526  1.00  0.00     0.166 HD
ATOM     13  C   UNL A   1      30.209  28.432  23.304  1.00  0.00     0.009 A 
ATOM     14  C   UNL A   1      29.360  30.023  21.627  1.00  0.00     0.027 A 
ATOM     15  C   UNL A   1      28.876  28.187  23.706  1.00  0.00     0.011 A 
ATOM     16  C   UNL A   1      28.054  29.705  22.001  1.00  0.00     0.002 A 
ATOM     17  C   UNL A   1      27.813  28.813  23.039  1.00  0.00     0.001 A 
ENDBRANCH   6   7
BRANCH   6  18
ATOM     18  N   UNL A   1      31.694  25.373  23.906  1.00  0.00    -0.319 N 
ATOM     19  C   UNL A   1      32.724  24.396  24.255  1.00  0.00     0.263 C 
ATOM     20  C   UNL A   1      31.558  25.286  22.458  1.00  0.00     0.263 C 
ATOM     21  H   UNL A   1      30.790  25.157  24.324  1.00  0.00     0.349 HD
ATOM     22  C   UNL A   1      33.702  24.376  23.092  1.00  0.00     0.067 C 
ATOM     23  C   UNL A   1      32.902  24.853  21.892  1.00  0.00     0.067 C 
ENDBRANCH   6  18
ENDBRANCH   4   6
ENDBRANCH   3   4
ENDBRANCH   2   3
ENDBRANCH   1   2
BRANCH   1  24
ATOM     24  O   UNL A   1      32.963  30.194  26.347  1.00  0.00    -0.458 OA
BRANCH  24  25
ATOM     25  C   UNL A   1      33.449  31.240  27.055  1.00  0.00     0.338 C 
ATOM     26  O   UNL A   1      32.892  32.307  27.251  1.00  0.00    -0.246 OA
BRANCH  25  27
ATOM     27  C   UNL A   1      34.768  30.902  27.646  1.00  0.00     0.060 A 
ATOM     28  C   UNL A   1      35.112  29.591  27.966  1.00  0.00     0.016 A 
ATOM     29  C   UNL A   1      35.637  31.937  28.005  1.00  0.00     0.016 A 
ATOM     30  C   UNL A   1      36.247  29.328  28.735  1.00  0.00     0.010 A 
ATOM     31  C   UNL A   1      36.826  31.656  28.695  1.00  0.00     0.010 A 
ATOM     32  C   UNL A   1      37.125  30.351  29.118  1.00  0.00    -0.014 A 
BRANCH  32  33
ATOM     33  C   UNL A   1      38.306  30.065  29.991  1.00  0.00     0.031 A 
ATOM     34  C   UNL A   1      39.479  29.267  29.466  1.00  0.00     0.074 A 
ATOM     35  C   UNL A   1      38.371  30.536  31.254  1.00  0.00     0.049 A 
ATOM     36  N   UNL A   1      40.478  28.732  30.128  1.00  0.00    -0.248 NA
ATOM     37  C   UNL A   1      39.530  29.022  28.015  1.00  0.00     0.031 C 
ATOM     38  C   UNL A   1      37.362  31.369  31.911  1.00  0.00     0.029 A 
ATOM     39  N   UNL A   1      39.350  30.397  32.210  1.00  0.00    -0.354 N 
ATOM     40  C   UNL A   1      41.217  28.015  29.193  1.00  0.00     0.074 A 
ATOM     41  C   UNL A   1      40.566  28.200  27.913  1.00  0.00     0.031 C 
ATOM     42  C   UNL A   1      37.808  31.734  33.121  1.00  0.00     0.029 A 
ATOM     43  C   UNL A   1      39.078  31.064  33.379  1.00  0.00     0.049 A 
ATOM     44  H   UNL A   1      40.169  29.868  32.069  1.00  0.00     0.167 HD
ATOM     45  C   UNL A   1      42.327  27.261  29.383  1.00  0.00     0.031 A 
ATOM     46  C   UNL A   1      39.738  31.106  34.551  1.00  0.00     0.031 A 
ATOM     47  C   UNL A   1      43.030  27.139  30.635  1.00  0.00     0.049 A 
ATOM     48  C   UNL A   1      40.969  30.274  34.740  1.00  0.00     0.074 A 
ATOM     49  C   UNL A   1      44.168  26.399  30.916  1.00  0.00     0.029 A 
ATOM     50  N   UNL A   1      42.687  27.800  31.802  1.00  0.00    -0.354 N 
ATOM     51  N   UNL A   1      41.580  29.497  33.880  1.00  0.00    -0.248 NA
ATOM     52  C   UNL A   1      41.583  30.299  36.075  1.00  0.00     0.031 C 
ATOM     53  C   UNL A   1      44.498  26.593  32.262  1.00  0.00     0.029 A 
ATOM     54  C   UNL A   1      43.591  27.486  32.805  1.00  0.00     0.049 A 
ATOM     55  H   UNL A   1      41.916  28.402  31.904  1.00  0.00     0.167 HD
ATOM     56  C   UNL A   1      42.640  28.930  34.573  1.00  0.00     0.074 A 
ATOM     57  C   UNL A   1      42.613  29.481  35.911  1.00  0.00     0.031 C 
ATOM     58  C   UNL A   1      43.546  28.021  34.140  1.00  0.00     0.031 A 
BRANCH  45  59
ATOM     59  C   UNL A   1      42.838  26.460  28.218  1.00  0.00    -0.014 A 
ATOM     60  C   UNL A   1      43.804  26.968  27.338  1.00  0.00     0.009 A 
ATOM     61  C   UNL A   1      42.388  25.140  28.048  1.00  0.00     0.009 A 
ATOM     62  C   UNL A   1      44.293  26.175  26.296  1.00  0.00     0.001 A 
ATOM     63  C   UNL A   1      42.898  24.342  27.023  1.00  0.00     0.001 A 
ATOM     64  C   UNL A   1      43.845  24.862  26.144  1.00  0.00     0.000 A 
ENDBRANCH  45  59
BRANCH  46  65
ATOM     65  C   UNL A   1      39.199  31.924  35.668  1.00  0.00    -0.014 A 
ATOM     66  C   UNL A   1      38.262  31.381  36.560  1.00  0.00     0.009 A 
ATOM     67  C   UNL A   1      39.640  33.242  35.863  1.00  0.00     0.009 A 
ATOM     68  C   UNL A   1      37.777  32.144  37.623  1.00  0.00     0.001 A 
ATOM     69  C   UNL A   1      39.176  33.992  36.945  1.00  0.00     0.001 A 
ATOM     70  C   UNL A   1      38.241  33.444  37.820  1.00  0.00     0.000 A 
ENDBRANCH  46  65
BRANCH  58  71
ATOM     71  C   UNL A   1      44.583  27.578  35.128  1.00  0.00    -0.014 A 
ATOM     72  C   UNL A   1      44.365  26.460  35.949  1.00  0.00     0.009 A 
ATOM     73  C   UNL A   1      45.788  28.286  35.242  1.00  0.00     0.009 A 
ATOM     74  C   UNL A   1      45.320  26.084  36.895  1.00  0.00     0.001 A 
ATOM     75  C   UNL A   1      46.750  27.895  36.176  1.00  0.00     0.001 A 
ATOM     76  C   UNL A   1      46.511  26.801  37.007  1.00  0.00     0.000 A 
ENDBRANCH  58  71
ENDBRANCH  32  33
ENDBRANCH  25  27
ENDBRANCH  24  25
ENDBRANCH   1  24
TORSDOF 13
ENDMDL
MODEL 3
REMARK VINA RESULT:     -10.6      0.503      6.038
REMARK SMILES Cc1[nH]c2ccccc2c1[C@@H](C(=O)OCCOC(=O)c1ccc(-c2c3nc(c(-c4ccccc4)c4ccc([nH]4)c(-c4ccccc4)c4nc(c(-c5ccccc5)c5ccc2[nH]5)C=C4)C=C3)cc1)[NH+]1CCCC1
REMARK SMILES IDX 16 1 15 2 14 3 12 4 13 5 11 6 10 7 1 8 2 9 3 10 4 11 9 13
REMARK SMILES IDX 5 14 8 15 6 16 7 17 68 18 69 19 72 20 70 22 71 23 17 24
REMARK SMILES IDX 18 25 19 26 20 27 21 28 67 29 22 30 66 31 23 32 24 33 25 34
REMARK SMILES IDX 60 35 26 36 65 37 59 38 61 39 27 40 64 41 58 42 57 43 28 45
REMARK SMILES IDX 50 46 35 47 49 48 36 49 39 50 48 51 62 52 37 53 38 54 47 56
REMARK SMILES IDX 63 57 40 58 29 59 30 60 34 61 31 62 33 63 32 64 51 65 52 66
REMARK SMILES IDX 56 67 53 68 55 69 54 70 41 71 42 72 46 73 43 74 45 75 44 76
REMARK H PARENT 3 12 68 21 61 44 39 55
REMARK Flexibility Score: inf
ROOT
ATOM      1  C   UNL A   1      36.879  21.335  24.295  1.00  0.00     0.275 C 
ENDROOT
BRANCH   1   2
ATOM      2  C   UNL A   1      36.783  22.628  23.487  1.00  0.00     0.274 C 
BRANCH   2   3
ATOM      3  O   UNL A   1      35.753  23.502  23.997  1.00  0.00    -0.457 OA
BRANCH   3   4
ATOM      4  C   UNL A   1      34.486  23.236  23.564  1.00  0.00     0.370 C 
ATOM      5  O   UNL A   1      34.153  23.328  22.382  1.00  0.00    -0.245 OA
BRANCH   4   6
ATOM      6  C   UNL A   1      33.473  23.001  24.696  1.00  0.00     0.328 C 
BRANCH   6   7
ATOM      7  C   UNL A   1      33.390  21.615  25.304  1.00  0.00     0.049 A 
ATOM      8  C   UNL A   1      33.963  22.218  27.801  1.00  0.00     0.065 C 
ATOM      9  C   UNL A   1      33.574  21.344  26.660  1.00  0.00     0.022 A 
ATOM     10  N   UNL A   1      33.279  20.025  26.875  1.00  0.00    -0.358 N 
ATOM     11  C   UNL A   1      32.947  19.404  25.699  1.00  0.00     0.046 A 
ATOM     12  H   UNL A   1      33.301  19.582  27.754  1.00  0.00     0.166 HD
ATOM     13  C   UNL A   1      33.101  20.344  24.677  1.00  0.00     0.009 A 
ATOM     14  C   UNL A   1      32.528  18.087  25.479  1.00  0.00     0.027 A 
ATOM     15  C   UNL A   1      32.903  19.894  23.352  1.00  0.00     0.011 A 
ATOM     16  C   UNL A   1      32.274  17.695  24.165  1.00  0.00     0.002 A 
ATOM     17  C   UNL A   1      32.475  18.580  23.112  1.00  0.00     0.001 A 
ENDBRANCH   6   7
BRANCH   6  18
ATOM     18  N   UNL A   1      32.162  23.653  24.424  1.00  0.00    -0.319 N 
ATOM     19  C   UNL A   1      32.134  25.097  24.653  1.00  0.00     0.263 C 
ATOM     20  C   UNL A   1      30.971  23.136  25.086  1.00  0.00     0.263 C 
ATOM     21  H   UNL A   1      32.107  23.411  23.435  1.00  0.00     0.349 HD
ATOM     22  C   UNL A   1      31.504  25.298  26.021  1.00  0.00     0.067 C 
ATOM     23  C   UNL A   1      30.654  24.061  26.253  1.00  0.00     0.067 C 
ENDBRANCH   6  18
ENDBRANCH   4   6
ENDBRANCH   3   4
ENDBRANCH   2   3
ENDBRANCH   1   2
BRANCH   1  24
ATOM     24  O   UNL A   1      37.267  21.638  25.645  1.00  0.00    -0.458 OA
BRANCH  24  25
ATOM     25  C   UNL A   1      38.582  21.505  25.935  1.00  0.00     0.338 C 
ATOM     26  O   UNL A   1      39.270  20.515  25.752  1.00  0.00    -0.246 OA
BRANCH  25  27
ATOM     27  C   UNL A   1      39.132  22.778  26.464  1.00  0.00     0.060 A 
ATOM     28  C   UNL A   1      38.497  23.997  26.241  1.00  0.00     0.016 A 
ATOM     29  C   UNL A   1      40.379  22.769  27.095  1.00  0.00     0.016 A 
ATOM     30  C   UNL A   1      39.149  25.195  26.536  1.00  0.00     0.010 A 
ATOM     31  C   UNL A   1      40.988  23.974  27.477  1.00  0.00     0.010 A 
ATOM     32  C   UNL A   1      40.406  25.211  27.156  1.00  0.00    -0.014 A 
BRANCH  32  33
ATOM     33  C   UNL A   1      41.121  26.500  27.414  1.00  0.00     0.031 A 
ATOM     34  C   UNL A   1      42.456  26.786  26.763  1.00  0.00     0.074 A 
ATOM     35  C   UNL A   1      40.582  27.451  28.205  1.00  0.00     0.049 A 
ATOM     36  N   UNL A   1      43.323  27.734  27.035  1.00  0.00    -0.248 NA
ATOM     37  C   UNL A   1      42.883  25.884  25.681  1.00  0.00     0.031 C 
ATOM     38  C   UNL A   1      39.281  27.376  28.872  1.00  0.00     0.029 A 
ATOM     39  N   UNL A   1      41.060  28.689  28.566  1.00  0.00    -0.354 N 
ATOM     40  C   UNL A   1      44.427  27.485  26.227  1.00  0.00     0.074 A 
ATOM     41  C   UNL A   1      44.115  26.312  25.439  1.00  0.00     0.031 C 
ATOM     42  C   UNL A   1      39.029  28.540  29.486  1.00  0.00     0.029 A 
ATOM     43  C   UNL A   1      40.198  29.403  29.363  1.00  0.00     0.049 A 
ATOM     44  H   UNL A   1      41.938  29.032  28.280  1.00  0.00     0.167 HD
ATOM     45  C   UNL A   1      45.599  28.163  26.158  1.00  0.00     0.031 A 
ATOM     46  C   UNL A   1      40.334  30.594  29.973  1.00  0.00     0.031 A 
ATOM     47  C   UNL A   1      45.887  29.379  26.875  1.00  0.00     0.049 A 
ATOM     48  C   UNL A   1      41.633  31.334  29.876  1.00  0.00     0.074 A 
ATOM     49  C   UNL A   1      47.049  30.135  26.859  1.00  0.00     0.029 A 
ATOM     50  N   UNL A   1      44.996  30.036  27.705  1.00  0.00    -0.354 N 
ATOM     51  N   UNL A   1      42.716  31.015  29.211  1.00  0.00    -0.248 NA
ATOM     52  C   UNL A   1      41.740  32.583  30.644  1.00  0.00     0.031 C 
ATOM     53  C   UNL A   1      46.868  31.238  27.701  1.00  0.00     0.029 A 
ATOM     54  C   UNL A   1      45.580  31.189  28.207  1.00  0.00     0.049 A 
ATOM     55  H   UNL A   1      44.083  29.730  27.910  1.00  0.00     0.167 HD
ATOM     56  C   UNL A   1      43.636  32.016  29.492  1.00  0.00     0.074 A 
ATOM     57  C   UNL A   1      42.974  32.970  30.355  1.00  0.00     0.031 C 
ATOM     58  C   UNL A   1      44.923  32.123  29.081  1.00  0.00     0.031 A 
BRANCH  45  59
ATOM     59  C   UNL A   1      46.694  27.583  25.305  1.00  0.00    -0.014 A 
ATOM     60  C   UNL A   1      47.538  26.568  25.775  1.00  0.00     0.009 A 
ATOM     61  C   UNL A   1      46.828  28.022  23.977  1.00  0.00     0.009 A 
ATOM     62  C   UNL A   1      48.512  26.018  24.936  1.00  0.00     0.001 A 
ATOM     63  C   UNL A   1      47.784  27.453  23.134  1.00  0.00     0.001 A 
ATOM     64  C   UNL A   1      48.629  26.456  23.616  1.00  0.00     0.000 A 
ENDBRANCH  45  59
BRANCH  46  65
ATOM     65  C   UNL A   1      39.218  31.131  30.794  1.00  0.00    -0.014 A 
ATOM     66  C   UNL A   1      39.146  30.852  32.166  1.00  0.00     0.009 A 
ATOM     67  C   UNL A   1      38.235  31.947  30.212  1.00  0.00     0.009 A 
ATOM     68  C   UNL A   1      38.109  31.378  32.939  1.00  0.00     0.001 A 
ATOM     69  C   UNL A   1      37.217  32.496  30.993  1.00  0.00     0.001 A 
ATOM     70  C   UNL A   1      37.153  32.207  32.354  1.00  0.00     0.000 A 
ENDBRANCH  46  65
BRANCH  58  71
ATOM     71  C   UNL A   1      45.687  33.321  29.559  1.00  0.00    -0.014 A 
ATOM     72  C   UNL A   1      46.427  33.276  30.750  1.00  0.00     0.009 A 
ATOM     73  C   UNL A   1      45.662  34.509  28.813  1.00  0.00     0.009 A 
ATOM     74  C   UNL A   1      47.098  34.412  31.206  1.00  0.00     0.001 A 
ATOM     75  C   UNL A   1      46.352  35.638  29.262  1.00  0.00     0.001 A 
ATOM     76  C   UNL A   1      47.060  35.591  30.462  1.00  0.00     0.000 A 
ENDBRANCH  58  71
ENDBRANCH  32  33
ENDBRANCH  25  27
ENDBRANCH  24  25
ENDBRANCH   1  24
TORSDOF 13
ENDMDL
