MODEL 1
REMARK VINA RESULT:     -11.4      0.000      0.000
REMARK SMILES Cc1cc(C)cc(C(=O)N2CC[C@H](C(=O)OCCOC(=O)c3ccc(-c4c5nc(c(-c6ccccc6)c6ccc([nH]6)c(-c6ccccc6)c6nc(c(-c7ccccc7)c7ccc4[nH]7)C=C6)C=C5)cc3)[C@@H]2C)c1
REMARK SMILES IDX 17 1 16 2 14 3 15 4 13 5 10 6 11 7 70 8 12 9 71 10 8 11 9 12
REMARK SMILES IDX 7 13 1 14 2 15 3 16 72 17 4 18 5 19 6 20 18 21 19 22 20 23
REMARK SMILES IDX 21 24 22 25 23 26 69 27 24 28 68 29 25 30 26 31 27 32 62 33
REMARK SMILES IDX 28 34 67 35 61 36 63 37 29 38 66 39 60 40 59 41 30 43 52 44
REMARK SMILES IDX 37 45 51 46 38 47 41 48 50 49 64 50 39 51 40 52 49 54 65 55
REMARK SMILES IDX 42 56 31 57 32 58 36 59 33 60 35 61 34 62 53 63 54 64 58 65
REMARK SMILES IDX 55 66 57 67 56 68 43 69 44 70 48 71 45 72 47 73 46 74
REMARK H PARENT 63 42 41 53
REMARK Flexibility Score: inf
ROOT
ATOM      1  C   UNL A   1      35.183  21.155  25.416  1.00  0.00     0.274 C 
ENDROOT
BRANCH   1   2
ATOM      2  O   UNL A   1      33.955  20.395  25.379  1.00  0.00    -0.462 OA
BRANCH   2   3
ATOM      3  C   UNL A   1      32.823  21.119  25.145  1.00  0.00     0.311 C 
ATOM      4  O   UNL A   1      31.696  20.643  25.088  1.00  0.00    -0.252 OA
BRANCH   3   5
ATOM      5  C   UNL A   1      33.150  22.571  24.835  1.00  0.00     0.123 C 
ATOM      6  N   UNL A   1      31.453  24.148  25.411  1.00  0.00    -0.335 N 
ATOM      7  C   UNL A   1      31.048  23.514  24.174  1.00  0.00     0.121 C 
ATOM      8  C   UNL A   1      32.754  23.640  25.877  1.00  0.00     0.096 C 
ATOM      9  C   UNL A   1      32.363  23.022  23.590  1.00  0.00     0.039 C 
ATOM     10  C   UNL A   1      32.729  23.197  27.333  1.00  0.00     0.032 C 
BRANCH   6  11
ATOM     11  C   UNL A   1      30.675  25.188  25.898  1.00  0.00     0.254 C 
ATOM     12  O   UNL A   1      29.654  24.976  26.549  1.00  0.00    -0.269 OA
BRANCH  11  13
ATOM     13  C   UNL A   1      30.967  26.587  25.478  1.00  0.00     0.040 A 
ATOM     14  C   UNL A   1      29.933  29.001  22.719  1.00  0.00     0.044 C 
ATOM     15  C   UNL A   1      30.547  28.459  23.975  1.00  0.00    -0.050 A 
ATOM     16  C   UNL A   1      31.184  29.315  24.880  1.00  0.00     0.006 A 
ATOM     17  C   UNL A   1      30.413  27.105  24.301  1.00  0.00     0.017 A 
ATOM     18  C   UNL A   1      31.699  28.828  26.091  1.00  0.00    -0.050 A 
ATOM     19  C   UNL A   1      32.266  29.792  27.093  1.00  0.00     0.044 C 
ATOM     20  C   UNL A   1      31.595  27.458  26.379  1.00  0.00     0.017 A 
ENDBRANCH  11  13
ENDBRANCH   6  11
ENDBRANCH   3   5
ENDBRANCH   2   3
ENDBRANCH   1   2
BRANCH   1  21
ATOM     21  C   UNL A   1      36.374  20.311  24.965  1.00  0.00     0.275 C 
BRANCH  21  22
ATOM     22  O   UNL A   1      37.523  21.158  24.826  1.00  0.00    -0.458 OA
BRANCH  22  23
ATOM     23  C   UNL A   1      38.605  20.819  25.561  1.00  0.00     0.338 C 
ATOM     24  O   UNL A   1      39.039  19.688  25.737  1.00  0.00    -0.246 OA
BRANCH  23  25
ATOM     25  C   UNL A   1      39.244  22.038  26.111  1.00  0.00     0.060 A 
ATOM     26  C   UNL A   1      38.668  23.296  25.920  1.00  0.00     0.016 A 
ATOM     27  C   UNL A   1      40.486  21.944  26.742  1.00  0.00     0.016 A 
ATOM     28  C   UNL A   1      39.352  24.452  26.285  1.00  0.00     0.010 A 
ATOM     29  C   UNL A   1      41.135  23.104  27.183  1.00  0.00     0.010 A 
ATOM     30  C   UNL A   1      40.588  24.374  26.934  1.00  0.00    -0.014 A 
BRANCH  30  31
ATOM     31  C   UNL A   1      41.329  25.616  27.285  1.00  0.00     0.031 A 
ATOM     32  C   UNL A   1      40.740  26.587  28.272  1.00  0.00     0.074 A 
ATOM     33  C   UNL A   1      42.544  25.873  26.761  1.00  0.00     0.049 A 
ATOM     34  N   UNL A   1      41.109  27.812  28.550  1.00  0.00    -0.248 NA
ATOM     35  C   UNL A   1      39.567  26.125  29.029  1.00  0.00     0.031 C 
ATOM     36  C   UNL A   1      43.294  24.988  25.868  1.00  0.00     0.029 A 
ATOM     37  N   UNL A   1      43.374  26.955  26.927  1.00  0.00    -0.354 N 
ATOM     38  C   UNL A   1      40.174  28.289  29.460  1.00  0.00     0.074 A 
ATOM     39  C   UNL A   1      39.223  27.223  29.689  1.00  0.00     0.031 C 
ATOM     40  C   UNL A   1      44.494  25.533  25.616  1.00  0.00     0.029 A 
ATOM     41  C   UNL A   1      44.562  26.846  26.250  1.00  0.00     0.049 A 
ATOM     42  H   UNL A   1      43.138  27.734  27.481  1.00  0.00     0.167 HD
ATOM     43  C   UNL A   1      40.110  29.509  30.046  1.00  0.00     0.031 A 
ATOM     44  C   UNL A   1      45.580  27.717  26.119  1.00  0.00     0.031 A 
ATOM     45  C   UNL A   1      41.092  30.547  29.871  1.00  0.00     0.049 A 
ATOM     46  C   UNL A   1      45.472  29.078  26.742  1.00  0.00     0.074 A 
ATOM     47  C   UNL A   1      41.109  31.820  30.417  1.00  0.00     0.029 A 
ATOM     48  N   UNL A   1      42.246  30.420  29.117  1.00  0.00    -0.354 N 
ATOM     49  N   UNL A   1      44.522  29.566  27.500  1.00  0.00    -0.248 NA
ATOM     50  C   UNL A   1      46.564  30.020  26.458  1.00  0.00     0.031 C 
ATOM     51  C   UNL A   1      42.263  32.473  29.967  1.00  0.00     0.029 A 
ATOM     52  C   UNL A   1      42.981  31.593  29.175  1.00  0.00     0.049 A 
ATOM     53  H   UNL A   1      42.506  29.615  28.613  1.00  0.00     0.167 HD
ATOM     54  C   UNL A   1      44.901  30.870  27.787  1.00  0.00     0.074 A 
ATOM     55  C   UNL A   1      46.177  31.091  27.140  1.00  0.00     0.031 C 
ATOM     56  C   UNL A   1      44.243  31.803  28.518  1.00  0.00     0.031 A 
BRANCH  43  57
ATOM     57  C   UNL A   1      38.904  29.802  30.890  1.00  0.00    -0.014 A 
ATOM     58  C   UNL A   1      37.721  30.312  30.338  1.00  0.00     0.009 A 
ATOM     59  C   UNL A   1      38.957  29.544  32.270  1.00  0.00     0.009 A 
ATOM     60  C   UNL A   1      36.624  30.591  31.157  1.00  0.00     0.001 A 
ATOM     61  C   UNL A   1      37.851  29.799  33.083  1.00  0.00     0.001 A 
ATOM     62  C   UNL A   1      36.689  30.331  32.526  1.00  0.00     0.000 A 
ENDBRANCH  43  57
BRANCH  44  63
ATOM     63  C   UNL A   1      46.776  27.340  25.324  1.00  0.00    -0.014 A 
ATOM     64  C   UNL A   1      46.901  27.759  23.991  1.00  0.00     0.009 A 
ATOM     65  C   UNL A   1      47.805  26.575  25.896  1.00  0.00     0.009 A 
ATOM     66  C   UNL A   1      48.031  27.413  23.245  1.00  0.00     0.001 A 
ATOM     67  C   UNL A   1      48.944  26.253  25.157  1.00  0.00     0.001 A 
ATOM     68  C   UNL A   1      49.053  26.668  23.830  1.00  0.00     0.000 A 
ENDBRANCH  44  63
BRANCH  56  69
ATOM     69  C   UNL A   1      44.906  33.141  28.667  1.00  0.00    -0.014 A 
ATOM     70  C   UNL A   1      44.660  34.176  27.752  1.00  0.00     0.009 A 
ATOM     71  C   UNL A   1      45.768  33.376  29.749  1.00  0.00     0.009 A 
ATOM     72  C   UNL A   1      45.288  35.413  27.902  1.00  0.00     0.001 A 
ATOM     73  C   UNL A   1      46.377  34.621  29.908  1.00  0.00     0.001 A 
ATOM     74  C   UNL A   1      46.143  35.635  28.981  1.00  0.00     0.000 A 
ENDBRANCH  56  69
ENDBRANCH  30  31
ENDBRANCH  23  25
ENDBRANCH  22  23
ENDBRANCH  21  22
ENDBRANCH   1  21
TORSDOF 13
ENDMDL
MODEL 2
REMARK VINA RESULT:     -11.2      3.589      9.033
REMARK SMILES Cc1cc(C)cc(C(=O)N2CC[C@H](C(=O)OCCOC(=O)c3ccc(-c4c5nc(c(-c6ccccc6)c6ccc([nH]6)c(-c6ccccc6)c6nc(c(-c7ccccc7)c7ccc4[nH]7)C=C6)C=C5)cc3)[C@@H]2C)c1
REMARK SMILES IDX 17 1 16 2 14 3 15 4 13 5 10 6 11 7 70 8 12 9 71 10 8 11 9 12
REMARK SMILES IDX 7 13 1 14 2 15 3 16 72 17 4 18 5 19 6 20 18 21 19 22 20 23
REMARK SMILES IDX 21 24 22 25 23 26 69 27 24 28 68 29 25 30 26 31 27 32 62 33
REMARK SMILES IDX 28 34 67 35 61 36 63 37 29 38 66 39 60 40 59 41 30 43 52 44
REMARK SMILES IDX 37 45 51 46 38 47 41 48 50 49 64 50 39 51 40 52 49 54 65 55
REMARK SMILES IDX 42 56 31 57 32 58 36 59 33 60 35 61 34 62 53 63 54 64 58 65
REMARK SMILES IDX 55 66 57 67 56 68 43 69 44 70 48 71 45 72 47 73 46 74
REMARK H PARENT 63 42 41 53
REMARK Flexibility Score: inf
ROOT
ATOM      1  C   UNL A   1      32.367  29.341  24.497  1.00  0.00     0.274 C 
ENDROOT
BRANCH   1   2
ATOM      2  O   UNL A   1      31.611  28.312  23.821  1.00  0.00    -0.462 OA
BRANCH   2   3
ATOM      3  C   UNL A   1      31.652  27.078  24.400  1.00  0.00     0.311 C 
ATOM      4  O   UNL A   1      30.665  26.398  24.650  1.00  0.00    -0.252 OA
BRANCH   3   5
ATOM      5  C   UNL A   1      33.068  26.707  24.813  1.00  0.00     0.123 C 
ATOM      6  N   UNL A   1      33.656  24.413  24.507  1.00  0.00    -0.335 N 
ATOM      7  C   UNL A   1      32.854  24.495  25.710  1.00  0.00     0.121 C 
ATOM      8  C   UNL A   1      33.857  25.741  23.902  1.00  0.00     0.096 C 
ATOM      9  C   UNL A   1      33.031  25.940  26.147  1.00  0.00     0.039 C 
ATOM     10  C   UNL A   1      33.519  25.772  22.418  1.00  0.00     0.032 C 
BRANCH   6  11
ATOM     11  C   UNL A   1      34.213  23.188  24.174  1.00  0.00     0.254 C 
ATOM     12  O   UNL A   1      33.616  22.384  23.459  1.00  0.00    -0.269 OA
BRANCH  11  13
ATOM     13  C   UNL A   1      35.473  22.746  24.835  1.00  0.00     0.040 A 
ATOM     14  C   UNL A   1      37.752  19.694  24.857  1.00  0.00     0.044 C 
ATOM     15  C   UNL A   1      37.228  21.077  25.106  1.00  0.00    -0.050 A 
ATOM     16  C   UNL A   1      38.024  22.034  25.746  1.00  0.00     0.006 A 
ATOM     17  C   UNL A   1      35.970  21.454  24.624  1.00  0.00     0.017 A 
ATOM     18  C   UNL A   1      37.569  23.349  25.919  1.00  0.00    -0.050 A 
ATOM     19  C   UNL A   1      38.495  24.380  26.498  1.00  0.00     0.044 C 
ATOM     20  C   UNL A   1      36.285  23.696  25.469  1.00  0.00     0.017 A 
ENDBRANCH  11  13
ENDBRANCH   6  11
ENDBRANCH   3   5
ENDBRANCH   2   3
ENDBRANCH   1   2
BRANCH   1  21
ATOM     21  C   UNL A   1      31.481  30.153  25.441  1.00  0.00     0.275 C 
BRANCH  21  22
ATOM     22  O   UNL A   1      32.111  30.226  26.728  1.00  0.00    -0.458 OA
BRANCH  22  23
ATOM     23  C   UNL A   1      32.756  31.379  27.011  1.00  0.00     0.338 C 
ATOM     24  O   UNL A   1      32.320  32.512  26.859  1.00  0.00    -0.246 OA
BRANCH  23  25
ATOM     25  C   UNL A   1      34.090  31.083  27.585  1.00  0.00     0.060 A 
ATOM     26  C   UNL A   1      34.501  29.766  27.797  1.00  0.00     0.016 A 
ATOM     27  C   UNL A   1      34.907  32.132  28.013  1.00  0.00     0.016 A 
ATOM     28  C   UNL A   1      35.676  29.493  28.492  1.00  0.00     0.010 A 
ATOM     29  C   UNL A   1      36.129  31.855  28.638  1.00  0.00     0.010 A 
ATOM     30  C   UNL A   1      36.515  30.531  28.910  1.00  0.00    -0.014 A 
BRANCH  30  31
ATOM     31  C   UNL A   1      37.749  30.231  29.686  1.00  0.00     0.031 A 
ATOM     32  C   UNL A   1      38.879  29.480  29.037  1.00  0.00     0.074 A 
ATOM     33  C   UNL A   1      37.890  30.653  30.958  1.00  0.00     0.049 A 
ATOM     34  N   UNL A   1      39.934  28.933  29.586  1.00  0.00    -0.248 NA
ATOM     35  C   UNL A   1      38.798  29.301  27.579  1.00  0.00     0.031 C 
ATOM     36  C   UNL A   1      36.931  31.475  31.698  1.00  0.00     0.029 A 
ATOM     37  N   UNL A   1      38.919  30.465  31.849  1.00  0.00    -0.354 N 
ATOM     38  C   UNL A   1      40.604  28.289  28.553  1.00  0.00     0.074 A 
ATOM     39  C   UNL A   1      39.839  28.514  27.346  1.00  0.00     0.031 C 
ATOM     40  C   UNL A   1      37.442  31.769  32.903  1.00  0.00     0.029 A 
ATOM     41  C   UNL A   1      38.720  31.081  33.059  1.00  0.00     0.049 A 
ATOM     42  H   UNL A   1      39.723  29.937  31.639  1.00  0.00     0.167 HD
ATOM     43  C   UNL A   1      41.750  27.569  28.609  1.00  0.00     0.031 A 
ATOM     44  C   UNL A   1      39.460  31.068  34.183  1.00  0.00     0.031 A 
ATOM     45  C   UNL A   1      42.548  27.400  29.795  1.00  0.00     0.049 A 
ATOM     46  C   UNL A   1      40.705  30.230  34.237  1.00  0.00     0.074 A 
ATOM     47  C   UNL A   1      43.721  26.681  29.951  1.00  0.00     0.029 A 
ATOM     48  N   UNL A   1      42.271  27.983  31.020  1.00  0.00    -0.354 N 
ATOM     49  N   UNL A   1      41.265  29.522  33.289  1.00  0.00    -0.248 NA
ATOM     50  C   UNL A   1      41.398  30.165  35.531  1.00  0.00     0.031 C 
ATOM     51  C   UNL A   1      44.137  26.807  31.283  1.00  0.00     0.029 A 
ATOM     52  C   UNL A   1      43.245  27.636  31.941  1.00  0.00     0.049 A 
ATOM     53  H   UNL A   1      41.495  28.561  31.208  1.00  0.00     0.167 HD
ATOM     54  C   UNL A   1      42.378  28.928  33.868  1.00  0.00     0.074 A 
ATOM     55  C   UNL A   1      42.426  29.377  35.244  1.00  0.00     0.031 C 
ATOM     56  C   UNL A   1      43.275  28.080  33.309  1.00  0.00     0.031 A 
BRANCH  43  57
ATOM     57  C   UNL A   1      42.178  26.862  27.355  1.00  0.00    -0.014 A 
ATOM     58  C   UNL A   1      42.910  27.514  26.353  1.00  0.00     0.009 A 
ATOM     59  C   UNL A   1      41.850  25.506  27.188  1.00  0.00     0.009 A 
ATOM     60  C   UNL A   1      43.275  26.829  25.190  1.00  0.00     0.001 A 
ATOM     61  C   UNL A   1      42.239  24.818  26.038  1.00  0.00     0.001 A 
ATOM     62  C   UNL A   1      42.943  25.483  25.037  1.00  0.00     0.000 A 
ENDBRANCH  43  57
BRANCH  44  63
ATOM     63  C   UNL A   1      39.016  31.842  35.369  1.00  0.00    -0.014 A 
ATOM     64  C   UNL A   1      39.454  33.161  35.559  1.00  0.00     0.009 A 
ATOM     65  C   UNL A   1      38.140  31.274  36.307  1.00  0.00     0.009 A 
ATOM     66  C   UNL A   1      39.029  33.893  36.670  1.00  0.00     0.001 A 
ATOM     67  C   UNL A   1      37.696  32.016  37.402  1.00  0.00     0.001 A 
ATOM     68  C   UNL A   1      38.145  33.324  37.586  1.00  0.00     0.000 A 
ENDBRANCH  44  63
BRANCH  56  69
ATOM     69  C   UNL A   1      44.394  27.599  34.186  1.00  0.00    -0.014 A 
ATOM     70  C   UNL A   1      44.428  26.277  34.654  1.00  0.00     0.009 A 
ATOM     71  C   UNL A   1      45.437  28.473  34.528  1.00  0.00     0.009 A 
ATOM     72  C   UNL A   1      45.473  25.846  35.472  1.00  0.00     0.001 A 
ATOM     73  C   UNL A   1      46.492  28.033  35.329  1.00  0.00     0.001 A 
ATOM     74  C   UNL A   1      46.505  26.723  35.806  1.00  0.00     0.000 A 
ENDBRANCH  56  69
ENDBRANCH  30  31
ENDBRANCH  23  25
ENDBRANCH  22  23
ENDBRANCH  21  22
ENDBRANCH   1  21
TORSDOF 13
ENDMDL
MODEL 3
REMARK VINA RESULT:     -11.2      3.576      9.000
REMARK SMILES Cc1cc(C)cc(C(=O)N2CC[C@H](C(=O)OCCOC(=O)c3ccc(-c4c5nc(c(-c6ccccc6)c6ccc([nH]6)c(-c6ccccc6)c6nc(c(-c7ccccc7)c7ccc4[nH]7)C=C6)C=C5)cc3)[C@@H]2C)c1
REMARK SMILES IDX 17 1 16 2 14 3 15 4 13 5 10 6 11 7 70 8 12 9 71 10 8 11 9 12
REMARK SMILES IDX 7 13 1 14 2 15 3 16 72 17 4 18 5 19 6 20 18 21 19 22 20 23
REMARK SMILES IDX 21 24 22 25 23 26 69 27 24 28 68 29 25 30 26 31 27 32 62 33
REMARK SMILES IDX 28 34 67 35 61 36 63 37 29 38 66 39 60 40 59 41 30 43 52 44
REMARK SMILES IDX 37 45 51 46 38 47 41 48 50 49 64 50 39 51 40 52 49 54 65 55
REMARK SMILES IDX 42 56 31 57 32 58 36 59 33 60 35 61 34 62 53 63 54 64 58 65
REMARK SMILES IDX 55 66 57 67 56 68 43 69 44 70 48 71 45 72 47 73 46 74
REMARK H PARENT 63 42 41 53
REMARK Flexibility Score: inf
ROOT
ATOM      1  C   UNL A   1      32.285  28.992  24.630  1.00  0.00     0.274 C 
ENDROOT
BRANCH   1   2
ATOM      2  O   UNL A   1      31.400  28.129  23.882  1.00  0.00    -0.462 OA
BRANCH   2   3
ATOM      3  C   UNL A   1      31.546  26.793  24.117  1.00  0.00     0.311 C 
ATOM      4  O   UNL A   1      31.734  25.954  23.246  1.00  0.00    -0.252 OA
BRANCH   3   5
ATOM      5  C   UNL A   1      31.317  26.462  25.583  1.00  0.00     0.123 C 
ATOM      6  N   UNL A   1      31.867  24.229  26.227  1.00  0.00    -0.335 N 
ATOM      7  C   UNL A   1      30.584  24.181  25.560  1.00  0.00     0.121 C 
ATOM      8  C   UNL A   1      32.382  25.607  26.306  1.00  0.00     0.096 C 
ATOM      9  C   UNL A   1      30.052  25.596  25.725  1.00  0.00     0.039 C 
ATOM     10  C   UNL A   1      33.814  25.733  25.805  1.00  0.00     0.032 C 
BRANCH   6  11
ATOM     11  C   UNL A   1      32.355  23.061  26.793  1.00  0.00     0.254 C 
ATOM     12  O   UNL A   1      32.311  22.869  28.007  1.00  0.00    -0.269 OA
BRANCH  11  13
ATOM     13  C   UNL A   1      33.115  22.096  25.951  1.00  0.00     0.040 A 
ATOM     14  C   UNL A   1      36.744  21.156  25.275  1.00  0.00     0.044 C 
ATOM     15  C   UNL A   1      35.245  21.123  25.274  1.00  0.00    -0.050 A 
ATOM     16  C   UNL A   1      34.559  20.052  24.692  1.00  0.00     0.006 A 
ATOM     17  C   UNL A   1      34.516  22.120  25.931  1.00  0.00     0.017 A 
ATOM     18  C   UNL A   1      33.159  19.977  24.749  1.00  0.00    -0.050 A 
ATOM     19  C   UNL A   1      32.463  18.755  24.225  1.00  0.00     0.044 C 
ATOM     20  C   UNL A   1      32.442  21.011  25.372  1.00  0.00     0.017 A 
ENDBRANCH  11  13
ENDBRANCH   6  11
ENDBRANCH   3   5
ENDBRANCH   2   3
ENDBRANCH   1   2
BRANCH   1  21
ATOM     21  C   UNL A   1      31.508  30.077  25.372  1.00  0.00     0.275 C 
BRANCH  21  22
ATOM     22  O   UNL A   1      32.013  30.183  26.710  1.00  0.00    -0.458 OA
BRANCH  22  23
ATOM     23  C   UNL A   1      32.610  31.353  27.030  1.00  0.00     0.338 C 
ATOM     24  O   UNL A   1      32.130  32.472  26.906  1.00  0.00    -0.246 OA
BRANCH  23  25
ATOM     25  C   UNL A   1      33.950  31.094  27.609  1.00  0.00     0.060 A 
ATOM     26  C   UNL A   1      34.405  29.788  27.802  1.00  0.00     0.016 A 
ATOM     27  C   UNL A   1      34.727  32.163  28.060  1.00  0.00     0.016 A 
ATOM     28  C   UNL A   1      35.584  29.545  28.500  1.00  0.00     0.010 A 
ATOM     29  C   UNL A   1      35.954  31.918  28.688  1.00  0.00     0.010 A 
ATOM     30  C   UNL A   1      36.383  30.604  28.941  1.00  0.00    -0.014 A 
BRANCH  30  31
ATOM     31  C   UNL A   1      37.622  30.334  29.720  1.00  0.00     0.031 A 
ATOM     32  C   UNL A   1      38.775  29.617  29.072  1.00  0.00     0.074 A 
ATOM     33  C   UNL A   1      37.748  30.755  30.995  1.00  0.00     0.049 A 
ATOM     34  N   UNL A   1      39.843  29.096  29.623  1.00  0.00    -0.248 NA
ATOM     35  C   UNL A   1      38.704  29.443  27.613  1.00  0.00     0.031 C 
ATOM     36  C   UNL A   1      36.764  31.546  31.735  1.00  0.00     0.029 A 
ATOM     37  N   UNL A   1      38.778  30.590  31.888  1.00  0.00    -0.354 N 
ATOM     38  C   UNL A   1      40.534  28.475  28.589  1.00  0.00     0.074 A 
ATOM     39  C   UNL A   1      39.767  28.685  27.380  1.00  0.00     0.031 C 
ATOM     40  C   UNL A   1      37.263  31.849  32.943  1.00  0.00     0.029 A 
ATOM     41  C   UNL A   1      38.558  31.195  33.100  1.00  0.00     0.049 A 
ATOM     42  H   UNL A   1      39.597  30.085  31.679  1.00  0.00     0.167 HD
ATOM     43  C   UNL A   1      41.698  27.786  28.646  1.00  0.00     0.031 A 
ATOM     44  C   UNL A   1      39.295  31.197  34.227  1.00  0.00     0.031 A 
ATOM     45  C   UNL A   1      42.497  27.634  29.834  1.00  0.00     0.049 A 
ATOM     46  C   UNL A   1      40.561  30.393  34.282  1.00  0.00     0.074 A 
ATOM     47  C   UNL A   1      43.688  26.946  29.991  1.00  0.00     0.029 A 
ATOM     48  N   UNL A   1      42.199  28.204  31.060  1.00  0.00    -0.354 N 
ATOM     49  N   UNL A   1      41.144  29.704  33.333  1.00  0.00    -0.248 NA
ATOM     50  C   UNL A   1      41.252  30.341  35.578  1.00  0.00     0.031 C 
ATOM     51  C   UNL A   1      44.096  27.077  31.325  1.00  0.00     0.029 A 
ATOM     52  C   UNL A   1      43.179  27.879  31.984  1.00  0.00     0.049 A 
ATOM     53  H   UNL A   1      41.407  28.759  31.249  1.00  0.00     0.167 HD
ATOM     54  C   UNL A   1      42.270  29.138  33.913  1.00  0.00     0.074 A 
ATOM     55  C   UNL A   1      42.301  29.582  35.292  1.00  0.00     0.031 C 
ATOM     56  C   UNL A   1      43.193  28.317  33.354  1.00  0.00     0.031 A 
BRANCH  43  57
ATOM     57  C   UNL A   1      42.150  27.098  27.391  1.00  0.00    -0.014 A 
ATOM     58  C   UNL A   1      41.645  25.847  27.011  1.00  0.00     0.009 A 
ATOM     59  C   UNL A   1      43.093  27.732  26.564  1.00  0.00     0.009 A 
ATOM     60  C   UNL A   1      42.102  25.227  25.845  1.00  0.00     0.001 A 
ATOM     61  C   UNL A   1      43.529  27.122  25.387  1.00  0.00     0.001 A 
ATOM     62  C   UNL A   1      43.040  25.866  25.034  1.00  0.00     0.000 A 
ENDBRANCH  43  57
BRANCH  44  63
ATOM     63  C   UNL A   1      38.825  31.953  35.415  1.00  0.00    -0.014 A 
ATOM     64  C   UNL A   1      39.067  33.330  35.519  1.00  0.00     0.009 A 
ATOM     65  C   UNL A   1      38.120  31.306  36.442  1.00  0.00     0.009 A 
ATOM     66  C   UNL A   1      38.617  34.045  36.632  1.00  0.00     0.001 A 
ATOM     67  C   UNL A   1      37.649  32.027  37.541  1.00  0.00     0.001 A 
ATOM     68  C   UNL A   1      37.902  33.395  37.637  1.00  0.00     0.000 A 
ENDBRANCH  44  63
BRANCH  56  69
ATOM     69  C   UNL A   1      44.320  27.863  34.233  1.00  0.00    -0.014 A 
ATOM     70  C   UNL A   1      45.445  28.676  34.443  1.00  0.00     0.009 A 
ATOM     71  C   UNL A   1      44.246  26.619  34.876  1.00  0.00     0.009 A 
ATOM     72  C   UNL A   1      46.488  28.237  35.260  1.00  0.00     0.001 A 
ATOM     73  C   UNL A   1      45.281  26.192  35.710  1.00  0.00     0.001 A 
ATOM     74  C   UNL A   1      46.403  26.998  35.894  1.00  0.00     0.000 A 
ENDBRANCH  56  69
ENDBRANCH  30  31
ENDBRANCH  23  25
ENDBRANCH  22  23
ENDBRANCH  21  22
ENDBRANCH   1  21
TORSDOF 13
ENDMDL
