MODEL 1
REMARK VINA RESULT:     -13.0      0.000      0.000
REMARK SMILES O=C(OCCOC(=O)c1ccc(-n2cc(CSc3nc4ccccc4c(=O)n3-c3ccc(Cl)cc3)nn2)cc1)c1ccc(-c2c3nc(c(-c4ccccc4)c4ccc([nH]4)c(-c4ccccc4)c4nc(c(-c5ccccc5)c5ccc2[nH]5)C=C4)C=C3)cc1
REMARK SMILES IDX 6 1 5 2 4 3 3 4 2 5 1 6 40 7 41 8 87 9 42 10 86 11 43 12
REMARK SMILES IDX 44 13 45 14 80 15 46 16 85 17 79 18 81 19 47 20 84 21 78 22
REMARK SMILES IDX 77 23 48 25 70 26 55 27 69 28 56 29 59 30 68 31 82 32 57 33
REMARK SMILES IDX 58 34 67 36 83 37 60 38 49 39 50 40 54 41 51 42 53 43 52 44
REMARK SMILES IDX 71 45 72 46 76 47 73 48 75 49 74 50 61 51 62 52 66 53 63 54
REMARK SMILES IDX 65 55 64 56 7 57 8 58 9 59 10 60 39 61 11 62 38 63 12 64
REMARK SMILES IDX 13 65 14 66 37 67 15 68 36 69 16 70 17 71 18 72 19 73 28 74
REMARK SMILES IDX 20 75 26 76 21 77 25 78 27 79 22 80 24 81 23 82 29 83 30 84
REMARK SMILES IDX 35 85 31 86 34 87 32 88 33 89
REMARK H PARENT 81 24 59 35
REMARK Flexibility Score: inf
ROOT
ATOM      1  O   UNL A   1      37.436  20.057  24.903  1.00  0.00    -0.458 OA
ENDROOT
BRANCH   1   2
ATOM      2  C   UNL A   1      38.414  19.080  25.292  1.00  0.00     0.275 C 
BRANCH   2   3
ATOM      3  C   UNL A   1      39.737  19.758  25.655  1.00  0.00     0.275 C 
BRANCH   3   4
ATOM      4  O   UNL A   1      40.911  18.923  25.716  1.00  0.00    -0.458 OA
BRANCH   4   5
ATOM      5  C   UNL A   1      42.145  19.471  25.671  1.00  0.00     0.338 C 
ATOM      6  O   UNL A   1      43.032  19.077  24.928  1.00  0.00    -0.246 OA
BRANCH   5   7
ATOM      7  C   UNL A   1      42.236  20.787  26.348  1.00  0.00     0.060 A 
ATOM      8  C   UNL A   1      42.729  21.944  25.738  1.00  0.00     0.016 A 
ATOM      9  C   UNL A   1      41.763  20.844  27.666  1.00  0.00     0.016 A 
ATOM     10  C   UNL A   1      42.853  23.117  26.473  1.00  0.00     0.010 A 
ATOM     11  C   UNL A   1      41.844  22.024  28.385  1.00  0.00     0.010 A 
ATOM     12  C   UNL A   1      42.449  23.141  27.810  1.00  0.00    -0.014 A 
BRANCH  12  13
ATOM     13  C   UNL A   1      42.548  24.394  28.557  1.00  0.00     0.031 A 
ATOM     14  C   UNL A   1      41.507  25.413  28.217  1.00  0.00     0.074 A 
ATOM     15  C   UNL A   1      43.383  24.545  29.606  1.00  0.00     0.049 A 
ATOM     16  N   UNL A   1      41.661  26.632  27.810  1.00  0.00    -0.248 NA
ATOM     17  C   UNL A   1      40.104  24.973  28.246  1.00  0.00     0.031 C 
ATOM     18  C   UNL A   1      44.251  23.542  30.236  1.00  0.00     0.029 A 
ATOM     19  N   UNL A   1      43.541  25.623  30.421  1.00  0.00    -0.354 N 
ATOM     20  C   UNL A   1      40.375  27.167  27.691  1.00  0.00     0.074 A 
ATOM     21  C   UNL A   1      39.460  26.068  27.844  1.00  0.00     0.031 C 
ATOM     22  C   UNL A   1      44.637  23.983  31.456  1.00  0.00     0.029 A 
ATOM     23  C   UNL A   1      44.179  25.349  31.626  1.00  0.00     0.049 A 
ATOM     24  H   UNL A   1      43.226  26.524  30.177  1.00  0.00     0.167 HD
ATOM     25  C   UNL A   1      40.135  28.508  27.681  1.00  0.00     0.031 A 
ATOM     26  C   UNL A   1      44.284  26.176  32.697  1.00  0.00     0.031 A 
ATOM     27  C   UNL A   1      41.313  29.260  27.349  1.00  0.00     0.049 A 
ATOM     28  C   UNL A   1      43.999  27.550  32.222  1.00  0.00     0.074 A 
ATOM     29  C   UNL A   1      42.138  29.308  26.243  1.00  0.00     0.029 A 
ATOM     30  N   UNL A   1      42.042  29.796  28.383  1.00  0.00    -0.354 N 
ATOM     31  N   UNL A   1      44.777  28.193  31.400  1.00  0.00    -0.248 NA
ATOM     32  C   UNL A   1      42.623  28.016  32.283  1.00  0.00     0.031 C 
ATOM     33  C   UNL A   1      43.455  29.339  26.786  1.00  0.00     0.029 A 
ATOM     34  C   UNL A   1      43.347  29.425  28.176  1.00  0.00     0.049 A 
ATOM     35  H   UNL A   1      41.696  30.340  29.126  1.00  0.00     0.167 HD
ATOM     36  C   UNL A   1      43.909  28.831  30.526  1.00  0.00     0.074 A 
ATOM     37  C   UNL A   1      42.596  28.753  31.169  1.00  0.00     0.031 C 
ATOM     38  C   UNL A   1      44.274  29.107  29.239  1.00  0.00     0.031 A 
BRANCH  25  39
ATOM     39  C   UNL A   1      38.930  29.139  28.334  1.00  0.00    -0.014 A 
ATOM     40  C   UNL A   1      38.735  28.980  29.718  1.00  0.00     0.009 A 
ATOM     41  C   UNL A   1      37.839  29.640  27.597  1.00  0.00     0.009 A 
ATOM     42  C   UNL A   1      37.494  29.240  30.315  1.00  0.00     0.001 A 
ATOM     43  C   UNL A   1      36.610  29.933  28.194  1.00  0.00     0.001 A 
ATOM     44  C   UNL A   1      36.429  29.706  29.550  1.00  0.00     0.000 A 
ENDBRANCH  25  39
BRANCH  26  45
ATOM     45  C   UNL A   1      44.329  25.848  34.139  1.00  0.00    -0.014 A 
ATOM     46  C   UNL A   1      43.241  25.224  34.774  1.00  0.00     0.009 A 
ATOM     47  C   UNL A   1      45.553  25.886  34.831  1.00  0.00     0.009 A 
ATOM     48  C   UNL A   1      43.385  24.630  36.037  1.00  0.00     0.001 A 
ATOM     49  C   UNL A   1      45.697  25.293  36.090  1.00  0.00     0.001 A 
ATOM     50  C   UNL A   1      44.617  24.651  36.687  1.00  0.00     0.000 A 
ENDBRANCH  26  45
BRANCH  38  51
ATOM     51  C   UNL A   1      45.701  28.824  28.825  1.00  0.00    -0.014 A 
ATOM     52  C   UNL A   1      46.152  27.553  28.422  1.00  0.00     0.009 A 
ATOM     53  C   UNL A   1      46.571  29.911  28.665  1.00  0.00     0.009 A 
ATOM     54  C   UNL A   1      47.440  27.375  27.905  1.00  0.00     0.001 A 
ATOM     55  C   UNL A   1      47.849  29.738  28.127  1.00  0.00     0.001 A 
ATOM     56  C   UNL A   1      48.286  28.470  27.753  1.00  0.00     0.000 A 
ENDBRANCH  38  51
ENDBRANCH  12  13
ENDBRANCH   5   7
ENDBRANCH   4   5
ENDBRANCH   3   4
ENDBRANCH   2   3
ENDBRANCH   1   2
BRANCH   1  57
ATOM     57  C   UNL A   1      36.149  19.614  24.842  1.00  0.00     0.338 C 
ATOM     58  O   UNL A   1      35.746  18.506  24.587  1.00  0.00    -0.246 OA
BRANCH  57  59
ATOM     59  C   UNL A   1      35.288  20.755  25.200  1.00  0.00     0.060 A 
ATOM     60  C   UNL A   1      35.850  21.899  25.774  1.00  0.00     0.018 A 
ATOM     61  C   UNL A   1      33.919  20.675  24.957  1.00  0.00     0.018 A 
ATOM     62  C   UNL A   1      35.046  23.006  26.054  1.00  0.00     0.029 A 
ATOM     63  C   UNL A   1      33.101  21.750  25.304  1.00  0.00     0.029 A 
ATOM     64  C   UNL A   1      33.665  22.918  25.848  1.00  0.00     0.066 A 
BRANCH  64  65
ATOM     65  N   UNL A   1      32.828  23.977  26.265  1.00  0.00    -0.220 N 
ATOM     66  C   UNL A   1      33.185  25.292  26.402  1.00  0.00     0.141 A 
ATOM     67  N   UNL A   1      31.515  23.836  26.557  1.00  0.00    -0.062 NA
ATOM     68  C   UNL A   1      32.017  25.953  26.712  1.00  0.00     0.093 A 
ATOM     69  N   UNL A   1      31.025  25.031  26.880  1.00  0.00    -0.134 NA
BRANCH  68  70
ATOM     70  C   UNL A   1      31.839  27.402  26.940  1.00  0.00     0.138 C 
BRANCH  70  71
ATOM     71  S   UNL A   1      32.343  28.620  25.722  1.00  0.00    -0.081 SA
BRANCH  71  72
ATOM     72  C   UNL A   1      31.104  28.892  24.521  1.00  0.00     0.176 A 
ATOM     73  N   UNL A   1      30.737  30.140  24.481  1.00  0.00    -0.223 NA
ATOM     74  N   UNL A   1      30.555  27.937  23.672  1.00  0.00    -0.255 N 
ATOM     75  C   UNL A   1      29.678  30.499  23.644  1.00  0.00     0.079 A 
ATOM     76  C   UNL A   1      29.194  28.137  23.387  1.00  0.00     0.266 A 
ATOM     77  C   UNL A   1      29.447  31.834  23.312  1.00  0.00     0.029 A 
ATOM     78  C   UNL A   1      28.775  29.538  23.217  1.00  0.00     0.066 A 
ATOM     79  O   UNL A   1      28.337  27.262  23.269  1.00  0.00    -0.268 OA
ATOM     80  C   UNL A   1      28.284  32.197  22.623  1.00  0.00     0.002 A 
ATOM     81  C   UNL A   1      27.580  29.888  22.580  1.00  0.00     0.016 A 
ATOM     82  C   UNL A   1      27.333  31.230  22.293  1.00  0.00     0.001 A 
BRANCH  74  83
ATOM     83  C   UNL A   1      31.222  26.778  23.105  1.00  0.00     0.051 A 
ATOM     84  C   UNL A   1      30.717  25.481  23.334  1.00  0.00     0.028 A 
ATOM     85  C   UNL A   1      32.352  26.843  22.280  1.00  0.00     0.028 A 
ATOM     86  C   UNL A   1      31.433  24.327  22.992  1.00  0.00     0.022 A 
ATOM     87  C   UNL A   1      33.110  25.700  21.982  1.00  0.00     0.022 A 
ATOM     88  C   UNL A   1      32.670  24.449  22.386  1.00  0.00     0.041 A 
ATOM     89  Cl  UNL A   1      33.661  23.067  22.157  1.00  0.00    -0.084 Cl
ENDBRANCH  74  83
ENDBRANCH  71  72
ENDBRANCH  70  71
ENDBRANCH  68  70
ENDBRANCH  64  65
ENDBRANCH  57  59
ENDBRANCH   1  57
TORSDOF 16
ENDMDL
MODEL 2
REMARK VINA RESULT:     -12.8      6.492     12.286
REMARK SMILES O=C(OCCOC(=O)c1ccc(-n2cc(CSc3nc4ccccc4c(=O)n3-c3ccc(Cl)cc3)nn2)cc1)c1ccc(-c2c3nc(c(-c4ccccc4)c4ccc([nH]4)c(-c4ccccc4)c4nc(c(-c5ccccc5)c5ccc2[nH]5)C=C4)C=C3)cc1
REMARK SMILES IDX 6 1 5 2 4 3 3 4 2 5 1 6 40 7 41 8 87 9 42 10 86 11 43 12
REMARK SMILES IDX 44 13 45 14 80 15 46 16 85 17 79 18 81 19 47 20 84 21 78 22
REMARK SMILES IDX 77 23 48 25 70 26 55 27 69 28 56 29 59 30 68 31 82 32 57 33
REMARK SMILES IDX 58 34 67 36 83 37 60 38 49 39 50 40 54 41 51 42 53 43 52 44
REMARK SMILES IDX 71 45 72 46 76 47 73 48 75 49 74 50 61 51 62 52 66 53 63 54
REMARK SMILES IDX 65 55 64 56 7 57 8 58 9 59 10 60 39 61 11 62 38 63 12 64
REMARK SMILES IDX 13 65 14 66 37 67 15 68 36 69 16 70 17 71 18 72 19 73 28 74
REMARK SMILES IDX 20 75 26 76 21 77 25 78 27 79 22 80 24 81 23 82 29 83 30 84
REMARK SMILES IDX 35 85 31 86 34 87 32 88 33 89
REMARK H PARENT 81 24 59 35
REMARK Flexibility Score: inf
ROOT
ATOM      1  O   UNL A   1      32.718  34.931  30.032  1.00  0.00    -0.458 OA
ENDROOT
BRANCH   1   2
ATOM      2  C   UNL A   1      33.121  35.446  28.752  1.00  0.00     0.275 C 
BRANCH   2   3
ATOM      3  C   UNL A   1      33.826  34.363  27.934  1.00  0.00     0.275 C 
BRANCH   3   4
ATOM      4  O   UNL A   1      34.718  33.477  28.641  1.00  0.00    -0.458 OA
BRANCH   4   5
ATOM      5  C   UNL A   1      34.764  32.163  28.334  1.00  0.00     0.338 C 
ATOM      6  O   UNL A   1      33.931  31.602  27.638  1.00  0.00    -0.246 OA
BRANCH   5   7
ATOM      7  C   UNL A   1      36.073  31.530  28.631  1.00  0.00     0.060 A 
ATOM      8  C   UNL A   1      37.160  32.212  29.184  1.00  0.00     0.016 A 
ATOM      9  C   UNL A   1      36.179  30.160  28.356  1.00  0.00     0.016 A 
ATOM     10  C   UNL A   1      38.374  31.560  29.355  1.00  0.00     0.010 A 
ATOM     11  C   UNL A   1      37.376  29.497  28.568  1.00  0.00     0.010 A 
ATOM     12  C   UNL A   1      38.490  30.212  29.005  1.00  0.00    -0.014 A 
BRANCH  12  13
ATOM     13  C   UNL A   1      39.764  29.529  29.229  1.00  0.00     0.031 A 
ATOM     14  C   UNL A   1      40.095  29.271  30.665  1.00  0.00     0.074 A 
ATOM     15  C   UNL A   1      40.485  28.997  28.220  1.00  0.00     0.049 A 
ATOM     16  N   UNL A   1      41.141  29.630  31.338  1.00  0.00    -0.248 NA
ATOM     17  C   UNL A   1      39.069  28.605  31.480  1.00  0.00     0.031 C 
ATOM     18  C   UNL A   1      40.144  28.917  26.795  1.00  0.00     0.029 A 
ATOM     19  N   UNL A   1      41.648  28.293  28.283  1.00  0.00    -0.354 N 
ATOM     20  C   UNL A   1      40.983  29.090  32.617  1.00  0.00     0.074 A 
ATOM     21  C   UNL A   1      39.638  28.586  32.685  1.00  0.00     0.031 C 
ATOM     22  C   UNL A   1      40.940  28.004  26.191  1.00  0.00     0.029 A 
ATOM     23  C   UNL A   1      41.941  27.556  27.141  1.00  0.00     0.049 A 
ATOM     24  H   UNL A   1      42.233  28.304  29.076  1.00  0.00     0.167 HD
ATOM     25  C   UNL A   1      42.029  28.906  33.471  1.00  0.00     0.031 A 
ATOM     26  C   UNL A   1      42.911  26.617  27.006  1.00  0.00     0.031 A 
ATOM     27  C   UNL A   1      43.161  29.713  33.113  1.00  0.00     0.049 A 
ATOM     28  C   UNL A   1      43.874  26.817  28.114  1.00  0.00     0.074 A 
ATOM     29  C   UNL A   1      43.373  31.072  33.006  1.00  0.00     0.029 A 
ATOM     30  N   UNL A   1      44.163  29.120  32.382  1.00  0.00    -0.354 N 
ATOM     31  N   UNL A   1      44.632  27.870  28.215  1.00  0.00    -0.248 NA
ATOM     32  C   UNL A   1      43.649  26.081  29.348  1.00  0.00     0.031 C 
ATOM     33  C   UNL A   1      44.116  31.221  31.799  1.00  0.00     0.029 A 
ATOM     34  C   UNL A   1      44.409  29.945  31.313  1.00  0.00     0.049 A 
ATOM     35  H   UNL A   1      44.616  28.271  32.586  1.00  0.00     0.167 HD
ATOM     36  C   UNL A   1      44.611  28.186  29.565  1.00  0.00     0.074 A 
ATOM     37  C   UNL A   1      44.058  27.001  30.225  1.00  0.00     0.031 C 
ATOM     38  C   UNL A   1      44.770  29.472  29.996  1.00  0.00     0.031 A 
BRANCH  25  39
ATOM     39  C   UNL A   1      42.141  27.721  34.399  1.00  0.00    -0.014 A 
ATOM     40  C   UNL A   1      41.799  27.874  35.755  1.00  0.00     0.009 A 
ATOM     41  C   UNL A   1      42.838  26.546  34.053  1.00  0.00     0.009 A 
ATOM     42  C   UNL A   1      42.195  26.936  36.718  1.00  0.00     0.001 A 
ATOM     43  C   UNL A   1      43.204  25.591  35.005  1.00  0.00     0.001 A 
ATOM     44  C   UNL A   1      42.907  25.800  36.344  1.00  0.00     0.000 A 
ENDBRANCH  25  39
BRANCH  26  45
ATOM     45  C   UNL A   1      42.927  25.392  26.175  1.00  0.00    -0.014 A 
ATOM     46  C   UNL A   1      43.955  25.161  25.245  1.00  0.00     0.009 A 
ATOM     47  C   UNL A   1      42.086  24.312  26.500  1.00  0.00     0.009 A 
ATOM     48  C   UNL A   1      44.155  23.889  24.689  1.00  0.00     0.001 A 
ATOM     49  C   UNL A   1      42.286  23.042  25.946  1.00  0.00     0.001 A 
ATOM     50  C   UNL A   1      43.330  22.827  25.052  1.00  0.00     0.000 A 
ENDBRANCH  26  45
BRANCH  38  51
ATOM     51  C   UNL A   1      45.108  30.532  28.971  1.00  0.00    -0.014 A 
ATOM     52  C   UNL A   1      46.424  30.951  28.696  1.00  0.00     0.009 A 
ATOM     53  C   UNL A   1      44.084  30.992  28.132  1.00  0.00     0.009 A 
ATOM     54  C   UNL A   1      46.697  31.823  27.636  1.00  0.00     0.001 A 
ATOM     55  C   UNL A   1      44.359  31.844  27.060  1.00  0.00     0.001 A 
ATOM     56  C   UNL A   1      45.663  32.264  26.815  1.00  0.00     0.000 A 
ENDBRANCH  38  51
ENDBRANCH  12  13
ENDBRANCH   5   7
ENDBRANCH   4   5
ENDBRANCH   3   4
ENDBRANCH   2   3
ENDBRANCH   1   2
BRANCH   1  57
ATOM     57  C   UNL A   1      32.907  35.765  31.092  1.00  0.00     0.338 C 
ATOM     58  O   UNL A   1      32.433  36.857  31.284  1.00  0.00    -0.246 OA
BRANCH  57  59
ATOM     59  C   UNL A   1      33.797  35.062  32.033  1.00  0.00     0.060 A 
ATOM     60  C   UNL A   1      34.313  35.739  33.142  1.00  0.00     0.018 A 
ATOM     61  C   UNL A   1      34.111  33.725  31.802  1.00  0.00     0.018 A 
ATOM     62  C   UNL A   1      35.104  35.058  34.069  1.00  0.00     0.029 A 
ATOM     63  C   UNL A   1      34.961  33.061  32.686  1.00  0.00     0.029 A 
ATOM     64  C   UNL A   1      35.454  33.726  33.823  1.00  0.00     0.066 A 
BRANCH  64  65
ATOM     65  N   UNL A   1      36.370  33.075  34.678  1.00  0.00    -0.220 N 
ATOM     66  C   UNL A   1      37.257  32.093  34.326  1.00  0.00     0.141 A 
ATOM     67  N   UNL A   1      36.525  33.370  35.989  1.00  0.00    -0.062 NA
ATOM     68  C   UNL A   1      38.007  31.861  35.458  1.00  0.00     0.093 A 
ATOM     69  N   UNL A   1      37.488  32.596  36.484  1.00  0.00    -0.134 NA
BRANCH  68  70
ATOM     70  C   UNL A   1      39.125  30.908  35.613  1.00  0.00     0.138 C 
BRANCH  70  71
ATOM     71  S   UNL A   1      40.816  31.463  35.848  1.00  0.00    -0.081 SA
BRANCH  71  72
ATOM     72  C   UNL A   1      40.891  33.148  36.303  1.00  0.00     0.176 A 
ATOM     73  N   UNL A   1      41.171  33.294  37.566  1.00  0.00    -0.223 NA
ATOM     74  N   UNL A   1      40.705  34.239  35.461  1.00  0.00    -0.255 N 
ATOM     75  C   UNL A   1      41.163  34.582  38.108  1.00  0.00     0.079 A 
ATOM     76  C   UNL A   1      40.080  35.337  36.074  1.00  0.00     0.266 A 
ATOM     77  C   UNL A   1      41.754  34.843  39.344  1.00  0.00     0.029 A 
ATOM     78  C   UNL A   1      40.470  35.598  37.469  1.00  0.00     0.066 A 
ATOM     79  O   UNL A   1      39.252  36.087  35.559  1.00  0.00    -0.268 OA
ATOM     80  C   UNL A   1      41.585  36.090  39.956  1.00  0.00     0.002 A 
ATOM     81  C   UNL A   1      40.241  36.830  38.092  1.00  0.00     0.016 A 
ATOM     82  C   UNL A   1      40.795  37.068  39.349  1.00  0.00     0.001 A 
BRANCH  74  83
ATOM     83  C   UNL A   1      41.049  34.331  34.053  1.00  0.00     0.051 A 
ATOM     84  C   UNL A   1      40.246  33.701  33.079  1.00  0.00     0.028 A 
ATOM     85  C   UNL A   1      42.137  35.057  33.552  1.00  0.00     0.028 A 
ATOM     86  C   UNL A   1      40.645  33.580  31.742  1.00  0.00     0.022 A 
ATOM     87  C   UNL A   1      42.581  34.897  32.229  1.00  0.00     0.022 A 
ATOM     88  C   UNL A   1      41.857  34.114  31.343  1.00  0.00     0.041 A 
ATOM     89  Cl  UNL A   1      42.468  33.793  29.773  1.00  0.00    -0.084 Cl
ENDBRANCH  74  83
ENDBRANCH  71  72
ENDBRANCH  70  71
ENDBRANCH  68  70
ENDBRANCH  64  65
ENDBRANCH  57  59
ENDBRANCH   1  57
TORSDOF 16
ENDMDL
MODEL 3
REMARK VINA RESULT:     -12.8      4.400      9.150
REMARK SMILES O=C(OCCOC(=O)c1ccc(-n2cc(CSc3nc4ccccc4c(=O)n3-c3ccc(Cl)cc3)nn2)cc1)c1ccc(-c2c3nc(c(-c4ccccc4)c4ccc([nH]4)c(-c4ccccc4)c4nc(c(-c5ccccc5)c5ccc2[nH]5)C=C4)C=C3)cc1
REMARK SMILES IDX 6 1 5 2 4 3 3 4 2 5 1 6 40 7 41 8 87 9 42 10 86 11 43 12
REMARK SMILES IDX 44 13 45 14 80 15 46 16 85 17 79 18 81 19 47 20 84 21 78 22
REMARK SMILES IDX 77 23 48 25 70 26 55 27 69 28 56 29 59 30 68 31 82 32 57 33
REMARK SMILES IDX 58 34 67 36 83 37 60 38 49 39 50 40 54 41 51 42 53 43 52 44
REMARK SMILES IDX 71 45 72 46 76 47 73 48 75 49 74 50 61 51 62 52 66 53 63 54
REMARK SMILES IDX 65 55 64 56 7 57 8 58 9 59 10 60 39 61 11 62 38 63 12 64
REMARK SMILES IDX 13 65 14 66 37 67 15 68 36 69 16 70 17 71 18 72 19 73 28 74
REMARK SMILES IDX 20 75 26 76 21 77 25 78 27 79 22 80 24 81 23 82 29 83 30 84
REMARK SMILES IDX 35 85 31 86 34 87 32 88 33 89
REMARK H PARENT 81 24 59 35
REMARK Flexibility Score: inf
ROOT
ATOM      1  O   UNL A   1      37.717  34.840  33.935  1.00  0.00    -0.458 OA
ENDROOT
BRANCH   1   2
ATOM      2  C   UNL A   1      39.105  34.687  34.274  1.00  0.00     0.275 C 
BRANCH   2   3
ATOM      3  C   UNL A   1      39.791  33.718  33.309  1.00  0.00     0.275 C 
BRANCH   3   4
ATOM      4  O   UNL A   1      40.137  34.220  32.003  1.00  0.00    -0.458 OA
BRANCH   4   5
ATOM      5  C   UNL A   1      39.600  33.670  30.893  1.00  0.00     0.338 C 
ATOM      6  O   UNL A   1      39.002  34.313  30.042  1.00  0.00    -0.246 OA
BRANCH   5   7
ATOM      7  C   UNL A   1      40.075  32.291  30.623  1.00  0.00     0.060 A 
ATOM      8  C   UNL A   1      39.250  31.163  30.658  1.00  0.00     0.016 A 
ATOM      9  C   UNL A   1      41.428  32.153  30.288  1.00  0.00     0.016 A 
ATOM     10  C   UNL A   1      39.796  29.899  30.471  1.00  0.00     0.010 A 
ATOM     11  C   UNL A   1      41.964  30.897  30.056  1.00  0.00     0.010 A 
ATOM     12  C   UNL A   1      41.163  29.767  30.213  1.00  0.00    -0.014 A 
BRANCH  12  13
ATOM     13  C   UNL A   1      41.714  28.433  29.977  1.00  0.00     0.031 A 
ATOM     14  C   UNL A   1      42.531  27.883  31.103  1.00  0.00     0.074 A 
ATOM     15  C   UNL A   1      41.351  27.679  28.919  1.00  0.00     0.049 A 
ATOM     16  N   UNL A   1      43.755  27.462  31.092  1.00  0.00    -0.248 NA
ATOM     17  C   UNL A   1      41.923  27.897  32.442  1.00  0.00     0.031 C 
ATOM     18  C   UNL A   1      40.343  27.969  27.891  1.00  0.00     0.029 A 
ATOM     19  N   UNL A   1      41.735  26.412  28.604  1.00  0.00    -0.354 N 
ATOM     20  C   UNL A   1      44.018  27.001  32.386  1.00  0.00     0.074 A 
ATOM     21  C   UNL A   1      42.907  27.414  33.200  1.00  0.00     0.031 C 
ATOM     22  C   UNL A   1      40.026  26.828  27.236  1.00  0.00     0.029 A 
ATOM     23  C   UNL A   1      40.913  25.770  27.684  1.00  0.00     0.049 A 
ATOM     24  H   UNL A   1      42.530  25.985  28.998  1.00  0.00     0.167 HD
ATOM     25  C   UNL A   1      45.031  26.134  32.665  1.00  0.00     0.031 A 
ATOM     26  C   UNL A   1      40.937  24.455  27.352  1.00  0.00     0.031 A 
ATOM     27  C   UNL A   1      46.024  26.119  31.628  1.00  0.00     0.049 A 
ATOM     28  C   UNL A   1      42.246  23.914  27.788  1.00  0.00     0.074 A 
ATOM     29  C   UNL A   1      46.868  27.073  31.097  1.00  0.00     0.029 A 
ATOM     30  N   UNL A   1      45.953  25.119  30.689  1.00  0.00    -0.354 N 
ATOM     31  N   UNL A   1      43.377  24.274  27.254  1.00  0.00    -0.248 NA
ATOM     32  C   UNL A   1      42.332  23.345  29.123  1.00  0.00     0.031 C 
ATOM     33  C   UNL A   1      46.799  26.862  29.689  1.00  0.00     0.029 A 
ATOM     34  C   UNL A   1      46.016  25.729  29.461  1.00  0.00     0.049 A 
ATOM     35  H   UNL A   1      45.873  24.153  30.863  1.00  0.00     0.167 HD
ATOM     36  C   UNL A   1      44.246  24.398  28.328  1.00  0.00     0.074 A 
ATOM     37  C   UNL A   1      43.570  23.733  29.443  1.00  0.00     0.031 C 
ATOM     38  C   UNL A   1      45.295  25.271  28.295  1.00  0.00     0.031 A 
BRANCH  25  39
ATOM     39  C   UNL A   1      44.922  25.037  33.696  1.00  0.00    -0.014 A 
ATOM     40  C   UNL A   1      46.081  24.600  34.361  1.00  0.00     0.009 A 
ATOM     41  C   UNL A   1      43.775  24.229  33.830  1.00  0.00     0.009 A 
ATOM     42  C   UNL A   1      46.108  23.385  35.060  1.00  0.00     0.001 A 
ATOM     43  C   UNL A   1      43.788  23.035  34.555  1.00  0.00     0.001 A 
ATOM     44  C   UNL A   1      44.964  22.598  35.147  1.00  0.00     0.000 A 
ENDBRANCH  25  39
BRANCH  26  45
ATOM     45  C   UNL A   1      39.826  23.565  26.948  1.00  0.00    -0.014 A 
ATOM     46  C   UNL A   1      38.560  24.086  26.627  1.00  0.00     0.009 A 
ATOM     47  C   UNL A   1      40.087  22.227  26.600  1.00  0.00     0.009 A 
ATOM     48  C   UNL A   1      37.609  23.309  25.951  1.00  0.00     0.001 A 
ATOM     49  C   UNL A   1      39.138  21.452  25.925  1.00  0.00     0.001 A 
ATOM     50  C   UNL A   1      37.903  21.997  25.587  1.00  0.00     0.000 A 
ENDBRANCH  26  45
BRANCH  38  51
ATOM     51  C   UNL A   1      45.573  26.006  27.002  1.00  0.00    -0.014 A 
ATOM     52  C   UNL A   1      44.966  27.230  26.662  1.00  0.00     0.009 A 
ATOM     53  C   UNL A   1      46.610  25.537  26.184  1.00  0.00     0.009 A 
ATOM     54  C   UNL A   1      45.368  27.944  25.527  1.00  0.00     0.001 A 
ATOM     55  C   UNL A   1      47.028  26.260  25.064  1.00  0.00     0.001 A 
ATOM     56  C   UNL A   1      46.404  27.460  24.732  1.00  0.00     0.000 A 
ENDBRANCH  38  51
ENDBRANCH  12  13
ENDBRANCH   5   7
ENDBRANCH   4   5
ENDBRANCH   3   4
ENDBRANCH   2   3
ENDBRANCH   1   2
BRANCH   1  57
ATOM     57  C   UNL A   1      36.915  33.780  34.232  1.00  0.00     0.338 C 
ATOM     58  O   UNL A   1      36.659  33.310  35.313  1.00  0.00    -0.246 OA
BRANCH  57  59
ATOM     59  C   UNL A   1      36.348  33.304  32.958  1.00  0.00     0.060 A 
ATOM     60  C   UNL A   1      36.236  31.932  32.715  1.00  0.00     0.018 A 
ATOM     61  C   UNL A   1      35.928  34.236  32.011  1.00  0.00     0.018 A 
ATOM     62  C   UNL A   1      35.640  31.479  31.536  1.00  0.00     0.029 A 
ATOM     63  C   UNL A   1      35.401  33.787  30.801  1.00  0.00     0.029 A 
ATOM     64  C   UNL A   1      35.251  32.409  30.565  1.00  0.00     0.066 A 
BRANCH  64  65
ATOM     65  N   UNL A   1      34.784  31.955  29.312  1.00  0.00    -0.220 N 
ATOM     66  C   UNL A   1      34.929  30.695  28.795  1.00  0.00     0.141 A 
ATOM     67  N   UNL A   1      34.076  32.716  28.445  1.00  0.00    -0.062 NA
ATOM     68  C   UNL A   1      34.214  30.703  27.617  1.00  0.00     0.093 A 
ATOM     69  N   UNL A   1      33.769  31.972  27.385  1.00  0.00    -0.134 NA
BRANCH  68  70
ATOM     70  C   UNL A   1      34.024  29.579  26.676  1.00  0.00     0.138 C 
BRANCH  70  71
ATOM     71  S   UNL A   1      32.846  28.264  26.999  1.00  0.00    -0.081 SA
BRANCH  71  72
ATOM     72  C   UNL A   1      32.860  27.053  25.741  1.00  0.00     0.176 A 
ATOM     73  N   UNL A   1      33.457  25.963  26.128  1.00  0.00    -0.223 NA
ATOM     74  N   UNL A   1      32.303  27.174  24.473  1.00  0.00    -0.255 N 
ATOM     75  C   UNL A   1      33.643  24.936  25.199  1.00  0.00     0.079 A 
ATOM     76  C   UNL A   1      33.021  26.511  23.464  1.00  0.00     0.266 A 
ATOM     77  C   UNL A   1      33.975  23.645  25.613  1.00  0.00     0.029 A 
ATOM     78  C   UNL A   1      33.606  25.215  23.842  1.00  0.00     0.066 A 
ATOM     79  O   UNL A   1      33.201  26.910  22.314  1.00  0.00    -0.268 OA
ATOM     80  C   UNL A   1      34.333  22.674  24.671  1.00  0.00     0.002 A 
ATOM     81  C   UNL A   1      34.017  24.275  22.891  1.00  0.00     0.016 A 
ATOM     82  C   UNL A   1      34.393  23.001  23.315  1.00  0.00     0.001 A 
BRANCH  74  83
ATOM     83  C   UNL A   1      31.115  27.924  24.104  1.00  0.00     0.051 A 
ATOM     84  C   UNL A   1      29.927  27.251  23.749  1.00  0.00     0.028 A 
ATOM     85  C   UNL A   1      31.030  29.322  24.109  1.00  0.00     0.028 A 
ATOM     86  C   UNL A   1      28.830  27.913  23.186  1.00  0.00     0.022 A 
ATOM     87  C   UNL A   1      29.963  29.996  23.494  1.00  0.00     0.022 A 
ATOM     88  C   UNL A   1      28.889  29.281  22.988  1.00  0.00     0.041 A 
ATOM     89  Cl  UNL A   1      27.654  30.081  22.106  1.00  0.00    -0.084 Cl
ENDBRANCH  74  83
ENDBRANCH  71  72
ENDBRANCH  70  71
ENDBRANCH  68  70
ENDBRANCH  64  65
ENDBRANCH  57  59
ENDBRANCH   1  57
TORSDOF 16
ENDMDL
