MODEL 1
REMARK VINA RESULT:     -10.2      0.000      0.000
REMARK SMILES Nc1oc(-c2ccccc2)cc1C(=O)OCCOC(=O)c1ccc(-c2c3nc(c(-c4ccccc4)c4ccc([nH]4)c(-c4ccccc4)c4nc(c(-c5ccccc5)c5ccc2[nH]5)C=C4)C=C3)cc1
REMARK SMILES IDX 17 1 16 2 15 3 13 4 14 5 12 6 2 7 3 8 4 9 11 10 1 11 5 14
REMARK SMILES IDX 6 15 10 16 7 17 9 18 8 19 18 20 19 21 20 22 21 23 22 24
REMARK SMILES IDX 68 25 23 26 67 27 24 28 25 29 26 30 61 31 27 32 66 33 60 34
REMARK SMILES IDX 62 35 28 36 65 37 59 38 58 39 29 41 51 42 36 43 50 44 37 45
REMARK SMILES IDX 40 46 49 47 63 48 38 49 39 50 48 52 64 53 41 54 30 55 31 56
REMARK SMILES IDX 35 57 32 58 34 59 33 60 52 61 53 62 57 63 54 64 56 65 55 66
REMARK SMILES IDX 42 67 43 68 47 69 44 70 46 71 45 72
REMARK H PARENT 1 12 1 13 62 40 40 51
REMARK Flexibility Score: inf
ROOT
ATOM      1  C   UNL A   1      40.653  20.053  26.518  1.00  0.00     0.275 C 
ENDROOT
BRANCH   1   2
ATOM      2  C   UNL A   1      41.968  19.295  26.370  1.00  0.00     0.275 C 
BRANCH   2   3
ATOM      3  O   UNL A   1      42.536  19.466  25.061  1.00  0.00    -0.458 OA
BRANCH   3   4
ATOM      4  C   UNL A   1      43.894  19.315  24.962  1.00  0.00     0.343 C 
ATOM      5  O   UNL A   1      44.445  18.300  24.552  1.00  0.00    -0.246 OA
BRANCH   4   6
ATOM      6  C   UNL A   1      44.597  20.525  25.327  1.00  0.00     0.123 A 
ATOM      7  C   UNL A   1      45.894  20.846  24.981  1.00  0.00     0.205 A 
ATOM      8  O   UNL A   1      46.236  22.066  25.471  1.00  0.00    -0.440 OA
ATOM      9  C   UNL A   1      45.158  22.535  26.160  1.00  0.00     0.137 A 
ATOM     10  C   UNL A   1      44.112  21.645  26.060  1.00  0.00     0.069 A 
BRANCH   7  11
ATOM     11  N   UNL A   1      46.845  20.217  24.284  1.00  0.00    -0.369 N 
ATOM     12  H   UNL A   1      47.347  20.702  23.588  1.00  0.00     0.159 HD
ATOM     13  H   UNL A   1      47.044  19.270  24.464  1.00  0.00     0.159 HD
ENDBRANCH   7  11
BRANCH   9  14
ATOM     14  C   UNL A   1      45.345  23.771  26.897  1.00  0.00     0.017 A 
ATOM     15  C   UNL A   1      45.476  25.003  26.248  1.00  0.00     0.012 A 
ATOM     16  C   UNL A   1      45.416  23.727  28.297  1.00  0.00     0.012 A 
ATOM     17  C   UNL A   1      45.676  26.171  26.990  1.00  0.00     0.001 A 
ATOM     18  C   UNL A   1      45.629  24.889  29.036  1.00  0.00     0.001 A 
ATOM     19  C   UNL A   1      45.759  26.112  28.381  1.00  0.00     0.000 A 
ENDBRANCH   9  14
ENDBRANCH   4   6
ENDBRANCH   3   4
ENDBRANCH   2   3
ENDBRANCH   1   2
BRANCH   1  20
ATOM     20  O   UNL A   1      40.845  21.331  27.127  1.00  0.00    -0.458 OA
BRANCH  20  21
ATOM     21  C   UNL A   1      39.946  22.273  26.759  1.00  0.00     0.338 C 
ATOM     22  O   UNL A   1      38.892  22.096  26.175  1.00  0.00    -0.246 OA
BRANCH  21  23
ATOM     23  C   UNL A   1      40.502  23.605  27.002  1.00  0.00     0.060 A 
ATOM     24  C   UNL A   1      41.618  23.709  27.839  1.00  0.00     0.016 A 
ATOM     25  C   UNL A   1      39.750  24.725  26.631  1.00  0.00     0.016 A 
ATOM     26  C   UNL A   1      41.897  24.927  28.429  1.00  0.00     0.010 A 
ATOM     27  C   UNL A   1      40.024  25.935  27.223  1.00  0.00     0.010 A 
ATOM     28  C   UNL A   1      41.048  26.006  28.173  1.00  0.00    -0.014 A 
BRANCH  28  29
ATOM     29  C   UNL A   1      41.265  27.257  28.882  1.00  0.00     0.031 A 
ATOM     30  C   UNL A   1      42.391  28.085  28.377  1.00  0.00     0.074 A 
ATOM     31  C   UNL A   1      40.351  27.709  29.766  1.00  0.00     0.049 A 
ATOM     32  N   UNL A   1      43.301  28.710  29.050  1.00  0.00    -0.248 NA
ATOM     33  C   UNL A   1      42.553  28.182  26.914  1.00  0.00     0.031 C 
ATOM     34  C   UNL A   1      39.057  27.093  30.088  1.00  0.00     0.029 A 
ATOM     35  N   UNL A   1      40.304  28.896  30.431  1.00  0.00    -0.354 N 
ATOM     36  C   UNL A   1      44.051  29.412  28.111  1.00  0.00     0.074 A 
ATOM     37  C   UNL A   1      43.627  28.960  26.812  1.00  0.00     0.031 C 
ATOM     38  C   UNL A   1      38.261  28.018  30.664  1.00  0.00     0.029 A 
ATOM     39  C   UNL A   1      39.025  29.239  30.850  1.00  0.00     0.049 A 
ATOM     40  H   UNL A   1      41.097  29.456  30.598  1.00  0.00     0.167 HD
ATOM     41  C   UNL A   1      44.806  30.491  28.445  1.00  0.00     0.031 A 
ATOM     42  C   UNL A   1      38.591  30.465  31.230  1.00  0.00     0.031 A 
ATOM     43  C   UNL A   1      45.163  30.499  29.836  1.00  0.00     0.049 A 
ATOM     44  C   UNL A   1      39.773  31.307  31.510  1.00  0.00     0.074 A 
ATOM     45  C   UNL A   1      45.859  29.641  30.663  1.00  0.00     0.029 A 
ATOM     46  N   UNL A   1      44.494  31.364  30.665  1.00  0.00    -0.354 N 
ATOM     47  N   UNL A   1      40.570  31.130  32.523  1.00  0.00    -0.248 NA
ATOM     48  C   UNL A   1      40.306  32.132  30.437  1.00  0.00     0.031 C 
ATOM     49  C   UNL A   1      45.213  29.742  31.929  1.00  0.00     0.029 A 
ATOM     50  C   UNL A   1      44.182  30.675  31.807  1.00  0.00     0.049 A 
ATOM     51  H   UNL A   1      44.278  32.306  30.474  1.00  0.00     0.167 HD
ATOM     52  C   UNL A   1      41.831  31.448  32.041  1.00  0.00     0.074 A 
ATOM     53  C   UNL A   1      41.589  32.181  30.803  1.00  0.00     0.031 C 
ATOM     54  C   UNL A   1      42.948  30.841  32.541  1.00  0.00     0.031 A 
BRANCH  41  55
ATOM     55  C   UNL A   1      44.858  31.729  27.584  1.00  0.00    -0.014 A 
ATOM     56  C   UNL A   1      46.065  32.067  26.949  1.00  0.00     0.009 A 
ATOM     57  C   UNL A   1      43.857  32.723  27.611  1.00  0.00     0.009 A 
ATOM     58  C   UNL A   1      46.281  33.353  26.438  1.00  0.00     0.001 A 
ATOM     59  C   UNL A   1      44.054  33.991  27.062  1.00  0.00     0.001 A 
ATOM     60  C   UNL A   1      45.279  34.316  26.502  1.00  0.00     0.000 A 
ENDBRANCH  41  55
BRANCH  42  61
ATOM     61  C   UNL A   1      37.229  31.026  31.108  1.00  0.00    -0.014 A 
ATOM     62  C   UNL A   1      36.515  31.437  32.242  1.00  0.00     0.009 A 
ATOM     63  C   UNL A   1      36.709  31.374  29.845  1.00  0.00     0.009 A 
ATOM     64  C   UNL A   1      35.335  32.183  32.117  1.00  0.00     0.001 A 
ATOM     65  C   UNL A   1      35.527  32.109  29.720  1.00  0.00     0.001 A 
ATOM     66  C   UNL A   1      34.847  32.525  30.857  1.00  0.00     0.000 A 
ENDBRANCH  42  61
BRANCH  54  67
ATOM     67  C   UNL A   1      42.802  30.019  33.798  1.00  0.00    -0.014 A 
ATOM     68  C   UNL A   1      42.398  28.672  33.779  1.00  0.00     0.009 A 
ATOM     69  C   UNL A   1      43.234  30.566  35.014  1.00  0.00     0.009 A 
ATOM     70  C   UNL A   1      42.394  27.907  34.949  1.00  0.00     0.001 A 
ATOM     71  C   UNL A   1      43.253  29.796  36.180  1.00  0.00     0.001 A 
ATOM     72  C   UNL A   1      42.827  28.469  36.147  1.00  0.00     0.000 A 
ENDBRANCH  54  67
ENDBRANCH  28  29
ENDBRANCH  21  23
ENDBRANCH  20  21
ENDBRANCH   1  20
TORSDOF 13
ENDMDL
MODEL 2
REMARK VINA RESULT:     -10.0      5.771     10.804
REMARK SMILES Nc1oc(-c2ccccc2)cc1C(=O)OCCOC(=O)c1ccc(-c2c3nc(c(-c4ccccc4)c4ccc([nH]4)c(-c4ccccc4)c4nc(c(-c5ccccc5)c5ccc2[nH]5)C=C4)C=C3)cc1
REMARK SMILES IDX 17 1 16 2 15 3 13 4 14 5 12 6 2 7 3 8 4 9 11 10 1 11 5 14
REMARK SMILES IDX 6 15 10 16 7 17 9 18 8 19 18 20 19 21 20 22 21 23 22 24
REMARK SMILES IDX 68 25 23 26 67 27 24 28 25 29 26 30 61 31 27 32 66 33 60 34
REMARK SMILES IDX 62 35 28 36 65 37 59 38 58 39 29 41 51 42 36 43 50 44 37 45
REMARK SMILES IDX 40 46 49 47 63 48 38 49 39 50 48 52 64 53 41 54 30 55 31 56
REMARK SMILES IDX 35 57 32 58 34 59 33 60 52 61 53 62 57 63 54 64 56 65 55 66
REMARK SMILES IDX 42 67 43 68 47 69 44 70 46 71 45 72
REMARK H PARENT 1 12 1 13 62 40 40 51
REMARK Flexibility Score: inf
ROOT
ATOM      1  C   UNL A   1      32.898  33.269  27.784  1.00  0.00     0.275 C 
ENDROOT
BRANCH   1   2
ATOM      2  C   UNL A   1      33.262  34.580  28.473  1.00  0.00     0.275 C 
BRANCH   2   3
ATOM      3  O   UNL A   1      32.805  34.609  29.835  1.00  0.00    -0.458 OA
BRANCH   3   4
ATOM      4  C   UNL A   1      33.017  35.775  30.523  1.00  0.00     0.343 C 
ATOM      5  O   UNL A   1      32.485  36.844  30.248  1.00  0.00    -0.246 OA
BRANCH   4   6
ATOM      6  C   UNL A   1      33.887  35.575  31.662  1.00  0.00     0.123 A 
ATOM      7  C   UNL A   1      34.375  36.562  32.495  1.00  0.00     0.205 A 
ATOM      8  O   UNL A   1      35.146  36.027  33.476  1.00  0.00    -0.440 OA
ATOM      9  C   UNL A   1      35.178  34.680  33.270  1.00  0.00     0.137 A 
ATOM     10  C   UNL A   1      34.381  34.351  32.196  1.00  0.00     0.069 A 
BRANCH   7  11
ATOM     11  N   UNL A   1      34.242  37.891  32.525  1.00  0.00    -0.369 N 
ATOM     12  H   UNL A   1      33.784  38.357  31.787  1.00  0.00     0.159 HD
ATOM     13  H   UNL A   1      34.602  38.406  33.283  1.00  0.00     0.159 HD
ENDBRANCH   7  11
BRANCH   9  14
ATOM     14  C   UNL A   1      36.067  33.913  34.122  1.00  0.00     0.017 A 
ATOM     15  C   UNL A   1      36.898  32.912  33.607  1.00  0.00     0.012 A 
ATOM     16  C   UNL A   1      36.080  34.168  35.501  1.00  0.00     0.012 A 
ATOM     17  C   UNL A   1      37.726  32.178  34.461  1.00  0.00     0.001 A 
ATOM     18  C   UNL A   1      36.896  33.427  36.354  1.00  0.00     0.001 A 
ATOM     19  C   UNL A   1      37.719  32.432  35.833  1.00  0.00     0.000 A 
ENDBRANCH   9  14
ENDBRANCH   4   6
ENDBRANCH   3   4
ENDBRANCH   2   3
ENDBRANCH   1   2
BRANCH   1  20
ATOM     20  O   UNL A   1      34.056  32.588  27.297  1.00  0.00    -0.458 OA
BRANCH  20  21
ATOM     21  C   UNL A   1      34.117  31.277  27.623  1.00  0.00     0.338 C 
ATOM     22  O   UNL A   1      33.281  30.421  27.395  1.00  0.00    -0.246 OA
BRANCH  21  23
ATOM     23  C   UNL A   1      35.282  31.036  28.476  1.00  0.00     0.060 A 
ATOM     24  C   UNL A   1      35.231  31.485  29.800  1.00  0.00     0.016 A 
ATOM     25  C   UNL A   1      36.481  30.631  27.879  1.00  0.00     0.016 A 
ATOM     26  C   UNL A   1      36.417  31.671  30.486  1.00  0.00     0.010 A 
ATOM     27  C   UNL A   1      37.660  30.821  28.560  1.00  0.00     0.010 A 
ATOM     28  C   UNL A   1      37.621  31.409  29.828  1.00  0.00    -0.014 A 
BRANCH  28  29
ATOM     29  C   UNL A   1      38.873  31.714  30.501  1.00  0.00     0.031 A 
ATOM     30  C   UNL A   1      39.602  30.539  31.046  1.00  0.00     0.074 A 
ATOM     31  C   UNL A   1      39.415  32.946  30.411  1.00  0.00     0.049 A 
ATOM     32  N   UNL A   1      40.179  30.408  32.196  1.00  0.00    -0.248 NA
ATOM     33  C   UNL A   1      39.645  29.325  30.210  1.00  0.00     0.031 C 
ATOM     34  C   UNL A   1      38.904  34.079  29.627  1.00  0.00     0.029 A 
ATOM     35  N   UNL A   1      40.622  33.395  30.855  1.00  0.00    -0.354 N 
ATOM     36  C   UNL A   1      40.797  29.160  32.168  1.00  0.00     0.074 A 
ATOM     37  C   UNL A   1      40.339  28.492  30.979  1.00  0.00     0.031 C 
ATOM     38  C   UNL A   1      39.900  34.969  29.439  1.00  0.00     0.029 A 
ATOM     39  C   UNL A   1      41.068  34.524  30.180  1.00  0.00     0.049 A 
ATOM     40  H   UNL A   1      41.127  32.963  31.581  1.00  0.00     0.167 HD
ATOM     41  C   UNL A   1      41.828  28.843  32.994  1.00  0.00     0.031 A 
ATOM     42  C   UNL A   1      42.332  35.009  30.146  1.00  0.00     0.031 A 
ATOM     43  C   UNL A   1      41.850  29.656  34.177  1.00  0.00     0.049 A 
ATOM     44  C   UNL A   1      43.095  34.388  31.249  1.00  0.00     0.074 A 
ATOM     45  C   UNL A   1      40.970  29.884  35.215  1.00  0.00     0.029 A 
ATOM     46  N   UNL A   1      42.786  30.659  34.249  1.00  0.00    -0.354 N 
ATOM     47  N   UNL A   1      42.890  34.641  32.509  1.00  0.00    -0.248 NA
ATOM     48  C   UNL A   1      43.847  33.174  30.974  1.00  0.00     0.031 C 
ATOM     49  C   UNL A   1      41.153  31.253  35.564  1.00  0.00     0.029 A 
ATOM     50  C   UNL A   1      42.154  31.770  34.741  1.00  0.00     0.049 A 
ATOM     51  H   UNL A   1      43.735  30.591  33.995  1.00  0.00     0.167 HD
ATOM     52  C   UNL A   1      43.102  33.432  33.153  1.00  0.00     0.074 A 
ATOM     53  C   UNL A   1      43.814  32.607  32.183  1.00  0.00     0.031 C 
ATOM     54  C   UNL A   1      42.430  33.119  34.301  1.00  0.00     0.031 A 
BRANCH  41  55
ATOM     55  C   UNL A   1      43.033  28.075  32.511  1.00  0.00    -0.014 A 
ATOM     56  C   UNL A   1      43.683  28.494  31.338  1.00  0.00     0.009 A 
ATOM     57  C   UNL A   1      43.372  26.795  32.999  1.00  0.00     0.009 A 
ATOM     58  C   UNL A   1      44.565  27.648  30.653  1.00  0.00     0.001 A 
ATOM     59  C   UNL A   1      44.285  25.968  32.344  1.00  0.00     0.001 A 
ATOM     60  C   UNL A   1      44.858  26.382  31.152  1.00  0.00     0.000 A 
ENDBRANCH  41  55
BRANCH  42  61
ATOM     61  C   UNL A   1      42.987  35.769  29.060  1.00  0.00    -0.014 A 
ATOM     62  C   UNL A   1      42.499  35.716  27.747  1.00  0.00     0.009 A 
ATOM     63  C   UNL A   1      43.967  36.737  29.356  1.00  0.00     0.009 A 
ATOM     64  C   UNL A   1      42.961  36.610  26.772  1.00  0.00     0.001 A 
ATOM     65  C   UNL A   1      44.436  37.622  28.381  1.00  0.00     0.001 A 
ATOM     66  C   UNL A   1      43.923  37.567  27.091  1.00  0.00     0.000 A 
ENDBRANCH  42  61
BRANCH  54  67
ATOM     67  C   UNL A   1      41.658  34.218  34.988  1.00  0.00    -0.014 A 
ATOM     68  C   UNL A   1      40.412  34.672  34.523  1.00  0.00     0.009 A 
ATOM     69  C   UNL A   1      42.122  34.696  36.222  1.00  0.00     0.009 A 
ATOM     70  C   UNL A   1      39.668  35.603  35.254  1.00  0.00     0.001 A 
ATOM     71  C   UNL A   1      41.369  35.609  36.965  1.00  0.00     0.001 A 
ATOM     72  C   UNL A   1      40.146  36.066  36.477  1.00  0.00     0.000 A 
ENDBRANCH  54  67
ENDBRANCH  28  29
ENDBRANCH  21  23
ENDBRANCH  20  21
ENDBRANCH   1  20
TORSDOF 13
ENDMDL
MODEL 3
REMARK VINA RESULT:     -10.0      4.474     11.051
REMARK SMILES Nc1oc(-c2ccccc2)cc1C(=O)OCCOC(=O)c1ccc(-c2c3nc(c(-c4ccccc4)c4ccc([nH]4)c(-c4ccccc4)c4nc(c(-c5ccccc5)c5ccc2[nH]5)C=C4)C=C3)cc1
REMARK SMILES IDX 17 1 16 2 15 3 13 4 14 5 12 6 2 7 3 8 4 9 11 10 1 11 5 14
REMARK SMILES IDX 6 15 10 16 7 17 9 18 8 19 18 20 19 21 20 22 21 23 22 24
REMARK SMILES IDX 68 25 23 26 67 27 24 28 25 29 26 30 61 31 27 32 66 33 60 34
REMARK SMILES IDX 62 35 28 36 65 37 59 38 58 39 29 41 51 42 36 43 50 44 37 45
REMARK SMILES IDX 40 46 49 47 63 48 38 49 39 50 48 52 64 53 41 54 30 55 31 56
REMARK SMILES IDX 35 57 32 58 34 59 33 60 52 61 53 62 57 63 54 64 56 65 55 66
REMARK SMILES IDX 42 67 43 68 47 69 44 70 46 71 45 72
REMARK H PARENT 1 12 1 13 62 40 40 51
REMARK Flexibility Score: inf
ROOT
ATOM      1  C   UNL A   1      33.447  33.849  28.037  1.00  0.00     0.275 C 
ENDROOT
BRANCH   1   2
ATOM      2  C   UNL A   1      33.166  35.117  28.838  1.00  0.00     0.275 C 
BRANCH   2   3
ATOM      3  O   UNL A   1      32.703  34.817  30.164  1.00  0.00    -0.458 OA
BRANCH   3   4
ATOM      4  C   UNL A   1      32.917  35.778  31.116  1.00  0.00     0.343 C 
ATOM      5  O   UNL A   1      32.176  36.735  31.308  1.00  0.00    -0.246 OA
BRANCH   4   6
ATOM      6  C   UNL A   1      34.084  35.486  31.920  1.00  0.00     0.123 A 
ATOM      7  C   UNL A   1      34.331  35.957  33.194  1.00  0.00     0.205 A 
ATOM      8  O   UNL A   1      35.509  35.473  33.667  1.00  0.00    -0.440 OA
ATOM      9  C   UNL A   1      36.045  34.697  32.684  1.00  0.00     0.137 A 
ATOM     10  C   UNL A   1      35.184  34.637  31.611  1.00  0.00     0.069 A 
BRANCH   7  11
ATOM     11  N   UNL A   1      33.663  36.763  34.024  1.00  0.00    -0.369 N 
ATOM     12  H   UNL A   1      34.076  37.049  34.872  1.00  0.00     0.159 HD
ATOM     13  H   UNL A   1      32.758  37.072  33.790  1.00  0.00     0.159 HD
ENDBRANCH   7  11
BRANCH   9  14
ATOM     14  C   UNL A   1      37.384  34.188  32.915  1.00  0.00     0.017 A 
ATOM     15  C   UNL A   1      37.839  33.869  34.198  1.00  0.00     0.012 A 
ATOM     16  C   UNL A   1      38.252  34.029  31.824  1.00  0.00     0.012 A 
ATOM     17  C   UNL A   1      39.143  33.400  34.386  1.00  0.00     0.001 A 
ATOM     18  C   UNL A   1      39.555  33.575  32.013  1.00  0.00     0.001 A 
ATOM     19  C   UNL A   1      40.001  33.261  33.294  1.00  0.00     0.000 A 
ENDBRANCH   9  14
ENDBRANCH   4   6
ENDBRANCH   3   4
ENDBRANCH   2   3
ENDBRANCH   1   2
BRANCH   1  20
ATOM     20  O   UNL A   1      34.266  32.934  28.768  1.00  0.00    -0.458 OA
BRANCH  20  21
ATOM     21  C   UNL A   1      34.409  31.720  28.189  1.00  0.00     0.338 C 
ATOM     22  O   UNL A   1      33.528  30.921  27.925  1.00  0.00    -0.246 OA
BRANCH  21  23
ATOM     23  C   UNL A   1      35.832  31.395  28.072  1.00  0.00     0.060 A 
ATOM     24  C   UNL A   1      36.179  30.109  27.642  1.00  0.00     0.016 A 
ATOM     25  C   UNL A   1      36.769  32.259  28.649  1.00  0.00     0.016 A 
ATOM     26  C   UNL A   1      37.443  29.630  27.927  1.00  0.00     0.010 A 
ATOM     27  C   UNL A   1      38.025  31.779  28.938  1.00  0.00     0.010 A 
ATOM     28  C   UNL A   1      38.324  30.446  28.642  1.00  0.00    -0.014 A 
BRANCH  28  29
ATOM     29  C   UNL A   1      39.611  29.907  29.048  1.00  0.00     0.031 A 
ATOM     30  C   UNL A   1      39.858  29.892  30.514  1.00  0.00     0.074 A 
ATOM     31  C   UNL A   1      40.394  29.263  28.159  1.00  0.00     0.049 A 
ATOM     32  N   UNL A   1      40.928  30.231  31.157  1.00  0.00    -0.248 NA
ATOM     33  C   UNL A   1      38.734  29.495  31.383  1.00  0.00     0.031 C 
ATOM     34  C   UNL A   1      40.074  28.965  26.756  1.00  0.00     0.029 A 
ATOM     35  N   UNL A   1      41.560  28.587  28.361  1.00  0.00    -0.354 N 
ATOM     36  C   UNL A   1      40.674  29.937  32.494  1.00  0.00     0.074 A 
ATOM     37  C   UNL A   1      39.277  29.602  32.592  1.00  0.00     0.031 C 
ATOM     38  C   UNL A   1      40.876  27.969  26.323  1.00  0.00     0.029 A 
ATOM     39  C   UNL A   1      41.828  27.648  27.373  1.00  0.00     0.049 A 
ATOM     40  H   UNL A   1      42.153  28.748  29.131  1.00  0.00     0.167 HD
ATOM     41  C   UNL A   1      41.671  29.754  33.399  1.00  0.00     0.031 A 
ATOM     42  C   UNL A   1      42.698  26.613  27.444  1.00  0.00     0.031 A 
ATOM     43  C   UNL A   1      42.895  30.388  32.998  1.00  0.00     0.049 A 
ATOM     44  C   UNL A   1      43.612  26.856  28.580  1.00  0.00     0.074 A 
ATOM     45  C   UNL A   1      43.268  31.686  32.713  1.00  0.00     0.029 A 
ATOM     46  N   UNL A   1      43.900  29.590  32.510  1.00  0.00    -0.354 N 
ATOM     47  N   UNL A   1      44.516  27.791  28.600  1.00  0.00    -0.248 NA
ATOM     48  C   UNL A   1      43.268  26.296  29.878  1.00  0.00     0.031 C 
ATOM     49  C   UNL A   1      44.235  31.574  31.673  1.00  0.00     0.029 A 
ATOM     50  C   UNL A   1      44.417  30.217  31.407  1.00  0.00     0.049 A 
ATOM     51  H   UNL A   1      44.195  28.729  32.884  1.00  0.00     0.167 HD
ATOM     52  C   UNL A   1      44.542  28.232  29.915  1.00  0.00     0.074 A 
ATOM     53  C   UNL A   1      43.857  27.191  30.675  1.00  0.00     0.031 C 
ATOM     54  C   UNL A   1      44.861  29.525  30.217  1.00  0.00     0.031 A 
BRANCH  41  55
ATOM     55  C   UNL A   1      41.622  28.656  34.432  1.00  0.00    -0.014 A 
ATOM     56  C   UNL A   1      42.090  28.921  35.731  1.00  0.00     0.009 A 
ATOM     57  C   UNL A   1      41.409  27.301  34.100  1.00  0.00     0.009 A 
ATOM     58  C   UNL A   1      42.398  27.881  36.618  1.00  0.00     0.001 A 
ATOM     59  C   UNL A   1      41.672  26.266  34.999  1.00  0.00     0.001 A 
ATOM     60  C   UNL A   1      42.197  26.555  36.248  1.00  0.00     0.000 A 
ENDBRANCH  41  55
BRANCH  42  61
ATOM     61  C   UNL A   1      42.618  25.307  26.758  1.00  0.00    -0.014 A 
ATOM     62  C   UNL A   1      43.363  25.055  25.597  1.00  0.00     0.009 A 
ATOM     63  C   UNL A   1      41.975  24.214  27.372  1.00  0.00     0.009 A 
ATOM     64  C   UNL A   1      43.476  23.757  25.083  1.00  0.00     0.001 A 
ATOM     65  C   UNL A   1      42.079  22.920  26.854  1.00  0.00     0.001 A 
ATOM     66  C   UNL A   1      42.841  22.689  25.716  1.00  0.00     0.000 A 
ENDBRANCH  42  61
BRANCH  54  67
ATOM     67  C   UNL A   1      45.436  30.385  29.119  1.00  0.00    -0.014 A 
ATOM     68  C   UNL A   1      44.630  31.056  28.182  1.00  0.00     0.009 A 
ATOM     69  C   UNL A   1      46.812  30.654  29.125  1.00  0.00     0.009 A 
ATOM     70  C   UNL A   1      45.190  31.943  27.258  1.00  0.00     0.001 A 
ATOM     71  C   UNL A   1      47.369  31.557  28.217  1.00  0.00     0.001 A 
ATOM     72  C   UNL A   1      46.559  32.195  27.280  1.00  0.00     0.000 A 
ENDBRANCH  54  67
ENDBRANCH  28  29
ENDBRANCH  21  23
ENDBRANCH  20  21
ENDBRANCH   1  20
TORSDOF 13
ENDMDL
