MODEL 1
REMARK VINA RESULT:     -11.4      0.000      0.000
REMARK SMILES O=C(OCCOC(=O)[C@@H]1C=C[C@H](NC(=O)[C@@H]2Cc3ccccc3O2)C1)c1ccc(-c2c3nc(c(-c4ccccc4)c4ccc([nH]4)c(-c4ccccc4)c4nc(c(-c5ccccc5)c5ccc2[nH]5)C=C4)C=C3)cc1
REMARK SMILES IDX 4 1 3 2 2 3 1 4 26 5 27 6 73 7 28 8 72 9 29 10 30 11 31 12
REMARK SMILES IDX 66 13 32 14 71 15 65 16 67 17 33 18 70 19 64 20 63 21 34 23
REMARK SMILES IDX 56 24 41 25 55 26 42 27 45 28 54 29 68 30 43 31 44 32 53 34
REMARK SMILES IDX 69 35 46 36 35 37 36 38 40 39 37 40 39 41 38 42 57 43 58 44
REMARK SMILES IDX 62 45 59 46 61 47 60 48 47 49 48 50 52 51 49 52 51 53 50 54
REMARK SMILES IDX 5 55 6 56 7 57 8 58 9 59 10 60 25 61 11 62 12 63 13 64 14 65
REMARK SMILES IDX 15 67 16 68 17 69 24 70 18 71 23 72 19 73 22 74 20 75 21 76
REMARK H PARENT 67 22 45 33 13 66
REMARK Flexibility Score: inf
ROOT
ATOM      1  C   UNL A   1      33.686  30.650  27.078  1.00  0.00     0.275 C 
ENDROOT
BRANCH   1   2
ATOM      2  O   UNL A   1      34.495  29.869  27.972  1.00  0.00    -0.458 OA
BRANCH   2   3
ATOM      3  C   UNL A   1      35.390  30.450  28.808  1.00  0.00     0.338 C 
ATOM      4  O   UNL A   1      35.219  31.560  29.293  1.00  0.00    -0.246 OA
BRANCH   3   5
ATOM      5  C   UNL A   1      36.732  29.827  28.853  1.00  0.00     0.060 A 
ATOM      6  C   UNL A   1      37.283  29.324  30.031  1.00  0.00     0.016 A 
ATOM      7  C   UNL A   1      37.489  29.825  27.675  1.00  0.00     0.016 A 
ATOM      8  C   UNL A   1      38.547  28.746  30.016  1.00  0.00     0.010 A 
ATOM      9  C   UNL A   1      38.761  29.244  27.656  1.00  0.00     0.010 A 
ATOM     10  C   UNL A   1      39.296  28.708  28.833  1.00  0.00    -0.014 A 
BRANCH  10  11
ATOM     11  C   UNL A   1      40.704  28.277  28.936  1.00  0.00     0.031 A 
ATOM     12  C   UNL A   1      41.024  26.849  28.613  1.00  0.00     0.074 A 
ATOM     13  C   UNL A   1      41.682  29.179  29.129  1.00  0.00     0.049 A 
ATOM     14  N   UNL A   1      42.171  26.313  28.298  1.00  0.00    -0.248 NA
ATOM     15  C   UNL A   1      39.891  25.907  28.611  1.00  0.00     0.031 C 
ATOM     16  C   UNL A   1      41.477  30.593  29.439  1.00  0.00     0.029 A 
ATOM     17  N   UNL A   1      43.044  29.047  29.045  1.00  0.00    -0.354 N 
ATOM     18  C   UNL A   1      41.889  24.988  28.001  1.00  0.00     0.074 A 
ATOM     19  C   UNL A   1      40.479  24.782  28.240  1.00  0.00     0.031 C 
ATOM     20  C   UNL A   1      42.672  31.208  29.487  1.00  0.00     0.029 A 
ATOM     21  C   UNL A   1      43.720  30.234  29.194  1.00  0.00     0.049 A 
ATOM     22  H   UNL A   1      43.495  28.185  28.891  1.00  0.00     0.167 HD
ATOM     23  C   UNL A   1      42.724  24.032  27.538  1.00  0.00     0.031 A 
ATOM     24  C   UNL A   1      45.033  30.506  29.065  1.00  0.00     0.031 A 
ATOM     25  C   UNL A   1      44.136  24.220  27.369  1.00  0.00     0.049 A 
ATOM     26  C   UNL A   1      45.958  29.405  28.623  1.00  0.00     0.074 A 
ATOM     27  C   UNL A   1      45.096  23.305  26.982  1.00  0.00     0.029 A 
ATOM     28  N   UNL A   1      44.791  25.421  27.599  1.00  0.00    -0.354 N 
ATOM     29  N   UNL A   1      45.670  28.168  28.292  1.00  0.00    -0.248 NA
ATOM     30  C   UNL A   1      47.383  29.744  28.511  1.00  0.00     0.031 C 
ATOM     31  C   UNL A   1      46.340  23.946  27.010  1.00  0.00     0.029 A 
ATOM     32  C   UNL A   1      46.146  25.270  27.379  1.00  0.00     0.049 A 
ATOM     33  H   UNL A   1      44.354  26.258  27.879  1.00  0.00     0.167 HD
ATOM     34  C   UNL A   1      46.874  27.585  27.919  1.00  0.00     0.074 A 
ATOM     35  C   UNL A   1      47.891  28.613  28.040  1.00  0.00     0.031 C 
ATOM     36  C   UNL A   1      47.125  26.315  27.517  1.00  0.00     0.031 A 
BRANCH  23  37
ATOM     37  C   UNL A   1      42.100  22.710  27.209  1.00  0.00    -0.014 A 
ATOM     38  C   UNL A   1      41.384  22.542  26.011  1.00  0.00     0.009 A 
ATOM     39  C   UNL A   1      42.159  21.651  28.124  1.00  0.00     0.009 A 
ATOM     40  C   UNL A   1      40.708  21.348  25.755  1.00  0.00     0.001 A 
ATOM     41  C   UNL A   1      41.495  20.452  27.856  1.00  0.00     0.001 A 
ATOM     42  C   UNL A   1      40.762  20.306  26.679  1.00  0.00     0.000 A 
ENDBRANCH  23  37
BRANCH  24  43
ATOM     43  C   UNL A   1      45.544  31.879  29.320  1.00  0.00    -0.014 A 
ATOM     44  C   UNL A   1      45.732  32.787  28.267  1.00  0.00     0.009 A 
ATOM     45  C   UNL A   1      45.865  32.281  30.627  1.00  0.00     0.009 A 
ATOM     46  C   UNL A   1      46.254  34.060  28.515  1.00  0.00     0.001 A 
ATOM     47  C   UNL A   1      46.366  33.561  30.874  1.00  0.00     0.001 A 
ATOM     48  C   UNL A   1      46.568  34.448  29.818  1.00  0.00     0.000 A 
ENDBRANCH  24  43
BRANCH  36  49
ATOM     49  C   UNL A   1      48.548  25.978  27.188  1.00  0.00    -0.014 A 
ATOM     50  C   UNL A   1      49.068  26.234  25.910  1.00  0.00     0.009 A 
ATOM     51  C   UNL A   1      49.386  25.442  28.176  1.00  0.00     0.009 A 
ATOM     52  C   UNL A   1      50.399  25.931  25.621  1.00  0.00     0.001 A 
ATOM     53  C   UNL A   1      50.722  25.160  27.889  1.00  0.00     0.001 A 
ATOM     54  C   UNL A   1      51.225  25.398  26.611  1.00  0.00     0.000 A 
ENDBRANCH  36  49
ENDBRANCH  10  11
ENDBRANCH   3   5
ENDBRANCH   2   3
ENDBRANCH   1   2
BRANCH   1  55
ATOM     55  C   UNL A   1      32.325  30.008  26.824  1.00  0.00     0.274 C 
BRANCH  55  56
ATOM     56  O   UNL A   1      32.394  28.570  26.777  1.00  0.00    -0.462 OA
BRANCH  56  57
ATOM     57  C   UNL A   1      32.137  28.029  25.548  1.00  0.00     0.312 C 
ATOM     58  O   UNL A   1      32.806  28.248  24.546  1.00  0.00    -0.252 OA
BRANCH  57  59
ATOM     59  C   UNL A   1      30.894  27.145  25.564  1.00  0.00     0.124 C 
ATOM     60  C   UNL A   1      31.161  25.698  25.843  1.00  0.00    -0.014 C 
ATOM     61  C   UNL A   1      30.240  27.060  24.173  1.00  0.00     0.048 C 
ATOM     62  C   UNL A   1      31.022  24.922  24.762  1.00  0.00    -0.006 C 
ATOM     63  C   UNL A   1      30.683  25.719  23.565  1.00  0.00     0.106 C 
BRANCH  63  64
ATOM     64  N   UNL A   1      31.760  25.832  22.591  1.00  0.00    -0.347 N 
ATOM     65  C   UNL A   1      33.044  25.402  22.444  1.00  0.00     0.261 C 
ATOM     66  H   UNL A   1      31.479  26.374  21.820  1.00  0.00     0.164 HD
ATOM     67  O   UNL A   1      33.643  25.850  21.456  1.00  0.00    -0.271 OA
BRANCH  65  68
ATOM     68  C   UNL A   1      33.725  24.399  23.380  1.00  0.00     0.266 C 
ATOM     69  C   UNL A   1      34.446  25.119  24.525  1.00  0.00     0.095 C 
ATOM     70  O   UNL A   1      34.712  23.599  22.673  1.00  0.00    -0.480 OA
ATOM     71  C   UNL A   1      35.532  24.141  24.756  1.00  0.00    -0.002 A 
ATOM     72  C   UNL A   1      35.639  23.318  23.648  1.00  0.00     0.123 A 
ATOM     73  C   UNL A   1      36.371  23.989  25.844  1.00  0.00     0.008 A 
ATOM     74  C   UNL A   1      36.586  22.318  23.576  1.00  0.00     0.047 A 
ATOM     75  C   UNL A   1      37.315  22.962  25.807  1.00  0.00     0.001 A 
ATOM     76  C   UNL A   1      37.426  22.135  24.678  1.00  0.00     0.004 A 
ENDBRANCH  65  68
ENDBRANCH  63  64
ENDBRANCH  57  59
ENDBRANCH  56  57
ENDBRANCH  55  56
ENDBRANCH   1  55
TORSDOF 13
ENDMDL
MODEL 2
REMARK VINA RESULT:     -11.2      2.319      7.325
REMARK SMILES O=C(OCCOC(=O)[C@@H]1C=C[C@H](NC(=O)[C@@H]2Cc3ccccc3O2)C1)c1ccc(-c2c3nc(c(-c4ccccc4)c4ccc([nH]4)c(-c4ccccc4)c4nc(c(-c5ccccc5)c5ccc2[nH]5)C=C4)C=C3)cc1
REMARK SMILES IDX 4 1 3 2 2 3 1 4 26 5 27 6 73 7 28 8 72 9 29 10 30 11 31 12
REMARK SMILES IDX 66 13 32 14 71 15 65 16 67 17 33 18 70 19 64 20 63 21 34 23
REMARK SMILES IDX 56 24 41 25 55 26 42 27 45 28 54 29 68 30 43 31 44 32 53 34
REMARK SMILES IDX 69 35 46 36 35 37 36 38 40 39 37 40 39 41 38 42 57 43 58 44
REMARK SMILES IDX 62 45 59 46 61 47 60 48 47 49 48 50 52 51 49 52 51 53 50 54
REMARK SMILES IDX 5 55 6 56 7 57 8 58 9 59 10 60 25 61 11 62 12 63 13 64 14 65
REMARK SMILES IDX 15 67 16 68 17 69 24 70 18 71 23 72 19 73 22 74 20 75 21 76
REMARK H PARENT 67 22 45 33 13 66
REMARK Flexibility Score: inf
ROOT
ATOM      1  C   UNL A   1      37.378  21.705  24.461  1.00  0.00     0.275 C 
ENDROOT
BRANCH   1   2
ATOM      2  O   UNL A   1      37.824  21.773  25.825  1.00  0.00    -0.458 OA
BRANCH   2   3
ATOM      3  C   UNL A   1      39.143  21.778  26.140  1.00  0.00     0.338 C 
ATOM      4  O   UNL A   1      39.826  20.763  26.144  1.00  0.00    -0.246 OA
BRANCH   3   5
ATOM      5  C   UNL A   1      39.647  23.007  26.792  1.00  0.00     0.060 A 
ATOM      6  C   UNL A   1      39.154  24.273  26.483  1.00  0.00     0.016 A 
ATOM      7  C   UNL A   1      40.714  22.876  27.691  1.00  0.00     0.016 A 
ATOM      8  C   UNL A   1      39.662  25.394  27.129  1.00  0.00     0.010 A 
ATOM      9  C   UNL A   1      41.229  24.002  28.342  1.00  0.00     0.010 A 
ATOM     10  C   UNL A   1      40.705  25.268  28.056  1.00  0.00    -0.014 A 
BRANCH  10  11
ATOM     11  C   UNL A   1      41.336  26.511  28.540  1.00  0.00     0.031 A 
ATOM     12  C   UNL A   1      42.692  26.861  28.007  1.00  0.00     0.074 A 
ATOM     13  C   UNL A   1      40.638  27.386  29.285  1.00  0.00     0.049 A 
ATOM     14  N   UNL A   1      43.300  28.016  27.996  1.00  0.00    -0.248 NA
ATOM     15  C   UNL A   1      43.448  25.769  27.370  1.00  0.00     0.031 C 
ATOM     16  C   UNL A   1      39.308  27.147  29.844  1.00  0.00     0.029 A 
ATOM     17  N   UNL A   1      40.933  28.672  29.659  1.00  0.00    -0.354 N 
ATOM     18  C   UNL A   1      44.480  27.804  27.299  1.00  0.00     0.074 A 
ATOM     19  C   UNL A   1      44.538  26.399  26.964  1.00  0.00     0.031 C 
ATOM     20  C   UNL A   1      38.886  28.263  30.463  1.00  0.00     0.029 A 
ATOM     21  C   UNL A   1      39.909  29.297  30.328  1.00  0.00     0.049 A 
ATOM     22  H   UNL A   1      41.796  29.106  29.465  1.00  0.00     0.167 HD
ATOM     23  C   UNL A   1      45.419  28.706  26.939  1.00  0.00     0.031 A 
ATOM     24  C   UNL A   1      39.798  30.573  30.744  1.00  0.00     0.031 A 
ATOM     25  C   UNL A   1      45.394  30.084  27.333  1.00  0.00     0.049 A 
ATOM     26  C   UNL A   1      40.895  31.543  30.399  1.00  0.00     0.074 A 
ATOM     27  C   UNL A   1      46.328  31.074  27.097  1.00  0.00     0.029 A 
ATOM     28  N   UNL A   1      44.371  30.660  28.072  1.00  0.00    -0.354 N 
ATOM     29  N   UNL A   1      41.981  31.343  29.691  1.00  0.00    -0.248 NA
ATOM     30  C   UNL A   1      40.737  32.921  30.887  1.00  0.00     0.031 C 
ATOM     31  C   UNL A   1      45.883  32.245  27.722  1.00  0.00     0.029 A 
ATOM     32  C   UNL A   1      44.655  31.990  28.315  1.00  0.00     0.049 A 
ATOM     33  H   UNL A   1      43.561  30.190  28.378  1.00  0.00     0.167 HD
ATOM     34  C   UNL A   1      42.629  32.569  29.636  1.00  0.00     0.074 A 
ATOM     35  C   UNL A   1      41.800  33.513  30.361  1.00  0.00     0.031 C 
ATOM     36  C   UNL A   1      43.806  32.893  29.046  1.00  0.00     0.031 A 
BRANCH  23  37
ATOM     37  C   UNL A   1      46.543  28.189  26.093  1.00  0.00    -0.014 A 
ATOM     38  C   UNL A   1      46.438  28.198  24.691  1.00  0.00     0.009 A 
ATOM     39  C   UNL A   1      47.678  27.625  26.689  1.00  0.00     0.009 A 
ATOM     40  C   UNL A   1      47.433  27.616  23.905  1.00  0.00     0.001 A 
ATOM     41  C   UNL A   1      48.679  27.057  25.898  1.00  0.00     0.001 A 
ATOM     42  C   UNL A   1      48.551  27.044  24.509  1.00  0.00     0.000 A 
ENDBRANCH  23  37
BRANCH  24  43
ATOM     43  C   UNL A   1      38.594  31.015  31.496  1.00  0.00    -0.014 A 
ATOM     44  C   UNL A   1      37.477  31.543  30.829  1.00  0.00     0.009 A 
ATOM     45  C   UNL A   1      38.565  30.926  32.898  1.00  0.00     0.009 A 
ATOM     46  C   UNL A   1      36.369  31.995  31.552  1.00  0.00     0.001 A 
ATOM     47  C   UNL A   1      37.447  31.358  33.615  1.00  0.00     0.001 A 
ATOM     48  C   UNL A   1      36.353  31.899  32.943  1.00  0.00     0.000 A 
ENDBRANCH  24  43
BRANCH  36  49
ATOM     49  C   UNL A   1      44.256  34.318  29.169  1.00  0.00    -0.014 A 
ATOM     50  C   UNL A   1      45.139  34.705  30.189  1.00  0.00     0.009 A 
ATOM     51  C   UNL A   1      43.829  35.270  28.232  1.00  0.00     0.009 A 
ATOM     52  C   UNL A   1      45.565  36.031  30.283  1.00  0.00     0.001 A 
ATOM     53  C   UNL A   1      44.273  36.589  28.317  1.00  0.00     0.001 A 
ATOM     54  C   UNL A   1      45.134  36.970  29.346  1.00  0.00     0.000 A 
ENDBRANCH  36  49
ENDBRANCH  10  11
ENDBRANCH   3   5
ENDBRANCH   2   3
ENDBRANCH   1   2
BRANCH   1  55
ATOM     55  C   UNL A   1      36.709  23.000  24.009  1.00  0.00     0.274 C 
BRANCH  55  56
ATOM     56  O   UNL A   1      35.611  22.767  23.107  1.00  0.00    -0.462 OA
BRANCH  56  57
ATOM     57  C   UNL A   1      34.376  22.812  23.692  1.00  0.00     0.312 C 
ATOM     58  O   UNL A   1      34.181  22.710  24.897  1.00  0.00    -0.252 OA
BRANCH  57  59
ATOM     59  C   UNL A   1      33.263  22.968  22.661  1.00  0.00     0.124 C 
ATOM     60  C   UNL A   1      32.780  24.373  22.471  1.00  0.00    -0.014 C 
ATOM     61  C   UNL A   1      31.968  22.271  23.114  1.00  0.00     0.048 C 
ATOM     62  C   UNL A   1      31.568  24.585  22.995  1.00  0.00    -0.006 C 
ATOM     63  C   UNL A   1      31.050  23.374  23.665  1.00  0.00     0.106 C 
BRANCH  63  64
ATOM     64  N   UNL A   1      31.020  23.455  25.119  1.00  0.00    -0.347 N 
ATOM     65  C   UNL A   1      31.327  24.357  26.092  1.00  0.00     0.261 C 
ATOM     66  H   UNL A   1      30.682  22.617  25.509  1.00  0.00     0.164 HD
ATOM     67  O   UNL A   1      31.237  23.937  27.253  1.00  0.00    -0.271 OA
BRANCH  65  68
ATOM     68  C   UNL A   1      31.712  25.815  25.817  1.00  0.00     0.266 C 
ATOM     69  C   UNL A   1      33.228  26.010  25.927  1.00  0.00     0.095 C 
ATOM     70  O   UNL A   1      31.082  26.718  26.768  1.00  0.00    -0.480 OA
ATOM     71  C   UNL A   1      33.241  27.421  26.375  1.00  0.00    -0.002 A 
ATOM     72  C   UNL A   1      31.986  27.749  26.861  1.00  0.00     0.123 A 
ATOM     73  C   UNL A   1      34.270  28.343  26.371  1.00  0.00     0.008 A 
ATOM     74  C   UNL A   1      31.709  29.002  27.366  1.00  0.00     0.047 A 
ATOM     75  C   UNL A   1      34.003  29.628  26.846  1.00  0.00     0.001 A 
ATOM     76  C   UNL A   1      32.732  29.954  27.345  1.00  0.00     0.004 A 
ENDBRANCH  65  68
ENDBRANCH  63  64
ENDBRANCH  57  59
ENDBRANCH  56  57
ENDBRANCH  55  56
ENDBRANCH   1  55
TORSDOF 13
ENDMDL
MODEL 3
REMARK VINA RESULT:     -11.2      4.242      9.245
REMARK SMILES O=C(OCCOC(=O)[C@@H]1C=C[C@H](NC(=O)[C@@H]2Cc3ccccc3O2)C1)c1ccc(-c2c3nc(c(-c4ccccc4)c4ccc([nH]4)c(-c4ccccc4)c4nc(c(-c5ccccc5)c5ccc2[nH]5)C=C4)C=C3)cc1
REMARK SMILES IDX 4 1 3 2 2 3 1 4 26 5 27 6 73 7 28 8 72 9 29 10 30 11 31 12
REMARK SMILES IDX 66 13 32 14 71 15 65 16 67 17 33 18 70 19 64 20 63 21 34 23
REMARK SMILES IDX 56 24 41 25 55 26 42 27 45 28 54 29 68 30 43 31 44 32 53 34
REMARK SMILES IDX 69 35 46 36 35 37 36 38 40 39 37 40 39 41 38 42 57 43 58 44
REMARK SMILES IDX 62 45 59 46 61 47 60 48 47 49 48 50 52 51 49 52 51 53 50 54
REMARK SMILES IDX 5 55 6 56 7 57 8 58 9 59 10 60 25 61 11 62 12 63 13 64 14 65
REMARK SMILES IDX 15 67 16 68 17 69 24 70 18 71 23 72 19 73 22 74 20 75 21 76
REMARK H PARENT 67 22 45 33 13 66
REMARK Flexibility Score: inf
ROOT
ATOM      1  C   UNL A   1      38.917  21.731  26.118  1.00  0.00     0.275 C 
ENDROOT
BRANCH   1   2
ATOM      2  O   UNL A   1      39.056  23.140  26.361  1.00  0.00    -0.458 OA
BRANCH   2   3
ATOM      3  C   UNL A   1      40.276  23.723  26.469  1.00  0.00     0.338 C 
ATOM      4  O   UNL A   1      41.317  23.126  26.236  1.00  0.00    -0.246 OA
BRANCH   3   5
ATOM      5  C   UNL A   1      40.314  25.013  27.193  1.00  0.00     0.060 A 
ATOM      6  C   UNL A   1      41.238  26.012  26.890  1.00  0.00     0.016 A 
ATOM      7  C   UNL A   1      39.435  25.181  28.271  1.00  0.00     0.016 A 
ATOM      8  C   UNL A   1      41.227  27.207  27.601  1.00  0.00     0.010 A 
ATOM      9  C   UNL A   1      39.422  26.382  28.988  1.00  0.00     0.010 A 
ATOM     10  C   UNL A   1      40.326  27.397  28.657  1.00  0.00    -0.014 A 
BRANCH  10  11
ATOM     11  C   UNL A   1      40.513  28.595  29.500  1.00  0.00     0.031 A 
ATOM     12  C   UNL A   1      39.481  29.678  29.415  1.00  0.00     0.074 A 
ATOM     13  C   UNL A   1      41.472  28.624  30.441  1.00  0.00     0.049 A 
ATOM     14  N   UNL A   1      39.224  30.638  30.261  1.00  0.00    -0.248 NA
ATOM     15  C   UNL A   1      38.598  29.652  28.236  1.00  0.00     0.031 C 
ATOM     16  C   UNL A   1      42.517  27.616  30.614  1.00  0.00     0.029 A 
ATOM     17  N   UNL A   1      41.692  29.514  31.461  1.00  0.00    -0.354 N 
ATOM     18  C   UNL A   1      38.113  31.292  29.748  1.00  0.00     0.074 A 
ATOM     19  C   UNL A   1      37.788  30.667  28.486  1.00  0.00     0.031 C 
ATOM     20  C   UNL A   1      43.250  27.926  31.698  1.00  0.00     0.029 A 
ATOM     21  C   UNL A   1      42.713  29.143  32.302  1.00  0.00     0.049 A 
ATOM     22  H   UNL A   1      41.167  30.339  31.579  1.00  0.00     0.167 HD
ATOM     23  C   UNL A   1      37.404  32.304  30.295  1.00  0.00     0.031 A 
ATOM     24  C   UNL A   1      43.134  29.702  33.452  1.00  0.00     0.031 A 
ATOM     25  C   UNL A   1      37.771  32.967  31.512  1.00  0.00     0.049 A 
ATOM     26  C   UNL A   1      42.376  30.879  34.003  1.00  0.00     0.074 A 
ATOM     27  C   UNL A   1      37.177  34.055  32.123  1.00  0.00     0.029 A 
ATOM     28  N   UNL A   1      38.855  32.603  32.297  1.00  0.00    -0.354 N 
ATOM     29  N   UNL A   1      41.293  31.455  33.537  1.00  0.00    -0.248 NA
ATOM     30  C   UNL A   1      42.881  31.465  35.253  1.00  0.00     0.031 C 
ATOM     31  C   UNL A   1      37.924  34.369  33.265  1.00  0.00     0.029 A 
ATOM     32  C   UNL A   1      38.960  33.453  33.381  1.00  0.00     0.049 A 
ATOM     33  H   UNL A   1      39.461  31.850  32.109  1.00  0.00     0.167 HD
ATOM     34  C   UNL A   1      40.979  32.461  34.440  1.00  0.00     0.074 A 
ATOM     35  C   UNL A   1      41.972  32.399  35.496  1.00  0.00     0.031 C 
ATOM     36  C   UNL A   1      39.966  33.361  34.405  1.00  0.00     0.031 A 
BRANCH  23  37
ATOM     37  C   UNL A   1      36.181  32.736  29.545  1.00  0.00    -0.014 A 
ATOM     38  C   UNL A   1      35.027  31.932  29.546  1.00  0.00     0.009 A 
ATOM     39  C   UNL A   1      36.198  33.907  28.776  1.00  0.00     0.009 A 
ATOM     40  C   UNL A   1      33.928  32.276  28.759  1.00  0.00     0.001 A 
ATOM     41  C   UNL A   1      35.089  34.256  28.002  1.00  0.00     0.001 A 
ATOM     42  C   UNL A   1      33.960  33.436  27.986  1.00  0.00     0.000 A 
ENDBRANCH  23  37
BRANCH  24  43
ATOM     43  C   UNL A   1      44.304  29.138  34.177  1.00  0.00    -0.014 A 
ATOM     44  C   UNL A   1      44.137  28.158  35.167  1.00  0.00     0.009 A 
ATOM     45  C   UNL A   1      45.600  29.597  33.890  1.00  0.00     0.009 A 
ATOM     46  C   UNL A   1      45.241  27.667  35.871  1.00  0.00     0.001 A 
ATOM     47  C   UNL A   1      46.703  29.089  34.580  1.00  0.00     0.001 A 
ATOM     48  C   UNL A   1      46.523  28.130  35.575  1.00  0.00     0.000 A 
ENDBRANCH  24  43
BRANCH  36  49
ATOM     49  C   UNL A   1      39.894  34.344  35.535  1.00  0.00    -0.014 A 
ATOM     50  C   UNL A   1      39.248  34.010  36.735  1.00  0.00     0.009 A 
ATOM     51  C   UNL A   1      40.515  35.596  35.414  1.00  0.00     0.009 A 
ATOM     52  C   UNL A   1      39.203  34.927  37.786  1.00  0.00     0.001 A 
ATOM     53  C   UNL A   1      40.485  36.501  36.474  1.00  0.00     0.001 A 
ATOM     54  C   UNL A   1      39.824  36.169  37.656  1.00  0.00     0.000 A 
ENDBRANCH  36  49
ENDBRANCH  10  11
ENDBRANCH   3   5
ENDBRANCH   2   3
ENDBRANCH   1   2
BRANCH   1  55
ATOM     55  C   UNL A   1      37.805  21.428  25.116  1.00  0.00     0.274 C 
BRANCH  55  56
ATOM     56  O   UNL A   1      36.517  21.297  25.745  1.00  0.00    -0.462 OA
BRANCH  56  57
ATOM     57  C   UNL A   1      35.470  21.760  24.998  1.00  0.00     0.312 C 
ATOM     58  O   UNL A   1      34.462  21.111  24.748  1.00  0.00    -0.252 OA
BRANCH  57  59
ATOM     59  C   UNL A   1      35.722  23.172  24.479  1.00  0.00     0.124 C 
ATOM     60  C   UNL A   1      35.585  24.249  25.510  1.00  0.00    -0.014 C 
ATOM     61  C   UNL A   1      34.651  23.602  23.461  1.00  0.00     0.048 C 
ATOM     62  C   UNL A   1      34.479  24.986  25.355  1.00  0.00    -0.006 C 
ATOM     63  C   UNL A   1      33.663  24.501  24.223  1.00  0.00     0.106 C 
BRANCH  63  64
ATOM     64  N   UNL A   1      32.428  23.835  24.611  1.00  0.00    -0.347 N 
ATOM     65  C   UNL A   1      31.251  24.153  25.218  1.00  0.00     0.261 C 
ATOM     66  H   UNL A   1      32.451  22.883  24.364  1.00  0.00     0.164 HD
ATOM     67  O   UNL A   1      30.496  23.197  25.445  1.00  0.00    -0.271 OA
BRANCH  65  68
ATOM     68  C   UNL A   1      30.826  25.582  25.569  1.00  0.00     0.266 C 
ATOM     69  C   UNL A   1      31.133  26.544  24.415  1.00  0.00     0.095 C 
ATOM     70  O   UNL A   1      31.529  26.070  26.746  1.00  0.00    -0.480 OA
ATOM     71  C   UNL A   1      31.365  27.774  25.204  1.00  0.00    -0.002 A 
ATOM     72  C   UNL A   1      31.603  27.424  26.523  1.00  0.00     0.123 A 
ATOM     73  C   UNL A   1      31.380  29.096  24.800  1.00  0.00     0.008 A 
ATOM     74  C   UNL A   1      31.872  28.372  27.487  1.00  0.00     0.047 A 
ATOM     75  C   UNL A   1      31.616  30.075  25.766  1.00  0.00     0.001 A 
ATOM     76  C   UNL A   1      31.866  29.716  27.101  1.00  0.00     0.004 A 
ENDBRANCH  65  68
ENDBRANCH  63  64
ENDBRANCH  57  59
ENDBRANCH  56  57
ENDBRANCH  55  56
ENDBRANCH   1  55
TORSDOF 13
ENDMDL
