MODEL 1
REMARK VINA RESULT:     -11.0      0.000      0.000
REMARK SMILES CC1=C(C)C[C@@H](C(=O)N[C@H](C)C(C)(C)C)[C@@H](C(=O)OCCOC(=O)c2ccc(-c3c4nc(c(-c5ccccc5)c5ccc([nH]5)c(-c5ccccc5)c5nc(c(-c6ccccc6)c6ccc3[nH]6)C=C5)C=C4)cc2)C1
REMARK SMILES IDX 20 1 19 2 17 3 18 4 16 5 1 6 2 7 3 8 73 9 4 10 5 11 6 12
REMARK SMILES IDX 7 13 8 14 9 15 10 17 11 18 12 19 13 20 14 21 15 22 21 23
REMARK SMILES IDX 22 24 23 25 24 26 25 27 26 28 72 29 27 30 71 31 28 32 29 33
REMARK SMILES IDX 30 34 65 35 31 36 70 37 64 38 66 39 32 40 69 41 63 42 62 43
REMARK SMILES IDX 33 45 55 46 40 47 54 48 41 49 44 50 53 51 67 52 42 53 43 54
REMARK SMILES IDX 52 56 68 57 45 58 34 59 35 60 39 61 36 62 38 63 37 64 56 65
REMARK SMILES IDX 57 66 61 67 58 68 60 69 59 70 46 71 47 72 51 73 48 74 50 75
REMARK SMILES IDX 49 76
REMARK H PARENT 9 16 66 44 44 55
REMARK Flexibility Score: inf
ROOT
ATOM      1  C   UNL A   1      32.902  31.643  27.567  1.00  0.00     0.274 C 
ENDROOT
BRANCH   1   2
ATOM      2  O   UNL A   1      33.374  30.831  26.468  1.00  0.00    -0.462 OA
BRANCH   2   3
ATOM      3  C   UNL A   1      32.663  29.701  26.282  1.00  0.00     0.310 C 
ATOM      4  O   UNL A   1      32.958  28.632  26.815  1.00  0.00    -0.252 OA
BRANCH   3   5
ATOM      5  C   UNL A   1      31.399  29.807  25.418  1.00  0.00     0.116 C 
ATOM      6  C   UNL A   1      28.037  32.381  23.503  1.00  0.00     0.039 C 
ATOM      7  C   UNL A   1      29.007  31.231  23.524  1.00  0.00    -0.073 C 
ATOM      8  C   UNL A   1      29.046  30.117  22.432  1.00  0.00    -0.074 C 
ATOM      9  C   UNL A   1      30.245  31.342  25.029  1.00  0.00     0.046 C 
ATOM     10  C   UNL A   1      28.148  30.079  21.228  1.00  0.00     0.039 C 
ATOM     11  C   UNL A   1      30.148  28.512  22.584  1.00  0.00     0.045 C 
ATOM     12  C   UNL A   1      31.522  28.447  23.999  1.00  0.00     0.097 C 
BRANCH  12  13
ATOM     13  C   UNL A   1      32.975  28.367  23.616  1.00  0.00     0.224 C 
ATOM     14  O   UNL A   1      33.727  29.326  23.521  1.00  0.00    -0.275 OA
ATOM     15  N   UNL A   1      33.367  27.084  23.360  1.00  0.00    -0.353 N 
ATOM     16  H   UNL A   1      34.114  26.904  22.745  1.00  0.00     0.163 HD
BRANCH  15  17
ATOM     17  C   UNL A   1      32.673  25.999  24.001  1.00  0.00     0.084 C 
ATOM     18  C   UNL A   1      32.815  25.870  25.533  1.00  0.00     0.031 C 
BRANCH  17  19
ATOM     19  C   UNL A   1      32.442  24.619  22.969  1.00  0.00    -0.018 C 
ATOM     20  C   UNL A   1      30.708  24.527  23.347  1.00  0.00     0.013 C 
ATOM     21  C   UNL A   1      31.995  25.684  21.611  1.00  0.00     0.013 C 
ATOM     22  C   UNL A   1      33.752  22.931  22.765  1.00  0.00     0.013 C 
ENDBRANCH  17  19
ENDBRANCH  15  17
ENDBRANCH  12  13
ENDBRANCH   3   5
ENDBRANCH   2   3
ENDBRANCH   1   2
BRANCH   1  23
ATOM     23  C   UNL A   1      32.843  33.136  27.237  1.00  0.00     0.275 C 
BRANCH  23  24
ATOM     24  O   UNL A   1      32.235  33.903  28.290  1.00  0.00    -0.458 OA
BRANCH  24  25
ATOM     25  C   UNL A   1      33.041  34.836  28.851  1.00  0.00     0.338 C 
ATOM     26  O   UNL A   1      32.754  35.988  29.131  1.00  0.00    -0.246 OA
BRANCH  25  27
ATOM     27  C   UNL A   1      34.295  34.198  29.286  1.00  0.00     0.060 A 
ATOM     28  C   UNL A   1      34.226  33.325  30.377  1.00  0.00     0.016 A 
ATOM     29  C   UNL A   1      35.515  34.453  28.663  1.00  0.00     0.016 A 
ATOM     30  C   UNL A   1      35.355  32.673  30.839  1.00  0.00     0.010 A 
ATOM     31  C   UNL A   1      36.665  33.831  29.154  1.00  0.00     0.010 A 
ATOM     32  C   UNL A   1      36.586  32.946  30.246  1.00  0.00    -0.014 A 
BRANCH  32  33
ATOM     33  C   UNL A   1      37.808  32.439  30.896  1.00  0.00     0.031 A 
ATOM     34  C   UNL A   1      38.506  31.271  30.268  1.00  0.00     0.074 A 
ATOM     35  C   UNL A   1      38.311  33.049  31.982  1.00  0.00     0.049 A 
ATOM     36  N   UNL A   1      39.505  30.563  30.720  1.00  0.00    -0.248 NA
ATOM     37  C   UNL A   1      38.007  30.845  28.948  1.00  0.00     0.031 C 
ATOM     38  C   UNL A   1      37.782  34.268  32.595  1.00  0.00     0.029 A 
ATOM     39  N   UNL A   1      39.387  32.718  32.762  1.00  0.00    -0.354 N 
ATOM     40  C   UNL A   1      39.722  29.579  29.764  1.00  0.00     0.074 A 
ATOM     41  C   UNL A   1      38.755  29.779  28.709  1.00  0.00     0.031 C 
ATOM     42  C   UNL A   1      38.531  34.575  33.668  1.00  0.00     0.029 A 
ATOM     43  C   UNL A   1      39.543  33.540  33.852  1.00  0.00     0.049 A 
ATOM     44  H   UNL A   1      39.988  31.964  32.564  1.00  0.00     0.167 HD
ATOM     45  C   UNL A   1      40.643  28.587  29.782  1.00  0.00     0.031 A 
ATOM     46  C   UNL A   1      40.379  33.429  34.900  1.00  0.00     0.031 A 
ATOM     47  C   UNL A   1      41.597  28.411  30.841  1.00  0.00     0.049 A 
ATOM     48  C   UNL A   1      41.319  32.251  34.948  1.00  0.00     0.074 A 
ATOM     49  C   UNL A   1      42.575  27.442  30.969  1.00  0.00     0.029 A 
ATOM     50  N   UNL A   1      41.689  29.228  31.960  1.00  0.00    -0.354 N 
ATOM     51  N   UNL A   1      41.506  31.303  34.060  1.00  0.00    -0.248 NA
ATOM     52  C   UNL A   1      42.158  32.127  36.148  1.00  0.00     0.031 C 
ATOM     53  C   UNL A   1      43.211  27.630  32.199  1.00  0.00     0.029 A 
ATOM     54  C   UNL A   1      42.684  28.763  32.801  1.00  0.00     0.049 A 
ATOM     55  H   UNL A   1      41.128  30.019  32.129  1.00  0.00     0.167 HD
ATOM     56  C   UNL A   1      42.507  30.491  34.578  1.00  0.00     0.074 A 
ATOM     57  C   UNL A   1      42.898  31.069  35.849  1.00  0.00     0.031 C 
ATOM     58  C   UNL A   1      43.058  29.367  34.053  1.00  0.00     0.031 A 
BRANCH  45  59
ATOM     59  C   UNL A   1      40.600  27.581  28.668  1.00  0.00    -0.014 A 
ATOM     60  C   UNL A   1      39.818  26.418  28.745  1.00  0.00     0.009 A 
ATOM     61  C   UNL A   1      41.353  27.817  27.506  1.00  0.00     0.009 A 
ATOM     62  C   UNL A   1      39.817  25.498  27.693  1.00  0.00     0.001 A 
ATOM     63  C   UNL A   1      41.326  26.913  26.445  1.00  0.00     0.001 A 
ATOM     64  C   UNL A   1      40.565  25.749  26.543  1.00  0.00     0.000 A 
ENDBRANCH  45  59
BRANCH  46  65
ATOM     65  C   UNL A   1      40.331  34.409  36.018  1.00  0.00    -0.014 A 
ATOM     66  C   UNL A   1      39.378  34.285  37.041  1.00  0.00     0.009 A 
ATOM     67  C   UNL A   1      41.208  35.506  36.043  1.00  0.00     0.009 A 
ATOM     68  C   UNL A   1      39.280  35.257  38.041  1.00  0.00     0.001 A 
ATOM     69  C   UNL A   1      41.131  36.456  37.065  1.00  0.00     0.001 A 
ATOM     70  C   UNL A   1      40.158  36.339  38.053  1.00  0.00     0.000 A 
ENDBRANCH  46  65
BRANCH  58  71
ATOM     71  C   UNL A   1      44.179  28.729  34.823  1.00  0.00    -0.014 A 
ATOM     72  C   UNL A   1      45.508  29.157  34.678  1.00  0.00     0.009 A 
ATOM     73  C   UNL A   1      43.889  27.710  35.745  1.00  0.00     0.009 A 
ATOM     74  C   UNL A   1      46.527  28.552  35.416  1.00  0.00     0.001 A 
ATOM     75  C   UNL A   1      44.903  27.134  36.509  1.00  0.00     0.001 A 
ATOM     76  C   UNL A   1      46.223  27.547  36.335  1.00  0.00     0.000 A 
ENDBRANCH  58  71
ENDBRANCH  32  33
ENDBRANCH  25  27
ENDBRANCH  24  25
ENDBRANCH  23  24
ENDBRANCH   1  23
TORSDOF 14
ENDMDL
MODEL 2
REMARK VINA RESULT:     -11.0      5.841     10.884
REMARK SMILES CC1=C(C)C[C@@H](C(=O)N[C@H](C)C(C)(C)C)[C@@H](C(=O)OCCOC(=O)c2ccc(-c3c4nc(c(-c5ccccc5)c5ccc([nH]5)c(-c5ccccc5)c5nc(c(-c6ccccc6)c6ccc3[nH]6)C=C5)C=C4)cc2)C1
REMARK SMILES IDX 20 1 19 2 17 3 18 4 16 5 1 6 2 7 3 8 73 9 4 10 5 11 6 12
REMARK SMILES IDX 7 13 8 14 9 15 10 17 11 18 12 19 13 20 14 21 15 22 21 23
REMARK SMILES IDX 22 24 23 25 24 26 25 27 26 28 72 29 27 30 71 31 28 32 29 33
REMARK SMILES IDX 30 34 65 35 31 36 70 37 64 38 66 39 32 40 69 41 63 42 62 43
REMARK SMILES IDX 33 45 55 46 40 47 54 48 41 49 44 50 53 51 67 52 42 53 43 54
REMARK SMILES IDX 52 56 68 57 45 58 34 59 35 60 39 61 36 62 38 63 37 64 56 65
REMARK SMILES IDX 57 66 61 67 58 68 60 69 59 70 46 71 47 72 51 73 48 74 50 75
REMARK SMILES IDX 49 76
REMARK H PARENT 9 16 66 44 44 55
REMARK Flexibility Score: inf
ROOT
ATOM      1  C   UNL A   1      38.921  21.825  25.824  1.00  0.00     0.274 C 
ENDROOT
BRANCH   1   2
ATOM      2  O   UNL A   1      37.526  22.058  26.124  1.00  0.00    -0.462 OA
BRANCH   2   3
ATOM      3  C   UNL A   1      36.752  22.212  25.031  1.00  0.00     0.310 C 
ATOM      4  O   UNL A   1      36.822  23.197  24.298  1.00  0.00    -0.252 OA
BRANCH   3   5
ATOM      5  C   UNL A   1      35.806  21.056  24.679  1.00  0.00     0.116 C 
ATOM      6  C   UNL A   1      34.977  16.498  24.324  1.00  0.00     0.039 C 
ATOM      7  C   UNL A   1      34.579  17.923  24.600  1.00  0.00    -0.073 C 
ATOM      8  C   UNL A   1      33.111  18.365  24.888  1.00  0.00    -0.074 C 
ATOM      9  C   UNL A   1      36.118  19.123  24.626  1.00  0.00     0.046 C 
ATOM     10  C   UNL A   1      31.939  17.427  24.952  1.00  0.00     0.039 C 
ATOM     11  C   UNL A   1      32.568  20.237  25.021  1.00  0.00     0.045 C 
ATOM     12  C   UNL A   1      33.973  21.616  25.136  1.00  0.00     0.097 C 
BRANCH  12  13
ATOM     13  C   UNL A   1      34.087  22.455  26.381  1.00  0.00     0.224 C 
ATOM     14  O   UNL A   1      34.779  22.178  27.349  1.00  0.00    -0.275 OA
ATOM     15  N   UNL A   1      33.303  23.570  26.319  1.00  0.00    -0.353 N 
ATOM     16  H   UNL A   1      32.961  23.986  27.144  1.00  0.00     0.163 HD
BRANCH  15  17
ATOM     17  C   UNL A   1      32.981  24.131  25.033  1.00  0.00     0.084 C 
ATOM     18  C   UNL A   1      34.133  24.771  24.229  1.00  0.00     0.031 C 
BRANCH  17  19
ATOM     19  C   UNL A   1      31.340  24.689  24.912  1.00  0.00    -0.018 C 
ATOM     20  C   UNL A   1      31.013  23.667  23.495  1.00  0.00     0.013 C 
ATOM     21  C   UNL A   1      30.780  23.323  25.911  1.00  0.00     0.013 C 
ATOM     22  C   UNL A   1      30.643  26.703  25.168  1.00  0.00     0.013 C 
ENDBRANCH  17  19
ENDBRANCH  15  17
ENDBRANCH  12  13
ENDBRANCH   3   5
ENDBRANCH   2   3
ENDBRANCH   1   2
BRANCH   1  23
ATOM     23  C   UNL A   1      39.268  20.344  25.659  1.00  0.00     0.275 C 
BRANCH  23  24
ATOM     24  O   UNL A   1      40.205  19.891  26.651  1.00  0.00    -0.458 OA
BRANCH  24  25
ATOM     25  C   UNL A   1      41.479  19.757  26.209  1.00  0.00     0.338 C 
ATOM     26  O   UNL A   1      41.944  18.827  25.570  1.00  0.00    -0.246 OA
BRANCH  25  27
ATOM     27  C   UNL A   1      42.206  21.018  26.429  1.00  0.00     0.060 A 
ATOM     28  C   UNL A   1      42.401  21.422  27.754  1.00  0.00     0.016 A 
ATOM     29  C   UNL A   1      42.672  21.802  25.376  1.00  0.00     0.016 A 
ATOM     30  C   UNL A   1      43.088  22.587  28.048  1.00  0.00     0.010 A 
ATOM     31  C   UNL A   1      43.327  23.001  25.667  1.00  0.00     0.010 A 
ATOM     32  C   UNL A   1      43.529  23.396  27.004  1.00  0.00    -0.014 A 
BRANCH  32  33
ATOM     33  C   UNL A   1      44.038  24.742  27.323  1.00  0.00     0.031 A 
ATOM     34  C   UNL A   1      43.059  25.769  27.804  1.00  0.00     0.074 A 
ATOM     35  C   UNL A   1      45.351  25.015  27.243  1.00  0.00     0.049 A 
ATOM     36  N   UNL A   1      43.233  27.046  28.012  1.00  0.00    -0.248 NA
ATOM     37  C   UNL A   1      41.696  25.288  28.090  1.00  0.00     0.031 C 
ATOM     38  C   UNL A   1      46.402  24.052  26.911  1.00  0.00     0.029 A 
ATOM     39  N   UNL A   1      46.022  26.194  27.438  1.00  0.00    -0.354 N 
ATOM     40  C   UNL A   1      41.992  27.529  28.405  1.00  0.00     0.074 A 
ATOM     41  C   UNL A   1      41.075  26.413  28.409  1.00  0.00     0.031 C 
ATOM     42  C   UNL A   1      47.587  24.686  26.913  1.00  0.00     0.029 A 
ATOM     43  C   UNL A   1      47.368  26.103  27.179  1.00  0.00     0.049 A 
ATOM     44  H   UNL A   1      45.582  27.024  27.734  1.00  0.00     0.167 HD
ATOM     45  C   UNL A   1      41.653  28.801  28.719  1.00  0.00     0.031 A 
ATOM     46  C   UNL A   1      48.297  27.074  27.115  1.00  0.00     0.031 A 
ATOM     47  C   UNL A   1      42.585  29.894  28.712  1.00  0.00     0.049 A 
ATOM     48  C   UNL A   1      47.869  28.498  27.361  1.00  0.00     0.074 A 
ATOM     49  C   UNL A   1      42.356  31.225  29.010  1.00  0.00     0.029 A 
ATOM     50  N   UNL A   1      43.929  29.778  28.387  1.00  0.00    -0.354 N 
ATOM     51  N   UNL A   1      46.690  28.961  27.705  1.00  0.00    -0.248 NA
ATOM     52  C   UNL A   1      48.900  29.533  27.205  1.00  0.00     0.031 C 
ATOM     53  C   UNL A   1      43.546  31.926  28.796  1.00  0.00     0.029 A 
ATOM     54  C   UNL A   1      44.535  31.020  28.442  1.00  0.00     0.049 A 
ATOM     55  H   UNL A   1      44.383  28.937  28.152  1.00  0.00     0.167 HD
ATOM     56  C   UNL A   1      46.846  30.335  27.839  1.00  0.00     0.074 A 
ATOM     57  C   UNL A   1      48.238  30.626  27.557  1.00  0.00     0.031 C 
ATOM     58  C   UNL A   1      45.926  31.276  28.167  1.00  0.00     0.031 A 
BRANCH  45  59
ATOM     59  C   UNL A   1      40.208  29.081  29.013  1.00  0.00    -0.014 A 
ATOM     60  C   UNL A   1      39.701  29.084  30.322  1.00  0.00     0.009 A 
ATOM     61  C   UNL A   1      39.337  29.366  27.948  1.00  0.00     0.009 A 
ATOM     62  C   UNL A   1      38.345  29.334  30.553  1.00  0.00     0.001 A 
ATOM     63  C   UNL A   1      37.992  29.646  28.184  1.00  0.00     0.001 A 
ATOM     64  C   UNL A   1      37.494  29.621  29.485  1.00  0.00     0.000 A 
ENDBRANCH  45  59
BRANCH  46  65
ATOM     65  C   UNL A   1      49.703  26.757  26.745  1.00  0.00    -0.014 A 
ATOM     66  C   UNL A   1      50.098  26.711  25.399  1.00  0.00     0.009 A 
ATOM     67  C   UNL A   1      50.650  26.448  27.736  1.00  0.00     0.009 A 
ATOM     68  C   UNL A   1      51.397  26.326  25.053  1.00  0.00     0.001 A 
ATOM     69  C   UNL A   1      51.957  26.100  27.389  1.00  0.00     0.001 A 
ATOM     70  C   UNL A   1      52.325  26.025  26.048  1.00  0.00     0.000 A 
ENDBRANCH  46  65
BRANCH  58  71
ATOM     71  C   UNL A   1      46.408  32.693  28.296  1.00  0.00    -0.014 A 
ATOM     72  C   UNL A   1      46.925  33.187  29.503  1.00  0.00     0.009 A 
ATOM     73  C   UNL A   1      46.386  33.533  27.171  1.00  0.00     0.009 A 
ATOM     74  C   UNL A   1      47.377  34.505  29.590  1.00  0.00     0.001 A 
ATOM     75  C   UNL A   1      46.873  34.837  27.249  1.00  0.00     0.001 A 
ATOM     76  C   UNL A   1      47.357  35.326  28.461  1.00  0.00     0.000 A 
ENDBRANCH  58  71
ENDBRANCH  32  33
ENDBRANCH  25  27
ENDBRANCH  24  25
ENDBRANCH  23  24
ENDBRANCH   1  23
TORSDOF 14
ENDMDL
MODEL 3
REMARK VINA RESULT:     -11.0      5.113      9.874
REMARK SMILES CC1=C(C)C[C@@H](C(=O)N[C@H](C)C(C)(C)C)[C@@H](C(=O)OCCOC(=O)c2ccc(-c3c4nc(c(-c5ccccc5)c5ccc([nH]5)c(-c5ccccc5)c5nc(c(-c6ccccc6)c6ccc3[nH]6)C=C5)C=C4)cc2)C1
REMARK SMILES IDX 20 1 19 2 17 3 18 4 16 5 1 6 2 7 3 8 73 9 4 10 5 11 6 12
REMARK SMILES IDX 7 13 8 14 9 15 10 17 11 18 12 19 13 20 14 21 15 22 21 23
REMARK SMILES IDX 22 24 23 25 24 26 25 27 26 28 72 29 27 30 71 31 28 32 29 33
REMARK SMILES IDX 30 34 65 35 31 36 70 37 64 38 66 39 32 40 69 41 63 42 62 43
REMARK SMILES IDX 33 45 55 46 40 47 54 48 41 49 44 50 53 51 67 52 42 53 43 54
REMARK SMILES IDX 52 56 68 57 45 58 34 59 35 60 39 61 36 62 38 63 37 64 56 65
REMARK SMILES IDX 57 66 61 67 58 68 60 69 59 70 46 71 47 72 51 73 48 74 50 75
REMARK SMILES IDX 49 76
REMARK H PARENT 9 16 66 44 44 55
REMARK Flexibility Score: inf
ROOT
ATOM      1  C   UNL A   1      39.132  21.510  26.001  1.00  0.00     0.274 C 
ENDROOT
BRANCH   1   2
ATOM      2  O   UNL A   1      37.695  21.596  26.137  1.00  0.00    -0.462 OA
BRANCH   2   3
ATOM      3  C   UNL A   1      37.036  21.598  24.960  1.00  0.00     0.310 C 
ATOM      4  O   UNL A   1      37.217  22.457  24.098  1.00  0.00    -0.252 OA
BRANCH   3   5
ATOM      5  C   UNL A   1      36.083  20.426  24.692  1.00  0.00     0.116 C 
ATOM      6  C   UNL A   1      35.150  15.877  24.861  1.00  0.00     0.039 C 
ATOM      7  C   UNL A   1      34.775  17.333  24.927  1.00  0.00    -0.073 C 
ATOM      8  C   UNL A   1      33.305  17.838  25.054  1.00  0.00    -0.074 C 
ATOM      9  C   UNL A   1      36.342  18.496  24.907  1.00  0.00     0.046 C 
ATOM     10  C   UNL A   1      32.105  16.939  25.155  1.00  0.00     0.039 C 
ATOM     11  C   UNL A   1      32.808  19.722  24.911  1.00  0.00     0.045 C 
ATOM     12  C   UNL A   1      34.241  21.076  24.948  1.00  0.00     0.097 C 
BRANCH  12  13
ATOM     13  C   UNL A   1      34.297  22.065  26.082  1.00  0.00     0.224 C 
ATOM     14  O   UNL A   1      34.831  21.861  27.161  1.00  0.00    -0.275 OA
ATOM     15  N   UNL A   1      33.654  23.230  25.775  1.00  0.00    -0.353 N 
ATOM     16  H   UNL A   1      33.264  23.787  26.488  1.00  0.00     0.163 HD
BRANCH  15  17
ATOM     17  C   UNL A   1      33.555  23.635  24.398  1.00  0.00     0.084 C 
ATOM     18  C   UNL A   1      34.821  24.217  23.734  1.00  0.00     0.031 C 
BRANCH  17  19
ATOM     19  C   UNL A   1      31.953  24.124  23.934  1.00  0.00    -0.018 C 
ATOM     20  C   UNL A   1      32.525  24.833  22.408  1.00  0.00     0.013 C 
ATOM     21  C   UNL A   1      31.725  22.602  23.035  1.00  0.00     0.013 C 
ATOM     22  C   UNL A   1      30.450  24.980  25.206  1.00  0.00     0.013 C 
ENDBRANCH  17  19
ENDBRANCH  15  17
ENDBRANCH  12  13
ENDBRANCH   3   5
ENDBRANCH   2   3
ENDBRANCH   1   2
BRANCH   1  23
ATOM     23  C   UNL A   1      39.632  20.091  25.723  1.00  0.00     0.275 C 
BRANCH  23  24
ATOM     24  O   UNL A   1      40.741  19.730  26.565  1.00  0.00    -0.458 OA
BRANCH  24  25
ATOM     25  C   UNL A   1      41.962  19.972  26.029  1.00  0.00     0.338 C 
ATOM     26  O   UNL A   1      42.572  19.271  25.238  1.00  0.00    -0.246 OA
BRANCH  25  27
ATOM     27  C   UNL A   1      42.385  21.337  26.379  1.00  0.00     0.060 A 
ATOM     28  C   UNL A   1      42.400  21.676  27.737  1.00  0.00     0.016 A 
ATOM     29  C   UNL A   1      42.742  22.277  25.414  1.00  0.00     0.016 A 
ATOM     30  C   UNL A   1      42.799  22.935  28.152  1.00  0.00     0.010 A 
ATOM     31  C   UNL A   1      43.103  23.562  25.825  1.00  0.00     0.010 A 
ATOM     32  C   UNL A   1      43.126  23.892  27.194  1.00  0.00    -0.014 A 
BRANCH  32  33
ATOM     33  C   UNL A   1      43.312  25.288  27.629  1.00  0.00     0.031 A 
ATOM     34  C   UNL A   1      44.713  25.787  27.814  1.00  0.00     0.074 A 
ATOM     35  C   UNL A   1      42.256  26.102  27.793  1.00  0.00     0.049 A 
ATOM     36  N   UNL A   1      45.130  26.916  28.319  1.00  0.00    -0.248 NA
ATOM     37  C   UNL A   1      45.790  24.886  27.367  1.00  0.00     0.031 C 
ATOM     38  C   UNL A   1      40.861  25.754  27.514  1.00  0.00     0.029 A 
ATOM     39  N   UNL A   1      42.198  27.397  28.236  1.00  0.00    -0.354 N 
ATOM     40  C   UNL A   1      46.516  26.841  28.296  1.00  0.00     0.074 A 
ATOM     41  C   UNL A   1      46.871  25.561  27.728  1.00  0.00     0.031 C 
ATOM     42  C   UNL A   1      40.084  26.810  27.807  1.00  0.00     0.029 A 
ATOM     43  C   UNL A   1      40.916  27.876  28.354  1.00  0.00     0.049 A 
ATOM     44  H   UNL A   1      42.997  27.931  28.451  1.00  0.00     0.167 HD
ATOM     45  C   UNL A   1      47.409  27.762  28.728  1.00  0.00     0.031 A 
ATOM     46  C   UNL A   1      40.475  29.027  28.893  1.00  0.00     0.031 A 
ATOM     47  C   UNL A   1      47.031  29.031  29.286  1.00  0.00     0.049 A 
ATOM     48  C   UNL A   1      41.486  29.985  29.469  1.00  0.00     0.074 A 
ATOM     49  C   UNL A   1      47.847  30.041  29.760  1.00  0.00     0.029 A 
ATOM     50  N   UNL A   1      45.721  29.459  29.446  1.00  0.00    -0.354 N 
ATOM     51  N   UNL A   1      42.796  29.904  29.474  1.00  0.00    -0.248 NA
ATOM     52  C   UNL A   1      40.955  31.192  30.117  1.00  0.00     0.031 C 
ATOM     53  C   UNL A   1      47.028  31.052  30.271  1.00  0.00     0.029 A 
ATOM     54  C   UNL A   1      45.704  30.706  30.044  1.00  0.00     0.049 A 
ATOM     55  H   UNL A   1      44.923  28.951  29.174  1.00  0.00     0.167 HD
ATOM     56  C   UNL A   1      43.246  31.064  30.094  1.00  0.00     0.074 A 
ATOM     57  C   UNL A   1      42.068  31.838  30.434  1.00  0.00     0.031 C 
ATOM     58  C   UNL A   1      44.516  31.458  30.360  1.00  0.00     0.031 A 
BRANCH  45  59
ATOM     59  C   UNL A   1      48.863  27.390  28.688  1.00  0.00    -0.014 A 
ATOM     60  C   UNL A   1      49.490  26.723  29.751  1.00  0.00     0.009 A 
ATOM     61  C   UNL A   1      49.617  27.705  27.545  1.00  0.00     0.009 A 
ATOM     62  C   UNL A   1      50.851  26.408  29.682  1.00  0.00     0.001 A 
ATOM     63  C   UNL A   1      50.966  27.362  27.465  1.00  0.00     0.001 A 
ATOM     64  C   UNL A   1      51.585  26.721  28.538  1.00  0.00     0.000 A 
ENDBRANCH  45  59
BRANCH  46  65
ATOM     65  C   UNL A   1      39.018  29.316  28.981  1.00  0.00    -0.014 A 
ATOM     66  C   UNL A   1      38.295  29.017  30.145  1.00  0.00     0.009 A 
ATOM     67  C   UNL A   1      38.330  29.849  27.878  1.00  0.00     0.009 A 
ATOM     68  C   UNL A   1      36.911  29.209  30.191  1.00  0.00     0.001 A 
ATOM     69  C   UNL A   1      36.952  30.074  27.939  1.00  0.00     0.001 A 
ATOM     70  C   UNL A   1      36.243  29.740  29.089  1.00  0.00     0.000 A 
ENDBRANCH  46  65
BRANCH  58  71
ATOM     71  C   UNL A   1      44.698  32.807  30.994  1.00  0.00    -0.014 A 
ATOM     72  C   UNL A   1      44.801  33.975  30.223  1.00  0.00     0.009 A 
ATOM     73  C   UNL A   1      44.719  32.912  32.394  1.00  0.00     0.009 A 
ATOM     74  C   UNL A   1      44.958  35.216  30.842  1.00  0.00     0.001 A 
ATOM     75  C   UNL A   1      44.837  34.157  33.010  1.00  0.00     0.001 A 
ATOM     76  C   UNL A   1      44.968  35.307  32.234  1.00  0.00     0.000 A 
ENDBRANCH  58  71
ENDBRANCH  32  33
ENDBRANCH  25  27
ENDBRANCH  24  25
ENDBRANCH  23  24
ENDBRANCH   1  23
TORSDOF 14
ENDMDL
