MODEL 1
REMARK VINA RESULT:     -11.1      0.000      0.000
REMARK SMILES Cc1nc(C)c(C(=O)N2CCC([C@H](C)C(=O)OCCOC(=O)c3ccc(-c4c5nc(c(-c6ccccc6)c6ccc([nH]6)c(-c6ccccc6)c6nc(c(-c7ccccc7)c7ccc4[nH]7)C=C6)C=C5)cc3)CC2)s1
REMARK SMILES IDX 18 1 17 2 15 3 16 4 13 5 14 6 12 7 7 8 8 9 9 10 10 11 72 12
REMARK SMILES IDX 11 13 71 14 6 15 1 16 2 17 3 18 73 19 4 20 5 21 19 22 20 23
REMARK SMILES IDX 21 24 22 25 23 26 24 27 70 28 25 29 69 30 26 31 27 32 28 33
REMARK SMILES IDX 63 34 29 35 68 36 62 37 64 38 30 39 67 40 61 41 60 42 31 44
REMARK SMILES IDX 53 45 38 46 52 47 39 48 42 49 51 50 65 51 40 52 41 53 50 55
REMARK SMILES IDX 66 56 43 57 32 58 33 59 37 60 34 61 36 62 35 63 54 64 55 65
REMARK SMILES IDX 59 66 56 67 58 68 57 69 44 70 45 71 49 72 46 73 48 74 47 75
REMARK H PARENT 64 43 42 54
REMARK Flexibility Score: inf
ROOT
ATOM      1  C   UNL A   1      38.112  20.074  24.971  1.00  0.00     0.274 C 
ENDROOT
BRANCH   1   2
ATOM      2  O   UNL A   1      37.382  21.255  24.584  1.00  0.00    -0.462 OA
BRANCH   2   3
ATOM      3  C   UNL A   1      36.130  21.365  25.095  1.00  0.00     0.309 C 
ATOM      4  O   UNL A   1      35.269  20.495  25.032  1.00  0.00    -0.252 OA
BRANCH   3   5
ATOM      5  C   UNL A   1      35.867  22.717  25.746  1.00  0.00     0.099 C 
ATOM      6  C   UNL A   1      37.083  23.645  25.658  1.00  0.00     0.020 C 
BRANCH   5   7
ATOM      7  C   UNL A   1      34.495  23.357  25.386  1.00  0.00     0.006 C 
ATOM      8  C   UNL A   1      31.534  26.336  25.867  1.00  0.00     0.265 C 
ATOM      9  O   UNL A   1      31.176  26.387  27.045  1.00  0.00    -0.268 OA
ATOM     10  N   UNL A   1      32.288  25.251  25.412  1.00  0.00    -0.338 N 
ATOM     11  C   UNL A   1      32.156  23.977  26.098  1.00  0.00     0.120 C 
ATOM     12  C   UNL A   1      33.221  25.283  24.289  1.00  0.00     0.120 C 
ATOM     13  C   UNL A   1      33.506  23.450  26.562  1.00  0.00     0.026 C 
ATOM     14  C   UNL A   1      34.592  24.732  24.693  1.00  0.00     0.026 C 
BRANCH   8  15
ATOM     15  C   UNL A   1      31.145  27.367  24.923  1.00  0.00     0.115 A 
ATOM     16  C   UNL A   1      29.025  29.323  22.321  1.00  0.00     0.079 C 
ATOM     17  C   UNL A   1      29.968  28.771  23.331  1.00  0.00     0.091 A 
ATOM     18  N   UNL A   1      30.940  29.456  23.889  1.00  0.00    -0.246 NA
ATOM     19  S   UNL A   1      29.796  27.159  23.877  1.00  0.00    -0.113 S 
ATOM     20  C   UNL A   1      31.595  28.675  24.834  1.00  0.00     0.061 A 
ATOM     21  C   UNL A   1      32.661  29.321  25.649  1.00  0.00     0.068 C 
ENDBRANCH   8  15
ENDBRANCH   5   7
ENDBRANCH   3   5
ENDBRANCH   2   3
ENDBRANCH   1   2
BRANCH   1  22
ATOM     22  C   UNL A   1      39.387  20.409  25.752  1.00  0.00     0.275 C 
BRANCH  22  23
ATOM     23  O   UNL A   1      40.239  19.259  25.906  1.00  0.00    -0.458 OA
BRANCH  23  24
ATOM     24  C   UNL A   1      41.562  19.532  25.990  1.00  0.00     0.338 C 
ATOM     25  O   UNL A   1      42.488  18.845  25.598  1.00  0.00    -0.246 OA
BRANCH  24  26
ATOM     26  C   UNL A   1      41.757  20.886  26.531  1.00  0.00     0.060 A 
ATOM     27  C   UNL A   1      42.141  21.897  25.646  1.00  0.00     0.016 A 
ATOM     28  C   UNL A   1      41.671  21.138  27.900  1.00  0.00     0.016 A 
ATOM     29  C   UNL A   1      42.441  23.169  26.120  1.00  0.00     0.010 A 
ATOM     30  C   UNL A   1      41.982  22.414  28.379  1.00  0.00     0.010 A 
ATOM     31  C   UNL A   1      42.381  23.431  27.492  1.00  0.00    -0.014 A 
BRANCH  31  32
ATOM     32  C   UNL A   1      42.820  24.749  28.005  1.00  0.00     0.031 A 
ATOM     33  C   UNL A   1      41.794  25.802  28.305  1.00  0.00     0.074 A 
ATOM     34  C   UNL A   1      44.124  24.989  28.225  1.00  0.00     0.049 A 
ATOM     35  N   UNL A   1      41.969  27.047  28.668  1.00  0.00    -0.248 NA
ATOM     36  C   UNL A   1      40.384  25.398  28.186  1.00  0.00     0.031 C 
ATOM     37  C   UNL A   1      45.206  24.023  28.039  1.00  0.00     0.029 A 
ATOM     38  N   UNL A   1      44.758  26.128  28.653  1.00  0.00    -0.354 N 
ATOM     39  C   UNL A   1      40.695  27.582  28.797  1.00  0.00     0.074 A 
ATOM     40  C   UNL A   1      39.756  26.531  28.471  1.00  0.00     0.031 C 
ATOM     41  C   UNL A   1      46.373  24.614  28.346  1.00  0.00     0.029 A 
ATOM     42  C   UNL A   1      46.123  26.008  28.703  1.00  0.00     0.049 A 
ATOM     43  H   UNL A   1      44.278  26.952  28.900  1.00  0.00     0.167 HD
ATOM     44  C   UNL A   1      40.340  28.841  29.153  1.00  0.00     0.031 A 
ATOM     45  C   UNL A   1      47.068  26.927  28.974  1.00  0.00     0.031 A 
ATOM     46  C   UNL A   1      41.274  29.885  29.472  1.00  0.00     0.049 A 
ATOM     47  C   UNL A   1      46.653  28.337  29.290  1.00  0.00     0.074 A 
ATOM     48  C   UNL A   1      41.015  31.197  29.831  1.00  0.00     0.029 A 
ATOM     49  N   UNL A   1      42.652  29.735  29.471  1.00  0.00    -0.354 N 
ATOM     50  N   UNL A   1      45.446  28.841  29.381  1.00  0.00    -0.248 NA
ATOM     51  C   UNL A   1      47.731  29.306  29.533  1.00  0.00     0.031 C 
ATOM     52  C   UNL A   1      42.239  31.851  30.009  1.00  0.00     0.029 A 
ATOM     53  C   UNL A   1      43.258  30.934  29.804  1.00  0.00     0.049 A 
ATOM     54  H   UNL A   1      43.129  28.900  29.262  1.00  0.00     0.167 HD
ATOM     55  C   UNL A   1      45.619  30.180  29.706  1.00  0.00     0.074 A 
ATOM     56  C   UNL A   1      47.045  30.406  29.811  1.00  0.00     0.031 C 
ATOM     57  C   UNL A   1      44.680  31.138  29.899  1.00  0.00     0.031 A 
BRANCH  44  58
ATOM     58  C   UNL A   1      38.874  29.162  29.165  1.00  0.00    -0.014 A 
ATOM     59  C   UNL A   1      38.207  29.568  27.999  1.00  0.00     0.009 A 
ATOM     60  C   UNL A   1      38.147  29.039  30.359  1.00  0.00     0.009 A 
ATOM     61  C   UNL A   1      36.844  29.874  28.037  1.00  0.00     0.001 A 
ATOM     62  C   UNL A   1      36.781  29.323  30.389  1.00  0.00     0.001 A 
ATOM     63  C   UNL A   1      36.133  29.749  29.230  1.00  0.00     0.000 A 
ENDBRANCH  44  58
BRANCH  45  64
ATOM     64  C   UNL A   1      48.504  26.554  28.914  1.00  0.00    -0.014 A 
ATOM     65  C   UNL A   1      49.166  26.073  30.053  1.00  0.00     0.009 A 
ATOM     66  C   UNL A   1      49.220  26.682  27.714  1.00  0.00     0.009 A 
ATOM     67  C   UNL A   1      50.522  25.742  29.994  1.00  0.00     0.001 A 
ATOM     68  C   UNL A   1      50.568  26.327  27.651  1.00  0.00     0.001 A 
ATOM     69  C   UNL A   1      51.220  25.865  28.793  1.00  0.00     0.000 A 
ENDBRANCH  45  64
BRANCH  57  70
ATOM     70  C   UNL A   1      45.169  32.508  30.269  1.00  0.00    -0.014 A 
ATOM     71  C   UNL A   1      45.456  33.465  29.284  1.00  0.00     0.009 A 
ATOM     72  C   UNL A   1      45.309  32.855  31.622  1.00  0.00     0.009 A 
ATOM     73  C   UNL A   1      45.900  34.738  29.648  1.00  0.00     0.001 A 
ATOM     74  C   UNL A   1      45.733  34.135  31.983  1.00  0.00     0.001 A 
ATOM     75  C   UNL A   1      46.035  35.072  30.995  1.00  0.00     0.000 A 
ENDBRANCH  57  70
ENDBRANCH  31  32
ENDBRANCH  24  26
ENDBRANCH  23  24
ENDBRANCH  22  23
ENDBRANCH   1  22
TORSDOF 13
ENDMDL
MODEL 2
REMARK VINA RESULT:     -11.1      4.551      9.785
REMARK SMILES Cc1nc(C)c(C(=O)N2CCC([C@H](C)C(=O)OCCOC(=O)c3ccc(-c4c5nc(c(-c6ccccc6)c6ccc([nH]6)c(-c6ccccc6)c6nc(c(-c7ccccc7)c7ccc4[nH]7)C=C6)C=C5)cc3)CC2)s1
REMARK SMILES IDX 18 1 17 2 15 3 16 4 13 5 14 6 12 7 7 8 8 9 9 10 10 11 72 12
REMARK SMILES IDX 11 13 71 14 6 15 1 16 2 17 3 18 73 19 4 20 5 21 19 22 20 23
REMARK SMILES IDX 21 24 22 25 23 26 24 27 70 28 25 29 69 30 26 31 27 32 28 33
REMARK SMILES IDX 63 34 29 35 68 36 62 37 64 38 30 39 67 40 61 41 60 42 31 44
REMARK SMILES IDX 53 45 38 46 52 47 39 48 42 49 51 50 65 51 40 52 41 53 50 55
REMARK SMILES IDX 66 56 43 57 32 58 33 59 37 60 34 61 36 62 35 63 54 64 55 65
REMARK SMILES IDX 59 66 56 67 58 68 57 69 44 70 45 71 49 72 46 73 48 74 47 75
REMARK H PARENT 64 43 42 54
REMARK Flexibility Score: inf
ROOT
ATOM      1  C   UNL A   1      31.854  31.952  26.876  1.00  0.00     0.274 C 
ENDROOT
BRANCH   1   2
ATOM      2  O   UNL A   1      32.376  30.612  26.962  1.00  0.00    -0.462 OA
BRANCH   2   3
ATOM      3  C   UNL A   1      32.251  29.860  25.839  1.00  0.00     0.309 C 
ATOM      4  O   UNL A   1      31.297  29.905  25.070  1.00  0.00    -0.252 OA
BRANCH   3   5
ATOM      5  C   UNL A   1      33.417  28.904  25.625  1.00  0.00     0.099 C 
ATOM      6  C   UNL A   1      34.437  28.976  26.766  1.00  0.00     0.020 C 
BRANCH   5   7
ATOM      7  C   UNL A   1      33.010  27.473  25.166  1.00  0.00     0.006 C 
ATOM      8  C   UNL A   1      33.915  23.707  23.472  1.00  0.00     0.265 C 
ATOM      9  O   UNL A   1      34.407  23.857  22.352  1.00  0.00    -0.268 OA
ATOM     10  N   UNL A   1      33.280  24.779  24.105  1.00  0.00    -0.338 N 
ATOM     11  C   UNL A   1      32.696  25.825  23.283  1.00  0.00     0.120 C 
ATOM     12  C   UNL A   1      33.151  24.950  25.550  1.00  0.00     0.120 C 
ATOM     13  C   UNL A   1      33.226  27.199  23.667  1.00  0.00     0.026 C 
ATOM     14  C   UNL A   1      33.643  26.332  25.989  1.00  0.00     0.026 C 
BRANCH   8  15
ATOM     15  C   UNL A   1      33.941  22.416  24.132  1.00  0.00     0.115 A 
ATOM     16  C   UNL A   1      32.903  18.814  25.150  1.00  0.00     0.079 C 
ATOM     17  C   UNL A   1      33.507  20.143  24.865  1.00  0.00     0.091 A 
ATOM     18  N   UNL A   1      34.744  20.473  25.159  1.00  0.00    -0.246 NA
ATOM     19  S   UNL A   1      32.596  21.347  24.061  1.00  0.00    -0.113 S 
ATOM     20  C   UNL A   1      35.018  21.757  24.706  1.00  0.00     0.061 A 
ATOM     21  C   UNL A   1      36.410  22.263  24.855  1.00  0.00     0.068 C 
ENDBRANCH   8  15
ENDBRANCH   5   7
ENDBRANCH   3   5
ENDBRANCH   2   3
ENDBRANCH   1   2
BRANCH   1  22
ATOM     22  C   UNL A   1      32.835  32.993  27.427  1.00  0.00     0.275 C 
BRANCH  22  23
ATOM     23  O   UNL A   1      32.152  34.131  27.984  1.00  0.00    -0.458 OA
BRANCH  23  24
ATOM     24  C   UNL A   1      32.926  34.959  28.724  1.00  0.00     0.338 C 
ATOM     25  O   UNL A   1      32.666  36.093  29.084  1.00  0.00    -0.246 OA
BRANCH  24  26
ATOM     26  C   UNL A   1      34.133  34.246  29.169  1.00  0.00     0.060 A 
ATOM     27  C   UNL A   1      34.021  33.389  30.267  1.00  0.00     0.016 A 
ATOM     28  C   UNL A   1      35.376  34.498  28.590  1.00  0.00     0.016 A 
ATOM     29  C   UNL A   1      35.150  32.772  30.794  1.00  0.00     0.010 A 
ATOM     30  C   UNL A   1      36.514  33.886  29.126  1.00  0.00     0.010 A 
ATOM     31  C   UNL A   1      36.407  33.032  30.239  1.00  0.00    -0.014 A 
BRANCH  31  32
ATOM     32  C   UNL A   1      37.618  32.472  30.879  1.00  0.00     0.031 A 
ATOM     33  C   UNL A   1      38.301  31.287  30.259  1.00  0.00     0.074 A 
ATOM     34  C   UNL A   1      38.119  33.038  31.991  1.00  0.00     0.049 A 
ATOM     35  N   UNL A   1      39.311  30.588  30.706  1.00  0.00    -0.248 NA
ATOM     36  C   UNL A   1      37.778  30.835  28.960  1.00  0.00     0.031 C 
ATOM     37  C   UNL A   1      37.587  34.232  32.646  1.00  0.00     0.029 A 
ATOM     38  N   UNL A   1      39.190  32.675  32.767  1.00  0.00    -0.354 N 
ATOM     39  C   UNL A   1      39.531  29.599  29.758  1.00  0.00     0.074 A 
ATOM     40  C   UNL A   1      38.547  29.784  28.712  1.00  0.00     0.031 C 
ATOM     41  C   UNL A   1      38.332  34.501  33.731  1.00  0.00     0.029 A 
ATOM     42  C   UNL A   1      39.360  33.473  33.871  1.00  0.00     0.049 A 
ATOM     43  H   UNL A   1      39.779  31.916  32.553  1.00  0.00     0.167 HD
ATOM     44  C   UNL A   1      40.468  28.619  29.761  1.00  0.00     0.031 A 
ATOM     45  C   UNL A   1      40.225  33.366  34.896  1.00  0.00     0.031 A 
ATOM     46  C   UNL A   1      41.441  28.434  30.803  1.00  0.00     0.049 A 
ATOM     47  C   UNL A   1      41.204  32.226  34.916  1.00  0.00     0.074 A 
ATOM     48  C   UNL A   1      42.423  27.464  30.905  1.00  0.00     0.029 A 
ATOM     49  N   UNL A   1      41.554  29.238  31.926  1.00  0.00    -0.354 N 
ATOM     50  N   UNL A   1      41.386  31.278  34.028  1.00  0.00    -0.248 NA
ATOM     51  C   UNL A   1      42.094  32.138  36.083  1.00  0.00     0.031 C 
ATOM     52  C   UNL A   1      43.106  27.659  32.110  1.00  0.00     0.029 A 
ATOM     53  C   UNL A   1      42.577  28.777  32.736  1.00  0.00     0.049 A 
ATOM     54  H   UNL A   1      40.989  30.021  32.119  1.00  0.00     0.167 HD
ATOM     55  C   UNL A   1      42.417  30.490  34.522  1.00  0.00     0.074 A 
ATOM     56  C   UNL A   1      42.832  31.080  35.778  1.00  0.00     0.031 C 
ATOM     57  C   UNL A   1      42.971  29.376  33.984  1.00  0.00     0.031 A 
BRANCH  44  58
ATOM     58  C   UNL A   1      40.446  27.646  28.619  1.00  0.00    -0.014 A 
ATOM     59  C   UNL A   1      41.184  27.879  27.448  1.00  0.00     0.009 A 
ATOM     60  C   UNL A   1      39.687  26.471  28.724  1.00  0.00     0.009 A 
ATOM     61  C   UNL A   1      41.137  26.964  26.393  1.00  0.00     0.001 A 
ATOM     62  C   UNL A   1      39.660  25.548  27.677  1.00  0.00     0.001 A 
ATOM     63  C   UNL A   1      40.378  25.800  26.509  1.00  0.00     0.000 A 
ENDBRANCH  44  58
BRANCH  45  64
ATOM     64  C   UNL A   1      40.176  34.344  36.012  1.00  0.00    -0.014 A 
ATOM     65  C   UNL A   1      39.342  34.124  37.119  1.00  0.00     0.009 A 
ATOM     66  C   UNL A   1      40.963  35.505  35.973  1.00  0.00     0.009 A 
ATOM     67  C   UNL A   1      39.287  35.058  38.157  1.00  0.00     0.001 A 
ATOM     68  C   UNL A   1      40.924  36.424  37.022  1.00  0.00     0.001 A 
ATOM     69  C   UNL A   1      40.081  36.204  38.110  1.00  0.00     0.000 A 
ENDBRANCH  45  64
BRANCH  57  70
ATOM     70  C   UNL A   1      44.102  28.742  34.740  1.00  0.00    -0.014 A 
ATOM     71  C   UNL A   1      43.866  27.726  35.678  1.00  0.00     0.009 A 
ATOM     72  C   UNL A   1      45.422  29.143  34.484  1.00  0.00     0.009 A 
ATOM     73  C   UNL A   1      44.932  27.141  36.365  1.00  0.00     0.001 A 
ATOM     74  C   UNL A   1      46.486  28.543  35.157  1.00  0.00     0.001 A 
ATOM     75  C   UNL A   1      46.239  27.548  36.102  1.00  0.00     0.000 A 
ENDBRANCH  57  70
ENDBRANCH  31  32
ENDBRANCH  24  26
ENDBRANCH  23  24
ENDBRANCH  22  23
ENDBRANCH   1  22
TORSDOF 13
ENDMDL
MODEL 3
REMARK VINA RESULT:     -11.0      0.796      6.077
REMARK SMILES Cc1nc(C)c(C(=O)N2CCC([C@H](C)C(=O)OCCOC(=O)c3ccc(-c4c5nc(c(-c6ccccc6)c6ccc([nH]6)c(-c6ccccc6)c6nc(c(-c7ccccc7)c7ccc4[nH]7)C=C6)C=C5)cc3)CC2)s1
REMARK SMILES IDX 18 1 17 2 15 3 16 4 13 5 14 6 12 7 7 8 8 9 9 10 10 11 72 12
REMARK SMILES IDX 11 13 71 14 6 15 1 16 2 17 3 18 73 19 4 20 5 21 19 22 20 23
REMARK SMILES IDX 21 24 22 25 23 26 24 27 70 28 25 29 69 30 26 31 27 32 28 33
REMARK SMILES IDX 63 34 29 35 68 36 62 37 64 38 30 39 67 40 61 41 60 42 31 44
REMARK SMILES IDX 53 45 38 46 52 47 39 48 42 49 51 50 65 51 40 52 41 53 50 55
REMARK SMILES IDX 66 56 43 57 32 58 33 59 37 60 34 61 36 62 35 63 54 64 55 65
REMARK SMILES IDX 59 66 56 67 58 68 57 69 44 70 45 71 49 72 46 73 48 74 47 75
REMARK H PARENT 64 43 42 54
REMARK Flexibility Score: inf
ROOT
ATOM      1  C   UNL A   1      38.128  20.474  24.745  1.00  0.00     0.274 C 
ENDROOT
BRANCH   1   2
ATOM      2  O   UNL A   1      37.233  21.584  24.531  1.00  0.00    -0.462 OA
BRANCH   2   3
ATOM      3  C   UNL A   1      36.117  21.595  25.303  1.00  0.00     0.309 C 
ATOM      4  O   UNL A   1      35.376  20.633  25.476  1.00  0.00    -0.252 OA
BRANCH   3   5
ATOM      5  C   UNL A   1      35.836  22.954  25.929  1.00  0.00     0.099 C 
ATOM      6  C   UNL A   1      37.061  23.874  25.884  1.00  0.00     0.020 C 
BRANCH   5   7
ATOM      7  C   UNL A   1      34.484  23.600  25.505  1.00  0.00     0.006 C 
ATOM      8  C   UNL A   1      31.455  26.518  25.931  1.00  0.00     0.265 C 
ATOM      9  O   UNL A   1      31.011  26.499  27.081  1.00  0.00    -0.268 OA
ATOM     10  N   UNL A   1      32.256  25.467  25.474  1.00  0.00    -0.338 N 
ATOM     11  C   UNL A   1      32.092  24.155  26.076  1.00  0.00     0.120 C 
ATOM     12  C   UNL A   1      33.267  25.572  24.426  1.00  0.00     0.120 C 
ATOM     13  C   UNL A   1      33.411  23.616  26.608  1.00  0.00     0.026 C 
ATOM     14  C   UNL A   1      34.612  25.013  24.899  1.00  0.00     0.026 C 
BRANCH   8  15
ATOM     15  C   UNL A   1      31.122  27.596  25.020  1.00  0.00     0.115 A 
ATOM     16  C   UNL A   1      29.319  29.567  22.200  1.00  0.00     0.079 C 
ATOM     17  C   UNL A   1      30.105  29.021  23.339  1.00  0.00     0.091 A 
ATOM     18  N   UNL A   1      30.829  29.751  24.156  1.00  0.00    -0.246 NA
ATOM     19  S   UNL A   1      30.062  27.347  23.689  1.00  0.00    -0.113 S 
ATOM     20  C   UNL A   1      31.383  28.952  25.149  1.00  0.00     0.061 A 
ATOM     21  C   UNL A   1      32.152  29.624  26.232  1.00  0.00     0.068 C 
ENDBRANCH   8  15
ENDBRANCH   5   7
ENDBRANCH   3   5
ENDBRANCH   2   3
ENDBRANCH   1   2
BRANCH   1  22
ATOM     22  C   UNL A   1      39.278  20.832  25.693  1.00  0.00     0.275 C 
BRANCH  22  23
ATOM     23  O   UNL A   1      39.969  19.660  26.163  1.00  0.00    -0.458 OA
BRANCH  23  24
ATOM     24  C   UNL A   1      41.317  19.709  26.062  1.00  0.00     0.338 C 
ATOM     25  O   UNL A   1      42.053  18.891  25.541  1.00  0.00    -0.246 OA
BRANCH  24  26
ATOM     26  C   UNL A   1      41.808  20.996  26.578  1.00  0.00     0.060 A 
ATOM     27  C   UNL A   1      41.614  21.278  27.932  1.00  0.00     0.016 A 
ATOM     28  C   UNL A   1      42.349  21.958  25.725  1.00  0.00     0.016 A 
ATOM     29  C   UNL A   1      41.962  22.521  28.449  1.00  0.00     0.010 A 
ATOM     30  C   UNL A   1      42.691  23.212  26.241  1.00  0.00     0.010 A 
ATOM     31  C   UNL A   1      42.486  23.503  27.602  1.00  0.00    -0.014 A 
BRANCH  31  32
ATOM     32  C   UNL A   1      42.739  24.863  28.129  1.00  0.00     0.031 A 
ATOM     33  C   UNL A   1      44.127  25.241  28.559  1.00  0.00     0.074 A 
ATOM     34  C   UNL A   1      41.740  25.760  28.195  1.00  0.00     0.049 A 
ATOM     35  N   UNL A   1      44.543  26.340  29.135  1.00  0.00    -0.248 NA
ATOM     36  C   UNL A   1      45.185  24.252  28.303  1.00  0.00     0.031 C 
ATOM     37  C   UNL A   1      40.368  25.534  27.741  1.00  0.00     0.029 A 
ATOM     38  N   UNL A   1      41.730  27.045  28.674  1.00  0.00    -0.354 N 
ATOM     39  C   UNL A   1      45.906  26.167  29.331  1.00  0.00     0.074 A 
ATOM     40  C   UNL A   1      46.247  24.856  28.819  1.00  0.00     0.031 C 
ATOM     41  C   UNL A   1      39.646  26.644  27.970  1.00  0.00     0.029 A 
ATOM     42  C   UNL A   1      40.493  27.636  28.628  1.00  0.00     0.049 A 
ATOM     43  H   UNL A   1      42.533  27.498  29.019  1.00  0.00     0.167 HD
ATOM     44  C   UNL A   1      46.794  27.022  29.893  1.00  0.00     0.031 A 
ATOM     45  C   UNL A   1      40.081  28.830  29.093  1.00  0.00     0.031 A 
ATOM     46  C   UNL A   1      46.452  28.321  30.405  1.00  0.00     0.049 A 
ATOM     47  C   UNL A   1      41.068  29.730  29.782  1.00  0.00     0.074 A 
ATOM     48  C   UNL A   1      47.276  29.258  31.005  1.00  0.00     0.029 A 
ATOM     49  N   UNL A   1      45.178  28.867  30.378  1.00  0.00    -0.354 N 
ATOM     50  N   UNL A   1      42.350  29.545  29.990  1.00  0.00    -0.248 NA
ATOM     51  C   UNL A   1      40.550  31.002  30.308  1.00  0.00     0.031 C 
ATOM     52  C   UNL A   1      46.493  30.356  31.375  1.00  0.00     0.029 A 
ATOM     53  C   UNL A   1      45.189  30.120  30.966  1.00  0.00     0.049 A 
ATOM     54  H   UNL A   1      44.384  28.429  29.997  1.00  0.00     0.167 HD
ATOM     55  C   UNL A   1      42.793  30.680  30.655  1.00  0.00     0.074 A 
ATOM     56  C   UNL A   1      41.648  31.555  30.804  1.00  0.00     0.031 C 
ATOM     57  C   UNL A   1      44.037  30.972  31.106  1.00  0.00     0.031 A 
BRANCH  44  58
ATOM     58  C   UNL A   1      48.212  26.550  30.023  1.00  0.00    -0.014 A 
ATOM     59  C   UNL A   1      48.633  25.803  31.134  1.00  0.00     0.009 A 
ATOM     60  C   UNL A   1      49.137  26.845  29.009  1.00  0.00     0.009 A 
ATOM     61  C   UNL A   1      49.962  25.386  31.239  1.00  0.00     0.001 A 
ATOM     62  C   UNL A   1      50.458  26.407  29.106  1.00  0.00     0.001 A 
ATOM     63  C   UNL A   1      50.872  25.686  30.226  1.00  0.00     0.000 A 
ENDBRANCH  44  58
BRANCH  45  64
ATOM     64  C   UNL A   1      38.656  29.226  28.962  1.00  0.00    -0.014 A 
ATOM     65  C   UNL A   1      38.179  29.796  27.773  1.00  0.00     0.009 A 
ATOM     66  C   UNL A   1      37.767  29.035  30.030  1.00  0.00     0.009 A 
ATOM     67  C   UNL A   1      36.841  30.184  27.664  1.00  0.00     0.001 A 
ATOM     68  C   UNL A   1      36.426  29.399  29.910  1.00  0.00     0.001 A 
ATOM     69  C   UNL A   1      35.964  29.980  28.730  1.00  0.00     0.000 A 
ENDBRANCH  45  64
BRANCH  57  70
ATOM     70  C   UNL A   1      44.226  32.302  31.776  1.00  0.00    -0.014 A 
ATOM     71  C   UNL A   1      44.544  33.448  31.032  1.00  0.00     0.009 A 
ATOM     72  C   UNL A   1      44.048  32.414  33.163  1.00  0.00     0.009 A 
ATOM     73  C   UNL A   1      44.706  34.679  31.672  1.00  0.00     0.001 A 
ATOM     74  C   UNL A   1      44.190  33.649  33.797  1.00  0.00     0.001 A 
ATOM     75  C   UNL A   1      44.526  34.779  33.051  1.00  0.00     0.000 A 
ENDBRANCH  57  70
ENDBRANCH  31  32
ENDBRANCH  24  26
ENDBRANCH  23  24
ENDBRANCH  22  23
ENDBRANCH   1  22
TORSDOF 13
ENDMDL
