MODEL 1
REMARK VINA RESULT:      -9.8      0.000      0.000
REMARK SMILES O=C(OCCOC(=O)c1ccc(-c2c3nc(c(-c4ccccc4)c4ccc([nH]4)c(-c4ccccc4)c4nc(c(-c5ccccc5)c5ccc2[nH]5)C=C4)C=C3)cc1)c1ccc(/C=C/c2ccnc(-c3cccc([N+](=O)[O-])c3)[n+]2[O-])cc1
REMARK SMILES IDX 4 1 3 2 2 3 1 4 57 5 58 6 80 7 59 8 79 9 60 10 61 11 62 12
REMARK SMILES IDX 63 13 64 14 77 15 65 16 67 17 78 18 66 19 68 20 69 21 76 22
REMARK SMILES IDX 70 23 72 24 71 25 73 26 74 27 75 28 5 29 6 30 7 31 8 32 9 33
REMARK SMILES IDX 10 34 56 35 11 36 55 37 12 38 13 39 14 40 49 41 15 42 54 43
REMARK SMILES IDX 48 44 50 45 16 46 53 47 47 48 46 49 17 51 39 52 24 53 38 54
REMARK SMILES IDX 25 55 28 56 37 57 51 58 26 59 27 60 36 62 52 63 29 64 18 65
REMARK SMILES IDX 19 66 23 67 20 68 22 69 21 70 40 71 41 72 45 73 42 74 44 75
REMARK SMILES IDX 43 76 30 77 31 78 35 79 32 80 34 81 33 82
REMARK H PARENT 50 50 28 61
REMARK Flexibility Score: inf
ROOT
ATOM      1  C   UNL A   1      33.344  36.086  31.452  1.00  0.00     0.275 C 
ENDROOT
BRANCH   1   2
ATOM      2  O   UNL A   1      34.476  35.335  31.925  1.00  0.00    -0.458 OA
BRANCH   2   3
ATOM      3  C   UNL A   1      34.539  34.269  32.756  1.00  0.00     0.338 C 
ATOM      4  O   UNL A   1      33.481  33.783  33.158  1.00  0.00    -0.246 OA
BRANCH   3   5
ATOM      5  C   UNL A   1      35.812  33.715  33.330  1.00  0.00     0.060 A 
ATOM      6  C   UNL A   1      36.763  34.414  34.074  1.00  0.00     0.016 A 
ATOM      7  C   UNL A   1      36.060  32.349  33.096  1.00  0.00     0.016 A 
ATOM      8  C   UNL A   1      37.863  33.764  34.645  1.00  0.00     0.009 A 
ATOM      9  C   UNL A   1      37.179  31.705  33.640  1.00  0.00     0.009 A 
ATOM     10  C   UNL A   1      38.065  32.396  34.464  1.00  0.00    -0.025 A 
BRANCH  10  11
ATOM     11  C   UNL A   1      39.231  31.706  35.023  1.00  0.00     0.012 C 
ATOM     12  C   UNL A   1      39.894  30.711  34.409  1.00  0.00     0.053 C 
BRANCH  12  13
ATOM     13  C   UNL A   1      40.972  29.936  35.049  1.00  0.00     0.134 A 
ATOM     14  C   UNL A   1      41.893  30.596  35.862  1.00  0.00     0.100 A 
ATOM     15  N   UNL A   1      41.114  28.559  34.793  1.00  0.00    -0.228 N 
ATOM     16  C   UNL A   1      42.899  29.853  36.433  1.00  0.00     0.259 A 
ATOM     17  C   UNL A   1      42.175  27.888  35.403  1.00  0.00     0.333 A 
ATOM     18  O   UNL A   1      40.309  27.941  34.007  1.00  0.00    -0.710 OA
ATOM     19  N   UNL A   1      43.051  28.531  36.235  1.00  0.00    -0.049 NA
BRANCH  17  20
ATOM     20  C   UNL A   1      42.405  26.466  35.140  1.00  0.00     0.076 A 
ATOM     21  C   UNL A   1      41.671  25.481  35.822  1.00  0.00     0.017 A 
ATOM     22  C   UNL A   1      43.366  26.051  34.200  1.00  0.00     0.102 A 
ATOM     23  C   UNL A   1      41.865  24.121  35.559  1.00  0.00     0.008 A 
ATOM     24  C   UNL A   1      43.568  24.688  33.947  1.00  0.00     0.270 A 
ATOM     25  C   UNL A   1      42.816  23.720  34.621  1.00  0.00     0.085 A 
BRANCH  24  26
ATOM     26  N   UNL A   1      44.588  24.275  32.974  1.00  0.00     0.062 N 
ATOM     27  O   UNL A   1      44.197  23.838  31.881  1.00  0.00    -0.258 OA
ATOM     28  O   UNL A   1      45.777  24.368  33.307  1.00  0.00    -0.258 OA
ENDBRANCH  24  26
ENDBRANCH  17  20
ENDBRANCH  12  13
ENDBRANCH  10  11
ENDBRANCH   3   5
ENDBRANCH   2   3
ENDBRANCH   1   2
BRANCH   1  29
ATOM     29  C   UNL A   1      32.440  35.307  30.490  1.00  0.00     0.275 C 
BRANCH  29  30
ATOM     30  O   UNL A   1      32.847  35.428  29.116  1.00  0.00    -0.458 OA
BRANCH  30  31
ATOM     31  C   UNL A   1      33.124  34.248  28.505  1.00  0.00     0.338 C 
ATOM     32  O   UNL A   1      32.475  33.733  27.607  1.00  0.00    -0.246 OA
BRANCH  31  33
ATOM     33  C   UNL A   1      34.405  33.680  28.988  1.00  0.00     0.060 A 
ATOM     34  C   UNL A   1      35.555  34.458  28.816  1.00  0.00     0.016 A 
ATOM     35  C   UNL A   1      34.509  32.409  29.564  1.00  0.00     0.016 A 
ATOM     36  C   UNL A   1      36.808  33.956  29.170  1.00  0.00     0.010 A 
ATOM     37  C   UNL A   1      35.770  31.910  29.931  1.00  0.00     0.010 A 
ATOM     38  C   UNL A   1      36.933  32.666  29.706  1.00  0.00    -0.014 A 
BRANCH  38  39
ATOM     39  C   UNL A   1      38.296  32.115  29.944  1.00  0.00     0.031 A 
ATOM     40  C   UNL A   1      39.272  32.860  30.815  1.00  0.00     0.074 A 
ATOM     41  C   UNL A   1      38.649  30.910  29.456  1.00  0.00     0.049 A 
ATOM     42  N   UNL A   1      40.434  32.466  31.276  1.00  0.00    -0.248 NA
ATOM     43  C   UNL A   1      38.891  34.220  31.225  1.00  0.00     0.031 C 
ATOM     44  C   UNL A   1      37.814  30.068  28.607  1.00  0.00     0.029 A 
ATOM     45  N   UNL A   1      39.800  30.178  29.624  1.00  0.00    -0.354 N 
ATOM     46  C   UNL A   1      40.905  33.511  32.059  1.00  0.00     0.074 A 
ATOM     47  C   UNL A   1      39.937  34.583  31.953  1.00  0.00     0.031 C 
ATOM     48  C   UNL A   1      38.476  28.933  28.324  1.00  0.00     0.029 A 
ATOM     49  C   UNL A   1      39.779  28.963  28.984  1.00  0.00     0.049 A 
ATOM     50  H   UNL A   1      40.567  30.495  30.154  1.00  0.00     0.167 HD
ATOM     51  C   UNL A   1      42.023  33.568  32.822  1.00  0.00     0.031 A 
ATOM     52  C   UNL A   1      40.692  27.974  28.948  1.00  0.00     0.031 A 
ATOM     53  C   UNL A   1      43.010  32.525  32.920  1.00  0.00     0.049 A 
ATOM     54  C   UNL A   1      41.956  28.086  29.757  1.00  0.00     0.074 A 
ATOM     55  C   UNL A   1      44.163  32.499  33.688  1.00  0.00     0.029 A 
ATOM     56  N   UNL A   1      42.970  31.328  32.225  1.00  0.00    -0.354 N 
ATOM     57  N   UNL A   1      42.346  29.049  30.554  1.00  0.00    -0.248 NA
ATOM     58  C   UNL A   1      42.891  26.951  29.683  1.00  0.00     0.031 C 
ATOM     59  C   UNL A   1      44.846  31.308  33.417  1.00  0.00     0.029 A 
ATOM     60  C   UNL A   1      44.091  30.569  32.524  1.00  0.00     0.049 A 
ATOM     61  H   UNL A   1      42.250  31.057  31.610  1.00  0.00     0.167 HD
ATOM     62  C   UNL A   1      43.552  28.623  31.100  1.00  0.00     0.074 A 
ATOM     63  C   UNL A   1      43.820  27.309  30.558  1.00  0.00     0.031 C 
ATOM     64  C   UNL A   1      44.362  29.266  31.976  1.00  0.00     0.031 A 
BRANCH  51  65
ATOM     65  C   UNL A   1      42.238  34.820  33.627  1.00  0.00    -0.014 A 
ATOM     66  C   UNL A   1      42.978  35.890  33.102  1.00  0.00     0.009 A 
ATOM     67  C   UNL A   1      41.658  34.948  34.897  1.00  0.00     0.009 A 
ATOM     68  C   UNL A   1      43.158  37.057  33.848  1.00  0.00     0.001 A 
ATOM     69  C   UNL A   1      41.818  36.126  35.630  1.00  0.00     0.001 A 
ATOM     70  C   UNL A   1      42.574  37.175  35.108  1.00  0.00     0.000 A 
ENDBRANCH  51  65
BRANCH  52  71
ATOM     71  C   UNL A   1      40.445  26.762  28.124  1.00  0.00    -0.014 A 
ATOM     72  C   UNL A   1      40.938  26.669  26.813  1.00  0.00     0.009 A 
ATOM     73  C   UNL A   1      39.669  25.710  28.635  1.00  0.00     0.009 A 
ATOM     74  C   UNL A   1      40.626  25.564  26.018  1.00  0.00     0.001 A 
ATOM     75  C   UNL A   1      39.384  24.593  27.847  1.00  0.00     0.001 A 
ATOM     76  C   UNL A   1      39.851  24.527  26.536  1.00  0.00     0.000 A 
ENDBRANCH  52  71
BRANCH  64  77
ATOM     77  C   UNL A   1      45.607  28.546  32.421  1.00  0.00    -0.014 A 
ATOM     78  C   UNL A   1      46.681  28.334  31.543  1.00  0.00     0.009 A 
ATOM     79  C   UNL A   1      45.713  28.089  33.744  1.00  0.00     0.009 A 
ATOM     80  C   UNL A   1      47.817  27.641  31.968  1.00  0.00     0.001 A 
ATOM     81  C   UNL A   1      46.862  27.422  34.174  1.00  0.00     0.001 A 
ATOM     82  C   UNL A   1      47.908  27.188  33.283  1.00  0.00     0.000 A 
ENDBRANCH  64  77
ENDBRANCH  38  39
ENDBRANCH  31  33
ENDBRANCH  30  31
ENDBRANCH  29  30
ENDBRANCH   1  29
TORSDOF 15
ENDMDL
MODEL 2
REMARK VINA RESULT:      -9.7      3.781      7.431
REMARK SMILES O=C(OCCOC(=O)c1ccc(-c2c3nc(c(-c4ccccc4)c4ccc([nH]4)c(-c4ccccc4)c4nc(c(-c5ccccc5)c5ccc2[nH]5)C=C4)C=C3)cc1)c1ccc(/C=C/c2ccnc(-c3cccc([N+](=O)[O-])c3)[n+]2[O-])cc1
REMARK SMILES IDX 4 1 3 2 2 3 1 4 57 5 58 6 80 7 59 8 79 9 60 10 61 11 62 12
REMARK SMILES IDX 63 13 64 14 77 15 65 16 67 17 78 18 66 19 68 20 69 21 76 22
REMARK SMILES IDX 70 23 72 24 71 25 73 26 74 27 75 28 5 29 6 30 7 31 8 32 9 33
REMARK SMILES IDX 10 34 56 35 11 36 55 37 12 38 13 39 14 40 49 41 15 42 54 43
REMARK SMILES IDX 48 44 50 45 16 46 53 47 47 48 46 49 17 51 39 52 24 53 38 54
REMARK SMILES IDX 25 55 28 56 37 57 51 58 26 59 27 60 36 62 52 63 29 64 18 65
REMARK SMILES IDX 19 66 23 67 20 68 22 69 21 70 40 71 41 72 45 73 42 74 44 75
REMARK SMILES IDX 43 76 30 77 31 78 35 79 32 80 34 81 33 82
REMARK H PARENT 50 50 28 61
REMARK Flexibility Score: inf
ROOT
ATOM      1  C   UNL A   1      34.325  33.576  33.147  1.00  0.00     0.275 C 
ENDROOT
BRANCH   1   2
ATOM      2  O   UNL A   1      34.321  32.554  32.134  1.00  0.00    -0.458 OA
BRANCH   2   3
ATOM      3  C   UNL A   1      34.804  32.566  30.870  1.00  0.00     0.338 C 
ATOM      4  O   UNL A   1      34.162  33.167  30.009  1.00  0.00    -0.246 OA
BRANCH   3   5
ATOM      5  C   UNL A   1      36.003  31.784  30.413  1.00  0.00     0.060 A 
ATOM      6  C   UNL A   1      36.066  30.408  30.196  1.00  0.00     0.016 A 
ATOM      7  C   UNL A   1      37.177  32.524  30.176  1.00  0.00     0.016 A 
ATOM      8  C   UNL A   1      37.215  29.805  29.670  1.00  0.00     0.009 A 
ATOM      9  C   UNL A   1      38.338  31.916  29.681  1.00  0.00     0.009 A 
ATOM     10  C   UNL A   1      38.351  30.557  29.374  1.00  0.00    -0.025 A 
BRANCH  10  11
ATOM     11  C   UNL A   1      39.576  29.937  28.859  1.00  0.00     0.012 C 
ATOM     12  C   UNL A   1      39.621  29.095  27.813  1.00  0.00     0.053 C 
BRANCH  12  13
ATOM     13  C   UNL A   1      40.839  28.374  27.402  1.00  0.00     0.134 A 
ATOM     14  C   UNL A   1      41.761  29.013  26.573  1.00  0.00     0.100 A 
ATOM     15  N   UNL A   1      41.042  27.034  27.784  1.00  0.00    -0.228 N 
ATOM     16  C   UNL A   1      42.880  28.312  26.190  1.00  0.00     0.259 A 
ATOM     17  C   UNL A   1      42.199  26.396  27.335  1.00  0.00     0.333 A 
ATOM     18  O   UNL A   1      40.182  26.410  28.504  1.00  0.00    -0.710 OA
ATOM     19  N   UNL A   1      43.122  27.041  26.558  1.00  0.00    -0.049 NA
BRANCH  17  20
ATOM     20  C   UNL A   1      42.445  24.989  27.659  1.00  0.00     0.076 A 
ATOM     21  C   UNL A   1      43.069  24.627  28.865  1.00  0.00     0.017 A 
ATOM     22  C   UNL A   1      42.064  23.965  26.772  1.00  0.00     0.102 A 
ATOM     23  C   UNL A   1      43.284  23.285  29.195  1.00  0.00     0.008 A 
ATOM     24  C   UNL A   1      42.292  22.622  27.098  1.00  0.00     0.270 A 
ATOM     25  C   UNL A   1      42.898  22.278  28.311  1.00  0.00     0.085 A 
BRANCH  24  26
ATOM     26  N   UNL A   1      41.902  21.570  26.151  1.00  0.00     0.062 N 
ATOM     27  O   UNL A   1      40.718  21.202  26.155  1.00  0.00    -0.258 OA
ATOM     28  O   UNL A   1      42.781  21.098  25.416  1.00  0.00    -0.258 OA
ENDBRANCH  24  26
ENDBRANCH  17  20
ENDBRANCH  12  13
ENDBRANCH  10  11
ENDBRANCH   3   5
ENDBRANCH   2   3
ENDBRANCH   1   2
BRANCH   1  29
ATOM     29  C   UNL A   1      35.604  33.608  33.992  1.00  0.00     0.275 C 
BRANCH  29  30
ATOM     30  O   UNL A   1      36.264  32.332  34.057  1.00  0.00    -0.458 OA
BRANCH  30  31
ATOM     31  C   UNL A   1      37.356  32.304  34.863  1.00  0.00     0.338 C 
ATOM     32  O   UNL A   1      37.401  32.671  36.026  1.00  0.00    -0.246 OA
BRANCH  31  33
ATOM     33  C   UNL A   1      38.506  31.658  34.187  1.00  0.00     0.060 A 
ATOM     34  C   UNL A   1      39.779  32.177  34.454  1.00  0.00     0.016 A 
ATOM     35  C   UNL A   1      38.367  30.597  33.285  1.00  0.00     0.016 A 
ATOM     36  C   UNL A   1      40.900  31.676  33.791  1.00  0.00     0.010 A 
ATOM     37  C   UNL A   1      39.499  30.086  32.628  1.00  0.00     0.010 A 
ATOM     38  C   UNL A   1      40.770  30.643  32.851  1.00  0.00    -0.014 A 
BRANCH  38  39
ATOM     39  C   UNL A   1      41.966  30.229  32.067  1.00  0.00     0.031 A 
ATOM     40  C   UNL A   1      42.668  28.935  32.384  1.00  0.00     0.074 A 
ATOM     41  C   UNL A   1      42.389  30.956  31.016  1.00  0.00     0.049 A 
ATOM     42  N   UNL A   1      43.612  28.323  31.713  1.00  0.00    -0.248 NA
ATOM     43  C   UNL A   1      42.249  28.236  33.609  1.00  0.00     0.031 C 
ATOM     44  C   UNL A   1      41.810  32.222  30.580  1.00  0.00     0.029 A 
ATOM     45  N   UNL A   1      43.396  30.720  30.111  1.00  0.00    -0.354 N 
ATOM     46  C   UNL A   1      43.876  27.152  32.412  1.00  0.00     0.074 A 
ATOM     47  C   UNL A   1      43.041  27.174  33.596  1.00  0.00     0.031 C 
ATOM     48  C   UNL A   1      42.469  32.657  29.492  1.00  0.00     0.029 A 
ATOM     49  C   UNL A   1      43.509  31.691  29.147  1.00  0.00     0.049 A 
ATOM     50  H   UNL A   1      43.980  29.929  30.150  1.00  0.00     0.167 HD
ATOM     51  C   UNL A   1      44.710  26.135  32.088  1.00  0.00     0.031 A 
ATOM     52  C   UNL A   1      44.339  31.787  28.090  1.00  0.00     0.031 A 
ATOM     53  C   UNL A   1      45.566  26.105  30.931  1.00  0.00     0.049 A 
ATOM     54  C   UNL A   1      45.300  30.671  27.784  1.00  0.00     0.074 A 
ATOM     55  C   UNL A   1      46.429  25.101  30.523  1.00  0.00     0.029 A 
ATOM     56  N   UNL A   1      45.678  27.127  30.003  1.00  0.00    -0.354 N 
ATOM     57  N   UNL A   1      45.478  29.536  28.412  1.00  0.00    -0.248 NA
ATOM     58  C   UNL A   1      46.155  30.842  26.597  1.00  0.00     0.031 C 
ATOM     59  C   UNL A   1      47.101  25.537  29.376  1.00  0.00     0.029 A 
ATOM     60  C   UNL A   1      46.616  26.789  29.039  1.00  0.00     0.049 A 
ATOM     61  H   UNL A   1      45.168  27.968  30.025  1.00  0.00     0.167 HD
ATOM     62  C   UNL A   1      46.438  28.845  27.681  1.00  0.00     0.074 A 
ATOM     63  C   UNL A   1      46.791  29.680  26.553  1.00  0.00     0.031 C 
ATOM     64  C   UNL A   1      46.975  27.624  27.923  1.00  0.00     0.031 A 
BRANCH  51  65
ATOM     65  C   UNL A   1      44.733  24.949  33.012  1.00  0.00    -0.014 A 
ATOM     66  C   UNL A   1      43.845  23.878  32.826  1.00  0.00     0.009 A 
ATOM     67  C   UNL A   1      45.679  24.880  34.046  1.00  0.00     0.009 A 
ATOM     68  C   UNL A   1      43.885  22.772  33.677  1.00  0.00     0.001 A 
ATOM     69  C   UNL A   1      45.733  23.761  34.879  1.00  0.00     0.001 A 
ATOM     70  C   UNL A   1      44.831  22.713  34.699  1.00  0.00     0.000 A 
ENDBRANCH  51  65
BRANCH  52  71
ATOM     71  C   UNL A   1      44.293  32.987  27.213  1.00  0.00    -0.014 A 
ATOM     72  C   UNL A   1      44.714  34.240  27.684  1.00  0.00     0.009 A 
ATOM     73  C   UNL A   1      43.779  32.887  25.911  1.00  0.00     0.009 A 
ATOM     74  C   UNL A   1      44.585  35.376  26.882  1.00  0.00     0.001 A 
ATOM     75  C   UNL A   1      43.678  34.020  25.101  1.00  0.00     0.001 A 
ATOM     76  C   UNL A   1      44.069  35.265  25.592  1.00  0.00     0.000 A 
ENDBRANCH  52  71
BRANCH  64  77
ATOM     77  C   UNL A   1      47.987  27.107  26.937  1.00  0.00    -0.014 A 
ATOM     78  C   UNL A   1      47.594  26.407  25.785  1.00  0.00     0.009 A 
ATOM     79  C   UNL A   1      49.355  27.339  27.155  1.00  0.00     0.009 A 
ATOM     80  C   UNL A   1      48.551  25.913  24.895  1.00  0.00     0.001 A 
ATOM     81  C   UNL A   1      50.307  26.870  26.248  1.00  0.00     0.001 A 
ATOM     82  C   UNL A   1      49.906  26.147  25.125  1.00  0.00     0.000 A 
ENDBRANCH  64  77
ENDBRANCH  38  39
ENDBRANCH  31  33
ENDBRANCH  30  31
ENDBRANCH  29  30
ENDBRANCH   1  29
TORSDOF 15
ENDMDL
MODEL 3
REMARK VINA RESULT:      -9.5      3.264      6.555
REMARK SMILES O=C(OCCOC(=O)c1ccc(-c2c3nc(c(-c4ccccc4)c4ccc([nH]4)c(-c4ccccc4)c4nc(c(-c5ccccc5)c5ccc2[nH]5)C=C4)C=C3)cc1)c1ccc(/C=C/c2ccnc(-c3cccc([N+](=O)[O-])c3)[n+]2[O-])cc1
REMARK SMILES IDX 4 1 3 2 2 3 1 4 57 5 58 6 80 7 59 8 79 9 60 10 61 11 62 12
REMARK SMILES IDX 63 13 64 14 77 15 65 16 67 17 78 18 66 19 68 20 69 21 76 22
REMARK SMILES IDX 70 23 72 24 71 25 73 26 74 27 75 28 5 29 6 30 7 31 8 32 9 33
REMARK SMILES IDX 10 34 56 35 11 36 55 37 12 38 13 39 14 40 49 41 15 42 54 43
REMARK SMILES IDX 48 44 50 45 16 46 53 47 47 48 46 49 17 51 39 52 24 53 38 54
REMARK SMILES IDX 25 55 28 56 37 57 51 58 26 59 27 60 36 62 52 63 29 64 18 65
REMARK SMILES IDX 19 66 23 67 20 68 22 69 21 70 40 71 41 72 45 73 42 74 44 75
REMARK SMILES IDX 43 76 30 77 31 78 35 79 32 80 34 81 33 82
REMARK H PARENT 50 50 28 61
REMARK Flexibility Score: inf
ROOT
ATOM      1  C   UNL A   1      34.248  33.717  32.842  1.00  0.00     0.275 C 
ENDROOT
BRANCH   1   2
ATOM      2  O   UNL A   1      34.367  32.660  31.874  1.00  0.00    -0.458 OA
BRANCH   2   3
ATOM      3  C   UNL A   1      34.777  32.690  30.584  1.00  0.00     0.338 C 
ATOM      4  O   UNL A   1      33.998  33.131  29.738  1.00  0.00    -0.246 OA
BRANCH   3   5
ATOM      5  C   UNL A   1      36.067  32.101  30.090  1.00  0.00     0.060 A 
ATOM      6  C   UNL A   1      37.147  32.797  29.549  1.00  0.00     0.016 A 
ATOM      7  C   UNL A   1      36.194  30.702  30.192  1.00  0.00     0.016 A 
ATOM      8  C   UNL A   1      38.342  32.147  29.217  1.00  0.00     0.009 A 
ATOM      9  C   UNL A   1      37.376  30.046  29.828  1.00  0.00     0.009 A 
ATOM     10  C   UNL A   1      38.482  30.770  29.384  1.00  0.00    -0.025 A 
BRANCH  10  11
ATOM     11  C   UNL A   1      39.711  30.065  29.006  1.00  0.00     0.012 C 
ATOM     12  C   UNL A   1      39.863  29.353  27.877  1.00  0.00     0.053 C 
BRANCH  12  13
ATOM     13  C   UNL A   1      41.056  28.537  27.586  1.00  0.00     0.134 A 
ATOM     14  C   UNL A   1      42.064  29.068  26.782  1.00  0.00     0.100 A 
ATOM     15  N   UNL A   1      41.151  27.213  28.056  1.00  0.00    -0.228 N 
ATOM     16  C   UNL A   1      43.157  28.280  26.512  1.00  0.00     0.259 A 
ATOM     17  C   UNL A   1      42.290  26.481  27.719  1.00  0.00     0.333 A 
ATOM     18  O   UNL A   1      40.212  26.686  28.754  1.00  0.00    -0.710 OA
ATOM     19  N   UNL A   1      43.297  27.022  26.966  1.00  0.00    -0.049 NA
BRANCH  17  20
ATOM     20  C   UNL A   1      42.427  25.085  28.137  1.00  0.00     0.076 A 
ATOM     21  C   UNL A   1      43.271  24.733  29.204  1.00  0.00     0.017 A 
ATOM     22  C   UNL A   1      41.719  24.061  27.482  1.00  0.00     0.102 A 
ATOM     23  C   UNL A   1      43.388  23.406  29.627  1.00  0.00     0.008 A 
ATOM     24  C   UNL A   1      41.847  22.730  27.899  1.00  0.00     0.270 A 
ATOM     25  C   UNL A   1      42.677  22.398  28.975  1.00  0.00     0.085 A 
BRANCH  24  26
ATOM     26  N   UNL A   1      41.111  21.673  27.191  1.00  0.00     0.062 N 
ATOM     27  O   UNL A   1      40.817  20.652  27.828  1.00  0.00    -0.258 OA
ATOM     28  O   UNL A   1      40.845  21.856  25.995  1.00  0.00    -0.258 OA
ENDBRANCH  24  26
ENDBRANCH  17  20
ENDBRANCH  12  13
ENDBRANCH  10  11
ENDBRANCH   3   5
ENDBRANCH   2   3
ENDBRANCH   1   2
BRANCH   1  29
ATOM     29  C   UNL A   1      35.262  34.851  32.652  1.00  0.00     0.275 C 
BRANCH  29  30
ATOM     30  O   UNL A   1      35.916  35.229  33.876  1.00  0.00    -0.458 OA
BRANCH  30  31
ATOM     31  C   UNL A   1      36.412  34.189  34.593  1.00  0.00     0.338 C 
ATOM     32  O   UNL A   1      35.901  33.690  35.584  1.00  0.00    -0.246 OA
BRANCH  31  33
ATOM     33  C   UNL A   1      37.631  33.633  33.961  1.00  0.00     0.060 A 
ATOM     34  C   UNL A   1      37.534  32.355  33.396  1.00  0.00     0.016 A 
ATOM     35  C   UNL A   1      38.858  34.306  33.941  1.00  0.00     0.016 A 
ATOM     36  C   UNL A   1      38.661  31.733  32.858  1.00  0.00     0.010 A 
ATOM     37  C   UNL A   1      39.988  33.682  33.387  1.00  0.00     0.010 A 
ATOM     38  C   UNL A   1      39.906  32.377  32.871  1.00  0.00    -0.014 A 
BRANCH  38  39
ATOM     39  C   UNL A   1      41.108  31.629  32.412  1.00  0.00     0.031 A 
ATOM     40  C   UNL A   1      41.544  30.381  33.133  1.00  0.00     0.074 A 
ATOM     41  C   UNL A   1      41.774  32.003  31.302  1.00  0.00     0.049 A 
ATOM     42  N   UNL A   1      42.454  29.504  32.788  1.00  0.00    -0.248 NA
ATOM     43  C   UNL A   1      40.866  30.078  34.403  1.00  0.00     0.031 C 
ATOM     44  C   UNL A   1      41.469  33.179  30.494  1.00  0.00     0.029 A 
ATOM     45  N   UNL A   1      42.835  31.418  30.655  1.00  0.00    -0.354 N 
ATOM     46  C   UNL A   1      42.432  28.527  33.775  1.00  0.00     0.074 A 
ATOM     47  C   UNL A   1      41.469  28.956  34.768  1.00  0.00     0.031 C 
ATOM     48  C   UNL A   1      42.322  33.233  29.457  1.00  0.00     0.029 A 
ATOM     49  C   UNL A   1      43.227  32.088  29.522  1.00  0.00     0.049 A 
ATOM     50  H   UNL A   1      43.274  30.596  30.973  1.00  0.00     0.167 HD
ATOM     51  C   UNL A   1      43.124  27.364  33.840  1.00  0.00     0.031 A 
ATOM     52  C   UNL A   1      44.188  31.805  28.622  1.00  0.00     0.031 A 
ATOM     53  C   UNL A   1      44.104  26.932  32.877  1.00  0.00     0.049 A 
ATOM     54  C   UNL A   1      44.986  30.536  28.747  1.00  0.00     0.074 A 
ATOM     55  C   UNL A   1      44.836  25.755  32.863  1.00  0.00     0.029 A 
ATOM     56  N   UNL A   1      44.498  27.659  31.767  1.00  0.00    -0.354 N 
ATOM     57  N   UNL A   1      44.896  29.586  29.645  1.00  0.00    -0.248 NA
ATOM     58  C   UNL A   1      46.001  30.287  27.710  1.00  0.00     0.031 C 
ATOM     59  C   UNL A   1      45.710  25.795  31.770  1.00  0.00     0.029 A 
ATOM     60  C   UNL A   1      45.483  26.970  31.075  1.00  0.00     0.049 A 
ATOM     61  H   UNL A   1      44.132  28.535  31.507  1.00  0.00     0.167 HD
ATOM     62  C   UNL A   1      45.815  28.615  29.263  1.00  0.00     0.074 A 
ATOM     63  C   UNL A   1      46.440  29.082  28.044  1.00  0.00     0.031 C 
ATOM     64  C   UNL A   1      46.111  27.439  29.869  1.00  0.00     0.031 A 
BRANCH  51  65
ATOM     65  C   UNL A   1      42.837  26.461  35.007  1.00  0.00    -0.014 A 
ATOM     66  C   UNL A   1      43.601  26.543  36.181  1.00  0.00     0.009 A 
ATOM     67  C   UNL A   1      41.766  25.558  34.951  1.00  0.00     0.009 A 
ATOM     68  C   UNL A   1      43.316  25.714  37.268  1.00  0.00     0.001 A 
ATOM     69  C   UNL A   1      41.468  24.748  36.048  1.00  0.00     0.001 A 
ATOM     70  C   UNL A   1      42.248  24.822  37.202  1.00  0.00     0.000 A 
ENDBRANCH  51  65
BRANCH  52  71
ATOM     71  C   UNL A   1      44.450  32.736  27.493  1.00  0.00    -0.014 A 
ATOM     72  C   UNL A   1      43.851  32.534  26.239  1.00  0.00     0.009 A 
ATOM     73  C   UNL A   1      45.341  33.807  27.656  1.00  0.00     0.009 A 
ATOM     74  C   UNL A   1      44.172  33.363  25.162  1.00  0.00     0.001 A 
ATOM     75  C   UNL A   1      45.637  34.652  26.585  1.00  0.00     0.001 A 
ATOM     76  C   UNL A   1      45.062  34.421  25.336  1.00  0.00     0.000 A 
ENDBRANCH  52  71
BRANCH  64  77
ATOM     77  C   UNL A   1      47.143  26.564  29.210  1.00  0.00    -0.014 A 
ATOM     78  C   UNL A   1      46.794  25.668  28.186  1.00  0.00     0.009 A 
ATOM     79  C   UNL A   1      48.486  26.649  29.607  1.00  0.00     0.009 A 
ATOM     80  C   UNL A   1      47.763  24.846  27.605  1.00  0.00     0.001 A 
ATOM     81  C   UNL A   1      49.457  25.846  29.004  1.00  0.00     0.001 A 
ATOM     82  C   UNL A   1      49.093  24.937  28.012  1.00  0.00     0.000 A 
ENDBRANCH  64  77
ENDBRANCH  38  39
ENDBRANCH  31  33
ENDBRANCH  30  31
ENDBRANCH  29  30
ENDBRANCH   1  29
TORSDOF 15
ENDMDL
