MODEL 1
REMARK VINA RESULT:     -11.6      0.000      0.000
REMARK SMILES O=C(OCCOC(=O)[C@@H]1CCCC[C@@H]1NS(=O)(=O)c1ccc2ccccc2c1)c1ccc(-c2c3nc(c(-c4ccccc4)c4ccc([nH]4)c(-c4ccccc4)c4nc(c(-c5ccccc5)c5ccc2[nH]5)C=C4)C=C3)cc1
REMARK SMILES IDX 5 1 4 2 3 3 2 4 1 5 29 6 30 7 76 8 31 9 75 10 32 11 33 12
REMARK SMILES IDX 34 13 69 14 35 15 74 16 68 17 70 18 36 19 73 20 67 21 66 22
REMARK SMILES IDX 37 24 59 25 44 26 58 27 45 28 48 29 57 30 71 31 46 32 47 33
REMARK SMILES IDX 56 35 72 36 49 37 38 38 39 39 43 40 40 41 42 42 41 43 60 44
REMARK SMILES IDX 61 45 65 46 62 47 64 48 63 49 50 50 51 51 55 52 52 53 54 54
REMARK SMILES IDX 53 55 6 56 7 57 8 58 9 59 10 60 14 61 11 62 13 63 12 64
REMARK SMILES IDX 15 65 16 67 17 68 18 69 19 70 20 71 28 72 21 73 27 74 22 75
REMARK SMILES IDX 26 76 23 77 25 78 24 79
REMARK H PARENT 70 23 48 34 15 66
REMARK Flexibility Score: inf
ROOT
ATOM      1  C   UNL A   1      38.191  21.828  25.575  1.00  0.00     0.274 C 
ENDROOT
BRANCH   1   2
ATOM      2  C   UNL A   1      38.794  20.424  25.314  1.00  0.00     0.275 C 
BRANCH   2   3
ATOM      3  O   UNL A   1      39.686  19.984  26.371  1.00  0.00    -0.458 OA
BRANCH   3   4
ATOM      4  C   UNL A   1      41.026  19.922  26.081  1.00  0.00     0.338 C 
ATOM      5  O   UNL A   1      41.548  19.159  25.289  1.00  0.00    -0.246 OA
BRANCH   4   6
ATOM      6  C   UNL A   1      41.705  21.098  26.725  1.00  0.00     0.060 A 
ATOM      7  C   UNL A   1      41.829  22.217  25.921  1.00  0.00     0.016 A 
ATOM      8  C   UNL A   1      42.157  21.215  28.043  1.00  0.00     0.016 A 
ATOM      9  C   UNL A   1      42.187  23.461  26.455  1.00  0.00     0.010 A 
ATOM     10  C   UNL A   1      42.570  22.494  28.567  1.00  0.00     0.010 A 
ATOM     11  C   UNL A   1      42.514  23.666  27.786  1.00  0.00    -0.014 A 
BRANCH  11  12
ATOM     12  C   UNL A   1      42.800  25.111  28.168  1.00  0.00     0.031 A 
ATOM     13  C   UNL A   1      44.109  25.693  27.705  1.00  0.00     0.074 A 
ATOM     14  C   UNL A   1      41.879  26.066  28.478  1.00  0.00     0.049 A 
ATOM     15  N   UNL A   1      44.448  26.953  27.599  1.00  0.00    -0.248 NA
ATOM     16  C   UNL A   1      45.080  24.748  27.134  1.00  0.00     0.031 C 
ATOM     17  C   UNL A   1      40.445  25.932  28.365  1.00  0.00     0.029 A 
ATOM     18  N   UNL A   1      41.988  27.392  28.866  1.00  0.00    -0.354 N 
ATOM     19  C   UNL A   1      45.593  26.963  26.827  1.00  0.00     0.074 A 
ATOM     20  C   UNL A   1      45.937  25.579  26.562  1.00  0.00     0.031 C 
ATOM     21  C   UNL A   1      39.792  26.989  28.850  1.00  0.00     0.029 A 
ATOM     22  C   UNL A   1      40.779  27.980  29.199  1.00  0.00     0.049 A 
ATOM     23  H   UNL A   1      42.846  27.872  28.903  1.00  0.00     0.167 HD
ATOM     24  C   UNL A   1      46.280  28.025  26.351  1.00  0.00     0.031 A 
ATOM     25  C   UNL A   1      40.427  29.200  29.644  1.00  0.00     0.031 A 
ATOM     26  C   UNL A   1      46.048  29.399  26.705  1.00  0.00     0.049 A 
ATOM     27  C   UNL A   1      41.453  30.272  29.602  1.00  0.00     0.074 A 
ATOM     28  C   UNL A   1      46.840  30.499  26.423  1.00  0.00     0.029 A 
ATOM     29  N   UNL A   1      44.976  29.863  27.453  1.00  0.00    -0.354 N 
ATOM     30  N   UNL A   1      42.591  30.252  28.960  1.00  0.00    -0.248 NA
ATOM     31  C   UNL A   1      41.142  31.539  30.271  1.00  0.00     0.031 C 
ATOM     32  C   UNL A   1      46.305  31.609  27.089  1.00  0.00     0.029 A 
ATOM     33  C   UNL A   1      45.144  31.214  27.732  1.00  0.00     0.049 A 
ATOM     34  H   UNL A   1      44.210  29.316  27.742  1.00  0.00     0.167 HD
ATOM     35  C   UNL A   1      43.111  31.523  29.093  1.00  0.00     0.074 A 
ATOM     36  C   UNL A   1      42.171  32.286  29.889  1.00  0.00     0.031 C 
ATOM     37  C   UNL A   1      44.259  31.997  28.557  1.00  0.00     0.031 A 
BRANCH  24  38
ATOM     38  C   UNL A   1      47.440  27.684  25.474  1.00  0.00    -0.014 A 
ATOM     39  C   UNL A   1      48.726  27.514  26.009  1.00  0.00     0.009 A 
ATOM     40  C   UNL A   1      47.251  27.628  24.086  1.00  0.00     0.009 A 
ATOM     41  C   UNL A   1      49.814  27.325  25.158  1.00  0.00     0.001 A 
ATOM     42  C   UNL A   1      48.341  27.432  23.241  1.00  0.00     0.001 A 
ATOM     43  C   UNL A   1      49.620  27.289  23.776  1.00  0.00     0.000 A 
ENDBRANCH  24  38
BRANCH  25  44
ATOM     44  C   UNL A   1      39.053  29.474  30.158  1.00  0.00    -0.014 A 
ATOM     45  C   UNL A   1      38.671  29.178  31.475  1.00  0.00     0.009 A 
ATOM     46  C   UNL A   1      38.081  29.977  29.274  1.00  0.00     0.009 A 
ATOM     47  C   UNL A   1      37.341  29.343  31.881  1.00  0.00     0.001 A 
ATOM     48  C   UNL A   1      36.759  30.156  29.687  1.00  0.00     0.001 A 
ATOM     49  C   UNL A   1      36.387  29.825  30.987  1.00  0.00     0.000 A 
ENDBRANCH  25  44
BRANCH  37  50
ATOM     50  C   UNL A   1      44.583  33.432  28.834  1.00  0.00    -0.014 A 
ATOM     51  C   UNL A   1      45.324  33.795  29.969  1.00  0.00     0.009 A 
ATOM     52  C   UNL A   1      44.144  34.434  27.956  1.00  0.00     0.009 A 
ATOM     53  C   UNL A   1      45.593  35.138  30.235  1.00  0.00     0.001 A 
ATOM     54  C   UNL A   1      44.440  35.773  28.208  1.00  0.00     0.001 A 
ATOM     55  C   UNL A   1      45.157  36.125  29.353  1.00  0.00     0.000 A 
ENDBRANCH  37  50
ENDBRANCH  11  12
ENDBRANCH   4   6
ENDBRANCH   3   4
ENDBRANCH   2   3
ENDBRANCH   1   2
BRANCH   1  56
ATOM     56  O   UNL A   1      37.093  22.080  24.695  1.00  0.00    -0.462 OA
BRANCH  56  57
ATOM     57  C   UNL A   1      36.124  22.867  25.235  1.00  0.00     0.310 C 
ATOM     58  O   UNL A   1      36.238  23.511  26.269  1.00  0.00    -0.252 OA
BRANCH  57  59
ATOM     59  C   UNL A   1      34.982  23.030  24.275  1.00  0.00     0.117 C 
ATOM     60  C   UNL A   1      34.538  24.483  24.019  1.00  0.00     0.017 C 
ATOM     61  C   UNL A   1      33.792  22.062  24.507  1.00  0.00     0.084 C 
ATOM     62  C   UNL A   1      33.759  24.577  22.703  1.00  0.00     0.001 C 
ATOM     63  C   UNL A   1      33.024  22.227  23.172  1.00  0.00     0.021 C 
ATOM     64  C   UNL A   1      32.583  23.627  22.744  1.00  0.00     0.002 C 
BRANCH  61  65
ATOM     65  N   UNL A   1      33.146  22.272  25.852  1.00  0.00    -0.207 NA
ATOM     66  H   UNL A   1      33.875  22.751  26.382  1.00  0.00     0.141 HD
BRANCH  65  67
ATOM     67  S   UNL A   1      31.698  23.056  26.386  1.00  0.00     0.240 S 
ATOM     68  O   UNL A   1      30.655  22.271  25.714  1.00  0.00    -0.207 OA
ATOM     69  O   UNL A   1      31.738  23.084  27.810  1.00  0.00    -0.207 OA
BRANCH  67  70
ATOM     70  C   UNL A   1      31.353  24.760  25.873  1.00  0.00     0.083 A 
ATOM     71  C   UNL A   1      32.079  25.809  26.477  1.00  0.00     0.022 A 
ATOM     72  C   UNL A   1      30.294  25.134  25.049  1.00  0.00     0.030 A 
ATOM     73  C   UNL A   1      32.061  27.109  25.946  1.00  0.00     0.010 A 
ATOM     74  C   UNL A   1      30.177  26.481  24.583  1.00  0.00    -0.017 A 
ATOM     75  C   UNL A   1      31.163  27.435  24.931  1.00  0.00    -0.018 A 
ATOM     76  C   UNL A   1      29.139  26.912  23.736  1.00  0.00     0.009 A 
ATOM     77  C   UNL A   1      31.222  28.678  24.270  1.00  0.00     0.009 A 
ATOM     78  C   UNL A   1      29.171  28.174  23.126  1.00  0.00     0.001 A 
ATOM     79  C   UNL A   1      30.242  29.034  23.346  1.00  0.00     0.001 A 
ENDBRANCH  67  70
ENDBRANCH  65  67
ENDBRANCH  61  65
ENDBRANCH  57  59
ENDBRANCH  56  57
ENDBRANCH   1  56
TORSDOF 14
ENDMDL
MODEL 2
REMARK VINA RESULT:     -11.6      4.519      9.629
REMARK SMILES O=C(OCCOC(=O)[C@@H]1CCCC[C@@H]1NS(=O)(=O)c1ccc2ccccc2c1)c1ccc(-c2c3nc(c(-c4ccccc4)c4ccc([nH]4)c(-c4ccccc4)c4nc(c(-c5ccccc5)c5ccc2[nH]5)C=C4)C=C3)cc1
REMARK SMILES IDX 5 1 4 2 3 3 2 4 1 5 29 6 30 7 76 8 31 9 75 10 32 11 33 12
REMARK SMILES IDX 34 13 69 14 35 15 74 16 68 17 70 18 36 19 73 20 67 21 66 22
REMARK SMILES IDX 37 24 59 25 44 26 58 27 45 28 48 29 57 30 71 31 46 32 47 33
REMARK SMILES IDX 56 35 72 36 49 37 38 38 39 39 43 40 40 41 42 42 41 43 60 44
REMARK SMILES IDX 61 45 65 46 62 47 64 48 63 49 50 50 51 51 55 52 52 53 54 54
REMARK SMILES IDX 53 55 6 56 7 57 8 58 9 59 10 60 14 61 11 62 13 63 12 64
REMARK SMILES IDX 15 65 16 67 17 68 18 69 19 70 20 71 28 72 21 73 27 74 22 75
REMARK SMILES IDX 26 76 23 77 25 78 24 79
REMARK H PARENT 70 23 48 34 15 66
REMARK Flexibility Score: inf
ROOT
ATOM      1  C   UNL A   1      31.459  31.190  26.090  1.00  0.00     0.274 C 
ENDROOT
BRANCH   1   2
ATOM      2  C   UNL A   1      31.608  32.355  27.102  1.00  0.00     0.275 C 
BRANCH   2   3
ATOM      3  O   UNL A   1      32.982  32.795  27.261  1.00  0.00    -0.458 OA
BRANCH   3   4
ATOM      4  C   UNL A   1      33.221  33.804  28.160  1.00  0.00     0.338 C 
ATOM      5  O   UNL A   1      32.406  34.621  28.546  1.00  0.00    -0.246 OA
BRANCH   4   6
ATOM      6  C   UNL A   1      34.582  33.591  28.761  1.00  0.00     0.060 A 
ATOM      7  C   UNL A   1      34.675  32.531  29.644  1.00  0.00     0.016 A 
ATOM      8  C   UNL A   1      35.763  34.286  28.482  1.00  0.00     0.016 A 
ATOM      9  C   UNL A   1      35.917  32.044  30.070  1.00  0.00     0.010 A 
ATOM     10  C   UNL A   1      37.032  33.801  28.968  1.00  0.00     0.010 A 
ATOM     11  C   UNL A   1      37.132  32.610  29.715  1.00  0.00    -0.014 A 
BRANCH  11  12
ATOM     12  C   UNL A   1      38.363  31.877  30.229  1.00  0.00     0.031 A 
ATOM     13  C   UNL A   1      38.765  32.134  31.656  1.00  0.00     0.074 A 
ATOM     14  C   UNL A   1      38.879  30.716  29.737  1.00  0.00     0.049 A 
ATOM     15  N   UNL A   1      39.539  31.414  32.427  1.00  0.00    -0.248 NA
ATOM     16  C   UNL A   1      38.076  33.238  32.341  1.00  0.00     0.031 C 
ATOM     17  C   UNL A   1      38.277  29.879  28.725  1.00  0.00     0.029 A 
ATOM     18  N   UNL A   1      39.990  29.959  30.075  1.00  0.00    -0.354 N 
ATOM     19  C   UNL A   1      39.321  31.881  33.708  1.00  0.00     0.074 A 
ATOM     20  C   UNL A   1      38.406  33.001  33.600  1.00  0.00     0.031 C 
ATOM     21  C   UNL A   1      39.067  28.867  28.360  1.00  0.00     0.029 A 
ATOM     22  C   UNL A   1      40.218  28.887  29.228  1.00  0.00     0.049 A 
ATOM     23  H   UNL A   1      40.565  30.165  30.847  1.00  0.00     0.167 HD
ATOM     24  C   UNL A   1      39.809  31.402  34.874  1.00  0.00     0.031 A 
ATOM     25  C   UNL A   1      41.166  27.935  29.164  1.00  0.00     0.031 A 
ATOM     26  C   UNL A   1      40.818  30.387  35.006  1.00  0.00     0.049 A 
ATOM     27  C   UNL A   1      42.085  27.798  30.320  1.00  0.00     0.074 A 
ATOM     28  C   UNL A   1      41.505  30.009  36.147  1.00  0.00     0.029 A 
ATOM     29  N   UNL A   1      41.322  29.620  33.967  1.00  0.00    -0.354 N 
ATOM     30  N   UNL A   1      41.945  28.323  31.509  1.00  0.00    -0.248 NA
ATOM     31  C   UNL A   1      43.242  26.909  30.170  1.00  0.00     0.031 C 
ATOM     32  C   UNL A   1      42.497  29.090  35.780  1.00  0.00     0.029 A 
ATOM     33  C   UNL A   1      42.385  28.848  34.421  1.00  0.00     0.049 A 
ATOM     34  H   UNL A   1      40.978  29.622  33.045  1.00  0.00     0.167 HD
ATOM     35  C   UNL A   1      42.958  27.782  32.272  1.00  0.00     0.074 A 
ATOM     36  C   UNL A   1      43.717  26.899  31.409  1.00  0.00     0.031 C 
ATOM     37  C   UNL A   1      43.193  27.993  33.588  1.00  0.00     0.031 A 
BRANCH  24  38
ATOM     38  C   UNL A   1      39.309  32.097  36.099  1.00  0.00    -0.014 A 
ATOM     39  C   UNL A   1      38.153  31.655  36.759  1.00  0.00     0.009 A 
ATOM     40  C   UNL A   1      39.953  33.265  36.531  1.00  0.00     0.009 A 
ATOM     41  C   UNL A   1      37.632  32.395  37.820  1.00  0.00     0.001 A 
ATOM     42  C   UNL A   1      39.432  33.996  37.595  1.00  0.00     0.001 A 
ATOM     43  C   UNL A   1      38.270  33.566  38.233  1.00  0.00     0.000 A 
ENDBRANCH  24  38
BRANCH  25  44
ATOM     44  C   UNL A   1      41.291  27.041  27.975  1.00  0.00    -0.014 A 
ATOM     45  C   UNL A   1      41.967  27.431  26.809  1.00  0.00     0.009 A 
ATOM     46  C   UNL A   1      40.646  25.791  27.990  1.00  0.00     0.009 A 
ATOM     47  C   UNL A   1      41.960  26.608  25.677  1.00  0.00     0.001 A 
ATOM     48  C   UNL A   1      40.655  24.965  26.864  1.00  0.00     0.001 A 
ATOM     49  C   UNL A   1      41.300  25.381  25.703  1.00  0.00     0.000 A 
ENDBRANCH  25  44
BRANCH  37  50
ATOM     50  C   UNL A   1      44.351  27.259  34.187  1.00  0.00    -0.014 A 
ATOM     51  C   UNL A   1      45.619  27.855  34.264  1.00  0.00     0.009 A 
ATOM     52  C   UNL A   1      44.179  25.956  34.678  1.00  0.00     0.009 A 
ATOM     53  C   UNL A   1      46.700  27.149  34.794  1.00  0.00     0.001 A 
ATOM     54  C   UNL A   1      45.254  25.264  35.236  1.00  0.00     0.001 A 
ATOM     55  C   UNL A   1      46.515  25.858  35.285  1.00  0.00     0.000 A 
ENDBRANCH  37  50
ENDBRANCH  11  12
ENDBRANCH   4   6
ENDBRANCH   3   4
ENDBRANCH   2   3
ENDBRANCH   1   2
BRANCH   1  56
ATOM     56  O   UNL A   1      31.789  29.940  26.703  1.00  0.00    -0.462 OA
BRANCH  56  57
ATOM     57  C   UNL A   1      32.392  29.058  25.862  1.00  0.00     0.310 C 
ATOM     58  O   UNL A   1      33.585  29.049  25.592  1.00  0.00    -0.252 OA
BRANCH  57  59
ATOM     59  C   UNL A   1      31.448  27.950  25.497  1.00  0.00     0.117 C 
ATOM     60  C   UNL A   1      31.812  26.561  26.058  1.00  0.00     0.017 C 
ATOM     61  C   UNL A   1      31.034  27.913  24.002  1.00  0.00     0.084 C 
ATOM     62  C   UNL A   1      30.578  25.652  26.066  1.00  0.00     0.001 C 
ATOM     63  C   UNL A   1      29.818  26.956  24.064  1.00  0.00     0.021 C 
ATOM     64  C   UNL A   1      30.007  25.563  24.668  1.00  0.00     0.002 C 
BRANCH  61  65
ATOM     65  N   UNL A   1      32.214  27.676  23.095  1.00  0.00    -0.207 NA
ATOM     66  H   UNL A   1      33.010  27.903  23.692  1.00  0.00     0.141 HD
BRANCH  65  67
ATOM     67  S   UNL A   1      32.784  26.318  22.185  1.00  0.00     0.240 S 
ATOM     68  O   UNL A   1      31.614  25.979  21.368  1.00  0.00    -0.207 OA
ATOM     69  O   UNL A   1      33.990  26.722  21.541  1.00  0.00    -0.207 OA
BRANCH  67  70
ATOM     70  C   UNL A   1      33.180  24.767  23.034  1.00  0.00     0.083 A 
ATOM     71  C   UNL A   1      34.256  24.750  23.950  1.00  0.00     0.022 A 
ATOM     72  C   UNL A   1      32.615  23.532  22.722  1.00  0.00     0.030 A 
ATOM     73  C   UNL A   1      34.446  23.675  24.833  1.00  0.00     0.010 A 
ATOM     74  C   UNL A   1      32.881  22.385  23.533  1.00  0.00    -0.017 A 
ATOM     75  C   UNL A   1      33.697  22.509  24.684  1.00  0.00    -0.018 A 
ATOM     76  C   UNL A   1      32.325  21.119  23.276  1.00  0.00     0.009 A 
ATOM     77  C   UNL A   1      33.749  21.475  25.639  1.00  0.00     0.009 A 
ATOM     78  C   UNL A   1      32.430  20.073  24.204  1.00  0.00     0.001 A 
ATOM     79  C   UNL A   1      33.091  20.269  25.412  1.00  0.00     0.001 A 
ENDBRANCH  67  70
ENDBRANCH  65  67
ENDBRANCH  61  65
ENDBRANCH  57  59
ENDBRANCH  56  57
ENDBRANCH   1  56
TORSDOF 14
ENDMDL
MODEL 3
REMARK VINA RESULT:     -11.4      4.762      9.801
REMARK SMILES O=C(OCCOC(=O)[C@@H]1CCCC[C@@H]1NS(=O)(=O)c1ccc2ccccc2c1)c1ccc(-c2c3nc(c(-c4ccccc4)c4ccc([nH]4)c(-c4ccccc4)c4nc(c(-c5ccccc5)c5ccc2[nH]5)C=C4)C=C3)cc1
REMARK SMILES IDX 5 1 4 2 3 3 2 4 1 5 29 6 30 7 76 8 31 9 75 10 32 11 33 12
REMARK SMILES IDX 34 13 69 14 35 15 74 16 68 17 70 18 36 19 73 20 67 21 66 22
REMARK SMILES IDX 37 24 59 25 44 26 58 27 45 28 48 29 57 30 71 31 46 32 47 33
REMARK SMILES IDX 56 35 72 36 49 37 38 38 39 39 43 40 40 41 42 42 41 43 60 44
REMARK SMILES IDX 61 45 65 46 62 47 64 48 63 49 50 50 51 51 55 52 52 53 54 54
REMARK SMILES IDX 53 55 6 56 7 57 8 58 9 59 10 60 14 61 11 62 13 63 12 64
REMARK SMILES IDX 15 65 16 67 17 68 18 69 19 70 20 71 28 72 21 73 27 74 22 75
REMARK SMILES IDX 26 76 23 77 25 78 24 79
REMARK H PARENT 70 23 48 34 15 66
REMARK Flexibility Score: inf
ROOT
ATOM      1  C   UNL A   1      41.582  20.951  25.851  1.00  0.00     0.274 C 
ENDROOT
BRANCH   1   2
ATOM      2  C   UNL A   1      40.736  20.812  27.143  1.00  0.00     0.275 C 
BRANCH   2   3
ATOM      3  O   UNL A   1      40.248  22.084  27.642  1.00  0.00    -0.458 OA
BRANCH   3   4
ATOM      4  C   UNL A   1      39.490  22.848  26.789  1.00  0.00     0.338 C 
ATOM      5  O   UNL A   1      38.567  22.447  26.105  1.00  0.00    -0.246 OA
BRANCH   4   6
ATOM      6  C   UNL A   1      39.835  24.294  27.013  1.00  0.00     0.060 A 
ATOM      7  C   UNL A   1      39.399  24.822  28.215  1.00  0.00     0.016 A 
ATOM      8  C   UNL A   1      40.594  25.133  26.192  1.00  0.00     0.016 A 
ATOM      9  C   UNL A   1      39.870  26.055  28.682  1.00  0.00     0.010 A 
ATOM     10  C   UNL A   1      41.032  26.424  26.667  1.00  0.00     0.010 A 
ATOM     11  C   UNL A   1      40.734  26.872  27.970  1.00  0.00    -0.014 A 
BRANCH  11  12
ATOM     12  C   UNL A   1      41.178  28.134  28.696  1.00  0.00     0.031 A 
ATOM     13  C   UNL A   1      40.218  29.294  28.698  1.00  0.00     0.074 A 
ATOM     14  C   UNL A   1      42.103  28.213  29.693  1.00  0.00     0.049 A 
ATOM     15  N   UNL A   1      40.194  30.330  29.498  1.00  0.00    -0.248 NA
ATOM     16  C   UNL A   1      39.054  29.181  27.809  1.00  0.00     0.031 C 
ATOM     17  C   UNL A   1      42.738  27.096  30.354  1.00  0.00     0.029 A 
ATOM     18  N   UNL A   1      42.623  29.276  30.416  1.00  0.00    -0.354 N 
ATOM     19  C   UNL A   1      38.956  30.909  29.313  1.00  0.00     0.074 A 
ATOM     20  C   UNL A   1      38.288  30.159  28.266  1.00  0.00     0.031 C 
ATOM     21  C   UNL A   1      43.687  27.480  31.210  1.00  0.00     0.029 A 
ATOM     22  C   UNL A   1      43.647  28.920  31.278  1.00  0.00     0.049 A 
ATOM     23  H   UNL A   1      42.294  30.198  30.325  1.00  0.00     0.167 HD
ATOM     24  C   UNL A   1      38.404  31.951  29.976  1.00  0.00     0.031 A 
ATOM     25  C   UNL A   1      44.435  29.608  32.123  1.00  0.00     0.031 A 
ATOM     26  C   UNL A   1      39.083  32.797  30.918  1.00  0.00     0.049 A 
ATOM     27  C   UNL A   1      44.067  31.015  32.418  1.00  0.00     0.074 A 
ATOM     28  C   UNL A   1      38.645  33.992  31.463  1.00  0.00     0.029 A 
ATOM     29  N   UNL A   1      40.356  32.574  31.422  1.00  0.00    -0.354 N 
ATOM     30  N   UNL A   1      42.934  31.608  32.153  1.00  0.00    -0.248 NA
ATOM     31  C   UNL A   1      45.029  31.827  33.169  1.00  0.00     0.031 C 
ATOM     32  C   UNL A   1      39.692  34.545  32.213  1.00  0.00     0.029 A 
ATOM     33  C   UNL A   1      40.759  33.663  32.187  1.00  0.00     0.049 A 
ATOM     34  H   UNL A   1      40.893  31.765  31.263  1.00  0.00     0.167 HD
ATOM     35  C   UNL A   1      43.015  32.845  32.757  1.00  0.00     0.074 A 
ATOM     36  C   UNL A   1      44.316  32.925  33.391  1.00  0.00     0.031 C 
ATOM     37  C   UNL A   1      42.058  33.801  32.795  1.00  0.00     0.031 A 
BRANCH  24  38
ATOM     38  C   UNL A   1      37.002  32.279  29.579  1.00  0.00    -0.014 A 
ATOM     39  C   UNL A   1      36.733  33.015  28.416  1.00  0.00     0.009 A 
ATOM     40  C   UNL A   1      35.951  31.925  30.437  1.00  0.00     0.009 A 
ATOM     41  C   UNL A   1      35.429  33.421  28.135  1.00  0.00     0.001 A 
ATOM     42  C   UNL A   1      34.649  32.328  30.148  1.00  0.00     0.001 A 
ATOM     43  C   UNL A   1      34.390  33.080  29.004  1.00  0.00     0.000 A 
ENDBRANCH  24  38
BRANCH  25  44
ATOM     44  C   UNL A   1      45.636  28.982  32.750  1.00  0.00    -0.014 A 
ATOM     45  C   UNL A   1      45.610  28.431  34.040  1.00  0.00     0.009 A 
ATOM     46  C   UNL A   1      46.860  29.010  32.058  1.00  0.00     0.009 A 
ATOM     47  C   UNL A   1      46.787  27.960  34.634  1.00  0.00     0.001 A 
ATOM     48  C   UNL A   1      48.030  28.524  32.647  1.00  0.00     0.001 A 
ATOM     49  C   UNL A   1      47.995  28.012  33.940  1.00  0.00     0.000 A 
ENDBRANCH  25  44
BRANCH  37  50
ATOM     50  C   UNL A   1      42.393  35.052  33.545  1.00  0.00    -0.014 A 
ATOM     51  C   UNL A   1      43.049  36.118  32.909  1.00  0.00     0.009 A 
ATOM     52  C   UNL A   1      42.054  35.172  34.901  1.00  0.00     0.009 A 
ATOM     53  C   UNL A   1      43.386  37.267  33.626  1.00  0.00     0.001 A 
ATOM     54  C   UNL A   1      42.365  36.333  35.607  1.00  0.00     0.001 A 
ATOM     55  C   UNL A   1      43.039  37.376  34.971  1.00  0.00     0.000 A 
ENDBRANCH  37  50
ENDBRANCH  11  12
ENDBRANCH   4   6
ENDBRANCH   3   4
ENDBRANCH   2   3
ENDBRANCH   1   2
BRANCH   1  56
ATOM     56  O   UNL A   1      42.953  21.208  26.168  1.00  0.00    -0.462 OA
BRANCH  56  57
ATOM     57  C   UNL A   1      43.390  22.433  25.769  1.00  0.00     0.310 C 
ATOM     58  O   UNL A   1      43.057  22.994  24.735  1.00  0.00    -0.252 OA
BRANCH  57  59
ATOM     59  C   UNL A   1      44.147  23.106  26.876  1.00  0.00     0.117 C 
ATOM     60  C   UNL A   1      43.320  23.438  28.134  1.00  0.00     0.017 C 
ATOM     61  C   UNL A   1      45.060  24.276  26.423  1.00  0.00     0.084 C 
ATOM     62  C   UNL A   1      44.243  23.638  29.340  1.00  0.00     0.001 C 
ATOM     63  C   UNL A   1      45.938  24.460  27.685  1.00  0.00     0.021 C 
ATOM     64  C   UNL A   1      45.254  24.720  29.028  1.00  0.00     0.002 C 
BRANCH  61  65
ATOM     65  N   UNL A   1      44.271  25.402  25.806  1.00  0.00    -0.207 NA
ATOM     66  H   UNL A   1      43.480  25.502  26.442  1.00  0.00     0.141 HD
BRANCH  65  67
ATOM     67  S   UNL A   1      44.637  27.040  25.379  1.00  0.00     0.240 S 
ATOM     68  O   UNL A   1      45.947  26.907  24.732  1.00  0.00    -0.207 OA
ATOM     69  O   UNL A   1      43.534  27.532  24.623  1.00  0.00    -0.207 OA
BRANCH  67  70
ATOM     70  C   UNL A   1      44.922  28.268  26.682  1.00  0.00     0.083 A 
ATOM     71  C   UNL A   1      45.881  27.987  27.680  1.00  0.00     0.022 A 
ATOM     72  C   UNL A   1      44.138  29.403  26.879  1.00  0.00     0.030 A 
ATOM     73  C   UNL A   1      46.343  28.989  28.550  1.00  0.00     0.010 A 
ATOM     74  C   UNL A   1      44.516  30.390  27.842  1.00  0.00    -0.017 A 
ATOM     75  C   UNL A   1      45.715  30.232  28.578  1.00  0.00    -0.018 A 
ATOM     76  C   UNL A   1      43.773  31.562  28.071  1.00  0.00     0.009 A 
ATOM     77  C   UNL A   1      46.246  31.307  29.320  1.00  0.00     0.009 A 
ATOM     78  C   UNL A   1      44.278  32.604  28.860  1.00  0.00     0.001 A 
ATOM     79  C   UNL A   1      45.540  32.501  29.436  1.00  0.00     0.001 A 
ENDBRANCH  67  70
ENDBRANCH  65  67
ENDBRANCH  61  65
ENDBRANCH  57  59
ENDBRANCH  56  57
ENDBRANCH   1  56
TORSDOF 14
ENDMDL
