MODEL 1
REMARK VINA RESULT:      -9.7      0.000      0.000
REMARK SMILES CC[C@@H]([NH3+])C(=O)N1CC[C@H](C(=O)OCCOC(=O)c2ccc(-c3c4nc(c(-c5ccccc5)c5ccc([nH]5)c(-c5ccccc5)c5nc(c(-c6ccccc6)c6ccc3[nH]6)C=C5)C=C4)cc2)[C@@H]1C
REMARK SMILES IDX 14 1 13 2 11 3 12 4 10 5 7 6 8 7 67 8 9 9 68 10 5 11 6 12
REMARK SMILES IDX 3 13 2 14 1 15 4 16 15 20 16 21 17 22 18 23 19 24 20 25
REMARK SMILES IDX 66 26 21 27 65 28 22 29 23 30 24 31 59 32 25 33 64 34 58 35
REMARK SMILES IDX 60 36 26 37 63 38 57 39 56 40 27 42 49 43 34 44 48 45 35 46
REMARK SMILES IDX 38 47 47 48 61 49 36 50 37 51 46 53 62 54 39 55 28 56 29 57
REMARK SMILES IDX 33 58 30 59 32 60 31 61 50 62 51 63 55 64 52 65 54 66 53 67
REMARK SMILES IDX 40 68 41 69 45 70 42 71 44 72 43 73
REMARK H PARENT 4 17 4 18 4 19 60 41 38 52
REMARK Flexibility Score: inf
ROOT
ATOM      1  C   UNL A   1      31.818  28.756  23.897  1.00  0.00     0.274 C 
ENDROOT
BRANCH   1   2
ATOM      2  O   UNL A   1      30.954  27.596  23.864  1.00  0.00    -0.462 OA
BRANCH   2   3
ATOM      3  C   UNL A   1      31.298  26.579  24.705  1.00  0.00     0.311 C 
ATOM      4  O   UNL A   1      30.602  26.186  25.634  1.00  0.00    -0.252 OA
BRANCH   3   5
ATOM      5  C   UNL A   1      32.693  26.043  24.392  1.00  0.00     0.123 C 
ATOM      6  N   UNL A   1      33.024  23.753  25.022  1.00  0.00    -0.334 N 
ATOM      7  C   UNL A   1      33.109  24.568  26.223  1.00  0.00     0.121 C 
ATOM      8  C   UNL A   1      32.787  24.596  23.840  1.00  0.00     0.096 C 
ATOM      9  C   UNL A   1      33.496  25.942  25.695  1.00  0.00     0.039 C 
ATOM     10  C   UNL A   1      31.562  24.172  23.037  1.00  0.00     0.032 C 
BRANCH   6  11
ATOM     11  C   UNL A   1      33.402  22.429  25.124  1.00  0.00     0.280 C 
ATOM     12  O   UNL A   1      32.626  21.607  25.631  1.00  0.00    -0.268 OA
BRANCH  11  13
ATOM     13  C   UNL A   1      34.868  21.989  24.854  1.00  0.00     0.270 C 
BRANCH  13  14
ATOM     14  C   UNL A   1      35.908  23.082  24.619  1.00  0.00     0.072 C 
ATOM     15  C   UNL A   1      36.634  22.948  23.284  1.00  0.00     0.011 C 
ENDBRANCH  13  14
BRANCH  13  16
ATOM     16  N   UNL A   1      35.283  21.051  25.924  1.00  0.00    -0.347 N 
ATOM     17  H   UNL A   1      34.463  20.761  26.457  1.00  0.00     0.345 HD
ATOM     18  H   UNL A   1      35.945  21.516  26.546  1.00  0.00     0.345 HD
ATOM     19  H   UNL A   1      35.726  20.233  25.507  1.00  0.00     0.345 HD
ENDBRANCH  13  16
ENDBRANCH  11  13
ENDBRANCH   6  11
ENDBRANCH   3   5
ENDBRANCH   2   3
ENDBRANCH   1   2
BRANCH   1  20
ATOM     20  C   UNL A   1      31.661  29.528  25.208  1.00  0.00     0.275 C 
BRANCH  20  21
ATOM     21  O   UNL A   1      32.960  29.906  25.685  1.00  0.00    -0.458 OA
BRANCH  21  22
ATOM     22  C   UNL A   1      32.986  30.871  26.630  1.00  0.00     0.338 C 
ATOM     23  O   UNL A   1      32.096  31.680  26.861  1.00  0.00    -0.246 OA
BRANCH  22  24
ATOM     24  C   UNL A   1      34.240  30.777  27.422  1.00  0.00     0.060 A 
ATOM     25  C   UNL A   1      35.004  31.910  27.722  1.00  0.00     0.016 A 
ATOM     26  C   UNL A   1      34.710  29.518  27.802  1.00  0.00     0.016 A 
ATOM     27  C   UNL A   1      36.245  31.788  28.346  1.00  0.00     0.010 A 
ATOM     28  C   UNL A   1      35.917  29.404  28.500  1.00  0.00     0.010 A 
ATOM     29  C   UNL A   1      36.701  30.538  28.773  1.00  0.00    -0.014 A 
BRANCH  29  30
ATOM     30  C   UNL A   1      37.984  30.388  29.512  1.00  0.00     0.031 A 
ATOM     31  C   UNL A   1      39.097  29.576  28.916  1.00  0.00     0.074 A 
ATOM     32  C   UNL A   1      38.136  30.912  30.744  1.00  0.00     0.049 A 
ATOM     33  N   UNL A   1      40.113  29.003  29.509  1.00  0.00    -0.248 NA
ATOM     34  C   UNL A   1      39.044  29.361  27.461  1.00  0.00     0.031 C 
ATOM     35  C   UNL A   1      37.189  31.796  31.425  1.00  0.00     0.029 A 
ATOM     36  N   UNL A   1      39.152  30.747  31.656  1.00  0.00    -0.354 N 
ATOM     37  C   UNL A   1      40.779  28.301  28.513  1.00  0.00     0.074 A 
ATOM     38  C   UNL A   1      40.064  28.534  27.276  1.00  0.00     0.031 C 
ATOM     39  C   UNL A   1      37.668  32.100  32.641  1.00  0.00     0.029 A 
ATOM     40  C   UNL A   1      38.900  31.353  32.864  1.00  0.00     0.049 A 
ATOM     41  H   UNL A   1      39.976  30.247  31.464  1.00  0.00     0.167 HD
ATOM     42  C   UNL A   1      41.878  27.519  28.632  1.00  0.00     0.031 A 
ATOM     43  C   UNL A   1      39.539  31.259  34.044  1.00  0.00     0.031 A 
ATOM     44  C   UNL A   1      42.612  27.335  29.857  1.00  0.00     0.049 A 
ATOM     45  C   UNL A   1      40.720  30.343  34.172  1.00  0.00     0.074 A 
ATOM     46  C   UNL A   1      43.736  26.558  30.082  1.00  0.00     0.029 A 
ATOM     47  N   UNL A   1      42.306  27.955  31.058  1.00  0.00    -0.354 N 
ATOM     48  N   UNL A   1      41.285  29.592  33.258  1.00  0.00    -0.248 NA
ATOM     49  C   UNL A   1      41.336  30.238  35.503  1.00  0.00     0.031 C 
ATOM     50  C   UNL A   1      44.094  26.687  31.429  1.00  0.00     0.029 A 
ATOM     51  C   UNL A   1      43.216  27.574  32.029  1.00  0.00     0.049 A 
ATOM     52  H   UNL A   1      41.553  28.573  31.199  1.00  0.00     0.167 HD
ATOM     53  C   UNL A   1      42.326  28.936  33.898  1.00  0.00     0.074 A 
ATOM     54  C   UNL A   1      42.325  29.386  35.275  1.00  0.00     0.031 C 
ATOM     55  C   UNL A   1      43.204  28.038  33.391  1.00  0.00     0.031 A 
BRANCH  42  56
ATOM     56  C   UNL A   1      42.329  26.759  27.420  1.00  0.00    -0.014 A 
ATOM     57  C   UNL A   1      41.773  25.517  27.080  1.00  0.00     0.009 A 
ATOM     58  C   UNL A   1      43.294  27.328  26.573  1.00  0.00     0.009 A 
ATOM     59  C   UNL A   1      42.191  24.851  25.925  1.00  0.00     0.001 A 
ATOM     60  C   UNL A   1      43.694  26.672  25.409  1.00  0.00     0.001 A 
ATOM     61  C   UNL A   1      43.146  25.430  25.088  1.00  0.00     0.000 A 
ENDBRANCH  42  56
BRANCH  43  62
ATOM     62  C   UNL A   1      39.019  31.996  35.224  1.00  0.00    -0.014 A 
ATOM     63  C   UNL A   1      38.199  31.352  36.160  1.00  0.00     0.009 A 
ATOM     64  C   UNL A   1      39.355  33.345  35.425  1.00  0.00     0.009 A 
ATOM     65  C   UNL A   1      37.716  32.047  37.271  1.00  0.00     0.001 A 
ATOM     66  C   UNL A   1      38.894  34.029  36.551  1.00  0.00     0.001 A 
ATOM     67  C   UNL A   1      38.070  33.381  37.469  1.00  0.00     0.000 A 
ENDBRANCH  43  62
BRANCH  55  68
ATOM     68  C   UNL A   1      44.262  27.518  34.317  1.00  0.00    -0.014 A 
ATOM     69  C   UNL A   1      44.071  26.337  35.048  1.00  0.00     0.009 A 
ATOM     70  C   UNL A   1      45.484  28.201  34.424  1.00  0.00     0.009 A 
ATOM     71  C   UNL A   1      45.078  25.860  35.888  1.00  0.00     0.001 A 
ATOM     72  C   UNL A   1      46.496  27.710  35.250  1.00  0.00     0.001 A 
ATOM     73  C   UNL A   1      46.290  26.544  35.986  1.00  0.00     0.000 A 
ENDBRANCH  55  68
ENDBRANCH  29  30
ENDBRANCH  22  24
ENDBRANCH  21  22
ENDBRANCH  20  21
ENDBRANCH   1  20
TORSDOF 15
ENDMDL
MODEL 2
REMARK VINA RESULT:      -9.7      4.096      9.302
REMARK SMILES CC[C@@H]([NH3+])C(=O)N1CC[C@H](C(=O)OCCOC(=O)c2ccc(-c3c4nc(c(-c5ccccc5)c5ccc([nH]5)c(-c5ccccc5)c5nc(c(-c6ccccc6)c6ccc3[nH]6)C=C5)C=C4)cc2)[C@@H]1C
REMARK SMILES IDX 14 1 13 2 11 3 12 4 10 5 7 6 8 7 67 8 9 9 68 10 5 11 6 12
REMARK SMILES IDX 3 13 2 14 1 15 4 16 15 20 16 21 17 22 18 23 19 24 20 25
REMARK SMILES IDX 66 26 21 27 65 28 22 29 23 30 24 31 59 32 25 33 64 34 58 35
REMARK SMILES IDX 60 36 26 37 63 38 57 39 56 40 27 42 49 43 34 44 48 45 35 46
REMARK SMILES IDX 38 47 47 48 61 49 36 50 37 51 46 53 62 54 39 55 28 56 29 57
REMARK SMILES IDX 33 58 30 59 32 60 31 61 50 62 51 63 55 64 52 65 54 66 53 67
REMARK SMILES IDX 40 68 41 69 45 70 42 71 44 72 43 73
REMARK H PARENT 4 17 4 18 4 19 60 41 38 52
REMARK Flexibility Score: inf
ROOT
ATOM      1  C   UNL A   1      34.656  33.384  29.660  1.00  0.00     0.274 C 
ENDROOT
BRANCH   1   2
ATOM      2  O   UNL A   1      34.460  32.439  30.739  1.00  0.00    -0.462 OA
BRANCH   2   3
ATOM      3  C   UNL A   1      34.677  32.925  31.995  1.00  0.00     0.311 C 
ATOM      4  O   UNL A   1      33.807  33.039  32.850  1.00  0.00    -0.252 OA
BRANCH   3   5
ATOM      5  C   UNL A   1      36.123  33.380  32.176  1.00  0.00     0.123 C 
ATOM      6  N   UNL A   1      37.017  32.947  34.359  1.00  0.00    -0.334 N 
ATOM      7  C   UNL A   1      36.158  34.117  34.447  1.00  0.00     0.121 C 
ATOM      8  C   UNL A   1      37.064  32.443  32.978  1.00  0.00     0.096 C 
ATOM      9  C   UNL A   1      36.144  34.658  33.024  1.00  0.00     0.039 C 
ATOM     10  C   UNL A   1      36.691  30.968  32.865  1.00  0.00     0.032 C 
BRANCH   6  11
ATOM     11  C   UNL A   1      37.806  32.654  35.453  1.00  0.00     0.280 C 
ATOM     12  O   UNL A   1      37.309  32.076  36.430  1.00  0.00    -0.268 OA
BRANCH  11  13
ATOM     13  C   UNL A   1      39.234  33.251  35.599  1.00  0.00     0.270 C 
BRANCH  13  14
ATOM     14  C   UNL A   1      40.112  33.307  34.351  1.00  0.00     0.072 C 
ATOM     15  C   UNL A   1      40.086  34.665  33.655  1.00  0.00     0.011 C 
ENDBRANCH  13  14
BRANCH  13  16
ATOM     16  N   UNL A   1      39.126  34.573  36.259  1.00  0.00    -0.347 N 
ATOM     17  H   UNL A   1      39.852  34.658  36.970  1.00  0.00     0.345 HD
ATOM     18  H   UNL A   1      38.209  34.661  36.698  1.00  0.00     0.345 HD
ATOM     19  H   UNL A   1      39.242  35.311  35.564  1.00  0.00     0.345 HD
ENDBRANCH  13  16
ENDBRANCH  11  13
ENDBRANCH   6  11
ENDBRANCH   3   5
ENDBRANCH   2   3
ENDBRANCH   1   2
BRANCH   1  20
ATOM     20  C   UNL A   1      33.990  32.900  28.371  1.00  0.00     0.275 C 
BRANCH  20  21
ATOM     21  O   UNL A   1      34.952  32.174  27.594  1.00  0.00    -0.458 OA
BRANCH  21  22
ATOM     22  C   UNL A   1      34.821  30.829  27.594  1.00  0.00     0.338 C 
ATOM     23  O   UNL A   1      33.848  30.198  27.201  1.00  0.00    -0.246 OA
BRANCH  22  24
ATOM     24  C   UNL A   1      36.073  30.194  28.082  1.00  0.00     0.060 A 
ATOM     25  C   UNL A   1      36.153  29.617  29.355  1.00  0.00     0.016 A 
ATOM     26  C   UNL A   1      37.218  30.251  27.286  1.00  0.00     0.016 A 
ATOM     27  C   UNL A   1      37.371  29.149  29.848  1.00  0.00     0.010 A 
ATOM     28  C   UNL A   1      38.420  29.708  27.751  1.00  0.00     0.010 A 
ATOM     29  C   UNL A   1      38.512  29.157  29.041  1.00  0.00    -0.014 A 
BRANCH  29  30
ATOM     30  C   UNL A   1      39.804  28.591  29.513  1.00  0.00     0.031 A 
ATOM     31  C   UNL A   1      40.709  29.420  30.378  1.00  0.00     0.074 A 
ATOM     32  C   UNL A   1      40.208  27.369  29.118  1.00  0.00     0.049 A 
ATOM     33  N   UNL A   1      41.996  29.302  30.582  1.00  0.00    -0.248 NA
ATOM     34  C   UNL A   1      40.085  30.549  31.087  1.00  0.00     0.031 C 
ATOM     35  C   UNL A   1      39.412  26.406  28.355  1.00  0.00     0.029 A 
ATOM     36  N   UNL A   1      41.418  26.738  29.289  1.00  0.00    -0.354 N 
ATOM     37  C   UNL A   1      42.349  30.379  31.383  1.00  0.00     0.074 A 
ATOM     38  C   UNL A   1      41.139  31.131  31.643  1.00  0.00     0.031 C 
ATOM     39  C   UNL A   1      40.149  25.307  28.128  1.00  0.00     0.029 A 
ATOM     40  C   UNL A   1      41.497  25.531  28.638  1.00  0.00     0.049 A 
ATOM     41  H   UNL A   1      42.152  27.113  29.825  1.00  0.00     0.167 HD
ATOM     42  C   UNL A   1      43.578  30.715  31.842  1.00  0.00     0.031 A 
ATOM     43  C   UNL A   1      42.549  24.724  28.406  1.00  0.00     0.031 A 
ATOM     44  C   UNL A   1      44.766  29.933  31.620  1.00  0.00     0.049 A 
ATOM     45  C   UNL A   1      43.913  25.142  28.871  1.00  0.00     0.074 A 
ATOM     46  C   UNL A   1      46.060  30.191  32.040  1.00  0.00     0.029 A 
ATOM     47  N   UNL A   1      44.798  28.727  30.938  1.00  0.00    -0.354 N 
ATOM     48  N   UNL A   1      44.267  26.216  29.532  1.00  0.00    -0.248 NA
ATOM     49  C   UNL A   1      45.030  24.248  28.531  1.00  0.00     0.031 C 
ATOM     50  C   UNL A   1      46.882  29.153  31.586  1.00  0.00     0.029 A 
ATOM     51  C   UNL A   1      46.090  28.232  30.920  1.00  0.00     0.049 A 
ATOM     52  H   UNL A   1      44.017  28.289  30.528  1.00  0.00     0.167 HD
ATOM     53  C   UNL A   1      45.641  26.123  29.699  1.00  0.00     0.074 A 
ATOM     54  C   UNL A   1      46.057  24.881  29.080  1.00  0.00     0.031 C 
ATOM     55  C   UNL A   1      46.484  26.991  30.307  1.00  0.00     0.031 A 
BRANCH  42  56
ATOM     56  C   UNL A   1      43.715  32.011  32.586  1.00  0.00    -0.014 A 
ATOM     57  C   UNL A   1      43.650  32.067  33.985  1.00  0.00     0.009 A 
ATOM     58  C   UNL A   1      43.967  33.190  31.866  1.00  0.00     0.009 A 
ATOM     59  C   UNL A   1      43.816  33.286  34.648  1.00  0.00     0.001 A 
ATOM     60  C   UNL A   1      44.155  34.402  32.532  1.00  0.00     0.001 A 
ATOM     61  C   UNL A   1      44.073  34.451  33.923  1.00  0.00     0.000 A 
ENDBRANCH  42  56
BRANCH  43  62
ATOM     62  C   UNL A   1      42.363  23.478  27.620  1.00  0.00    -0.014 A 
ATOM     63  C   UNL A   1      41.893  22.311  28.237  1.00  0.00     0.009 A 
ATOM     64  C   UNL A   1      42.639  23.457  26.243  1.00  0.00     0.009 A 
ATOM     65  C   UNL A   1      41.714  21.143  27.493  1.00  0.00     0.001 A 
ATOM     66  C   UNL A   1      42.432  22.297  25.496  1.00  0.00     0.001 A 
ATOM     67  C   UNL A   1      41.976  21.139  26.123  1.00  0.00     0.000 A 
ENDBRANCH  43  62
BRANCH  55  68
ATOM     68  C   UNL A   1      47.931  26.606  30.373  1.00  0.00    -0.014 A 
ATOM     69  C   UNL A   1      48.437  25.865  31.450  1.00  0.00     0.009 A 
ATOM     70  C   UNL A   1      48.789  26.956  29.318  1.00  0.00     0.009 A 
ATOM     71  C   UNL A   1      49.784  25.499  31.480  1.00  0.00     0.001 A 
ATOM     72  C   UNL A   1      50.131  26.572  29.342  1.00  0.00     0.001 A 
ATOM     73  C   UNL A   1      50.628  25.849  30.425  1.00  0.00     0.000 A 
ENDBRANCH  55  68
ENDBRANCH  29  30
ENDBRANCH  22  24
ENDBRANCH  21  22
ENDBRANCH  20  21
ENDBRANCH   1  20
TORSDOF 15
ENDMDL
MODEL 3
REMARK VINA RESULT:      -9.5      3.819      7.173
REMARK SMILES CC[C@@H]([NH3+])C(=O)N1CC[C@H](C(=O)OCCOC(=O)c2ccc(-c3c4nc(c(-c5ccccc5)c5ccc([nH]5)c(-c5ccccc5)c5nc(c(-c6ccccc6)c6ccc3[nH]6)C=C5)C=C4)cc2)[C@@H]1C
REMARK SMILES IDX 14 1 13 2 11 3 12 4 10 5 7 6 8 7 67 8 9 9 68 10 5 11 6 12
REMARK SMILES IDX 3 13 2 14 1 15 4 16 15 20 16 21 17 22 18 23 19 24 20 25
REMARK SMILES IDX 66 26 21 27 65 28 22 29 23 30 24 31 59 32 25 33 64 34 58 35
REMARK SMILES IDX 60 36 26 37 63 38 57 39 56 40 27 42 49 43 34 44 48 45 35 46
REMARK SMILES IDX 38 47 47 48 61 49 36 50 37 51 46 53 62 54 39 55 28 56 29 57
REMARK SMILES IDX 33 58 30 59 32 60 31 61 50 62 51 63 55 64 52 65 54 66 53 67
REMARK SMILES IDX 40 68 41 69 45 70 42 71 44 72 43 73
REMARK H PARENT 4 17 4 18 4 19 60 41 38 52
REMARK Flexibility Score: inf
ROOT
ATOM      1  C   UNL A   1      31.837  29.980  26.750  1.00  0.00     0.274 C 
ENDROOT
BRANCH   1   2
ATOM      2  O   UNL A   1      31.709  28.637  26.225  1.00  0.00    -0.462 OA
BRANCH   2   3
ATOM      3  C   UNL A   1      31.439  28.548  24.891  1.00  0.00     0.311 C 
ATOM      4  O   UNL A   1      30.731  29.336  24.276  1.00  0.00    -0.252 OA
BRANCH   3   5
ATOM      5  C   UNL A   1      32.068  27.300  24.276  1.00  0.00     0.123 C 
ATOM      6  N   UNL A   1      32.159  25.419  25.760  1.00  0.00    -0.334 N 
ATOM      7  C   UNL A   1      33.227  26.334  26.126  1.00  0.00     0.121 C 
ATOM      8  C   UNL A   1      31.405  25.938  24.607  1.00  0.00     0.096 C 
ATOM      9  C   UNL A   1      33.481  27.118  24.846  1.00  0.00     0.039 C 
ATOM     10  C   UNL A   1      29.906  26.039  24.867  1.00  0.00     0.032 C 
BRANCH   6  11
ATOM     11  C   UNL A   1      32.164  24.168  26.344  1.00  0.00     0.280 C 
ATOM     12  O   UNL A   1      31.504  23.968  27.373  1.00  0.00    -0.268 OA
BRANCH  11  13
ATOM     13  C   UNL A   1      33.172  23.074  25.892  1.00  0.00     0.270 C 
BRANCH  13  14
ATOM     14  C   UNL A   1      33.364  22.859  24.392  1.00  0.00     0.072 C 
ATOM     15  C   UNL A   1      34.672  23.438  23.861  1.00  0.00     0.011 C 
ENDBRANCH  13  14
BRANCH  13  16
ATOM     16  N   UNL A   1      34.461  23.306  26.586  1.00  0.00    -0.347 N 
ATOM     17  H   UNL A   1      34.354  23.099  27.579  1.00  0.00     0.345 HD
ATOM     18  H   UNL A   1      34.739  24.281  26.470  1.00  0.00     0.345 HD
ATOM     19  H   UNL A   1      35.177  22.699  26.187  1.00  0.00     0.345 HD
ENDBRANCH  13  16
ENDBRANCH  11  13
ENDBRANCH   6  11
ENDBRANCH   3   5
ENDBRANCH   2   3
ENDBRANCH   1   2
BRANCH   1  20
ATOM     20  C   UNL A   1      33.262  30.507  26.583  1.00  0.00     0.275 C 
BRANCH  20  21
ATOM     21  O   UNL A   1      34.118  29.842  27.523  1.00  0.00    -0.458 OA
BRANCH  21  22
ATOM     22  C   UNL A   1      34.908  30.641  28.274  1.00  0.00     0.338 C 
ATOM     23  O   UNL A   1      34.577  31.700  28.795  1.00  0.00    -0.246 OA
BRANCH  22  24
ATOM     24  C   UNL A   1      36.245  30.018  28.450  1.00  0.00     0.060 A 
ATOM     25  C   UNL A   1      36.636  29.455  29.670  1.00  0.00     0.016 A 
ATOM     26  C   UNL A   1      37.162  30.071  27.399  1.00  0.00     0.016 A 
ATOM     27  C   UNL A   1      37.940  28.999  29.858  1.00  0.00     0.010 A 
ATOM     28  C   UNL A   1      38.446  29.539  27.563  1.00  0.00     0.010 A 
ATOM     29  C   UNL A   1      38.851  29.003  28.798  1.00  0.00    -0.014 A 
BRANCH  29  30
ATOM     30  C   UNL A   1      40.223  28.449  28.948  1.00  0.00     0.031 A 
ATOM     31  C   UNL A   1      41.363  29.363  29.295  1.00  0.00     0.074 A 
ATOM     32  C   UNL A   1      40.472  27.147  28.707  1.00  0.00     0.049 A 
ATOM     33  N   UNL A   1      42.646  29.194  29.105  1.00  0.00    -0.248 NA
ATOM     34  C   UNL A   1      41.005  30.649  29.915  1.00  0.00     0.031 C 
ATOM     35  C   UNL A   1      39.468  26.114  28.447  1.00  0.00     0.029 A 
ATOM     36  N   UNL A   1      41.669  26.476  28.617  1.00  0.00    -0.354 N 
ATOM     37  C   UNL A   1      43.244  30.378  29.516  1.00  0.00     0.074 A 
ATOM     38  C   UNL A   1      42.186  31.251  29.980  1.00  0.00     0.031 C 
ATOM     39  C   UNL A   1      40.087  24.943  28.232  1.00  0.00     0.029 A 
ATOM     40  C   UNL A   1      41.529  25.164  28.238  1.00  0.00     0.049 A 
ATOM     41  H   UNL A   1      42.539  26.895  28.806  1.00  0.00     0.167 HD
ATOM     42  C   UNL A   1      44.557  30.708  29.487  1.00  0.00     0.031 A 
ATOM     43  C   UNL A   1      42.446  24.255  27.859  1.00  0.00     0.031 A 
ATOM     44  C   UNL A   1      45.606  29.816  29.070  1.00  0.00     0.049 A 
ATOM     45  C   UNL A   1      43.890  24.656  27.777  1.00  0.00     0.074 A 
ATOM     46  C   UNL A   1      46.968  30.057  29.001  1.00  0.00     0.029 A 
ATOM     47  N   UNL A   1      45.411  28.501  28.677  1.00  0.00    -0.354 N 
ATOM     48  N   UNL A   1      44.443  25.810  28.058  1.00  0.00    -0.248 NA
ATOM     49  C   UNL A   1      44.833  23.636  27.297  1.00  0.00     0.031 C 
ATOM     50  C   UNL A   1      47.595  28.895  28.537  1.00  0.00     0.029 A 
ATOM     51  C   UNL A   1      46.626  27.921  28.357  1.00  0.00     0.049 A 
ATOM     52  H   UNL A   1      44.538  28.049  28.632  1.00  0.00     0.167 HD
ATOM     53  C   UNL A   1      45.797  25.653  27.801  1.00  0.00     0.074 A 
ATOM     54  C   UNL A   1      45.986  24.288  27.353  1.00  0.00     0.031 C 
ATOM     55  C   UNL A   1      46.796  26.560  27.922  1.00  0.00     0.031 A 
BRANCH  42  56
ATOM     56  C   UNL A   1      44.933  32.111  29.866  1.00  0.00    -0.014 A 
ATOM     57  C   UNL A   1      44.943  33.150  28.925  1.00  0.00     0.009 A 
ATOM     58  C   UNL A   1      45.231  32.401  31.207  1.00  0.00     0.009 A 
ATOM     59  C   UNL A   1      45.266  34.452  29.319  1.00  0.00     0.001 A 
ATOM     60  C   UNL A   1      45.531  33.705  31.602  1.00  0.00     0.001 A 
ATOM     61  C   UNL A   1      45.554  34.729  30.656  1.00  0.00     0.000 A 
ENDBRANCH  42  56
BRANCH  43  62
ATOM     62  C   UNL A   1      42.011  22.897  27.446  1.00  0.00    -0.014 A 
ATOM     63  C   UNL A   1      41.897  21.867  28.390  1.00  0.00     0.009 A 
ATOM     64  C   UNL A   1      41.690  22.629  26.104  1.00  0.00     0.009 A 
ATOM     65  C   UNL A   1      41.481  20.593  27.998  1.00  0.00     0.001 A 
ATOM     66  C   UNL A   1      41.247  21.363  25.721  1.00  0.00     0.001 A 
ATOM     67  C   UNL A   1      41.150  20.344  26.666  1.00  0.00     0.000 A 
ENDBRANCH  43  62
BRANCH  55  68
ATOM     68  C   UNL A   1      48.185  26.093  27.609  1.00  0.00    -0.014 A 
ATOM     69  C   UNL A   1      48.737  26.260  26.330  1.00  0.00     0.009 A 
ATOM     70  C   UNL A   1      48.966  25.515  28.623  1.00  0.00     0.009 A 
ATOM     71  C   UNL A   1      50.040  25.836  26.067  1.00  0.00     0.001 A 
ATOM     72  C   UNL A   1      50.276  25.111  28.361  1.00  0.00     0.001 A 
ATOM     73  C   UNL A   1      50.810  25.266  27.082  1.00  0.00     0.000 A 
ENDBRANCH  55  68
ENDBRANCH  29  30
ENDBRANCH  22  24
ENDBRANCH  21  22
ENDBRANCH  20  21
ENDBRANCH   1  20
TORSDOF 15
ENDMDL
