MODEL 1
REMARK VINA RESULT:     -11.6      0.000      0.000
REMARK SMILES O=C(OCCOC(=O)c1cc(-c2ccc(Cl)cc2)nc2c3c(C4CC4)cc(C(F)(F)F)nc3nn12)c1ccc(-c2c3nc(c(-c4ccccc4)c4ccc([nH]4)c(-c4ccccc4)c4nc(c(-c5ccccc5)c5ccc2[nH]5)C=C4)C=C3)cc1
REMARK SMILES IDX 4 1 3 2 2 3 1 4 36 5 37 6 83 7 38 8 82 9 39 10 40 11 41 12
REMARK SMILES IDX 76 13 42 14 81 15 75 16 77 17 43 18 80 19 74 20 73 21 44 23
REMARK SMILES IDX 66 24 51 25 65 26 52 27 55 28 64 29 78 30 53 31 54 32 63 34
REMARK SMILES IDX 79 35 56 36 45 37 46 38 50 39 47 40 49 41 48 42 67 43 68 44
REMARK SMILES IDX 72 45 69 46 71 47 70 48 57 49 58 50 62 51 59 52 61 53 60 54
REMARK SMILES IDX 5 55 6 56 7 57 8 58 9 59 10 60 35 61 11 62 20 63 34 64 19 65
REMARK SMILES IDX 21 66 33 67 22 68 32 69 26 70 27 71 12 72 13 73 18 74 14 75
REMARK SMILES IDX 17 76 15 77 16 78 23 79 24 80 25 81 28 82 29 83 30 84 31 85
REMARK H PARENT 77 22 55 33
REMARK Flexibility Score: inf
ROOT
ATOM      1  C   UNL A   1      43.966  19.493  25.069  1.00  0.00     0.275 C 
ENDROOT
BRANCH   1   2
ATOM      2  O   UNL A   1      44.188  20.869  24.701  1.00  0.00    -0.458 OA
BRANCH   2   3
ATOM      3  C   UNL A   1      45.240  21.657  25.024  1.00  0.00     0.338 C 
ATOM      4  O   UNL A   1      46.384  21.269  24.793  1.00  0.00    -0.246 OA
BRANCH   3   5
ATOM      5  C   UNL A   1      45.079  23.011  25.619  1.00  0.00     0.060 A 
ATOM      6  C   UNL A   1      44.340  24.052  25.055  1.00  0.00     0.016 A 
ATOM      7  C   UNL A   1      45.675  23.218  26.874  1.00  0.00     0.016 A 
ATOM      8  C   UNL A   1      44.275  25.295  25.650  1.00  0.00     0.010 A 
ATOM      9  C   UNL A   1      45.598  24.461  27.493  1.00  0.00     0.010 A 
ATOM     10  C   UNL A   1      44.918  25.504  26.860  1.00  0.00    -0.014 A 
BRANCH  10  11
ATOM     11  C   UNL A   1      44.792  26.852  27.408  1.00  0.00     0.031 A 
ATOM     12  C   UNL A   1      44.725  26.898  28.889  1.00  0.00     0.074 A 
ATOM     13  C   UNL A   1      45.212  27.887  26.652  1.00  0.00     0.049 A 
ATOM     14  N   UNL A   1      45.814  26.787  29.589  1.00  0.00    -0.248 NA
ATOM     15  C   UNL A   1      43.504  26.698  29.665  1.00  0.00     0.031 C 
ATOM     16  C   UNL A   1      46.288  27.762  25.651  1.00  0.00     0.029 A 
ATOM     17  N   UNL A   1      44.983  29.234  26.730  1.00  0.00    -0.354 N 
ATOM     18  C   UNL A   1      45.448  26.427  30.868  1.00  0.00     0.074 A 
ATOM     19  C   UNL A   1      44.001  26.425  30.883  1.00  0.00     0.031 C 
ATOM     20  C   UNL A   1      46.769  28.990  25.376  1.00  0.00     0.029 A 
ATOM     21  C   UNL A   1      45.951  29.982  26.061  1.00  0.00     0.049 A 
ATOM     22  H   UNL A   1      44.217  29.631  27.205  1.00  0.00     0.167 HD
ATOM     23  C   UNL A   1      46.378  26.118  31.808  1.00  0.00     0.031 A 
ATOM     24  C   UNL A   1      46.399  31.185  26.511  1.00  0.00     0.031 A 
ATOM     25  C   UNL A   1      47.736  26.132  31.345  1.00  0.00     0.049 A 
ATOM     26  C   UNL A   1      47.200  30.735  27.721  1.00  0.00     0.074 A 
ATOM     27  C   UNL A   1      48.682  25.207  30.960  1.00  0.00     0.029 A 
ATOM     28  N   UNL A   1      48.311  27.354  31.092  1.00  0.00    -0.354 N 
ATOM     29  N   UNL A   1      48.371  30.152  27.705  1.00  0.00    -0.248 NA
ATOM     30  C   UNL A   1      46.478  30.599  28.989  1.00  0.00     0.031 C 
ATOM     31  C   UNL A   1      49.572  25.915  30.091  1.00  0.00     0.029 A 
ATOM     32  C   UNL A   1      49.095  27.221  29.976  1.00  0.00     0.049 A 
ATOM     33  H   UNL A   1      48.181  28.177  31.616  1.00  0.00     0.167 HD
ATOM     34  C   UNL A   1      48.395  29.322  28.832  1.00  0.00     0.074 A 
ATOM     35  C   UNL A   1      47.212  29.672  29.592  1.00  0.00     0.031 C 
ATOM     36  C   UNL A   1      49.261  28.278  28.996  1.00  0.00     0.031 A 
BRANCH  23  37
ATOM     37  C   UNL A   1      46.092  25.973  33.246  1.00  0.00    -0.014 A 
ATOM     38  C   UNL A   1      45.407  24.810  33.633  1.00  0.00     0.009 A 
ATOM     39  C   UNL A   1      46.270  27.006  34.171  1.00  0.00     0.009 A 
ATOM     40  C   UNL A   1      44.869  24.693  34.911  1.00  0.00     0.001 A 
ATOM     41  C   UNL A   1      45.739  26.879  35.460  1.00  0.00     0.001 A 
ATOM     42  C   UNL A   1      45.027  25.732  35.822  1.00  0.00     0.000 A 
ENDBRANCH  23  37
BRANCH  24  43
ATOM     43  C   UNL A   1      45.325  32.233  26.577  1.00  0.00    -0.014 A 
ATOM     44  C   UNL A   1      45.022  32.806  27.833  1.00  0.00     0.009 A 
ATOM     45  C   UNL A   1      44.615  32.713  25.469  1.00  0.00     0.009 A 
ATOM     46  C   UNL A   1      44.170  33.906  27.953  1.00  0.00     0.001 A 
ATOM     47  C   UNL A   1      43.776  33.830  25.582  1.00  0.00     0.001 A 
ATOM     48  C   UNL A   1      43.573  34.440  26.818  1.00  0.00     0.000 A 
ENDBRANCH  24  43
BRANCH  36  49
ATOM     49  C   UNL A   1      50.336  28.129  27.967  1.00  0.00    -0.014 A 
ATOM     50  C   UNL A   1      51.626  28.598  28.235  1.00  0.00     0.009 A 
ATOM     51  C   UNL A   1      50.102  27.426  26.771  1.00  0.00     0.009 A 
ATOM     52  C   UNL A   1      52.671  28.337  27.348  1.00  0.00     0.001 A 
ATOM     53  C   UNL A   1      51.151  27.153  25.892  1.00  0.00     0.001 A 
ATOM     54  C   UNL A   1      52.438  27.601  26.187  1.00  0.00     0.000 A 
ENDBRANCH  36  49
ENDBRANCH  10  11
ENDBRANCH   3   5
ENDBRANCH   2   3
ENDBRANCH   1   2
BRANCH   1  55
ATOM     55  C   UNL A   1      42.597  19.312  25.753  1.00  0.00     0.275 C 
BRANCH  55  56
ATOM     56  O   UNL A   1      41.819  20.531  25.766  1.00  0.00    -0.457 OA
BRANCH  56  57
ATOM     57  C   UNL A   1      40.832  20.607  26.689  1.00  0.00     0.357 C 
ATOM     58  O   UNL A   1      40.781  19.947  27.723  1.00  0.00    -0.244 OA
BRANCH  57  59
ATOM     59  C   UNL A   1      39.888  21.702  26.397  1.00  0.00     0.154 A 
ATOM     60  C   UNL A   1      40.312  22.933  26.736  1.00  0.00     0.065 A 
ATOM     61  N   UNL A   1      38.611  21.523  25.867  1.00  0.00    -0.205 N 
ATOM     62  C   UNL A   1      39.347  24.038  26.498  1.00  0.00     0.075 A 
ATOM     63  C   UNL A   1      37.714  22.617  25.799  1.00  0.00     0.166 A 
ATOM     64  N   UNL A   1      38.040  20.378  25.417  1.00  0.00    -0.145 NA
ATOM     65  N   UNL A   1      38.123  23.896  26.083  1.00  0.00    -0.228 NA
ATOM     66  C   UNL A   1      36.490  22.067  25.475  1.00  0.00     0.069 A 
ATOM     67  C   UNL A   1      36.766  20.694  25.208  1.00  0.00     0.184 A 
ATOM     68  C   UNL A   1      35.235  22.697  25.420  1.00  0.00    -0.028 A 
ATOM     69  N   UNL A   1      35.808  19.822  24.815  1.00  0.00    -0.222 NA
ATOM     70  C   UNL A   1      34.262  21.751  25.031  1.00  0.00     0.038 A 
ATOM     71  C   UNL A   1      34.559  20.386  24.747  1.00  0.00     0.147 A 
BRANCH  62  72
ATOM     72  C   UNL A   1      39.873  25.378  26.817  1.00  0.00     0.000 A 
ATOM     73  C   UNL A   1      39.487  25.985  28.015  1.00  0.00     0.012 A 
ATOM     74  C   UNL A   1      40.784  25.999  25.957  1.00  0.00     0.012 A 
ATOM     75  C   UNL A   1      40.035  27.220  28.366  1.00  0.00     0.021 A 
ATOM     76  C   UNL A   1      41.324  27.238  26.311  1.00  0.00     0.021 A 
ATOM     77  C   UNL A   1      40.952  27.839  27.515  1.00  0.00     0.041 A 
ATOM     78  Cl  UNL A   1      41.636  29.354  27.962  1.00  0.00    -0.084 Cl
ENDBRANCH  62  72
BRANCH  68  79
ATOM     79  C   UNL A   1      34.995  24.128  25.801  1.00  0.00     0.020 C 
ATOM     80  C   UNL A   1      34.374  25.128  24.849  1.00  0.00     0.009 C 
ATOM     81  C   UNL A   1      33.567  24.596  25.993  1.00  0.00     0.009 C 
ENDBRANCH  68  79
BRANCH  71  82
ATOM     82  C   UNL A   1      33.406  19.469  24.345  1.00  0.00     0.433 C 
ATOM     83  F   UNL A   1      32.673  19.042  25.413  1.00  0.00    -0.165 F 
ATOM     84  F   UNL A   1      32.524  20.058  23.488  1.00  0.00    -0.165 F 
ATOM     85  F   UNL A   1      33.816  18.328  23.712  1.00  0.00    -0.165 F 
ENDBRANCH  71  82
ENDBRANCH  57  59
ENDBRANCH  56  57
ENDBRANCH  55  56
ENDBRANCH   1  55
TORSDOF 14
ENDMDL
MODEL 2
REMARK VINA RESULT:     -11.5      4.641      7.102
REMARK SMILES O=C(OCCOC(=O)c1cc(-c2ccc(Cl)cc2)nc2c3c(C4CC4)cc(C(F)(F)F)nc3nn12)c1ccc(-c2c3nc(c(-c4ccccc4)c4ccc([nH]4)c(-c4ccccc4)c4nc(c(-c5ccccc5)c5ccc2[nH]5)C=C4)C=C3)cc1
REMARK SMILES IDX 4 1 3 2 2 3 1 4 36 5 37 6 83 7 38 8 82 9 39 10 40 11 41 12
REMARK SMILES IDX 76 13 42 14 81 15 75 16 77 17 43 18 80 19 74 20 73 21 44 23
REMARK SMILES IDX 66 24 51 25 65 26 52 27 55 28 64 29 78 30 53 31 54 32 63 34
REMARK SMILES IDX 79 35 56 36 45 37 46 38 50 39 47 40 49 41 48 42 67 43 68 44
REMARK SMILES IDX 72 45 69 46 71 47 70 48 57 49 58 50 62 51 59 52 61 53 60 54
REMARK SMILES IDX 5 55 6 56 7 57 8 58 9 59 10 60 35 61 11 62 20 63 34 64 19 65
REMARK SMILES IDX 21 66 33 67 22 68 32 69 26 70 27 71 12 72 13 73 18 74 14 75
REMARK SMILES IDX 17 76 15 77 16 78 23 79 24 80 25 81 28 82 29 83 30 84 31 85
REMARK H PARENT 77 22 55 33
REMARK Flexibility Score: inf
ROOT
ATOM      1  C   UNL A   1      49.372  26.337  25.333  1.00  0.00     0.275 C 
ENDROOT
BRANCH   1   2
ATOM      2  O   UNL A   1      48.779  25.196  25.984  1.00  0.00    -0.458 OA
BRANCH   2   3
ATOM      3  C   UNL A   1      48.833  24.866  27.296  1.00  0.00     0.338 C 
ATOM      4  O   UNL A   1      49.886  24.448  27.774  1.00  0.00    -0.246 OA
BRANCH   3   5
ATOM      5  C   UNL A   1      47.674  25.024  28.215  1.00  0.00     0.060 A 
ATOM      6  C   UNL A   1      46.404  24.482  28.004  1.00  0.00     0.016 A 
ATOM      7  C   UNL A   1      47.912  25.723  29.409  1.00  0.00     0.016 A 
ATOM      8  C   UNL A   1      45.368  24.711  28.885  1.00  0.00     0.010 A 
ATOM      9  C   UNL A   1      46.879  25.942  30.315  1.00  0.00     0.010 A 
ATOM     10  C   UNL A   1      45.601  25.454  30.031  1.00  0.00    -0.014 A 
BRANCH  10  11
ATOM     11  C   UNL A   1      44.442  25.642  30.900  1.00  0.00     0.031 A 
ATOM     12  C   UNL A   1      44.359  24.668  32.015  1.00  0.00     0.074 A 
ATOM     13  C   UNL A   1      43.864  26.861  30.934  1.00  0.00     0.049 A 
ATOM     14  N   UNL A   1      45.094  24.833  33.073  1.00  0.00    -0.248 NA
ATOM     15  C   UNL A   1      43.788  23.328  31.898  1.00  0.00     0.031 C 
ATOM     16  C   UNL A   1      44.610  28.107  30.679  1.00  0.00     0.029 A 
ATOM     17  N   UNL A   1      42.646  27.287  31.389  1.00  0.00    -0.354 N 
ATOM     18  C   UNL A   1      45.160  23.620  33.724  1.00  0.00     0.074 A 
ATOM     19  C   UNL A   1      44.299  22.723  32.984  1.00  0.00     0.031 C 
ATOM     20  C   UNL A   1      43.912  29.141  31.187  1.00  0.00     0.029 A 
ATOM     21  C   UNL A   1      42.625  28.654  31.665  1.00  0.00     0.049 A 
ATOM     22  H   UNL A   1      41.869  26.693  31.507  1.00  0.00     0.167 HD
ATOM     23  C   UNL A   1      45.958  23.443  34.808  1.00  0.00     0.031 A 
ATOM     24  C   UNL A   1      41.925  29.189  32.701  1.00  0.00     0.031 A 
ATOM     25  C   UNL A   1      46.759  24.579  35.164  1.00  0.00     0.049 A 
ATOM     26  C   UNL A   1      42.759  28.694  33.870  1.00  0.00     0.074 A 
ATOM     27  C   UNL A   1      48.067  24.983  35.008  1.00  0.00     0.029 A 
ATOM     28  N   UNL A   1      46.122  25.654  35.735  1.00  0.00    -0.354 N 
ATOM     29  N   UNL A   1      43.925  29.155  34.243  1.00  0.00    -0.248 NA
ATOM     30  C   UNL A   1      42.433  27.373  34.414  1.00  0.00     0.031 C 
ATOM     31  C   UNL A   1      48.033  26.412  35.074  1.00  0.00     0.029 A 
ATOM     32  C   UNL A   1      46.700  26.793  35.238  1.00  0.00     0.049 A 
ATOM     33  H   UNL A   1      45.382  25.614  36.383  1.00  0.00     0.167 HD
ATOM     34  C   UNL A   1      44.601  28.064  34.801  1.00  0.00     0.074 A 
ATOM     35  C   UNL A   1      43.612  27.009  34.902  1.00  0.00     0.031 C 
ATOM     36  C   UNL A   1      45.955  28.010  34.978  1.00  0.00     0.031 A 
BRANCH  23  37
ATOM     37  C   UNL A   1      45.898  22.275  35.704  1.00  0.00    -0.014 A 
ATOM     38  C   UNL A   1      45.869  22.545  37.082  1.00  0.00     0.009 A 
ATOM     39  C   UNL A   1      46.086  20.961  35.265  1.00  0.00     0.009 A 
ATOM     40  C   UNL A   1      46.067  21.528  38.011  1.00  0.00     0.001 A 
ATOM     41  C   UNL A   1      46.271  19.938  36.203  1.00  0.00     0.001 A 
ATOM     42  C   UNL A   1      46.277  20.225  37.571  1.00  0.00     0.000 A 
ENDBRANCH  23  37
BRANCH  24  43
ATOM     43  C   UNL A   1      40.443  28.969  32.594  1.00  0.00    -0.014 A 
ATOM     44  C   UNL A   1      39.589  29.730  33.424  1.00  0.00     0.009 A 
ATOM     45  C   UNL A   1      39.835  28.078  31.700  1.00  0.00     0.009 A 
ATOM     46  C   UNL A   1      38.202  29.718  33.261  1.00  0.00     0.001 A 
ATOM     47  C   UNL A   1      38.445  28.078  31.520  1.00  0.00     0.001 A 
ATOM     48  C   UNL A   1      37.633  28.915  32.282  1.00  0.00     0.000 A 
ENDBRANCH  24  43
BRANCH  36  49
ATOM     49  C   UNL A   1      46.720  29.263  34.691  1.00  0.00    -0.014 A 
ATOM     50  C   UNL A   1      47.093  30.105  35.743  1.00  0.00     0.009 A 
ATOM     51  C   UNL A   1      47.167  29.557  33.391  1.00  0.00     0.009 A 
ATOM     52  C   UNL A   1      47.929  31.198  35.511  1.00  0.00     0.001 A 
ATOM     53  C   UNL A   1      48.016  30.641  33.161  1.00  0.00     0.001 A 
ATOM     54  C   UNL A   1      48.404  31.456  34.225  1.00  0.00     0.000 A 
ENDBRANCH  36  49
ENDBRANCH  10  11
ENDBRANCH   3   5
ENDBRANCH   2   3
ENDBRANCH   1   2
BRANCH   1  55
ATOM     55  C   UNL A   1      48.481  27.586  25.471  1.00  0.00     0.275 C 
BRANCH  55  56
ATOM     56  O   UNL A   1      47.140  27.265  25.907  1.00  0.00    -0.457 OA
BRANCH  56  57
ATOM     57  C   UNL A   1      46.156  27.406  24.989  1.00  0.00     0.357 C 
ATOM     58  O   UNL A   1      46.290  27.930  23.887  1.00  0.00    -0.244 OA
BRANCH  57  59
ATOM     59  C   UNL A   1      44.921  26.707  25.392  1.00  0.00     0.154 A 
ATOM     60  C   UNL A   1      44.030  27.456  26.064  1.00  0.00     0.065 A 
ATOM     61  N   UNL A   1      44.674  25.352  25.175  1.00  0.00    -0.205 N 
ATOM     62  C   UNL A   1      42.807  26.749  26.526  1.00  0.00     0.075 A 
ATOM     63  C   UNL A   1      43.544  24.737  25.765  1.00  0.00     0.166 A 
ATOM     64  N   UNL A   1      45.422  24.463  24.474  1.00  0.00    -0.145 NA
ATOM     65  N   UNL A   1      42.583  25.473  26.411  1.00  0.00    -0.228 NA
ATOM     66  C   UNL A   1      43.723  23.381  25.571  1.00  0.00     0.069 A 
ATOM     67  C   UNL A   1      44.871  23.281  24.731  1.00  0.00     0.184 A 
ATOM     68  C   UNL A   1      42.962  22.316  26.083  1.00  0.00    -0.028 A 
ATOM     69  N   UNL A   1      45.345  22.094  24.286  1.00  0.00    -0.222 NA
ATOM     70  C   UNL A   1      43.501  21.099  25.615  1.00  0.00     0.038 A 
ATOM     71  C   UNL A   1      44.638  21.018  24.759  1.00  0.00     0.147 A 
BRANCH  62  72
ATOM     72  C   UNL A   1      41.823  27.618  27.197  1.00  0.00     0.000 A 
ATOM     73  C   UNL A   1      42.270  28.790  27.813  1.00  0.00     0.012 A 
ATOM     74  C   UNL A   1      40.463  27.296  27.166  1.00  0.00     0.012 A 
ATOM     75  C   UNL A   1      41.343  29.661  28.387  1.00  0.00     0.021 A 
ATOM     76  C   UNL A   1      39.540  28.168  27.749  1.00  0.00     0.021 A 
ATOM     77  C   UNL A   1      39.983  29.348  28.351  1.00  0.00     0.041 A 
ATOM     78  Cl  UNL A   1      38.842  30.433  29.047  1.00  0.00    -0.084 Cl
ENDBRANCH  62  72
BRANCH  68  79
ATOM     79  C   UNL A   1      41.817  22.483  27.037  1.00  0.00     0.020 C 
ATOM     80  C   UNL A   1      41.344  21.366  27.943  1.00  0.00     0.009 C 
ATOM     81  C   UNL A   1      42.111  22.515  28.523  1.00  0.00     0.009 C 
ENDBRANCH  68  79
BRANCH  71  82
ATOM     82  C   UNL A   1      45.121  19.632  24.335  1.00  0.00     0.433 C 
ATOM     83  F   UNL A   1      46.462  19.592  24.088  1.00  0.00    -0.165 F 
ATOM     84  F   UNL A   1      44.877  18.669  25.269  1.00  0.00    -0.165 F 
ATOM     85  F   UNL A   1      44.531  19.179  23.188  1.00  0.00    -0.165 F 
ENDBRANCH  71  82
ENDBRANCH  57  59
ENDBRANCH  56  57
ENDBRANCH  55  56
ENDBRANCH   1  55
TORSDOF 14
ENDMDL
MODEL 3
REMARK VINA RESULT:     -11.4      7.609     11.668
REMARK SMILES O=C(OCCOC(=O)c1cc(-c2ccc(Cl)cc2)nc2c3c(C4CC4)cc(C(F)(F)F)nc3nn12)c1ccc(-c2c3nc(c(-c4ccccc4)c4ccc([nH]4)c(-c4ccccc4)c4nc(c(-c5ccccc5)c5ccc2[nH]5)C=C4)C=C3)cc1
REMARK SMILES IDX 4 1 3 2 2 3 1 4 36 5 37 6 83 7 38 8 82 9 39 10 40 11 41 12
REMARK SMILES IDX 76 13 42 14 81 15 75 16 77 17 43 18 80 19 74 20 73 21 44 23
REMARK SMILES IDX 66 24 51 25 65 26 52 27 55 28 64 29 78 30 53 31 54 32 63 34
REMARK SMILES IDX 79 35 56 36 45 37 46 38 50 39 47 40 49 41 48 42 67 43 68 44
REMARK SMILES IDX 72 45 69 46 71 47 70 48 57 49 58 50 62 51 59 52 61 53 60 54
REMARK SMILES IDX 5 55 6 56 7 57 8 58 9 59 10 60 35 61 11 62 20 63 34 64 19 65
REMARK SMILES IDX 21 66 33 67 22 68 32 69 26 70 27 71 12 72 13 73 18 74 14 75
REMARK SMILES IDX 17 76 15 77 16 78 23 79 24 80 25 81 28 82 29 83 30 84 31 85
REMARK H PARENT 77 22 55 33
REMARK Flexibility Score: inf
ROOT
ATOM      1  C   UNL A   1      40.419  33.314  36.983  1.00  0.00     0.275 C 
ENDROOT
BRANCH   1   2
ATOM      2  O   UNL A   1      40.316  34.746  36.859  1.00  0.00    -0.458 OA
BRANCH   2   3
ATOM      3  C   UNL A   1      40.096  35.471  35.737  1.00  0.00     0.338 C 
ATOM      4  O   UNL A   1      39.653  36.614  35.828  1.00  0.00    -0.246 OA
BRANCH   3   5
ATOM      5  C   UNL A   1      40.405  34.959  34.374  1.00  0.00     0.060 A 
ATOM      6  C   UNL A   1      39.492  34.325  33.529  1.00  0.00     0.016 A 
ATOM      7  C   UNL A   1      41.704  35.196  33.896  1.00  0.00     0.016 A 
ATOM      8  C   UNL A   1      39.869  33.840  32.295  1.00  0.00     0.010 A 
ATOM      9  C   UNL A   1      42.089  34.730  32.644  1.00  0.00     0.010 A 
ATOM     10  C   UNL A   1      41.171  34.027  31.859  1.00  0.00    -0.014 A 
BRANCH  10  11
ATOM     11  C   UNL A   1      41.472  33.477  30.540  1.00  0.00     0.031 A 
ATOM     12  C   UNL A   1      41.580  34.498  29.470  1.00  0.00     0.074 A 
ATOM     13  C   UNL A   1      42.073  32.270  30.477  1.00  0.00     0.049 A 
ATOM     14  N   UNL A   1      42.666  35.199  29.352  1.00  0.00    -0.248 NA
ATOM     15  C   UNL A   1      40.440  35.052  28.743  1.00  0.00     0.031 C 
ATOM     16  C   UNL A   1      42.962  31.762  31.539  1.00  0.00     0.029 A 
ATOM     17  N   UNL A   1      42.225  31.372  29.456  1.00  0.00    -0.354 N 
ATOM     18  C   UNL A   1      42.356  36.321  28.615  1.00  0.00     0.074 A 
ATOM     19  C   UNL A   1      40.973  36.169  28.219  1.00  0.00     0.031 C 
ATOM     20  C   UNL A   1      43.724  30.774  31.031  1.00  0.00     0.029 A 
ATOM     21  C   UNL A   1      43.282  30.488  29.672  1.00  0.00     0.049 A 
ATOM     22  H   UNL A   1      41.650  31.352  28.657  1.00  0.00     0.167 HD
ATOM     23  C   UNL A   1      43.263  37.313  28.421  1.00  0.00     0.031 A 
ATOM     24  C   UNL A   1      44.083  30.033  28.672  1.00  0.00     0.031 A 
ATOM     25  C   UNL A   1      44.517  37.127  29.094  1.00  0.00     0.049 A 
ATOM     26  C   UNL A   1      44.857  31.301  28.354  1.00  0.00     0.074 A 
ATOM     27  C   UNL A   1      45.132  37.596  30.235  1.00  0.00     0.029 A 
ATOM     28  N   UNL A   1      45.370  36.169  28.600  1.00  0.00    -0.354 N 
ATOM     29  N   UNL A   1      45.819  31.824  29.069  1.00  0.00    -0.248 NA
ATOM     30  C   UNL A   1      44.266  32.220  27.378  1.00  0.00     0.031 C 
ATOM     31  C   UNL A   1      46.081  36.587  30.595  1.00  0.00     0.029 A 
ATOM     32  C   UNL A   1      45.965  35.551  29.668  1.00  0.00     0.049 A 
ATOM     33  H   UNL A   1      45.524  35.964  27.650  1.00  0.00     0.167 HD
ATOM     34  C   UNL A   1      45.739  33.205  28.857  1.00  0.00     0.074 A 
ATOM     35  C   UNL A   1      44.783  33.374  27.781  1.00  0.00     0.031 C 
ATOM     36  C   UNL A   1      46.304  34.141  29.677  1.00  0.00     0.031 A 
BRANCH  23  37
ATOM     37  C   UNL A   1      43.105  38.410  27.451  1.00  0.00    -0.014 A 
ATOM     38  C   UNL A   1      44.283  38.904  26.868  1.00  0.00     0.009 A 
ATOM     39  C   UNL A   1      41.903  39.098  27.262  1.00  0.00     0.009 A 
ATOM     40  C   UNL A   1      44.274  40.091  26.142  1.00  0.00     0.001 A 
ATOM     41  C   UNL A   1      41.895  40.284  26.518  1.00  0.00     0.001 A 
ATOM     42  C   UNL A   1      43.081  40.786  25.974  1.00  0.00     0.000 A 
ENDBRANCH  23  37
BRANCH  24  43
ATOM     43  C   UNL A   1      43.344  29.236  27.634  1.00  0.00    -0.014 A 
ATOM     44  C   UNL A   1      41.976  29.516  27.421  1.00  0.00     0.009 A 
ATOM     45  C   UNL A   1      43.925  28.245  26.832  1.00  0.00     0.009 A 
ATOM     46  C   UNL A   1      41.266  28.951  26.359  1.00  0.00     0.001 A 
ATOM     47  C   UNL A   1      43.222  27.691  25.753  1.00  0.00     0.001 A 
ATOM     48  C   UNL A   1      41.903  28.063  25.503  1.00  0.00     0.000 A 
ENDBRANCH  24  43
BRANCH  36  49
ATOM     49  C   UNL A   1      47.182  33.629  30.774  1.00  0.00    -0.014 A 
ATOM     50  C   UNL A   1      48.570  33.612  30.604  1.00  0.00     0.009 A 
ATOM     51  C   UNL A   1      46.645  33.263  32.021  1.00  0.00     0.009 A 
ATOM     52  C   UNL A   1      49.409  33.276  31.667  1.00  0.00     0.001 A 
ATOM     53  C   UNL A   1      47.485  32.942  33.089  1.00  0.00     0.001 A 
ATOM     54  C   UNL A   1      48.868  32.958  32.913  1.00  0.00     0.000 A 
ENDBRANCH  36  49
ENDBRANCH  10  11
ENDBRANCH   3   5
ENDBRANCH   2   3
ENDBRANCH   1   2
BRANCH   1  55
ATOM     55  C   UNL A   1      39.042  32.676  37.248  1.00  0.00     0.275 C 
BRANCH  55  56
ATOM     56  O   UNL A   1      38.282  32.471  36.035  1.00  0.00    -0.457 OA
BRANCH  56  57
ATOM     57  C   UNL A   1      38.224  31.204  35.565  1.00  0.00     0.357 C 
ATOM     58  O   UNL A   1      38.384  30.193  36.243  1.00  0.00    -0.244 OA
BRANCH  57  59
ATOM     59  C   UNL A   1      37.782  31.157  34.159  1.00  0.00     0.154 A 
ATOM     60  C   UNL A   1      38.488  30.337  33.360  1.00  0.00     0.065 A 
ATOM     61  N   UNL A   1      36.753  31.935  33.629  1.00  0.00    -0.205 N 
ATOM     62  C   UNL A   1      38.087  30.324  31.929  1.00  0.00     0.075 A 
ATOM     63  C   UNL A   1      36.530  31.954  32.231  1.00  0.00     0.166 A 
ATOM     64  N   UNL A   1      35.904  32.766  34.284  1.00  0.00    -0.145 NA
ATOM     65  N   UNL A   1      37.190  31.095  31.389  1.00  0.00    -0.228 NA
ATOM     66  C   UNL A   1      35.637  32.986  32.017  1.00  0.00     0.069 A 
ATOM     67  C   UNL A   1      35.255  33.414  33.323  1.00  0.00     0.184 A 
ATOM     68  C   UNL A   1      35.193  33.519  30.795  1.00  0.00    -0.028 A 
ATOM     69  N   UNL A   1      34.350  34.399  33.529  1.00  0.00    -0.222 NA
ATOM     70  C   UNL A   1      34.271  34.556  31.054  1.00  0.00     0.038 A 
ATOM     71  C   UNL A   1      33.884  34.958  32.366  1.00  0.00     0.147 A 
BRANCH  62  72
ATOM     72  C   UNL A   1      38.837  29.363  31.100  1.00  0.00     0.000 A 
ATOM     73  C   UNL A   1      40.166  29.083  31.430  1.00  0.00     0.012 A 
ATOM     74  C   UNL A   1      38.206  28.707  30.039  1.00  0.00     0.012 A 
ATOM     75  C   UNL A   1      40.865  28.120  30.702  1.00  0.00     0.021 A 
ATOM     76  C   UNL A   1      38.914  27.749  29.309  1.00  0.00     0.021 A 
ATOM     77  C   UNL A   1      40.237  27.455  29.647  1.00  0.00     0.041 A 
ATOM     78  Cl  UNL A   1      41.100  26.257  28.763  1.00  0.00    -0.084 Cl
ENDBRANCH  62  72
BRANCH  68  79
ATOM     79  C   UNL A   1      35.701  33.084  29.453  1.00  0.00     0.020 C 
ATOM     80  C   UNL A   1      35.540  33.932  28.209  1.00  0.00     0.009 C 
ATOM     81  C   UNL A   1      36.886  33.815  28.856  1.00  0.00     0.009 C 
ENDBRANCH  68  79
BRANCH  71  82
ATOM     82  C   UNL A   1      32.882  36.103  32.501  1.00  0.00     0.433 C 
ATOM     83  F   UNL A   1      31.605  35.666  32.702  1.00  0.00    -0.165 F 
ATOM     84  F   UNL A   1      33.163  36.945  33.535  1.00  0.00    -0.165 F 
ATOM     85  F   UNL A   1      32.818  36.901  31.393  1.00  0.00    -0.165 F 
ENDBRANCH  71  82
ENDBRANCH  57  59
ENDBRANCH  56  57
ENDBRANCH  55  56
ENDBRANCH   1  55
TORSDOF 14
ENDMDL
