MODEL 1
REMARK VINA RESULT:      -9.9      0.000      0.000
REMARK SMILES [NH3+][C@]1(C(=O)OCCOC(=O)c2ccc(-c3c4nc(c(-c5ccccc5)c5ccc([nH]5)c(-c5ccccc5)c5nc(c(-c6ccccc6)c6ccc3[nH]6)C=C5)C=C4)cc2)CC[C@H](Oc2ccccc2[N+](=O)[O-])C1
REMARK SMILES IDX 6 1 5 2 3 3 4 4 2 5 59 6 72 7 60 8 61 9 1 10 62 14 63 15
REMARK SMILES IDX 64 16 68 17 65 18 67 19 66 20 69 21 70 22 71 23 7 24 8 25
REMARK SMILES IDX 9 26 10 27 11 28 12 29 58 30 13 31 57 32 14 33 15 34 16 35
REMARK SMILES IDX 51 36 17 37 56 38 50 39 52 40 18 41 55 42 49 43 48 44 19 46
REMARK SMILES IDX 41 47 26 48 40 49 27 50 30 51 39 52 53 53 28 54 29 55 38 57
REMARK SMILES IDX 54 58 31 59 20 60 21 61 25 62 22 63 24 64 23 65 42 66 43 67
REMARK SMILES IDX 47 68 44 69 46 70 45 71 32 72 33 73 37 74 34 75 36 76 35 77
REMARK H PARENT 1 11 1 12 1 13 52 45 30 56
REMARK Flexibility Score: inf
ROOT
ATOM      1  C   UNL A   1      44.182  18.537  25.194  1.00  0.00     0.274 C 
ENDROOT
BRANCH   1   2
ATOM      2  O   UNL A   1      44.350  19.724  24.395  1.00  0.00    -0.457 OA
BRANCH   2   3
ATOM      3  C   UNL A   1      45.458  20.471  24.661  1.00  0.00     0.368 C 
ATOM      4  O   UNL A   1      46.503  20.026  25.126  1.00  0.00    -0.245 OA
BRANCH   3   5
ATOM      5  C   UNL A   1      45.235  21.973  24.383  1.00  0.00     0.196 C 
ATOM      6  C   UNL A   1      44.124  22.504  25.301  1.00  0.00     0.085 C 
ATOM      7  C   UNL A   1      46.423  22.881  24.752  1.00  0.00     0.126 C 
ATOM      8  C   UNL A   1      44.303  24.005  25.277  1.00  0.00     0.052 C 
ATOM      9  C   UNL A   1      45.824  24.212  25.267  1.00  0.00     0.180 C 
BRANCH   5  10
ATOM     10  N   UNL A   1      44.860  22.144  22.963  1.00  0.00    -0.343 N 
ATOM     11  H   UNL A   1      45.314  21.422  22.404  1.00  0.00     0.345 HD
ATOM     12  H   UNL A   1      45.162  23.063  22.641  1.00  0.00     0.345 HD
ATOM     13  H   UNL A   1      43.849  22.064  22.868  1.00  0.00     0.345 HD
ENDBRANCH   5  10
BRANCH   9  14
ATOM     14  O   UNL A   1      46.237  25.278  24.404  1.00  0.00    -0.483 OA
BRANCH  14  15
ATOM     15  C   UNL A   1      47.175  26.158  24.869  1.00  0.00     0.197 A 
ATOM     16  C   UNL A   1      48.551  25.991  24.674  1.00  0.00     0.054 A 
ATOM     17  C   UNL A   1      46.744  27.298  25.561  1.00  0.00     0.310 A 
ATOM     18  C   UNL A   1      49.466  26.904  25.214  1.00  0.00     0.004 A 
ATOM     19  C   UNL A   1      47.653  28.228  26.090  1.00  0.00     0.090 A 
ATOM     20  C   UNL A   1      49.020  28.017  25.925  1.00  0.00     0.007 A 
BRANCH  17  21
ATOM     21  N   UNL A   1      45.325  27.538  25.786  1.00  0.00     0.066 N 
ATOM     22  O   UNL A   1      44.680  28.010  24.838  1.00  0.00    -0.258 OA
ATOM     23  O   UNL A   1      44.872  27.324  26.920  1.00  0.00    -0.258 OA
ENDBRANCH  17  21
ENDBRANCH  14  15
ENDBRANCH   9  14
ENDBRANCH   3   5
ENDBRANCH   2   3
ENDBRANCH   1   2
BRANCH   1  24
ATOM     24  C   UNL A   1      42.802  18.501  25.843  1.00  0.00     0.275 C 
BRANCH  24  25
ATOM     25  O   UNL A   1      41.945  19.491  25.244  1.00  0.00    -0.458 OA
BRANCH  25  26
ATOM     26  C   UNL A   1      40.803  19.753  25.914  1.00  0.00     0.338 C 
ATOM     27  O   UNL A   1      39.782  19.089  25.950  1.00  0.00    -0.246 OA
BRANCH  26  28
ATOM     28  C   UNL A   1      40.952  20.999  26.678  1.00  0.00     0.060 A 
ATOM     29  C   UNL A   1      40.587  22.206  26.086  1.00  0.00     0.016 A 
ATOM     30  C   UNL A   1      41.604  20.987  27.909  1.00  0.00     0.016 A 
ATOM     31  C   UNL A   1      40.966  23.413  26.672  1.00  0.00     0.010 A 
ATOM     32  C   UNL A   1      41.899  22.198  28.541  1.00  0.00     0.010 A 
ATOM     33  C   UNL A   1      41.628  23.425  27.908  1.00  0.00    -0.014 A 
BRANCH  33  34
ATOM     34  C   UNL A   1      42.098  24.703  28.513  1.00  0.00     0.031 A 
ATOM     35  C   UNL A   1      41.123  25.831  28.743  1.00  0.00     0.074 A 
ATOM     36  C   UNL A   1      43.387  24.870  28.866  1.00  0.00     0.049 A 
ATOM     37  N   UNL A   1      41.360  27.079  29.058  1.00  0.00    -0.248 NA
ATOM     38  C   UNL A   1      39.695  25.514  28.585  1.00  0.00     0.031 C 
ATOM     39  C   UNL A   1      44.438  23.857  28.764  1.00  0.00     0.029 A 
ATOM     40  N   UNL A   1      44.032  25.964  29.392  1.00  0.00    -0.354 N 
ATOM     41  C   UNL A   1      40.122  27.710  29.066  1.00  0.00     0.074 A 
ATOM     42  C   UNL A   1      39.134  26.705  28.738  1.00  0.00     0.031 C 
ATOM     43  C   UNL A   1      45.585  24.363  29.246  1.00  0.00     0.029 A 
ATOM     44  C   UNL A   1      45.371  25.760  29.610  1.00  0.00     0.049 A 
ATOM     45  H   UNL A   1      43.576  26.813  29.593  1.00  0.00     0.167 HD
ATOM     46  C   UNL A   1      39.833  29.010  29.313  1.00  0.00     0.031 A 
ATOM     47  C   UNL A   1      46.336  26.608  30.014  1.00  0.00     0.031 A 
ATOM     48  C   UNL A   1      40.803  30.004  29.690  1.00  0.00     0.049 A 
ATOM     49  C   UNL A   1      45.999  28.048  30.266  1.00  0.00     0.074 A 
ATOM     50  C   UNL A   1      40.605  31.347  29.959  1.00  0.00     0.029 A 
ATOM     51  N   UNL A   1      42.153  29.754  29.873  1.00  0.00    -0.354 N 
ATOM     52  N   UNL A   1      44.837  28.649  30.187  1.00  0.00    -0.248 NA
ATOM     53  C   UNL A   1      47.112  28.932  30.639  1.00  0.00     0.031 C 
ATOM     54  C   UNL A   1      41.841  31.916  30.284  1.00  0.00     0.029 A 
ATOM     55  C   UNL A   1      42.801  30.918  30.249  1.00  0.00     0.049 A 
ATOM     56  H   UNL A   1      42.587  28.879  29.753  1.00  0.00     0.167 HD
ATOM     57  C   UNL A   1      45.078  29.979  30.502  1.00  0.00     0.074 A 
ATOM     58  C   UNL A   1      46.492  30.094  30.795  1.00  0.00     0.031 C 
ATOM     59  C   UNL A   1      44.207  31.016  30.535  1.00  0.00     0.031 A 
BRANCH  46  60
ATOM     60  C   UNL A   1      38.407  29.445  29.136  1.00  0.00    -0.014 A 
ATOM     61  C   UNL A   1      37.520  29.514  30.221  1.00  0.00     0.009 A 
ATOM     62  C   UNL A   1      37.956  29.820  27.861  1.00  0.00     0.009 A 
ATOM     63  C   UNL A   1      36.199  29.923  30.024  1.00  0.00     0.001 A 
ATOM     64  C   UNL A   1      36.641  30.250  27.672  1.00  0.00     0.001 A 
ATOM     65  C   UNL A   1      35.762  30.293  28.752  1.00  0.00     0.000 A 
ENDBRANCH  46  60
BRANCH  47  66
ATOM     66  C   UNL A   1      47.732  26.122  30.155  1.00  0.00    -0.014 A 
ATOM     67  C   UNL A   1      48.250  25.802  31.418  1.00  0.00     0.009 A 
ATOM     68  C   UNL A   1      48.548  25.966  29.023  1.00  0.00     0.009 A 
ATOM     69  C   UNL A   1      49.562  25.341  31.545  1.00  0.00     0.001 A 
ATOM     70  C   UNL A   1      49.850  25.482  29.151  1.00  0.00     0.001 A 
ATOM     71  C   UNL A   1      50.359  25.175  30.412  1.00  0.00     0.000 A 
ENDBRANCH  47  66
BRANCH  59  72
ATOM     72  C   UNL A   1      44.756  32.354  30.925  1.00  0.00    -0.014 A 
ATOM     73  C   UNL A   1      45.228  33.251  29.954  1.00  0.00     0.009 A 
ATOM     74  C   UNL A   1      44.774  32.735  32.274  1.00  0.00     0.009 A 
ATOM     75  C   UNL A   1      45.732  34.497  30.332  1.00  0.00     0.001 A 
ATOM     76  C   UNL A   1      45.263  33.988  32.648  1.00  0.00     0.001 A 
ATOM     77  C   UNL A   1      45.747  34.864  31.677  1.00  0.00     0.000 A 
ENDBRANCH  59  72
ENDBRANCH  33  34
ENDBRANCH  26  28
ENDBRANCH  25  26
ENDBRANCH  24  25
ENDBRANCH   1  24
TORSDOF 15
ENDMDL
MODEL 2
REMARK VINA RESULT:      -9.1      5.553     11.334
REMARK SMILES [NH3+][C@]1(C(=O)OCCOC(=O)c2ccc(-c3c4nc(c(-c5ccccc5)c5ccc([nH]5)c(-c5ccccc5)c5nc(c(-c6ccccc6)c6ccc3[nH]6)C=C5)C=C4)cc2)CC[C@H](Oc2ccccc2[N+](=O)[O-])C1
REMARK SMILES IDX 6 1 5 2 3 3 4 4 2 5 59 6 72 7 60 8 61 9 1 10 62 14 63 15
REMARK SMILES IDX 64 16 68 17 65 18 67 19 66 20 69 21 70 22 71 23 7 24 8 25
REMARK SMILES IDX 9 26 10 27 11 28 12 29 58 30 13 31 57 32 14 33 15 34 16 35
REMARK SMILES IDX 51 36 17 37 56 38 50 39 52 40 18 41 55 42 49 43 48 44 19 46
REMARK SMILES IDX 41 47 26 48 40 49 27 50 30 51 39 52 53 53 28 54 29 55 38 57
REMARK SMILES IDX 54 58 31 59 20 60 21 61 25 62 22 63 24 64 23 65 42 66 43 67
REMARK SMILES IDX 47 68 44 69 46 70 45 71 32 72 33 73 37 74 34 75 36 76 35 77
REMARK H PARENT 1 11 1 12 1 13 52 45 30 56
REMARK Flexibility Score: inf
ROOT
ATOM      1  C   UNL A   1      33.296  34.662  29.214  1.00  0.00     0.274 C 
ENDROOT
BRANCH   1   2
ATOM      2  O   UNL A   1      34.293  34.494  30.240  1.00  0.00    -0.457 OA
BRANCH   2   3
ATOM      3  C   UNL A   1      33.888  34.748  31.515  1.00  0.00     0.368 C 
ATOM      4  O   UNL A   1      33.169  35.687  31.844  1.00  0.00    -0.245 OA
BRANCH   3   5
ATOM      5  C   UNL A   1      34.498  33.762  32.534  1.00  0.00     0.196 C 
ATOM      6  C   UNL A   1      35.031  32.526  31.794  1.00  0.00     0.085 C 
ATOM      7  C   UNL A   1      35.758  34.276  33.254  1.00  0.00     0.126 C 
ATOM      8  C   UNL A   1      35.975  31.876  32.779  1.00  0.00     0.052 C 
ATOM      9  C   UNL A   1      36.680  33.051  33.470  1.00  0.00     0.180 C 
BRANCH   5  10
ATOM     10  N   UNL A   1      33.454  33.375  33.505  1.00  0.00    -0.343 N 
ATOM     11  H   UNL A   1      32.593  33.882  33.298  1.00  0.00     0.345 HD
ATOM     12  H   UNL A   1      33.766  33.606  34.449  1.00  0.00     0.345 HD
ATOM     13  H   UNL A   1      33.283  32.373  33.439  1.00  0.00     0.345 HD
ENDBRANCH   5  10
BRANCH   9  14
ATOM     14  O   UNL A   1      36.865  32.844  34.875  1.00  0.00    -0.483 OA
BRANCH  14  15
ATOM     15  C   UNL A   1      37.799  33.606  35.522  1.00  0.00     0.197 A 
ATOM     16  C   UNL A   1      38.575  34.580  34.884  1.00  0.00     0.054 A 
ATOM     17  C   UNL A   1      37.980  33.421  36.900  1.00  0.00     0.310 A 
ATOM     18  C   UNL A   1      39.547  35.297  35.592  1.00  0.00     0.004 A 
ATOM     19  C   UNL A   1      38.940  34.148  37.622  1.00  0.00     0.090 A 
ATOM     20  C   UNL A   1      39.734  35.079  36.957  1.00  0.00     0.007 A 
BRANCH  17  21
ATOM     21  N   UNL A   1      37.195  32.434  37.627  1.00  0.00     0.066 N 
ATOM     22  O   UNL A   1      37.581  31.257  37.568  1.00  0.00    -0.258 OA
ATOM     23  O   UNL A   1      36.161  32.817  38.195  1.00  0.00    -0.258 OA
ENDBRANCH  17  21
ENDBRANCH  14  15
ENDBRANCH   9  14
ENDBRANCH   3   5
ENDBRANCH   2   3
ENDBRANCH   1   2
BRANCH   1  24
ATOM     24  C   UNL A   1      33.502  33.667  28.076  1.00  0.00     0.275 C 
BRANCH  24  25
ATOM     25  O   UNL A   1      34.833  33.122  28.129  1.00  0.00    -0.458 OA
BRANCH  25  26
ATOM     26  C   UNL A   1      34.922  31.788  27.943  1.00  0.00     0.338 C 
ATOM     27  O   UNL A   1      34.234  31.080  27.226  1.00  0.00    -0.246 OA
BRANCH  26  28
ATOM     28  C   UNL A   1      36.041  31.251  28.728  1.00  0.00     0.060 A 
ATOM     29  C   UNL A   1      37.248  31.945  28.754  1.00  0.00     0.016 A 
ATOM     30  C   UNL A   1      35.945  29.984  29.299  1.00  0.00     0.016 A 
ATOM     31  C   UNL A   1      38.395  31.334  29.257  1.00  0.00     0.010 A 
ATOM     32  C   UNL A   1      37.075  29.409  29.889  1.00  0.00     0.010 A 
ATOM     33  C   UNL A   1      38.324  30.056  29.832  1.00  0.00    -0.014 A 
BRANCH  33  34
ATOM     34  C   UNL A   1      39.552  29.363  30.312  1.00  0.00     0.031 A 
ATOM     35  C   UNL A   1      40.224  29.815  31.584  1.00  0.00     0.074 A 
ATOM     36  C   UNL A   1      40.076  28.327  29.628  1.00  0.00     0.049 A 
ATOM     37  N   UNL A   1      41.399  29.490  32.062  1.00  0.00    -0.248 NA
ATOM     38  C   UNL A   1      39.479  30.767  32.424  1.00  0.00     0.031 C 
ATOM     39  C   UNL A   1      39.513  27.733  28.414  1.00  0.00     0.029 A 
ATOM     40  N   UNL A   1      41.207  27.584  29.866  1.00  0.00    -0.354 N 
ATOM     41  C   UNL A   1      41.562  30.250  33.214  1.00  0.00     0.074 A 
ATOM     42  C   UNL A   1      40.362  31.041  33.373  1.00  0.00     0.031 C 
ATOM     43  C   UNL A   1      40.279  26.697  28.036  1.00  0.00     0.029 A 
ATOM     44  C   UNL A   1      41.430  26.607  28.928  1.00  0.00     0.049 A 
ATOM     45  H   UNL A   1      41.801  27.738  30.636  1.00  0.00     0.167 HD
ATOM     46  C   UNL A   1      42.621  30.293  34.058  1.00  0.00     0.031 A 
ATOM     47  C   UNL A   1      42.464  25.760  28.769  1.00  0.00     0.031 A 
ATOM     48  C   UNL A   1      43.797  29.473  33.935  1.00  0.00     0.049 A 
ATOM     49  C   UNL A   1      43.635  25.835  29.705  1.00  0.00     0.074 A 
ATOM     50  C   UNL A   1      44.921  29.448  34.742  1.00  0.00     0.029 A 
ATOM     51  N   UNL A   1      43.987  28.515  32.953  1.00  0.00    -0.354 N 
ATOM     52  N   UNL A   1      43.813  26.618  30.741  1.00  0.00    -0.248 NA
ATOM     53  C   UNL A   1      44.759  24.928  29.433  1.00  0.00     0.031 C 
ATOM     54  C   UNL A   1      45.804  28.488  34.233  1.00  0.00     0.029 A 
ATOM     55  C   UNL A   1      45.212  27.895  33.131  1.00  0.00     0.049 A 
ATOM     56  H   UNL A   1      43.347  28.307  32.235  1.00  0.00     0.167 HD
ATOM     57  C   UNL A   1      45.065  26.296  31.246  1.00  0.00     0.074 A 
ATOM     58  C   UNL A   1      45.594  25.232  30.416  1.00  0.00     0.031 C 
ATOM     59  C   UNL A   1      45.723  26.840  32.297  1.00  0.00     0.031 A 
BRANCH  46  60
ATOM     60  C   UNL A   1      42.575  31.301  35.170  1.00  0.00    -0.014 A 
ATOM     61  C   UNL A   1      42.092  30.967  36.444  1.00  0.00     0.009 A 
ATOM     62  C   UNL A   1      43.053  32.600  34.940  1.00  0.00     0.009 A 
ATOM     63  C   UNL A   1      42.061  31.927  37.458  1.00  0.00     0.001 A 
ATOM     64  C   UNL A   1      43.043  33.551  35.963  1.00  0.00     0.001 A 
ATOM     65  C   UNL A   1      42.539  33.216  37.218  1.00  0.00     0.000 A 
ENDBRANCH  46  60
BRANCH  47  66
ATOM     66  C   UNL A   1      42.461  24.796  27.639  1.00  0.00    -0.014 A 
ATOM     67  C   UNL A   1      41.877  23.530  27.787  1.00  0.00     0.009 A 
ATOM     68  C   UNL A   1      43.029  25.146  26.405  1.00  0.00     0.009 A 
ATOM     69  C   UNL A   1      41.872  22.628  26.720  1.00  0.00     0.001 A 
ATOM     70  C   UNL A   1      43.000  24.252  25.334  1.00  0.00     0.001 A 
ATOM     71  C   UNL A   1      42.426  22.991  25.494  1.00  0.00     0.000 A 
ENDBRANCH  47  66
BRANCH  59  72
ATOM     72  C   UNL A   1      47.073  26.277  32.621  1.00  0.00    -0.014 A 
ATOM     73  C   UNL A   1      47.213  25.201  33.511  1.00  0.00     0.009 A 
ATOM     74  C   UNL A   1      48.217  26.809  32.006  1.00  0.00     0.009 A 
ATOM     75  C   UNL A   1      48.477  24.684  33.798  1.00  0.00     0.001 A 
ATOM     76  C   UNL A   1      49.478  26.279  32.283  1.00  0.00     0.001 A 
ATOM     77  C   UNL A   1      49.607  25.222  33.182  1.00  0.00     0.000 A 
ENDBRANCH  59  72
ENDBRANCH  33  34
ENDBRANCH  26  28
ENDBRANCH  25  26
ENDBRANCH  24  25
ENDBRANCH   1  24
TORSDOF 15
ENDMDL
MODEL 3
REMARK VINA RESULT:      -9.1      4.359     10.005
REMARK SMILES [NH3+][C@]1(C(=O)OCCOC(=O)c2ccc(-c3c4nc(c(-c5ccccc5)c5ccc([nH]5)c(-c5ccccc5)c5nc(c(-c6ccccc6)c6ccc3[nH]6)C=C5)C=C4)cc2)CC[C@H](Oc2ccccc2[N+](=O)[O-])C1
REMARK SMILES IDX 6 1 5 2 3 3 4 4 2 5 59 6 72 7 60 8 61 9 1 10 62 14 63 15
REMARK SMILES IDX 64 16 68 17 65 18 67 19 66 20 69 21 70 22 71 23 7 24 8 25
REMARK SMILES IDX 9 26 10 27 11 28 12 29 58 30 13 31 57 32 14 33 15 34 16 35
REMARK SMILES IDX 51 36 17 37 56 38 50 39 52 40 18 41 55 42 49 43 48 44 19 46
REMARK SMILES IDX 41 47 26 48 40 49 27 50 30 51 39 52 53 53 28 54 29 55 38 57
REMARK SMILES IDX 54 58 31 59 20 60 21 61 25 62 22 63 24 64 23 65 42 66 43 67
REMARK SMILES IDX 47 68 44 69 46 70 45 71 32 72 33 73 37 74 34 75 36 76 35 77
REMARK H PARENT 1 11 1 12 1 13 52 45 30 56
REMARK Flexibility Score: inf
ROOT
ATOM      1  C   UNL A   1      32.131  30.056  26.849  1.00  0.00     0.274 C 
ENDROOT
BRANCH   1   2
ATOM      2  O   UNL A   1      31.633  28.922  26.114  1.00  0.00    -0.457 OA
BRANCH   2   3
ATOM      3  C   UNL A   1      31.414  27.789  26.839  1.00  0.00     0.368 C 
ATOM      4  O   UNL A   1      31.041  27.772  28.008  1.00  0.00    -0.245 OA
BRANCH   3   5
ATOM      5  C   UNL A   1      31.762  26.509  26.049  1.00  0.00     0.196 C 
ATOM      6  C   UNL A   1      31.964  26.860  24.568  1.00  0.00     0.085 C 
ATOM      7  C   UNL A   1      33.114  25.871  26.419  1.00  0.00     0.126 C 
ATOM      8  C   UNL A   1      32.720  25.679  24.002  1.00  0.00     0.052 C 
ATOM      9  C   UNL A   1      33.700  25.281  25.114  1.00  0.00     0.180 C 
BRANCH   5  10
ATOM     10  N   UNL A   1      30.659  25.539  26.207  1.00  0.00    -0.343 N 
ATOM     11  H   UNL A   1      29.768  26.036  26.214  1.00  0.00     0.345 HD
ATOM     12  H   UNL A   1      30.774  25.034  27.086  1.00  0.00     0.345 HD
ATOM     13  H   UNL A   1      30.674  24.879  25.431  1.00  0.00     0.345 HD
ENDBRANCH   5  10
BRANCH   9  14
ATOM     14  O   UNL A   1      33.835  23.862  25.259  1.00  0.00    -0.483 OA
BRANCH  14  15
ATOM     15  C   UNL A   1      35.091  23.344  25.410  1.00  0.00     0.197 A 
ATOM     16  C   UNL A   1      36.241  24.134  25.529  1.00  0.00     0.054 A 
ATOM     17  C   UNL A   1      35.243  21.952  25.468  1.00  0.00     0.310 A 
ATOM     18  C   UNL A   1      37.506  23.544  25.635  1.00  0.00     0.004 A 
ATOM     19  C   UNL A   1      36.506  21.352  25.594  1.00  0.00     0.090 A 
ATOM     20  C   UNL A   1      37.640  22.157  25.663  1.00  0.00     0.007 A 
BRANCH  17  21
ATOM     21  N   UNL A   1      34.086  21.074  25.365  1.00  0.00     0.066 N 
ATOM     22  O   UNL A   1      33.698  20.791  24.222  1.00  0.00    -0.258 OA
ATOM     23  O   UNL A   1      33.525  20.724  26.415  1.00  0.00    -0.258 OA
ENDBRANCH  17  21
ENDBRANCH  14  15
ENDBRANCH   9  14
ENDBRANCH   3   5
ENDBRANCH   2   3
ENDBRANCH   1   2
BRANCH   1  24
ATOM     24  C   UNL A   1      33.583  29.846  27.268  1.00  0.00     0.275 C 
BRANCH  24  25
ATOM     25  O   UNL A   1      34.226  31.116  27.483  1.00  0.00    -0.458 OA
BRANCH  25  26
ATOM     26  C   UNL A   1      34.880  31.244  28.656  1.00  0.00     0.338 C 
ATOM     27  O   UNL A   1      34.557  31.902  29.631  1.00  0.00    -0.246 OA
BRANCH  26  28
ATOM     28  C   UNL A   1      36.094  30.417  28.640  1.00  0.00     0.060 A 
ATOM     29  C   UNL A   1      36.496  29.779  29.811  1.00  0.00     0.016 A 
ATOM     30  C   UNL A   1      36.917  30.410  27.516  1.00  0.00     0.016 A 
ATOM     31  C   UNL A   1      37.770  29.219  29.899  1.00  0.00     0.010 A 
ATOM     32  C   UNL A   1      38.156  29.767  27.577  1.00  0.00     0.010 A 
ATOM     33  C   UNL A   1      38.618  29.206  28.782  1.00  0.00    -0.014 A 
BRANCH  33  34
ATOM     34  C   UNL A   1      40.006  28.673  28.880  1.00  0.00     0.031 A 
ATOM     35  C   UNL A   1      41.126  29.570  29.343  1.00  0.00     0.074 A 
ATOM     36  C   UNL A   1      40.281  27.391  28.566  1.00  0.00     0.049 A 
ATOM     37  N   UNL A   1      42.419  29.369  29.302  1.00  0.00    -0.248 NA
ATOM     38  C   UNL A   1      40.740  30.869  29.917  1.00  0.00     0.031 C 
ATOM     39  C   UNL A   1      39.300  26.383  28.160  1.00  0.00     0.029 A 
ATOM     40  N   UNL A   1      41.477  26.717  28.546  1.00  0.00    -0.354 N 
ATOM     41  C   UNL A   1      43.000  30.540  29.775  1.00  0.00     0.074 A 
ATOM     42  C   UNL A   1      41.919  31.441  30.111  1.00  0.00     0.031 C 
ATOM     43  C   UNL A   1      39.929  25.212  27.967  1.00  0.00     0.029 A 
ATOM     44  C   UNL A   1      41.363  25.407  28.151  1.00  0.00     0.049 A 
ATOM     45  H   UNL A   1      42.335  27.133  28.790  1.00  0.00     0.167 HD
ATOM     46  C   UNL A   1      44.313  30.842  29.908  1.00  0.00     0.031 A 
ATOM     47  C   UNL A   1      42.305  24.474  27.919  1.00  0.00     0.031 A 
ATOM     48  C   UNL A   1      45.392  29.934  29.624  1.00  0.00     0.049 A 
ATOM     49  C   UNL A   1      43.755  24.833  28.055  1.00  0.00     0.074 A 
ATOM     50  C   UNL A   1      46.755  30.151  29.727  1.00  0.00     0.029 A 
ATOM     51  N   UNL A   1      45.227  28.624  29.202  1.00  0.00    -0.354 N 
ATOM     52  N   UNL A   1      44.291  25.971  28.422  1.00  0.00    -0.248 NA
ATOM     53  C   UNL A   1      44.730  23.786  27.719  1.00  0.00     0.031 C 
ATOM     54  C   UNL A   1      47.416  28.978  29.346  1.00  0.00     0.029 A 
ATOM     55  C   UNL A   1      46.462  28.022  29.039  1.00  0.00     0.049 A 
ATOM     56  H   UNL A   1      44.359  28.188  29.043  1.00  0.00     0.167 HD
ATOM     57  C   UNL A   1      45.665  25.777  28.364  1.00  0.00     0.074 A 
ATOM     58  C   UNL A   1      45.880  24.406  27.948  1.00  0.00     0.031 C 
ATOM     59  C   UNL A   1      46.659  26.660  28.624  1.00  0.00     0.031 A 
BRANCH  46  60
ATOM     60  C   UNL A   1      44.660  32.238  30.339  1.00  0.00    -0.014 A 
ATOM     61  C   UNL A   1      44.851  32.563  31.690  1.00  0.00     0.009 A 
ATOM     62  C   UNL A   1      44.825  33.237  29.367  1.00  0.00     0.009 A 
ATOM     63  C   UNL A   1      45.172  33.871  32.060  1.00  0.00     0.001 A 
ATOM     64  C   UNL A   1      45.168  34.538  29.738  1.00  0.00     0.001 A 
ATOM     65  C   UNL A   1      45.333  34.856  31.085  1.00  0.00     0.000 A 
ENDBRANCH  46  60
BRANCH  47  66
ATOM     66  C   UNL A   1      41.901  23.114  27.477  1.00  0.00    -0.014 A 
ATOM     67  C   UNL A   1      41.901  22.780  26.116  1.00  0.00     0.009 A 
ATOM     68  C   UNL A   1      41.528  22.143  28.419  1.00  0.00     0.009 A 
ATOM     69  C   UNL A   1      41.526  21.498  25.706  1.00  0.00     0.001 A 
ATOM     70  C   UNL A   1      41.177  20.856  28.008  1.00  0.00     0.001 A 
ATOM     71  C   UNL A   1      41.171  20.536  26.650  1.00  0.00     0.000 A 
ENDBRANCH  47  66
BRANCH  59  72
ATOM     72  C   UNL A   1      48.065  26.160  28.487  1.00  0.00    -0.014 A 
ATOM     73  C   UNL A   1      48.721  26.178  27.247  1.00  0.00     0.009 A 
ATOM     74  C   UNL A   1      48.752  25.694  29.618  1.00  0.00     0.009 A 
ATOM     75  C   UNL A   1      50.033  25.714  27.137  1.00  0.00     0.001 A 
ATOM     76  C   UNL A   1      50.070  25.246  29.508  1.00  0.00     0.001 A 
ATOM     77  C   UNL A   1      50.706  25.251  28.268  1.00  0.00     0.000 A 
ENDBRANCH  59  72
ENDBRANCH  33  34
ENDBRANCH  26  28
ENDBRANCH  25  26
ENDBRANCH  24  25
ENDBRANCH   1  24
TORSDOF 15
ENDMDL
