MODEL 1
REMARK VINA RESULT:      -9.9      0.000      0.000
REMARK SMILES CC(C)c1ccc2c(c1)c(SC(C)(C)C)c(CC(C)(C)C(=O)OCCOC(=O)c1ccc(-c3c4nc(c(-c5ccccc5)c5ccc([nH]5)c(-c5ccccc5)c5nc(c(-c6ccccc6)c6ccc3[nH]6)C=C5)C=C4)cc1)n2Cc1ccc(Cl)cc1
REMARK SMILES IDX 24 1 23 2 21 3 22 4 18 5 19 6 20 7 17 8 16 9 4 10 5 11 9 12
REMARK SMILES IDX 6 13 8 14 7 15 10 16 77 17 2 18 1 19 3 20 11 21 12 22 13 23
REMARK SMILES IDX 14 24 15 25 78 26 79 27 80 28 85 29 81 30 84 31 82 32 83 33
REMARK SMILES IDX 25 34 26 35 27 36 28 37 29 38 30 39 76 40 31 41 75 42 32 43
REMARK SMILES IDX 33 44 34 45 69 46 35 47 74 48 68 49 70 50 36 51 73 52 67 53
REMARK SMILES IDX 66 54 37 56 59 57 44 58 58 59 45 60 48 61 57 62 71 63 46 64
REMARK SMILES IDX 47 65 56 67 72 68 49 69 38 70 39 71 43 72 40 73 42 74 41 75
REMARK SMILES IDX 60 76 61 77 65 78 62 79 64 80 63 81 50 82 51 83 55 84 52 85
REMARK SMILES IDX 54 86 53 87
REMARK H PARENT 70 55 48 66
REMARK Flexibility Score: inf
ROOT
ATOM      1  C   UNL A   1      45.113  22.911  24.111  1.00  0.00     0.274 C 
ENDROOT
BRANCH   1   2
ATOM      2  O   UNL A   1      45.430  23.937  25.056  1.00  0.00    -0.462 OA
BRANCH   2   3
ATOM      3  C   UNL A   1      46.401  24.778  24.645  1.00  0.00     0.312 C 
ATOM      4  O   UNL A   1      47.306  24.451  23.884  1.00  0.00    -0.252 OA
BRANCH   3   5
ATOM      5  C   UNL A   1      46.336  26.148  25.290  1.00  0.00     0.068 C 
ATOM      6  C   UNL A   1      44.844  26.168  25.665  1.00  0.00     0.024 C 
ATOM      7  C   UNL A   1      46.641  27.348  24.334  1.00  0.00     0.024 C 
BRANCH   5   8
ATOM      8  C   UNL A   1      47.283  26.230  26.516  1.00  0.00     0.073 C 
BRANCH   8   9
ATOM      9  C   UNL A   1      47.302  27.461  27.327  1.00  0.00     0.034 A 
ATOM     10  C   UNL A   1      47.087  31.732  29.669  1.00  0.00    -0.045 A 
ATOM     11  C   UNL A   1      47.410  32.082  28.369  1.00  0.00     0.006 A 
ATOM     12  C   UNL A   1      46.779  30.280  29.886  1.00  0.00     0.015 A 
ATOM     13  C   UNL A   1      47.676  31.095  27.441  1.00  0.00     0.027 A 
ATOM     14  C   UNL A   1      46.911  29.198  28.873  1.00  0.00     0.014 A 
ATOM     15  C   UNL A   1      47.479  29.712  27.711  1.00  0.00     0.050 A 
ATOM     16  C   UNL A   1      46.657  27.670  28.522  1.00  0.00     0.037 A 
ATOM     17  N   UNL A   1      47.967  28.619  27.010  1.00  0.00    -0.339 N 
BRANCH  10  18
ATOM     18  C   UNL A   1      47.493  32.899  30.698  1.00  0.00     0.013 C 
ATOM     19  C   UNL A   1      48.150  34.327  30.568  1.00  0.00     0.012 C 
ATOM     20  C   UNL A   1      46.606  32.878  31.926  1.00  0.00     0.012 C 
ENDBRANCH  10  18
BRANCH  16  21
ATOM     21  S   UNL A   1      45.647  26.174  29.254  1.00  0.00    -0.118 SA
BRANCH  21  22
ATOM     22  C   UNL A   1      45.057  26.380  31.307  1.00  0.00     0.012 C 
ATOM     23  C   UNL A   1      44.557  25.153  32.142  1.00  0.00     0.023 C 
ATOM     24  C   UNL A   1      46.046  27.152  32.247  1.00  0.00     0.023 C 
ATOM     25  C   UNL A   1      43.881  27.402  31.295  1.00  0.00     0.023 C 
ENDBRANCH  21  22
ENDBRANCH  16  21
BRANCH  17  26
ATOM     26  C   UNL A   1      49.254  28.778  26.374  1.00  0.00     0.158 C 
BRANCH  26  27
ATOM     27  C   UNL A   1      50.365  27.943  26.846  1.00  0.00    -0.028 A 
ATOM     28  C   UNL A   1      51.037  26.310  26.322  1.00  0.00     0.007 A 
ATOM     29  C   UNL A   1      51.229  28.819  28.224  1.00  0.00     0.007 A 
ATOM     30  C   UNL A   1      52.667  25.750  26.937  1.00  0.00     0.021 A 
ATOM     31  C   UNL A   1      52.798  28.207  28.825  1.00  0.00     0.021 A 
ATOM     32  C   UNL A   1      53.542  26.741  28.146  1.00  0.00     0.041 A 
ATOM     33  Cl  UNL A   1      54.754  25.942  29.104  1.00  0.00    -0.084 Cl
ENDBRANCH  26  27
ENDBRANCH  17  26
ENDBRANCH   8   9
ENDBRANCH   5   8
ENDBRANCH   3   5
ENDBRANCH   2   3
ENDBRANCH   1   2
BRANCH   1  34
ATOM     34  C   UNL A   1      44.131  21.904  24.736  1.00  0.00     0.275 C 
BRANCH  34  35
ATOM     35  O   UNL A   1      42.789  22.475  24.894  1.00  0.00    -0.458 OA
BRANCH  35  36
ATOM     36  C   UNL A   1      41.809  22.091  26.063  1.00  0.00     0.338 C 
ATOM     37  O   UNL A   1      41.698  20.867  25.843  1.00  0.00    -0.246 OA
BRANCH  36  38
ATOM     38  C   UNL A   1      41.155  23.457  27.641  1.00  0.00     0.060 A 
ATOM     39  C   UNL A   1      39.826  24.069  27.974  1.00  0.00     0.016 A 
ATOM     40  C   UNL A   1      41.951  24.633  28.341  1.00  0.00     0.016 A 
ATOM     41  C   UNL A   1      39.491  25.567  28.226  1.00  0.00     0.010 A 
ATOM     42  C   UNL A   1      41.606  26.086  28.657  1.00  0.00     0.010 A 
ATOM     43  C   UNL A   1      40.404  26.669  28.331  1.00  0.00    -0.014 A 
BRANCH  43  44
ATOM     44  C   UNL A   1      40.006  28.276  28.483  1.00  0.00     0.031 A 
ATOM     45  C   UNL A   1      41.241  28.962  28.182  1.00  0.00     0.074 A 
ATOM     46  C   UNL A   1      39.046  29.270  28.840  1.00  0.00     0.049 A 
ATOM     47  N   UNL A   1      42.041  29.375  29.101  1.00  0.00    -0.248 NA
ATOM     48  C   UNL A   1      41.756  28.970  26.814  1.00  0.00     0.031 C 
ATOM     49  C   UNL A   1      37.727  29.088  29.384  1.00  0.00     0.029 A 
ATOM     50  N   UNL A   1      39.003  30.735  28.955  1.00  0.00    -0.354 N 
ATOM     51  C   UNL A   1      42.990  30.040  28.385  1.00  0.00     0.074 A 
ATOM     52  C   UNL A   1      42.959  29.499  27.046  1.00  0.00     0.031 C 
ATOM     53  C   UNL A   1      36.860  30.123  29.320  1.00  0.00     0.029 A 
ATOM     54  C   UNL A   1      37.651  31.302  29.089  1.00  0.00     0.049 A 
ATOM     55  H   UNL A   1      39.815  31.292  28.942  1.00  0.00     0.167 HD
ATOM     56  C   UNL A   1      43.385  31.247  28.839  1.00  0.00     0.031 A 
ATOM     57  C   UNL A   1      37.084  32.493  29.510  1.00  0.00     0.031 A 
ATOM     58  C   UNL A   1      43.065  31.471  30.223  1.00  0.00     0.049 A 
ATOM     59  C   UNL A   1      38.015  33.247  30.335  1.00  0.00     0.074 A 
ATOM     60  C   UNL A   1      43.680  31.061  31.364  1.00  0.00     0.029 A 
ATOM     61  N   UNL A   1      41.778  31.830  30.576  1.00  0.00    -0.354 N 
ATOM     62  N   UNL A   1      38.165  33.053  31.607  1.00  0.00    -0.248 NA
ATOM     63  C   UNL A   1      39.029  34.026  29.660  1.00  0.00     0.031 C 
ATOM     64  C   UNL A   1      42.677  31.114  32.361  1.00  0.00     0.029 A 
ATOM     65  C   UNL A   1      41.534  31.809  31.963  1.00  0.00     0.049 A 
ATOM     66  H   UNL A   1      41.092  32.078  29.915  1.00  0.00     0.167 HD
ATOM     67  C   UNL A   1      39.527  33.188  31.746  1.00  0.00     0.074 A 
ATOM     68  C   UNL A   1      39.986  33.924  30.577  1.00  0.00     0.031 C 
ATOM     69  C   UNL A   1      40.208  32.297  32.510  1.00  0.00     0.031 A 
BRANCH  56  70
ATOM     70  C   UNL A   1      43.833  32.313  27.925  1.00  0.00    -0.014 A 
ATOM     71  C   UNL A   1      44.188  32.046  26.589  1.00  0.00     0.009 A 
ATOM     72  C   UNL A   1      43.727  33.641  28.336  1.00  0.00     0.009 A 
ATOM     73  C   UNL A   1      44.460  33.072  25.697  1.00  0.00     0.001 A 
ATOM     74  C   UNL A   1      43.961  34.673  27.432  1.00  0.00     0.001 A 
ATOM     75  C   UNL A   1      44.329  34.389  26.117  1.00  0.00     0.000 A 
ENDBRANCH  56  70
BRANCH  57  76
ATOM     76  C   UNL A   1      35.728  33.116  29.272  1.00  0.00    -0.014 A 
ATOM     77  C   UNL A   1      35.390  33.543  27.986  1.00  0.00     0.009 A 
ATOM     78  C   UNL A   1      34.952  33.637  30.342  1.00  0.00     0.009 A 
ATOM     79  C   UNL A   1      34.513  34.616  27.790  1.00  0.00     0.001 A 
ATOM     80  C   UNL A   1      34.069  34.712  30.146  1.00  0.00     0.001 A 
ATOM     81  C   UNL A   1      33.903  35.243  28.872  1.00  0.00     0.000 A 
ENDBRANCH  57  76
BRANCH  69  82
ATOM     82  C   UNL A   1      39.414  31.972  33.834  1.00  0.00    -0.014 A 
ATOM     83  C   UNL A   1      39.079  32.987  34.754  1.00  0.00     0.009 A 
ATOM     84  C   UNL A   1      38.856  30.719  34.174  1.00  0.00     0.009 A 
ATOM     85  C   UNL A   1      38.567  32.713  36.050  1.00  0.00     0.001 A 
ATOM     86  C   UNL A   1      38.314  30.431  35.459  1.00  0.00     0.001 A 
ATOM     87  C   UNL A   1      38.244  31.419  36.428  1.00  0.00     0.000 A 
ENDBRANCH  69  82
ENDBRANCH  43  44
ENDBRANCH  36  38
ENDBRANCH  35  36
ENDBRANCH  34  35
ENDBRANCH   1  34
TORSDOF 18
ENDMDL
MODEL 2
REMARK VINA RESULT:      -9.5      4.863     10.823
REMARK SMILES CC(C)c1ccc2c(c1)c(SC(C)(C)C)c(CC(C)(C)C(=O)OCCOC(=O)c1ccc(-c3c4nc(c(-c5ccccc5)c5ccc([nH]5)c(-c5ccccc5)c5nc(c(-c6ccccc6)c6ccc3[nH]6)C=C5)C=C4)cc1)n2Cc1ccc(Cl)cc1
REMARK SMILES IDX 24 1 23 2 21 3 22 4 18 5 19 6 20 7 17 8 16 9 4 10 5 11 9 12
REMARK SMILES IDX 6 13 8 14 7 15 10 16 77 17 2 18 1 19 3 20 11 21 12 22 13 23
REMARK SMILES IDX 14 24 15 25 78 26 79 27 80 28 85 29 81 30 84 31 82 32 83 33
REMARK SMILES IDX 25 34 26 35 27 36 28 37 29 38 30 39 76 40 31 41 75 42 32 43
REMARK SMILES IDX 33 44 34 45 69 46 35 47 74 48 68 49 70 50 36 51 73 52 67 53
REMARK SMILES IDX 66 54 37 56 59 57 44 58 58 59 45 60 48 61 57 62 71 63 46 64
REMARK SMILES IDX 47 65 56 67 72 68 49 69 38 70 39 71 43 72 40 73 42 74 41 75
REMARK SMILES IDX 60 76 61 77 65 78 62 79 64 80 63 81 50 82 51 83 55 84 52 85
REMARK SMILES IDX 54 86 53 87
REMARK H PARENT 70 55 48 66
REMARK Flexibility Score: inf
ROOT
ATOM      1  C   UNL A   1      34.996  33.803  33.912  1.00  0.00     0.274 C 
ENDROOT
BRANCH   1   2
ATOM      2  O   UNL A   1      36.275  33.523  33.333  1.00  0.00    -0.462 OA
BRANCH   2   3
ATOM      3  C   UNL A   1      37.163  32.992  34.200  1.00  0.00     0.312 C 
ATOM      4  O   UNL A   1      36.889  32.701  35.359  1.00  0.00    -0.252 OA
BRANCH   3   5
ATOM      5  C   UNL A   1      38.567  32.880  33.641  1.00  0.00     0.068 C 
ATOM      6  C   UNL A   1      38.441  33.865  32.466  1.00  0.00     0.024 C 
ATOM      7  C   UNL A   1      38.952  31.468  33.090  1.00  0.00     0.024 C 
BRANCH   5   8
ATOM      8  C   UNL A   1      39.620  33.310  34.697  1.00  0.00     0.073 C 
BRANCH   8   9
ATOM      9  C   UNL A   1      40.760  34.144  34.276  1.00  0.00     0.034 A 
ATOM     10  C   UNL A   1      44.287  36.986  32.472  1.00  0.00    -0.045 A 
ATOM     11  C   UNL A   1      44.000  36.115  31.435  1.00  0.00     0.006 A 
ATOM     12  C   UNL A   1      43.385  36.884  33.667  1.00  0.00     0.015 A 
ATOM     13  C   UNL A   1      43.116  35.075  31.641  1.00  0.00     0.027 A 
ATOM     14  C   UNL A   1      42.318  35.866  33.870  1.00  0.00     0.014 A 
ATOM     15  C   UNL A   1      42.351  34.939  32.833  1.00  0.00     0.050 A 
ATOM     16  C   UNL A   1      41.105  35.378  34.772  1.00  0.00     0.037 A 
ATOM     17  N   UNL A   1      41.668  33.825  33.297  1.00  0.00    -0.339 N 
BRANCH  10  18
ATOM     18  C   UNL A   1      45.751  37.630  32.296  1.00  0.00     0.013 C 
ATOM     19  C   UNL A   1      46.308  39.070  31.979  1.00  0.00     0.012 C 
ATOM     20  C   UNL A   1      46.782  36.871  33.107  1.00  0.00     0.012 C 
ENDBRANCH  10  18
BRANCH  16  21
ATOM     21  S   UNL A   1      40.009  36.087  36.217  1.00  0.00    -0.118 SA
BRANCH  21  22
ATOM     22  C   UNL A   1      39.805  34.809  37.929  1.00  0.00     0.012 C 
ATOM     23  C   UNL A   1      38.487  34.009  38.200  1.00  0.00     0.023 C 
ATOM     24  C   UNL A   1      40.972  33.796  38.190  1.00  0.00     0.023 C 
ATOM     25  C   UNL A   1      40.007  35.740  39.161  1.00  0.00     0.023 C 
ENDBRANCH  21  22
ENDBRANCH  16  21
BRANCH  17  26
ATOM     26  C   UNL A   1      42.232  32.537  32.972  1.00  0.00     0.158 C 
BRANCH  26  27
ATOM     27  C   UNL A   1      43.286  32.004  33.845  1.00  0.00    -0.028 A 
ATOM     28  C   UNL A   1      45.078  32.375  34.042  1.00  0.00     0.007 A 
ATOM     29  C   UNL A   1      42.548  30.735  34.965  1.00  0.00     0.007 A 
ATOM     30  C   UNL A   1      45.992  31.735  35.494  1.00  0.00     0.021 A 
ATOM     31  C   UNL A   1      43.497  30.102  36.344  1.00  0.00     0.021 A 
ATOM     32  C   UNL A   1      45.163  30.646  36.648  1.00  0.00     0.041 A 
ATOM     33  Cl  UNL A   1      46.163  29.634  37.648  1.00  0.00    -0.084 Cl
ENDBRANCH  26  27
ENDBRANCH  17  26
ENDBRANCH   8   9
ENDBRANCH   5   8
ENDBRANCH   3   5
ENDBRANCH   2   3
ENDBRANCH   1   2
BRANCH   1  34
ATOM     34  C   UNL A   1      33.879  33.454  32.912  1.00  0.00     0.275 C 
BRANCH  34  35
ATOM     35  O   UNL A   1      34.321  32.468  31.919  1.00  0.00    -0.458 OA
BRANCH  35  36
ATOM     36  C   UNL A   1      34.688  32.830  30.433  1.00  0.00     0.338 C 
ATOM     37  O   UNL A   1      33.951  33.827  30.279  1.00  0.00    -0.246 OA
BRANCH  36  38
ATOM     38  C   UNL A   1      36.253  31.851  29.260  1.00  0.00     0.060 A 
ATOM     39  C   UNL A   1      36.267  30.613  28.412  1.00  0.00     0.016 A 
ATOM     40  C   UNL A   1      37.808  31.762  29.542  1.00  0.00     0.016 A 
ATOM     41  C   UNL A   1      37.263  29.419  28.468  1.00  0.00     0.010 A 
ATOM     42  C   UNL A   1      38.808  30.609  29.529  1.00  0.00     0.010 A 
ATOM     43  C   UNL A   1      38.463  29.308  29.246  1.00  0.00    -0.014 A 
BRANCH  43  44
ATOM     44  C   UNL A   1      39.444  27.971  29.372  1.00  0.00     0.031 A 
ATOM     45  C   UNL A   1      39.944  28.043  30.725  1.00  0.00     0.074 A 
ATOM     46  C   UNL A   1      40.067  26.848  28.749  1.00  0.00     0.049 A 
ATOM     47  N   UNL A   1      41.093  28.549  31.009  1.00  0.00    -0.248 NA
ATOM     48  C   UNL A   1      39.045  27.789  31.850  1.00  0.00     0.031 C 
ATOM     49  C   UNL A   1      40.032  26.457  27.365  1.00  0.00     0.029 A 
ATOM     50  N   UNL A   1      41.024  25.799  29.129  1.00  0.00    -0.354 N 
ATOM     51  C   UNL A   1      41.193  28.313  32.347  1.00  0.00     0.074 A 
ATOM     52  C   UNL A   1      39.846  28.166  32.848  1.00  0.00     0.031 C 
ATOM     53  C   UNL A   1      40.384  25.190  27.050  1.00  0.00     0.029 A 
ATOM     54  C   UNL A   1      41.121  24.681  28.176  1.00  0.00     0.049 A 
ATOM     55  H   UNL A   1      41.557  25.841  29.956  1.00  0.00     0.167 HD
ATOM     56  C   UNL A   1      42.364  27.830  32.811  1.00  0.00     0.031 A 
ATOM     57  C   UNL A   1      42.011  23.659  27.893  1.00  0.00     0.031 A 
ATOM     58  C   UNL A   1      43.464  28.030  31.907  1.00  0.00     0.049 A 
ATOM     59  C   UNL A   1      43.327  23.952  28.440  1.00  0.00     0.074 A 
ATOM     60  C   UNL A   1      44.238  29.120  31.663  1.00  0.00     0.029 A 
ATOM     61  N   UNL A   1      43.618  27.186  30.824  1.00  0.00    -0.354 N 
ATOM     62  N   UNL A   1      44.211  24.676  27.830  1.00  0.00    -0.248 NA
ATOM     63  C   UNL A   1      43.543  23.685  29.844  1.00  0.00     0.031 C 
ATOM     64  C   UNL A   1      44.768  28.911  30.367  1.00  0.00     0.029 A 
ATOM     65  C   UNL A   1      44.593  27.608  29.899  1.00  0.00     0.049 A 
ATOM     66  H   UNL A   1      43.092  26.362  30.708  1.00  0.00     0.167 HD
ATOM     67  C   UNL A   1      44.745  25.393  28.875  1.00  0.00     0.074 A 
ATOM     68  C   UNL A   1      44.421  24.655  30.086  1.00  0.00     0.031 C 
ATOM     69  C   UNL A   1      44.962  26.725  28.725  1.00  0.00     0.031 A 
BRANCH  56  70
ATOM     70  C   UNL A   1      42.428  26.944  33.987  1.00  0.00    -0.014 A 
ATOM     71  C   UNL A   1      41.592  27.130  35.104  1.00  0.00     0.009 A 
ATOM     72  C   UNL A   1      43.201  25.786  33.916  1.00  0.00     0.009 A 
ATOM     73  C   UNL A   1      41.552  26.205  36.137  1.00  0.00     0.001 A 
ATOM     74  C   UNL A   1      43.133  24.837  34.932  1.00  0.00     0.001 A 
ATOM     75  C   UNL A   1      42.312  25.048  36.040  1.00  0.00     0.000 A 
ENDBRANCH  56  70
BRANCH  57  76
ATOM     76  C   UNL A   1      41.859  22.352  27.150  1.00  0.00    -0.014 A 
ATOM     77  C   UNL A   1      41.078  21.338  27.707  1.00  0.00     0.009 A 
ATOM     78  C   UNL A   1      42.769  21.969  26.127  1.00  0.00     0.009 A 
ATOM     79  C   UNL A   1      41.361  19.990  27.456  1.00  0.00     0.001 A 
ATOM     80  C   UNL A   1      43.052  20.617  25.873  1.00  0.00     0.001 A 
ATOM     81  C   UNL A   1      42.389  19.628  26.591  1.00  0.00     0.000 A 
ENDBRANCH  57  76
BRANCH  69  82
ATOM     82  C   UNL A   1      45.565  27.037  27.300  1.00  0.00    -0.014 A 
ATOM     83  C   UNL A   1      44.800  27.686  26.309  1.00  0.00     0.009 A 
ATOM     84  C   UNL A   1      46.909  26.838  26.912  1.00  0.00     0.009 A 
ATOM     85  C   UNL A   1      45.219  27.787  24.956  1.00  0.00     0.001 A 
ATOM     86  C   UNL A   1      47.356  26.959  25.565  1.00  0.00     0.001 A 
ATOM     87  C   UNL A   1      46.480  27.361  24.569  1.00  0.00     0.000 A 
ENDBRANCH  69  82
ENDBRANCH  43  44
ENDBRANCH  36  38
ENDBRANCH  35  36
ENDBRANCH  34  35
ENDBRANCH   1  34
TORSDOF 18
ENDMDL
MODEL 3
REMARK VINA RESULT:      -9.5      4.047     10.390
REMARK SMILES CC(C)c1ccc2c(c1)c(SC(C)(C)C)c(CC(C)(C)C(=O)OCCOC(=O)c1ccc(-c3c4nc(c(-c5ccccc5)c5ccc([nH]5)c(-c5ccccc5)c5nc(c(-c6ccccc6)c6ccc3[nH]6)C=C5)C=C4)cc1)n2Cc1ccc(Cl)cc1
REMARK SMILES IDX 24 1 23 2 21 3 22 4 18 5 19 6 20 7 17 8 16 9 4 10 5 11 9 12
REMARK SMILES IDX 6 13 8 14 7 15 10 16 77 17 2 18 1 19 3 20 11 21 12 22 13 23
REMARK SMILES IDX 14 24 15 25 78 26 79 27 80 28 85 29 81 30 84 31 82 32 83 33
REMARK SMILES IDX 25 34 26 35 27 36 28 37 29 38 30 39 76 40 31 41 75 42 32 43
REMARK SMILES IDX 33 44 34 45 69 46 35 47 74 48 68 49 70 50 36 51 73 52 67 53
REMARK SMILES IDX 66 54 37 56 59 57 44 58 58 59 45 60 48 61 57 62 71 63 46 64
REMARK SMILES IDX 47 65 56 67 72 68 49 69 38 70 39 71 43 72 40 73 42 74 41 75
REMARK SMILES IDX 60 76 61 77 65 78 62 79 64 80 63 81 50 82 51 83 55 84 52 85
REMARK SMILES IDX 54 86 53 87
REMARK H PARENT 70 55 48 66
REMARK Flexibility Score: inf
ROOT
ATOM      1  C   UNL A   1      36.554  31.637  33.061  1.00  0.00     0.274 C 
ENDROOT
BRANCH   1   2
ATOM      2  O   UNL A   1      37.762  30.896  32.864  1.00  0.00    -0.462 OA
BRANCH   2   3
ATOM      3  C   UNL A   1      38.570  30.870  33.944  1.00  0.00     0.312 C 
ATOM      4  O   UNL A   1      38.283  30.304  34.994  1.00  0.00    -0.252 OA
BRANCH   3   5
ATOM      5  C   UNL A   1      39.831  31.694  33.782  1.00  0.00     0.068 C 
ATOM      6  C   UNL A   1      39.528  32.804  34.804  1.00  0.00     0.024 C 
ATOM      7  C   UNL A   1      40.028  32.336  32.370  1.00  0.00     0.024 C 
BRANCH   5   8
ATOM      8  C   UNL A   1      41.090  30.858  34.133  1.00  0.00     0.073 C 
BRANCH   8   9
ATOM      9  C   UNL A   1      42.272  30.937  33.255  1.00  0.00     0.034 A 
ATOM     10  C   UNL A   1      45.881  31.351  30.003  1.00  0.00    -0.045 A 
ATOM     11  C   UNL A   1      44.898  30.654  29.321  1.00  0.00     0.006 A 
ATOM     12  C   UNL A   1      45.489  31.850  31.363  1.00  0.00     0.015 A 
ATOM     13  C   UNL A   1      43.760  30.247  29.989  1.00  0.00     0.027 A 
ATOM     14  C   UNL A   1      44.211  31.556  32.066  1.00  0.00     0.014 A 
ATOM     15  C   UNL A   1      43.466  30.646  31.322  1.00  0.00     0.050 A 
ATOM     16  C   UNL A   1      43.289  31.858  33.324  1.00  0.00     0.037 A 
ATOM     17  N   UNL A   1      42.546  30.098  32.203  1.00  0.00    -0.339 N 
BRANCH  10  18
ATOM     18  C   UNL A   1      47.322  31.125  29.327  1.00  0.00     0.013 C 
ATOM     19  C   UNL A   1      47.906  30.142  28.241  1.00  0.00     0.012 C 
ATOM     20  C   UNL A   1      48.124  32.411  29.308  1.00  0.00     0.012 C 
ENDBRANCH  10  18
BRANCH  16  21
ATOM     21  S   UNL A   1      43.195  33.172  34.757  1.00  0.00    -0.118 SA
BRANCH  21  22
ATOM     22  C   UNL A   1      42.878  35.199  34.127  1.00  0.00     0.012 C 
ATOM     23  C   UNL A   1      41.867  36.138  34.868  1.00  0.00     0.023 C 
ATOM     24  C   UNL A   1      44.160  36.068  33.889  1.00  0.00     0.023 C 
ATOM     25  C   UNL A   1      42.373  35.097  32.657  1.00  0.00     0.023 C 
ENDBRANCH  21  22
ENDBRANCH  16  21
BRANCH  17  26
ATOM     26  C   UNL A   1      42.309  28.678  32.093  1.00  0.00     0.158 C 
BRANCH  26  27
ATOM     27  C   UNL A   1      42.684  27.825  33.228  1.00  0.00    -0.028 A 
ATOM     28  C   UNL A   1      41.767  27.177  34.686  1.00  0.00     0.007 A 
ATOM     29  C   UNL A   1      44.450  27.318  33.035  1.00  0.00     0.007 A 
ATOM     30  C   UNL A   1      42.495  25.846  35.710  1.00  0.00     0.021 A 
ATOM     31  C   UNL A   1      45.132  26.046  34.091  1.00  0.00     0.021 A 
ATOM     32  C   UNL A   1      44.154  25.270  35.357  1.00  0.00     0.041 A 
ATOM     33  Cl  UNL A   1      45.004  24.457  36.639  1.00  0.00    -0.084 Cl
ENDBRANCH  26  27
ENDBRANCH  17  26
ENDBRANCH   8   9
ENDBRANCH   5   8
ENDBRANCH   3   5
ENDBRANCH   2   3
ENDBRANCH   1   2
BRANCH   1  34
ATOM     34  C   UNL A   1      35.797  31.774  31.728  1.00  0.00     0.275 C 
BRANCH  34  35
ATOM     35  O   UNL A   1      36.427  32.756  30.839  1.00  0.00    -0.458 OA
BRANCH  35  36
ATOM     36  C   UNL A   1      37.413  32.373  29.674  1.00  0.00     0.338 C 
ATOM     37  O   UNL A   1      37.777  33.517  29.331  1.00  0.00    -0.246 OA
BRANCH  36  38
ATOM     38  C   UNL A   1      37.993  30.330  29.152  1.00  0.00     0.060 A 
ATOM     39  C   UNL A   1      38.844  29.304  29.842  1.00  0.00     0.016 A 
ATOM     40  C   UNL A   1      38.264  29.699  27.725  1.00  0.00     0.016 A 
ATOM     41  C   UNL A   1      40.033  28.488  29.257  1.00  0.00     0.010 A 
ATOM     42  C   UNL A   1      39.390  28.838  27.160  1.00  0.00     0.010 A 
ATOM     43  C   UNL A   1      40.482  28.437  27.895  1.00  0.00    -0.014 A 
BRANCH  43  44
ATOM     44  C   UNL A   1      41.828  27.646  27.323  1.00  0.00     0.031 A 
ATOM     45  C   UNL A   1      41.470  26.251  27.424  1.00  0.00     0.074 A 
ATOM     46  C   UNL A   1      43.175  27.705  26.858  1.00  0.00     0.049 A 
ATOM     47  N   UNL A   1      41.824  25.518  28.421  1.00  0.00    -0.248 NA
ATOM     48  C   UNL A   1      40.461  25.690  26.527  1.00  0.00     0.031 C 
ATOM     49  C   UNL A   1      44.041  28.850  26.758  1.00  0.00     0.029 A 
ATOM     50  N   UNL A   1      44.222  26.750  26.463  1.00  0.00    -0.354 N 
ATOM     51  C   UNL A   1      41.375  24.287  28.053  1.00  0.00     0.074 A 
ATOM     52  C   UNL A   1      40.307  24.497  27.104  1.00  0.00     0.031 C 
ATOM     53  C   UNL A   1      45.137  28.756  25.973  1.00  0.00     0.029 A 
ATOM     54  C   UNL A   1      45.373  27.352  25.769  1.00  0.00     0.049 A 
ATOM     55  H   UNL A   1      44.157  25.785  26.649  1.00  0.00     0.167 HD
ATOM     56  C   UNL A   1      42.209  23.240  28.225  1.00  0.00     0.031 A 
ATOM     57  C   UNL A   1      46.679  27.002  25.474  1.00  0.00     0.031 A 
ATOM     58  C   UNL A   1      43.276  23.505  29.150  1.00  0.00     0.049 A 
ATOM     59  C   UNL A   1      47.138  25.931  26.345  1.00  0.00     0.074 A 
ATOM     60  C   UNL A   1      43.308  23.498  30.509  1.00  0.00     0.029 A 
ATOM     61  N   UNL A   1      44.376  24.231  28.734  1.00  0.00    -0.354 N 
ATOM     62  N   UNL A   1      47.625  26.128  27.528  1.00  0.00    -0.248 NA
ATOM     63  C   UNL A   1      46.753  24.580  26.004  1.00  0.00     0.031 C 
ATOM     64  C   UNL A   1      44.410  24.317  30.855  1.00  0.00     0.029 A 
ATOM     65  C   UNL A   1      45.245  24.609  29.775  1.00  0.00     0.049 A 
ATOM     66  H   UNL A   1      44.537  24.464  27.791  1.00  0.00     0.167 HD
ATOM     67  C   UNL A   1      47.080  25.078  28.228  1.00  0.00     0.074 A 
ATOM     68  C   UNL A   1      46.686  24.087  27.237  1.00  0.00     0.031 C 
ATOM     69  C   UNL A   1      46.556  25.301  29.461  1.00  0.00     0.031 A 
BRANCH  56  70
ATOM     70  C   UNL A   1      42.176  22.066  27.334  1.00  0.00    -0.014 A 
ATOM     71  C   UNL A   1      43.177  21.837  26.370  1.00  0.00     0.009 A 
ATOM     72  C   UNL A   1      41.236  21.065  27.574  1.00  0.00     0.009 A 
ATOM     73  C   UNL A   1      43.220  20.655  25.644  1.00  0.00     0.001 A 
ATOM     74  C   UNL A   1      41.302  19.863  26.874  1.00  0.00     0.001 A 
ATOM     75  C   UNL A   1      42.290  19.661  25.911  1.00  0.00     0.000 A 
ENDBRANCH  56  70
BRANCH  57  76
ATOM     76  C   UNL A   1      47.666  27.518  24.452  1.00  0.00    -0.014 A 
ATOM     77  C   UNL A   1      47.191  28.027  23.243  1.00  0.00     0.009 A 
ATOM     78  C   UNL A   1      49.039  27.154  24.497  1.00  0.00     0.009 A 
ATOM     79  C   UNL A   1      47.955  27.941  22.073  1.00  0.00     0.001 A 
ATOM     80  C   UNL A   1      49.808  27.069  23.324  1.00  0.00     0.001 A 
ATOM     81  C   UNL A   1      49.238  27.402  22.101  1.00  0.00     0.000 A 
ENDBRANCH  57  76
BRANCH  69  82
ATOM     82  C   UNL A   1      47.478  26.273  30.294  1.00  0.00    -0.014 A 
ATOM     83  C   UNL A   1      48.804  25.920  30.622  1.00  0.00     0.009 A 
ATOM     84  C   UNL A   1      47.152  27.594  30.674  1.00  0.00     0.009 A 
ATOM     85  C   UNL A   1      49.589  26.656  31.549  1.00  0.00     0.001 A 
ATOM     86  C   UNL A   1      47.939  28.358  31.582  1.00  0.00     0.001 A 
ATOM     87  C   UNL A   1      49.127  27.849  32.082  1.00  0.00     0.000 A 
ENDBRANCH  69  82
ENDBRANCH  43  44
ENDBRANCH  36  38
ENDBRANCH  35  36
ENDBRANCH  34  35
ENDBRANCH   1  34
TORSDOF 18
ENDMDL
