MODEL 1
REMARK VINA RESULT:     -10.5      0.000      0.000
REMARK SMILES Cc1cscc1C(=O)N1C[C@@H](C(=O)OCCOC(=O)c2ccc(-c3c4nc(c(-c5ccccc5)c5ccc([nH]5)c(-c5ccccc5)c5nc(c(-c6ccccc6)c6ccc3[nH]6)C=C5)C=C4)cc2)Oc2ccccc21
REMARK SMILES IDX 15 1 14 2 12 3 13 4 11 5 9 6 10 7 74 8 69 9 73 10 68 11
REMARK SMILES IDX 70 12 72 13 71 14 7 15 8 16 6 17 1 18 2 19 3 20 4 21 5 22
REMARK SMILES IDX 16 23 17 24 18 25 19 26 20 27 21 28 67 29 22 30 66 31 23 32
REMARK SMILES IDX 24 33 25 34 60 35 26 36 65 37 59 38 61 39 27 40 64 41 58 42
REMARK SMILES IDX 57 43 28 45 50 46 35 47 49 48 36 49 39 50 48 51 62 52 37 53
REMARK SMILES IDX 38 54 47 56 63 57 40 58 29 59 30 60 34 61 31 62 33 63 32 64
REMARK SMILES IDX 51 65 52 66 56 67 53 68 55 69 54 70 41 71 42 72 46 73 43 74
REMARK SMILES IDX 45 75 44 76
REMARK H PARENT 61 44 39 55
REMARK Flexibility Score: inf
ROOT
ATOM      1  C   UNL A   1      36.310  23.655  24.070  1.00  0.00     0.274 C 
ENDROOT
BRANCH   1   2
ATOM      2  O   UNL A   1      35.272  24.311  24.823  1.00  0.00    -0.459 OA
BRANCH   2   3
ATOM      3  C   UNL A   1      34.381  25.005  24.071  1.00  0.00     0.349 C 
ATOM      4  O   UNL A   1      33.858  24.573  23.046  1.00  0.00    -0.248 OA
BRANCH   3   5
ATOM      5  C   UNL A   1      33.995  26.357  24.681  1.00  0.00     0.302 C 
ATOM      6  N   UNL A   1      32.117  25.438  25.936  1.00  0.00    -0.300 N 
ATOM      7  C   UNL A   1      33.425  26.081  26.075  1.00  0.00     0.183 C 
ATOM      8  C   UNL A   1      31.280  26.046  24.951  1.00  0.00     0.086 A 
ATOM      9  C   UNL A   1      31.823  26.991  24.065  1.00  0.00     0.144 A 
ATOM     10  C   UNL A   1      29.911  25.768  24.881  1.00  0.00     0.030 A 
ATOM     11  O   UNL A   1      33.163  27.252  23.954  1.00  0.00    -0.475 OA
ATOM     12  C   UNL A   1      31.000  27.711  23.200  1.00  0.00     0.049 A 
ATOM     13  C   UNL A   1      29.094  26.464  23.988  1.00  0.00     0.002 A 
ATOM     14  C   UNL A   1      29.633  27.451  23.166  1.00  0.00     0.004 A 
BRANCH   6  15
ATOM     15  C   UNL A   1      31.851  24.147  26.394  1.00  0.00     0.259 C 
ATOM     16  O   UNL A   1      31.201  23.960  27.426  1.00  0.00    -0.269 OA
BRANCH  15  17
ATOM     17  C   UNL A   1      32.380  22.982  25.657  1.00  0.00     0.053 A 
ATOM     18  C   UNL A   1      34.203  21.934  27.260  1.00  0.00     0.046 C 
ATOM     19  C   UNL A   1      33.368  21.979  26.023  1.00  0.00    -0.028 A 
ATOM     20  C   UNL A   1      33.436  20.971  25.072  1.00  0.00     0.069 A 
ATOM     21  S   UNL A   1      32.380  21.205  23.760  1.00  0.00    -0.151 S 
ATOM     22  C   UNL A   1      31.797  22.651  24.438  1.00  0.00     0.079 A 
ENDBRANCH  15  17
ENDBRANCH   6  15
ENDBRANCH   3   5
ENDBRANCH   2   3
ENDBRANCH   1   2
BRANCH   1  23
ATOM     23  C   UNL A   1      37.004  22.543  24.871  1.00  0.00     0.275 C 
BRANCH  23  24
ATOM     24  O   UNL A   1      37.515  22.987  26.146  1.00  0.00    -0.458 OA
BRANCH  24  25
ATOM     25  C   UNL A   1      38.862  22.914  26.286  1.00  0.00     0.338 C 
ATOM     26  O   UNL A   1      39.590  22.016  25.897  1.00  0.00    -0.246 OA
BRANCH  25  27
ATOM     27  C   UNL A   1      39.405  24.179  26.822  1.00  0.00     0.060 A 
ATOM     28  C   UNL A   1      39.099  24.496  28.150  1.00  0.00     0.016 A 
ATOM     29  C   UNL A   1      40.140  25.075  26.045  1.00  0.00     0.016 A 
ATOM     30  C   UNL A   1      39.543  25.679  28.722  1.00  0.00     0.010 A 
ATOM     31  C   UNL A   1      40.571  26.282  26.613  1.00  0.00     0.010 A 
ATOM     32  C   UNL A   1      40.280  26.585  27.956  1.00  0.00    -0.014 A 
BRANCH  32  33
ATOM     33  C   UNL A   1      40.697  27.861  28.576  1.00  0.00     0.031 A 
ATOM     34  C   UNL A   1      39.700  28.963  28.765  1.00  0.00     0.074 A 
ATOM     35  C   UNL A   1      41.956  27.995  29.032  1.00  0.00     0.049 A 
ATOM     36  N   UNL A   1      39.879  30.164  29.250  1.00  0.00    -0.248 NA
ATOM     37  C   UNL A   1      38.314  28.671  28.366  1.00  0.00     0.031 C 
ATOM     38  C   UNL A   1      42.987  26.956  28.984  1.00  0.00     0.029 A 
ATOM     39  N   UNL A   1      42.578  29.060  29.630  1.00  0.00    -0.354 N 
ATOM     40  C   UNL A   1      38.636  30.781  29.200  1.00  0.00     0.074 A 
ATOM     41  C   UNL A   1      37.712  29.824  28.627  1.00  0.00     0.031 C 
ATOM     42  C   UNL A   1      44.117  27.438  29.530  1.00  0.00     0.029 A 
ATOM     43  C   UNL A   1      43.903  28.831  29.911  1.00  0.00     0.049 A 
ATOM     44  H   UNL A   1      42.121  29.906  29.838  1.00  0.00     0.167 HD
ATOM     45  C   UNL A   1      38.300  32.032  29.592  1.00  0.00     0.031 A 
ATOM     46  C   UNL A   1      44.848  29.665  30.384  1.00  0.00     0.031 A 
ATOM     47  C   UNL A   1      39.230  32.983  30.145  1.00  0.00     0.049 A 
ATOM     48  C   UNL A   1      44.473  31.088  30.700  1.00  0.00     0.074 A 
ATOM     49  C   UNL A   1      38.989  34.277  30.569  1.00  0.00     0.029 A 
ATOM     50  N   UNL A   1      40.581  32.742  30.339  1.00  0.00    -0.354 N 
ATOM     51  N   UNL A   1      43.296  31.664  30.644  1.00  0.00    -0.248 NA
ATOM     52  C   UNL A   1      45.559  31.975  31.137  1.00  0.00     0.031 C 
ATOM     53  C   UNL A   1      40.208  34.842  30.960  1.00  0.00     0.029 A 
ATOM     54  C   UNL A   1      41.197  33.877  30.840  1.00  0.00     0.049 A 
ATOM     55  H   UNL A   1      41.037  31.890  30.149  1.00  0.00     0.167 HD
ATOM     56  C   UNL A   1      43.497  32.976  31.053  1.00  0.00     0.074 A 
ATOM     57  C   UNL A   1      44.904  33.101  31.378  1.00  0.00     0.031 C 
ATOM     58  C   UNL A   1      42.599  33.987  31.148  1.00  0.00     0.031 A 
BRANCH  45  59
ATOM     59  C   UNL A   1      36.876  32.464  29.380  1.00  0.00    -0.014 A 
ATOM     60  C   UNL A   1      36.447  33.011  28.161  1.00  0.00     0.009 A 
ATOM     61  C   UNL A   1      35.941  32.294  30.414  1.00  0.00     0.009 A 
ATOM     62  C   UNL A   1      35.118  33.409  27.993  1.00  0.00     0.001 A 
ATOM     63  C   UNL A   1      34.608  32.667  30.234  1.00  0.00     0.001 A 
ATOM     64  C   UNL A   1      34.199  33.232  29.028  1.00  0.00     0.000 A 
ENDBRANCH  45  59
BRANCH  46  65
ATOM     65  C   UNL A   1      46.251  29.196  30.534  1.00  0.00    -0.014 A 
ATOM     66  C   UNL A   1      47.178  29.355  29.493  1.00  0.00     0.009 A 
ATOM     67  C   UNL A   1      46.665  28.568  31.720  1.00  0.00     0.009 A 
ATOM     68  C   UNL A   1      48.482  28.874  29.630  1.00  0.00     0.001 A 
ATOM     69  C   UNL A   1      47.979  28.117  31.866  1.00  0.00     0.001 A 
ATOM     70  C   UNL A   1      48.883  28.261  30.816  1.00  0.00     0.000 A 
ENDBRANCH  46  65
BRANCH  58  71
ATOM     71  C   UNL A   1      43.111  35.312  31.641  1.00  0.00    -0.014 A 
ATOM     72  C   UNL A   1      43.119  35.626  33.009  1.00  0.00     0.009 A 
ATOM     73  C   UNL A   1      43.625  36.244  30.726  1.00  0.00     0.009 A 
ATOM     74  C   UNL A   1      43.602  36.860  33.447  1.00  0.00     0.001 A 
ATOM     75  C   UNL A   1      44.136  37.465  31.169  1.00  0.00     0.001 A 
ATOM     76  C   UNL A   1      44.115  37.776  32.529  1.00  0.00     0.000 A 
ENDBRANCH  58  71
ENDBRANCH  32  33
ENDBRANCH  25  27
ENDBRANCH  24  25
ENDBRANCH  23  24
ENDBRANCH   1  23
TORSDOF 13
ENDMDL
MODEL 2
REMARK VINA RESULT:     -10.5      2.415      3.321
REMARK SMILES Cc1cscc1C(=O)N1C[C@@H](C(=O)OCCOC(=O)c2ccc(-c3c4nc(c(-c5ccccc5)c5ccc([nH]5)c(-c5ccccc5)c5nc(c(-c6ccccc6)c6ccc3[nH]6)C=C5)C=C4)cc2)Oc2ccccc21
REMARK SMILES IDX 15 1 14 2 12 3 13 4 11 5 9 6 10 7 74 8 69 9 73 10 68 11
REMARK SMILES IDX 70 12 72 13 71 14 7 15 8 16 6 17 1 18 2 19 3 20 4 21 5 22
REMARK SMILES IDX 16 23 17 24 18 25 19 26 20 27 21 28 67 29 22 30 66 31 23 32
REMARK SMILES IDX 24 33 25 34 60 35 26 36 65 37 59 38 61 39 27 40 64 41 58 42
REMARK SMILES IDX 57 43 28 45 50 46 35 47 49 48 36 49 39 50 48 51 62 52 37 53
REMARK SMILES IDX 38 54 47 56 63 57 40 58 29 59 30 60 34 61 31 62 33 63 32 64
REMARK SMILES IDX 51 65 52 66 56 67 53 68 55 69 54 70 41 71 42 72 46 73 43 74
REMARK SMILES IDX 45 75 44 76
REMARK H PARENT 61 44 39 55
REMARK Flexibility Score: inf
ROOT
ATOM      1  C   UNL A   1      36.151  23.008  23.861  1.00  0.00     0.274 C 
ENDROOT
BRANCH   1   2
ATOM      2  O   UNL A   1      35.171  23.684  24.670  1.00  0.00    -0.459 OA
BRANCH   2   3
ATOM      3  C   UNL A   1      34.279  24.431  23.971  1.00  0.00     0.349 C 
ATOM      4  O   UNL A   1      33.619  24.010  23.023  1.00  0.00    -0.248 OA
BRANCH   3   5
ATOM      5  C   UNL A   1      34.084  25.838  24.545  1.00  0.00     0.302 C 
ATOM      6  N   UNL A   1      32.134  25.206  25.867  1.00  0.00    -0.300 N 
ATOM      7  C   UNL A   1      33.518  25.679  25.959  1.00  0.00     0.183 C 
ATOM      8  C   UNL A   1      31.359  25.888  24.879  1.00  0.00     0.086 A 
ATOM      9  C   UNL A   1      31.997  26.730  23.954  1.00  0.00     0.144 A 
ATOM     10  C   UNL A   1      29.965  25.787  24.846  1.00  0.00     0.030 A 
ATOM     11  O   UNL A   1      33.357  26.812  23.807  1.00  0.00    -0.475 OA
ATOM     12  C   UNL A   1      31.253  27.524  23.082  1.00  0.00     0.049 A 
ATOM     13  C   UNL A   1      29.222  26.556  23.948  1.00  0.00     0.002 A 
ATOM     14  C   UNL A   1      29.864  27.441  23.084  1.00  0.00     0.004 A 
BRANCH   6  15
ATOM     15  C   UNL A   1      31.716  23.974  26.370  1.00  0.00     0.259 C 
ATOM     16  O   UNL A   1      30.894  23.909  27.289  1.00  0.00    -0.269 OA
BRANCH  15  17
ATOM     17  C   UNL A   1      32.285  22.725  25.826  1.00  0.00     0.053 A 
ATOM     18  C   UNL A   1      34.084  21.964  27.607  1.00  0.00     0.046 C 
ATOM     19  C   UNL A   1      33.281  21.809  26.358  1.00  0.00    -0.028 A 
ATOM     20  C   UNL A   1      33.393  20.674  25.568  1.00  0.00     0.069 A 
ATOM     21  S   UNL A   1      32.367  20.689  24.212  1.00  0.00    -0.151 S 
ATOM     22  C   UNL A   1      31.741  22.206  24.656  1.00  0.00     0.079 A 
ENDBRANCH  15  17
ENDBRANCH   6  15
ENDBRANCH   3   5
ENDBRANCH   2   3
ENDBRANCH   1   2
BRANCH   1  23
ATOM     23  C   UNL A   1      36.613  21.681  24.481  1.00  0.00     0.275 C 
BRANCH  23  24
ATOM     24  O   UNL A   1      37.115  21.821  25.828  1.00  0.00    -0.458 OA
BRANCH  24  25
ATOM     25  C   UNL A   1      38.421  21.494  25.994  1.00  0.00     0.338 C 
ATOM     26  O   UNL A   1      38.959  20.448  25.673  1.00  0.00    -0.246 OA
BRANCH  25  27
ATOM     27  C   UNL A   1      39.200  22.659  26.462  1.00  0.00     0.060 A 
ATOM     28  C   UNL A   1      38.772  23.925  26.047  1.00  0.00     0.016 A 
ATOM     29  C   UNL A   1      40.356  22.534  27.232  1.00  0.00     0.016 A 
ATOM     30  C   UNL A   1      39.464  25.069  26.415  1.00  0.00     0.010 A 
ATOM     31  C   UNL A   1      41.071  23.686  27.588  1.00  0.00     0.010 A 
ATOM     32  C   UNL A   1      40.624  24.958  27.186  1.00  0.00    -0.014 A 
BRANCH  32  33
ATOM     33  C   UNL A   1      41.370  26.190  27.522  1.00  0.00     0.031 A 
ATOM     34  C   UNL A   1      40.775  27.192  28.463  1.00  0.00     0.074 A 
ATOM     35  C   UNL A   1      42.612  26.366  27.033  1.00  0.00     0.049 A 
ATOM     36  N   UNL A   1      41.253  28.347  28.850  1.00  0.00    -0.248 NA
ATOM     37  C   UNL A   1      39.475  26.845  29.059  1.00  0.00     0.031 C 
ATOM     38  C   UNL A   1      43.327  25.414  26.181  1.00  0.00     0.029 A 
ATOM     39  N   UNL A   1      43.491  27.405  27.191  1.00  0.00    -0.354 N 
ATOM     40  C   UNL A   1      40.308  28.874  29.719  1.00  0.00     0.074 A 
ATOM     41  C   UNL A   1      39.223  27.918  29.795  1.00  0.00     0.031 C 
ATOM     42  C   UNL A   1      44.538  25.917  25.888  1.00  0.00     0.029 A 
ATOM     43  C   UNL A   1      44.659  27.244  26.485  1.00  0.00     0.049 A 
ATOM     44  H   UNL A   1      43.306  28.190  27.754  1.00  0.00     0.167 HD
ATOM     45  C   UNL A   1      40.342  30.051  30.388  1.00  0.00     0.031 A 
ATOM     46  C   UNL A   1      45.690  28.091  26.307  1.00  0.00     0.031 A 
ATOM     47  C   UNL A   1      41.418  31.004  30.292  1.00  0.00     0.049 A 
ATOM     48  C   UNL A   1      45.647  29.442  26.966  1.00  0.00     0.074 A 
ATOM     49  C   UNL A   1      41.545  32.227  30.926  1.00  0.00     0.029 A 
ATOM     50  N   UNL A   1      42.546  30.842  29.503  1.00  0.00    -0.354 N 
ATOM     51  N   UNL A   1      44.746  29.936  27.781  1.00  0.00    -0.248 NA
ATOM     52  C   UNL A   1      46.760  30.355  26.673  1.00  0.00     0.031 C 
ATOM     53  C   UNL A   1      42.720  32.834  30.471  1.00  0.00     0.029 A 
ATOM     54  C   UNL A   1      43.357  31.960  29.602  1.00  0.00     0.049 A 
ATOM     55  H   UNL A   1      42.743  30.049  28.954  1.00  0.00     0.167 HD
ATOM     56  C   UNL A   1      45.191  31.209  28.112  1.00  0.00     0.074 A 
ATOM     57  C   UNL A   1      46.454  31.400  27.428  1.00  0.00     0.031 C 
ATOM     58  C   UNL A   1      44.605  32.138  28.907  1.00  0.00     0.031 A 
BRANCH  45  59
ATOM     59  C   UNL A   1      39.151  30.399  31.236  1.00  0.00    -0.014 A 
ATOM     60  C   UNL A   1      38.055  31.102  30.712  1.00  0.00     0.009 A 
ATOM     61  C   UNL A   1      39.115  29.991  32.579  1.00  0.00     0.009 A 
ATOM     62  C   UNL A   1      36.962  31.417  31.525  1.00  0.00     0.001 A 
ATOM     63  C   UNL A   1      38.011  30.283  33.381  1.00  0.00     0.001 A 
ATOM     64  C   UNL A   1      36.940  31.003  32.857  1.00  0.00     0.000 A 
ENDBRANCH  45  59
BRANCH  46  65
ATOM     65  C   UNL A   1      46.823  27.710  25.422  1.00  0.00    -0.014 A 
ATOM     66  C   UNL A   1      47.972  27.099  25.948  1.00  0.00     0.009 A 
ATOM     67  C   UNL A   1      46.766  27.974  24.044  1.00  0.00     0.009 A 
ATOM     68  C   UNL A   1      49.047  26.782  25.113  1.00  0.00     0.001 A 
ATOM     69  C   UNL A   1      47.829  27.626  23.208  1.00  0.00     0.001 A 
ATOM     70  C   UNL A   1      48.973  27.040  23.745  1.00  0.00     0.000 A 
ENDBRANCH  46  65
BRANCH  58  71
ATOM     71  C   UNL A   1      45.338  33.438  29.093  1.00  0.00    -0.014 A 
ATOM     72  C   UNL A   1      45.098  34.535  28.252  1.00  0.00     0.009 A 
ATOM     73  C   UNL A   1      46.253  33.576  30.148  1.00  0.00     0.009 A 
ATOM     74  C   UNL A   1      45.786  35.735  28.444  1.00  0.00     0.001 A 
ATOM     75  C   UNL A   1      46.916  34.786  30.357  1.00  0.00     0.001 A 
ATOM     76  C   UNL A   1      46.689  35.861  29.499  1.00  0.00     0.000 A 
ENDBRANCH  58  71
ENDBRANCH  32  33
ENDBRANCH  25  27
ENDBRANCH  24  25
ENDBRANCH  23  24
ENDBRANCH   1  23
TORSDOF 13
ENDMDL
MODEL 3
REMARK VINA RESULT:     -10.4      2.814      7.470
REMARK SMILES Cc1cscc1C(=O)N1C[C@@H](C(=O)OCCOC(=O)c2ccc(-c3c4nc(c(-c5ccccc5)c5ccc([nH]5)c(-c5ccccc5)c5nc(c(-c6ccccc6)c6ccc3[nH]6)C=C5)C=C4)cc2)Oc2ccccc21
REMARK SMILES IDX 15 1 14 2 12 3 13 4 11 5 9 6 10 7 74 8 69 9 73 10 68 11
REMARK SMILES IDX 70 12 72 13 71 14 7 15 8 16 6 17 1 18 2 19 3 20 4 21 5 22
REMARK SMILES IDX 16 23 17 24 18 25 19 26 20 27 21 28 67 29 22 30 66 31 23 32
REMARK SMILES IDX 24 33 25 34 60 35 26 36 65 37 59 38 61 39 27 40 64 41 58 42
REMARK SMILES IDX 57 43 28 45 50 46 35 47 49 48 36 49 39 50 48 51 62 52 37 53
REMARK SMILES IDX 38 54 47 56 63 57 40 58 29 59 30 60 34 61 31 62 33 63 32 64
REMARK SMILES IDX 51 65 52 66 56 67 53 68 55 69 54 70 41 71 42 72 46 73 43 74
REMARK SMILES IDX 45 75 44 76
REMARK H PARENT 61 44 39 55
REMARK Flexibility Score: inf
ROOT
ATOM      1  C   UNL A   1      33.647  27.538  25.934  1.00  0.00     0.274 C 
ENDROOT
BRANCH   1   2
ATOM      2  O   UNL A   1      34.313  26.975  24.788  1.00  0.00    -0.459 OA
BRANCH   2   3
ATOM      3  C   UNL A   1      33.799  27.359  23.591  1.00  0.00     0.349 C 
ATOM      4  O   UNL A   1      33.975  28.466  23.087  1.00  0.00    -0.248 OA
BRANCH   3   5
ATOM      5  C   UNL A   1      33.056  26.235  22.862  1.00  0.00     0.302 C 
ATOM      6  N   UNL A   1      30.849  27.112  23.418  1.00  0.00    -0.300 N 
ATOM      7  C   UNL A   1      31.760  26.832  22.305  1.00  0.00     0.183 C 
ATOM      8  C   UNL A   1      30.772  26.056  24.377  1.00  0.00     0.086 A 
ATOM      9  C   UNL A   1      31.701  25.004  24.328  1.00  0.00     0.144 A 
ATOM     10  C   UNL A   1      29.754  26.010  25.334  1.00  0.00     0.030 A 
ATOM     11  O   UNL A   1      32.809  25.001  23.523  1.00  0.00    -0.475 OA
ATOM     12  C   UNL A   1      31.556  23.888  25.151  1.00  0.00     0.049 A 
ATOM     13  C   UNL A   1      29.631  24.908  26.182  1.00  0.00     0.002 A 
ATOM     14  C   UNL A   1      30.516  23.837  26.075  1.00  0.00     0.004 A 
BRANCH   6  15
ATOM     15  C   UNL A   1      30.418  28.399  23.743  1.00  0.00     0.259 C 
ATOM     16  O   UNL A   1      30.848  28.978  24.744  1.00  0.00    -0.269 OA
BRANCH  15  17
ATOM     17  C   UNL A   1      29.408  29.071  22.902  1.00  0.00     0.053 A 
ATOM     18  C   UNL A   1      27.101  27.995  23.618  1.00  0.00     0.046 C 
ATOM     19  C   UNL A   1      27.959  28.949  22.855  1.00  0.00    -0.028 A 
ATOM     20  C   UNL A   1      27.402  29.898  22.010  1.00  0.00     0.069 A 
ATOM     21  S   UNL A   1      28.556  30.901  21.265  1.00  0.00    -0.151 S 
ATOM     22  C   UNL A   1      29.824  30.100  22.063  1.00  0.00     0.079 A 
ENDBRANCH  15  17
ENDBRANCH   6  15
ENDBRANCH   3   5
ENDBRANCH   2   3
ENDBRANCH   1   2
BRANCH   1  23
ATOM     23  C   UNL A   1      34.043  29.001  26.185  1.00  0.00     0.275 C 
BRANCH  23  24
ATOM     24  O   UNL A   1      33.951  29.391  27.572  1.00  0.00    -0.458 OA
BRANCH  24  25
ATOM     25  C   UNL A   1      34.708  30.460  27.922  1.00  0.00     0.338 C 
ATOM     26  O   UNL A   1      34.333  31.615  28.040  1.00  0.00    -0.246 OA
BRANCH  25  27
ATOM     27  C   UNL A   1      36.059  30.034  28.343  1.00  0.00     0.060 A 
ATOM     28  C   UNL A   1      37.087  30.140  27.400  1.00  0.00     0.016 A 
ATOM     29  C   UNL A   1      36.320  29.484  29.598  1.00  0.00     0.016 A 
ATOM     30  C   UNL A   1      38.378  29.733  27.703  1.00  0.00     0.010 A 
ATOM     31  C   UNL A   1      37.618  29.050  29.900  1.00  0.00     0.010 A 
ATOM     32  C   UNL A   1      38.653  29.180  28.955  1.00  0.00    -0.014 A 
BRANCH  32  33
ATOM     33  C   UNL A   1      40.027  28.708  29.234  1.00  0.00     0.031 A 
ATOM     34  C   UNL A   1      40.980  29.583  29.989  1.00  0.00     0.074 A 
ATOM     35  C   UNL A   1      40.387  27.464  28.867  1.00  0.00     0.049 A 
ATOM     36  N   UNL A   1      42.233  29.366  30.297  1.00  0.00    -0.248 NA
ATOM     37  C   UNL A   1      40.451  30.867  30.474  1.00  0.00     0.031 C 
ATOM     38  C   UNL A   1      39.513  26.492  28.207  1.00  0.00     0.029 A 
ATOM     39  N   UNL A   1      41.581  26.806  29.004  1.00  0.00    -0.354 N 
ATOM     40  C   UNL A   1      42.650  30.491  30.995  1.00  0.00     0.074 A 
ATOM     41  C   UNL A   1      41.519  31.394  31.057  1.00  0.00     0.031 C 
ATOM     42  C   UNL A   1      40.205  25.359  27.995  1.00  0.00     0.029 A 
ATOM     43  C   UNL A   1      41.578  25.548  28.452  1.00  0.00     0.049 A 
ATOM     44  H   UNL A   1      42.364  27.195  29.455  1.00  0.00     0.167 HD
ATOM     45  C   UNL A   1      43.866  30.748  31.530  1.00  0.00     0.031 A 
ATOM     46  C   UNL A   1      42.583  24.665  28.295  1.00  0.00     0.031 A 
ATOM     47  C   UNL A   1      44.990  29.850  31.449  1.00  0.00     0.049 A 
ATOM     48  C   UNL A   1      43.955  25.026  28.794  1.00  0.00     0.074 A 
ATOM     49  C   UNL A   1      46.267  30.019  31.955  1.00  0.00     0.029 A 
ATOM     50  N   UNL A   1      44.972  28.620  30.810  1.00  0.00    -0.354 N 
ATOM     51  N   UNL A   1      44.343  26.096  29.447  1.00  0.00    -0.248 NA
ATOM     52  C   UNL A   1      45.030  24.061  28.526  1.00  0.00     0.031 C 
ATOM     53  C   UNL A   1      47.039  28.919  31.566  1.00  0.00     0.029 A 
ATOM     54  C   UNL A   1      46.226  28.036  30.873  1.00  0.00     0.049 A 
ATOM     55  H   UNL A   1      44.184  28.221  30.375  1.00  0.00     0.167 HD
ATOM     56  C   UNL A   1      45.701  25.925  29.683  1.00  0.00     0.074 A 
ATOM     57  C   UNL A   1      46.062  24.638  29.124  1.00  0.00     0.031 C 
ATOM     58  C   UNL A   1      46.571  26.759  30.303  1.00  0.00     0.031 A 
BRANCH  45  59
ATOM     59  C   UNL A   1      44.061  32.079  32.201  1.00  0.00    -0.014 A 
ATOM     60  C   UNL A   1      43.884  32.239  33.584  1.00  0.00     0.009 A 
ATOM     61  C   UNL A   1      44.457  33.187  31.435  1.00  0.00     0.009 A 
ATOM     62  C   UNL A   1      44.068  33.490  34.180  1.00  0.00     0.001 A 
ATOM     63  C   UNL A   1      44.666  34.429  32.037  1.00  0.00     0.001 A 
ATOM     64  C   UNL A   1      44.463  34.581  33.406  1.00  0.00     0.000 A 
ENDBRANCH  45  59
BRANCH  46  65
ATOM     65  C   UNL A   1      42.343  23.381  27.587  1.00  0.00    -0.014 A 
ATOM     66  C   UNL A   1      41.815  22.272  28.266  1.00  0.00     0.009 A 
ATOM     67  C   UNL A   1      42.658  23.253  26.224  1.00  0.00     0.009 A 
ATOM     68  C   UNL A   1      41.632  21.058  27.600  1.00  0.00     0.001 A 
ATOM     69  C   UNL A   1      42.443  22.047  25.554  1.00  0.00     0.001 A 
ATOM     70  C   UNL A   1      41.940  20.948  26.245  1.00  0.00     0.000 A 
ENDBRANCH  46  65
BRANCH  58  71
ATOM     71  C   UNL A   1      47.996  26.294  30.424  1.00  0.00    -0.014 A 
ATOM     72  C   UNL A   1      48.468  25.695  31.602  1.00  0.00     0.009 A 
ATOM     73  C   UNL A   1      48.866  26.425  29.331  1.00  0.00     0.009 A 
ATOM     74  C   UNL A   1      49.794  25.267  31.694  1.00  0.00     0.001 A 
ATOM     75  C   UNL A   1      50.182  25.968  29.414  1.00  0.00     0.001 A 
ATOM     76  C   UNL A   1      50.647  25.398  30.599  1.00  0.00     0.000 A 
ENDBRANCH  58  71
ENDBRANCH  32  33
ENDBRANCH  25  27
ENDBRANCH  24  25
ENDBRANCH  23  24
ENDBRANCH   1  23
TORSDOF 13
ENDMDL
