MODEL 1
REMARK VINA RESULT:     -10.3      0.000      0.000
REMARK SMILES CC(C)[C@H](CO)Nc1ccc(C(F)(F)F)cc1C(=O)OCCOC(=O)c1ccc(-c2c3nc(c(-c4ccccc4)c4ccc([nH]4)c(-c4ccccc4)c4nc(c(-c5ccccc5)c5ccc2[nH]5)C=C4)C=C3)cc1
REMARK SMILES IDX 21 1 20 2 18 3 19 4 17 5 8 6 9 7 10 8 16 9 11 10 7 11 4 13
REMARK SMILES IDX 2 14 1 15 3 16 5 17 6 18 12 20 13 21 14 22 15 23 22 24 23 25
REMARK SMILES IDX 24 26 25 27 26 28 27 29 73 30 28 31 72 32 29 33 30 34 31 35
REMARK SMILES IDX 66 36 32 37 71 38 65 39 67 40 33 41 70 42 64 43 63 44 34 46
REMARK SMILES IDX 56 47 41 48 55 49 42 50 45 51 54 52 68 53 43 54 44 55 53 57
REMARK SMILES IDX 69 58 46 59 35 60 36 61 40 62 37 63 39 64 38 65 57 66 58 67
REMARK SMILES IDX 62 68 59 69 61 70 60 71 47 72 48 73 52 74 49 75 51 76 50 77
REMARK H PARENT 7 12 6 19 67 45 45 56
REMARK Flexibility Score: inf
ROOT
ATOM      1  C   UNL A   1      32.408  30.325  27.218  1.00  0.00     0.275 C 
ENDROOT
BRANCH   1   2
ATOM      2  O   UNL A   1      32.088  30.525  25.826  1.00  0.00    -0.458 OA
BRANCH   2   3
ATOM      3  C   UNL A   1      32.347  29.490  24.994  1.00  0.00     0.340 C 
ATOM      4  O   UNL A   1      33.407  28.897  24.883  1.00  0.00    -0.246 OA
BRANCH   3   5
ATOM      5  C   UNL A   1      31.110  29.072  24.297  1.00  0.00     0.083 A 
ATOM      6  C   UNL A   1      30.807  27.755  23.905  1.00  0.00     0.049 A 
ATOM      7  C   UNL A   1      29.613  27.587  23.167  1.00  0.00     0.027 A 
ATOM      8  C   UNL A   1      28.765  28.651  22.834  1.00  0.00     0.015 A 
ATOM      9  C   UNL A   1      30.224  30.137  24.010  1.00  0.00     0.031 A 
ATOM     10  C   UNL A   1      29.068  29.946  23.245  1.00  0.00     0.057 A 
BRANCH   6  11
ATOM     11  N   UNL A   1      31.499  26.591  24.190  1.00  0.00    -0.379 N 
ATOM     12  H   UNL A   1      31.959  26.177  23.426  1.00  0.00     0.160 HD
BRANCH  11  13
ATOM     13  C   UNL A   1      31.646  25.886  25.465  1.00  0.00     0.107 C 
BRANCH  13  14
ATOM     14  C   UNL A   1      33.133  25.473  25.723  1.00  0.00     0.007 C 
ATOM     15  C   UNL A   1      33.324  24.170  26.505  1.00  0.00     0.009 C 
ATOM     16  C   UNL A   1      34.018  25.422  24.468  1.00  0.00     0.009 C 
ENDBRANCH  13  14
BRANCH  13  17
ATOM     17  C   UNL A   1      30.627  24.714  25.497  1.00  0.00     0.181 C 
BRANCH  17  18
ATOM     18  O   UNL A   1      29.570  24.936  26.434  1.00  0.00    -0.394 OA
ATOM     19  H   UNL A   1      29.942  25.019  27.326  1.00  0.00     0.210 HD
ENDBRANCH  17  18
ENDBRANCH  13  17
ENDBRANCH  11  13
ENDBRANCH   6  11
BRANCH  10  20
ATOM     20  C   UNL A   1      28.169  31.102  22.878  1.00  0.00     0.416 C 
ATOM     21  F   UNL A   1      27.316  30.804  21.859  1.00  0.00    -0.166 F 
ATOM     22  F   UNL A   1      27.390  31.509  23.916  1.00  0.00    -0.166 F 
ATOM     23  F   UNL A   1      28.860  32.203  22.470  1.00  0.00    -0.166 F 
ENDBRANCH  10  20
ENDBRANCH   3   5
ENDBRANCH   2   3
ENDBRANCH   1   2
BRANCH   1  24
ATOM     24  C   UNL A   1      33.618  31.183  27.594  1.00  0.00     0.275 C 
BRANCH  24  25
ATOM     25  O   UNL A   1      34.676  30.313  28.033  1.00  0.00    -0.458 OA
BRANCH  25  26
ATOM     26  C   UNL A   1      35.501  30.850  28.959  1.00  0.00     0.338 C 
ATOM     27  O   UNL A   1      35.219  31.585  29.887  1.00  0.00    -0.246 OA
BRANCH  26  28
ATOM     28  C   UNL A   1      36.795  30.173  28.821  1.00  0.00     0.060 A 
ATOM     29  C   UNL A   1      37.366  29.656  29.984  1.00  0.00     0.016 A 
ATOM     30  C   UNL A   1      37.442  30.063  27.595  1.00  0.00     0.016 A 
ATOM     31  C   UNL A   1      38.615  29.049  29.944  1.00  0.00     0.010 A 
ATOM     32  C   UNL A   1      38.690  29.436  27.549  1.00  0.00     0.010 A 
ATOM     33  C   UNL A   1      39.293  28.944  28.725  1.00  0.00    -0.014 A 
BRANCH  33  34
ATOM     34  C   UNL A   1      40.681  28.425  28.681  1.00  0.00     0.031 A 
ATOM     35  C   UNL A   1      41.816  29.375  28.941  1.00  0.00     0.074 A 
ATOM     36  C   UNL A   1      40.932  27.129  28.421  1.00  0.00     0.049 A 
ATOM     37  N   UNL A   1      43.095  29.219  28.724  1.00  0.00    -0.248 NA
ATOM     38  C   UNL A   1      41.452  30.685  29.506  1.00  0.00     0.031 C 
ATOM     39  C   UNL A   1      39.924  26.084  28.246  1.00  0.00     0.029 A 
ATOM     40  N   UNL A   1      42.126  26.473  28.257  1.00  0.00    -0.354 N 
ATOM     41  C   UNL A   1      43.682  30.431  29.069  1.00  0.00     0.074 A 
ATOM     42  C   UNL A   1      42.620  31.309  29.511  1.00  0.00     0.031 C 
ATOM     43  C   UNL A   1      40.542  24.915  28.010  1.00  0.00     0.029 A 
ATOM     44  C   UNL A   1      41.982  25.144  27.940  1.00  0.00     0.049 A 
ATOM     45  H   UNL A   1      43.002  26.912  28.356  1.00  0.00     0.167 HD
ATOM     46  C   UNL A   1      44.989  30.779  29.011  1.00  0.00     0.031 A 
ATOM     47  C   UNL A   1      42.904  24.229  27.587  1.00  0.00     0.031 A 
ATOM     48  C   UNL A   1      46.038  29.885  28.602  1.00  0.00     0.049 A 
ATOM     49  C   UNL A   1      44.344  24.650  27.477  1.00  0.00     0.074 A 
ATOM     50  C   UNL A   1      47.394  30.136  28.484  1.00  0.00     0.029 A 
ATOM     51  N   UNL A   1      45.845  28.554  28.262  1.00  0.00    -0.354 N 
ATOM     52  N   UNL A   1      44.883  25.822  27.716  1.00  0.00    -0.248 NA
ATOM     53  C   UNL A   1      45.300  23.627  27.030  1.00  0.00     0.031 C 
ATOM     54  C   UNL A   1      48.017  28.963  28.045  1.00  0.00     0.029 A 
ATOM     55  C   UNL A   1      47.056  27.971  27.933  1.00  0.00     0.049 A 
ATOM     56  H   UNL A   1      44.975  28.093  28.256  1.00  0.00     0.167 HD
ATOM     57  C   UNL A   1      46.241  25.673  27.468  1.00  0.00     0.074 A 
ATOM     58  C   UNL A   1      46.446  24.294  27.075  1.00  0.00     0.031 C 
ATOM     59  C   UNL A   1      47.231  26.594  27.554  1.00  0.00     0.031 A 
BRANCH  46  60
ATOM     60  C   UNL A   1      45.341  32.199  29.350  1.00  0.00    -0.014 A 
ATOM     61  C   UNL A   1      45.322  33.213  28.381  1.00  0.00     0.009 A 
ATOM     62  C   UNL A   1      45.691  32.527  30.670  1.00  0.00     0.009 A 
ATOM     63  C   UNL A   1      45.681  34.520  28.720  1.00  0.00     0.001 A 
ATOM     64  C   UNL A   1      46.024  33.839  31.012  1.00  0.00     0.001 A 
ATOM     65  C   UNL A   1      46.028  34.832  30.034  1.00  0.00     0.000 A 
ENDBRANCH  46  60
BRANCH  47  66
ATOM     66  C   UNL A   1      42.491  22.839  27.259  1.00  0.00    -0.014 A 
ATOM     67  C   UNL A   1      42.324  22.439  25.925  1.00  0.00     0.009 A 
ATOM     68  C   UNL A   1      42.254  21.904  28.280  1.00  0.00     0.009 A 
ATOM     69  C   UNL A   1      41.914  21.138  25.622  1.00  0.00     0.001 A 
ATOM     70  C   UNL A   1      41.875  20.596  27.974  1.00  0.00     0.001 A 
ATOM     71  C   UNL A   1      41.697  20.216  26.645  1.00  0.00     0.000 A 
ENDBRANCH  47  66
BRANCH  59  72
ATOM     72  C   UNL A   1      48.626  26.124  27.262  1.00  0.00    -0.014 A 
ATOM     73  C   UNL A   1      49.180  26.245  25.978  1.00  0.00     0.009 A 
ATOM     74  C   UNL A   1      49.409  25.596  28.300  1.00  0.00     0.009 A 
ATOM     75  C   UNL A   1      50.486  25.815  25.734  1.00  0.00     0.001 A 
ATOM     76  C   UNL A   1      50.722  25.190  28.058  1.00  0.00     0.001 A 
ATOM     77  C   UNL A   1      51.256  25.293  26.774  1.00  0.00     0.000 A 
ENDBRANCH  59  72
ENDBRANCH  33  34
ENDBRANCH  26  28
ENDBRANCH  25  26
ENDBRANCH  24  25
ENDBRANCH   1  24
TORSDOF 17
ENDMDL
MODEL 2
REMARK VINA RESULT:     -10.1      1.698      2.040
REMARK SMILES CC(C)[C@H](CO)Nc1ccc(C(F)(F)F)cc1C(=O)OCCOC(=O)c1ccc(-c2c3nc(c(-c4ccccc4)c4ccc([nH]4)c(-c4ccccc4)c4nc(c(-c5ccccc5)c5ccc2[nH]5)C=C4)C=C3)cc1
REMARK SMILES IDX 21 1 20 2 18 3 19 4 17 5 8 6 9 7 10 8 16 9 11 10 7 11 4 13
REMARK SMILES IDX 2 14 1 15 3 16 5 17 6 18 12 20 13 21 14 22 15 23 22 24 23 25
REMARK SMILES IDX 24 26 25 27 26 28 27 29 73 30 28 31 72 32 29 33 30 34 31 35
REMARK SMILES IDX 66 36 32 37 71 38 65 39 67 40 33 41 70 42 64 43 63 44 34 46
REMARK SMILES IDX 56 47 41 48 55 49 42 50 45 51 54 52 68 53 43 54 44 55 53 57
REMARK SMILES IDX 69 58 46 59 35 60 36 61 40 62 37 63 39 64 38 65 57 66 58 67
REMARK SMILES IDX 62 68 59 69 61 70 60 71 47 72 48 73 52 74 49 75 51 76 50 77
REMARK H PARENT 7 12 6 19 67 45 45 56
REMARK Flexibility Score: inf
ROOT
ATOM      1  C   UNL A   1      32.139  29.750  26.996  1.00  0.00     0.275 C 
ENDROOT
BRANCH   1   2
ATOM      2  O   UNL A   1      32.071  30.253  25.647  1.00  0.00    -0.458 OA
BRANCH   2   3
ATOM      3  C   UNL A   1      32.115  29.330  24.658  1.00  0.00     0.340 C 
ATOM      4  O   UNL A   1      33.083  28.664  24.331  1.00  0.00    -0.246 OA
BRANCH   3   5
ATOM      5  C   UNL A   1      30.767  29.135  24.080  1.00  0.00     0.083 A 
ATOM      6  C   UNL A   1      30.256  27.910  23.612  1.00  0.00     0.049 A 
ATOM      7  C   UNL A   1      28.977  27.960  23.011  1.00  0.00     0.027 A 
ATOM      8  C   UNL A   1      28.242  29.145  22.878  1.00  0.00     0.015 A 
ATOM      9  C   UNL A   1      29.999  30.321  23.998  1.00  0.00     0.031 A 
ATOM     10  C   UNL A   1      28.751  30.347  23.363  1.00  0.00     0.057 A 
BRANCH   6  11
ATOM     11  N   UNL A   1      30.819  26.650  23.707  1.00  0.00    -0.379 N 
ATOM     12  H   UNL A   1      31.711  26.556  23.303  1.00  0.00     0.160 HD
BRANCH  11  13
ATOM     13  C   UNL A   1      30.281  25.435  24.322  1.00  0.00     0.107 C 
BRANCH  13  14
ATOM     14  C   UNL A   1      30.807  25.253  25.785  1.00  0.00     0.007 C 
ATOM     15  C   UNL A   1      30.730  23.825  26.334  1.00  0.00     0.009 C 
ATOM     16  C   UNL A   1      32.221  25.798  26.037  1.00  0.00     0.009 C 
ENDBRANCH  13  14
BRANCH  13  17
ATOM     17  C   UNL A   1      30.561  24.239  23.373  1.00  0.00     0.181 C 
BRANCH  17  18
ATOM     18  O   UNL A   1      31.678  24.476  22.512  1.00  0.00    -0.394 OA
ATOM     19  H   UNL A   1      31.585  25.345  22.092  1.00  0.00     0.210 HD
ENDBRANCH  17  18
ENDBRANCH  13  17
ENDBRANCH  11  13
ENDBRANCH   6  11
BRANCH  10  20
ATOM     20  C   UNL A   1      27.974  31.632  23.211  1.00  0.00     0.416 C 
ATOM     21  F   UNL A   1      27.503  31.817  21.947  1.00  0.00    -0.166 F 
ATOM     22  F   UNL A   1      26.890  31.687  24.030  1.00  0.00    -0.166 F 
ATOM     23  F   UNL A   1      28.718  32.738  23.494  1.00  0.00    -0.166 F 
ENDBRANCH  10  20
ENDBRANCH   3   5
ENDBRANCH   2   3
ENDBRANCH   1   2
BRANCH   1  24
ATOM     24  C   UNL A   1      33.595  29.435  27.352  1.00  0.00     0.275 C 
BRANCH  24  25
ATOM     25  O   UNL A   1      34.376  30.631  27.180  1.00  0.00    -0.458 OA
BRANCH  25  26
ATOM     26  C   UNL A   1      34.922  31.117  28.317  1.00  0.00     0.338 C 
ATOM     27  O   UNL A   1      34.404  31.817  29.165  1.00  0.00    -0.246 OA
BRANCH  26  28
ATOM     28  C   UNL A   1      36.203  30.425  28.503  1.00  0.00     0.060 A 
ATOM     29  C   UNL A   1      36.427  29.832  29.746  1.00  0.00     0.016 A 
ATOM     30  C   UNL A   1      37.165  30.373  27.501  1.00  0.00     0.016 A 
ATOM     31  C   UNL A   1      37.637  29.206  30.017  1.00  0.00     0.010 A 
ATOM     32  C   UNL A   1      38.375  29.728  27.765  1.00  0.00     0.010 A 
ATOM     33  C   UNL A   1      38.627  29.158  29.031  1.00  0.00    -0.014 A 
BRANCH  33  34
ATOM     34  C   UNL A   1      39.972  28.618  29.343  1.00  0.00     0.031 A 
ATOM     35  C   UNL A   1      40.930  29.473  30.123  1.00  0.00     0.074 A 
ATOM     36  C   UNL A   1      40.336  27.385  28.945  1.00  0.00     0.049 A 
ATOM     37  N   UNL A   1      42.216  29.324  30.306  1.00  0.00    -0.248 NA
ATOM     38  C   UNL A   1      40.360  30.666  30.770  1.00  0.00     0.031 C 
ATOM     39  C   UNL A   1      39.474  26.418  28.267  1.00  0.00     0.029 A 
ATOM     40  N   UNL A   1      41.541  26.737  29.058  1.00  0.00    -0.354 N 
ATOM     41  C   UNL A   1      42.620  30.434  31.036  1.00  0.00     0.074 A 
ATOM     42  C   UNL A   1      41.444  31.246  31.265  1.00  0.00     0.031 C 
ATOM     43  C   UNL A   1      40.173  25.296  28.034  1.00  0.00     0.029 A 
ATOM     44  C   UNL A   1      41.551  25.494  28.475  1.00  0.00     0.049 A 
ATOM     45  H   UNL A   1      42.323  27.126  29.513  1.00  0.00     0.167 HD
ATOM     46  C   UNL A   1      43.863  30.750  31.467  1.00  0.00     0.031 A 
ATOM     47  C   UNL A   1      42.567  24.634  28.278  1.00  0.00     0.031 A 
ATOM     48  C   UNL A   1      45.018  29.918  31.262  1.00  0.00     0.049 A 
ATOM     49  C   UNL A   1      43.951  25.027  28.717  1.00  0.00     0.074 A 
ATOM     50  C   UNL A   1      46.329  30.149  31.636  1.00  0.00     0.029 A 
ATOM     51  N   UNL A   1      44.988  28.678  30.641  1.00  0.00    -0.354 N 
ATOM     52  N   UNL A   1      44.345  26.120  29.326  1.00  0.00    -0.248 NA
ATOM     53  C   UNL A   1      45.033  24.077  28.423  1.00  0.00     0.031 C 
ATOM     54  C   UNL A   1      47.100  29.059  31.215  1.00  0.00     0.029 A 
ATOM     55  C   UNL A   1      46.259  28.132  30.620  1.00  0.00     0.049 A 
ATOM     56  H   UNL A   1      44.183  28.250  30.272  1.00  0.00     0.167 HD
ATOM     57  C   UNL A   1      45.714  25.981  29.507  1.00  0.00     0.074 A 
ATOM     58  C   UNL A   1      46.081  24.692  28.956  1.00  0.00     0.031 C 
ATOM     59  C   UNL A   1      46.593  26.843  30.074  1.00  0.00     0.031 A 
BRANCH  46  60
ATOM     60  C   UNL A   1      44.040  32.074  32.154  1.00  0.00    -0.014 A 
ATOM     61  C   UNL A   1      44.365  33.237  31.439  1.00  0.00     0.009 A 
ATOM     62  C   UNL A   1      43.869  32.158  33.546  1.00  0.00     0.009 A 
ATOM     63  C   UNL A   1      44.551  34.448  32.110  1.00  0.00     0.001 A 
ATOM     64  C   UNL A   1      44.029  33.375  34.210  1.00  0.00     0.001 A 
ATOM     65  C   UNL A   1      44.380  34.518  33.492  1.00  0.00     0.000 A 
ENDBRANCH  46  60
BRANCH  47  66
ATOM     66  C   UNL A   1      42.327  23.339  27.587  1.00  0.00    -0.014 A 
ATOM     67  C   UNL A   1      42.587  23.203  26.215  1.00  0.00     0.009 A 
ATOM     68  C   UNL A   1      41.832  22.231  28.295  1.00  0.00     0.009 A 
ATOM     69  C   UNL A   1      42.340  21.992  25.564  1.00  0.00     0.001 A 
ATOM     70  C   UNL A   1      41.615  21.013  27.648  1.00  0.00     0.001 A 
ATOM     71  C   UNL A   1      41.861  20.896  26.282  1.00  0.00     0.000 A 
ENDBRANCH  47  66
BRANCH  59  72
ATOM     72  C   UNL A   1      48.023  26.397  30.166  1.00  0.00    -0.014 A 
ATOM     73  C   UNL A   1      48.931  26.645  29.127  1.00  0.00     0.009 A 
ATOM     74  C   UNL A   1      48.473  25.758  31.332  1.00  0.00     0.009 A 
ATOM     75  C   UNL A   1      50.261  26.234  29.242  1.00  0.00     0.001 A 
ATOM     76  C   UNL A   1      49.807  25.370  31.454  1.00  0.00     0.001 A 
ATOM     77  C   UNL A   1      50.698  25.601  30.406  1.00  0.00     0.000 A 
ENDBRANCH  59  72
ENDBRANCH  33  34
ENDBRANCH  26  28
ENDBRANCH  25  26
ENDBRANCH  24  25
ENDBRANCH   1  24
TORSDOF 17
ENDMDL
MODEL 3
REMARK VINA RESULT:     -10.1      2.948      3.996
REMARK SMILES CC(C)[C@H](CO)Nc1ccc(C(F)(F)F)cc1C(=O)OCCOC(=O)c1ccc(-c2c3nc(c(-c4ccccc4)c4ccc([nH]4)c(-c4ccccc4)c4nc(c(-c5ccccc5)c5ccc2[nH]5)C=C4)C=C3)cc1
REMARK SMILES IDX 21 1 20 2 18 3 19 4 17 5 8 6 9 7 10 8 16 9 11 10 7 11 4 13
REMARK SMILES IDX 2 14 1 15 3 16 5 17 6 18 12 20 13 21 14 22 15 23 22 24 23 25
REMARK SMILES IDX 24 26 25 27 26 28 27 29 73 30 28 31 72 32 29 33 30 34 31 35
REMARK SMILES IDX 66 36 32 37 71 38 65 39 67 40 33 41 70 42 64 43 63 44 34 46
REMARK SMILES IDX 56 47 41 48 55 49 42 50 45 51 54 52 68 53 43 54 44 55 53 57
REMARK SMILES IDX 69 58 46 59 35 60 36 61 40 62 37 63 39 64 38 65 57 66 58 67
REMARK SMILES IDX 62 68 59 69 61 70 60 71 47 72 48 73 52 74 49 75 51 76 50 77
REMARK H PARENT 7 12 6 19 67 45 45 56
REMARK Flexibility Score: inf
ROOT
ATOM      1  C   UNL A   1      32.917  28.631  26.112  1.00  0.00     0.275 C 
ENDROOT
BRANCH   1   2
ATOM      2  O   UNL A   1      33.870  28.277  25.090  1.00  0.00    -0.458 OA
BRANCH   2   3
ATOM      3  C   UNL A   1      33.435  28.348  23.811  1.00  0.00     0.340 C 
ATOM      4  O   UNL A   1      33.461  29.332  23.089  1.00  0.00    -0.246 OA
BRANCH   3   5
ATOM      5  C   UNL A   1      33.020  27.008  23.337  1.00  0.00     0.083 A 
ATOM      6  C   UNL A   1      31.832  26.730  22.637  1.00  0.00     0.049 A 
ATOM      7  C   UNL A   1      31.582  25.366  22.357  1.00  0.00     0.027 A 
ATOM      8  C   UNL A   1      32.450  24.336  22.742  1.00  0.00     0.015 A 
ATOM      9  C   UNL A   1      33.925  25.974  23.673  1.00  0.00     0.031 A 
ATOM     10  C   UNL A   1      33.632  24.629  23.416  1.00  0.00     0.057 A 
BRANCH   6  11
ATOM     11  N   UNL A   1      30.896  27.620  22.140  1.00  0.00    -0.379 N 
ATOM     12  H   UNL A   1      30.875  27.705  21.160  1.00  0.00     0.160 HD
BRANCH  11  13
ATOM     13  C   UNL A   1      29.933  28.454  22.860  1.00  0.00     0.107 C 
BRANCH  13  14
ATOM     14  C   UNL A   1      28.537  27.754  22.968  1.00  0.00     0.007 C 
ATOM     15  C   UNL A   1      28.448  26.631  24.006  1.00  0.00     0.009 C 
ATOM     16  C   UNL A   1      27.349  28.706  23.175  1.00  0.00     0.009 C 
ENDBRANCH  13  14
BRANCH  13  17
ATOM     17  C   UNL A   1      29.910  29.859  22.199  1.00  0.00     0.181 C 
BRANCH  17  18
ATOM     18  O   UNL A   1      31.106  30.137  21.466  1.00  0.00    -0.394 OA
ATOM     19  H   UNL A   1      31.825  30.335  22.085  1.00  0.00     0.210 HD
ENDBRANCH  17  18
ENDBRANCH  13  17
ENDBRANCH  11  13
ENDBRANCH   6  11
BRANCH  10  20
ATOM     20  C   UNL A   1      34.567  23.526  23.849  1.00  0.00     0.416 C 
ATOM     21  F   UNL A   1      34.009  22.288  23.739  1.00  0.00    -0.166 F 
ATOM     22  F   UNL A   1      35.711  23.491  23.113  1.00  0.00    -0.166 F 
ATOM     23  F   UNL A   1      34.958  23.640  25.149  1.00  0.00    -0.166 F 
ENDBRANCH  10  20
ENDBRANCH   3   5
ENDBRANCH   2   3
ENDBRANCH   1   2
BRANCH   1  24
ATOM     24  C   UNL A   1      33.659  29.123  27.357  1.00  0.00     0.275 C 
BRANCH  24  25
ATOM     25  O   UNL A   1      34.258  30.396  27.058  1.00  0.00    -0.458 OA
BRANCH  25  26
ATOM     26  C   UNL A   1      34.851  31.002  28.111  1.00  0.00     0.338 C 
ATOM     27  O   UNL A   1      34.368  31.794  28.897  1.00  0.00    -0.246 OA
BRANCH  26  28
ATOM     28  C   UNL A   1      36.139  30.330  28.319  1.00  0.00     0.060 A 
ATOM     29  C   UNL A   1      36.334  29.707  29.552  1.00  0.00     0.016 A 
ATOM     30  C   UNL A   1      37.134  30.326  27.349  1.00  0.00     0.016 A 
ATOM     31  C   UNL A   1      37.548  29.096  29.846  1.00  0.00     0.010 A 
ATOM     32  C   UNL A   1      38.348  29.697  27.635  1.00  0.00     0.010 A 
ATOM     33  C   UNL A   1      38.570  29.096  28.892  1.00  0.00    -0.014 A 
BRANCH  33  34
ATOM     34  C   UNL A   1      39.914  28.573  29.233  1.00  0.00     0.031 A 
ATOM     35  C   UNL A   1      40.850  29.446  30.021  1.00  0.00     0.074 A 
ATOM     36  C   UNL A   1      40.298  27.341  28.855  1.00  0.00     0.049 A 
ATOM     37  N   UNL A   1      42.133  29.313  30.228  1.00  0.00    -0.248 NA
ATOM     38  C   UNL A   1      40.257  30.640  30.645  1.00  0.00     0.031 C 
ATOM     39  C   UNL A   1      39.458  26.358  28.171  1.00  0.00     0.029 A 
ATOM     40  N   UNL A   1      41.508  26.707  28.995  1.00  0.00    -0.354 N 
ATOM     41  C   UNL A   1      42.513  30.435  30.953  1.00  0.00     0.074 A 
ATOM     42  C   UNL A   1      41.325  31.236  31.153  1.00  0.00     0.031 C 
ATOM     43  C   UNL A   1      40.173  25.241  27.962  1.00  0.00     0.029 A 
ATOM     44  C   UNL A   1      41.541  25.458  28.425  1.00  0.00     0.049 A 
ATOM     45  H   UNL A   1      42.277  27.109  29.459  1.00  0.00     0.167 HD
ATOM     46  C   UNL A   1      43.745  30.768  31.403  1.00  0.00     0.031 A 
ATOM     47  C   UNL A   1      42.569  24.606  28.255  1.00  0.00     0.031 A 
ATOM     48  C   UNL A   1      44.912  29.947  31.227  1.00  0.00     0.049 A 
ATOM     49  C   UNL A   1      43.941  25.019  28.713  1.00  0.00     0.074 A 
ATOM     50  C   UNL A   1      46.214  30.195  31.621  1.00  0.00     0.029 A 
ATOM     51  N   UNL A   1      44.906  28.700  30.618  1.00  0.00    -0.354 N 
ATOM     52  N   UNL A   1      44.313  26.122  29.318  1.00  0.00    -0.248 NA
ATOM     53  C   UNL A   1      45.038  24.078  28.448  1.00  0.00     0.031 C 
ATOM     54  C   UNL A   1      47.004  29.109  31.225  1.00  0.00     0.029 A 
ATOM     55  C   UNL A   1      46.183  28.167  30.625  1.00  0.00     0.049 A 
ATOM     56  H   UNL A   1      44.112  28.260  30.239  1.00  0.00     0.167 HD
ATOM     57  C   UNL A   1      45.680  25.999  29.524  1.00  0.00     0.074 A 
ATOM     58  C   UNL A   1      46.070  24.709  28.993  1.00  0.00     0.031 C 
ATOM     59  C   UNL A   1      46.540  26.876  30.098  1.00  0.00     0.031 A 
BRANCH  46  60
ATOM     60  C   UNL A   1      43.896  32.101  32.079  1.00  0.00    -0.014 A 
ATOM     61  C   UNL A   1      44.020  33.290  31.344  1.00  0.00     0.009 A 
ATOM     62  C   UNL A   1      43.906  32.166  33.482  1.00  0.00     0.009 A 
ATOM     63  C   UNL A   1      44.187  34.511  32.002  1.00  0.00     0.001 A 
ATOM     64  C   UNL A   1      44.046  33.390  34.137  1.00  0.00     0.001 A 
ATOM     65  C   UNL A   1      44.197  34.562  33.395  1.00  0.00     0.000 A 
ENDBRANCH  46  60
BRANCH  47  66
ATOM     66  C   UNL A   1      42.355  23.303  27.573  1.00  0.00    -0.014 A 
ATOM     67  C   UNL A   1      41.910  22.184  28.293  1.00  0.00     0.009 A 
ATOM     68  C   UNL A   1      42.600  23.167  26.196  1.00  0.00     0.009 A 
ATOM     69  C   UNL A   1      41.731  20.955  27.653  1.00  0.00     0.001 A 
ATOM     70  C   UNL A   1      42.391  21.945  25.553  1.00  0.00     0.001 A 
ATOM     71  C   UNL A   1      41.965  20.839  26.284  1.00  0.00     0.000 A 
ENDBRANCH  47  66
BRANCH  59  72
ATOM     72  C   UNL A   1      47.972  26.446  30.219  1.00  0.00    -0.014 A 
ATOM     73  C   UNL A   1      48.445  25.808  31.376  1.00  0.00     0.009 A 
ATOM     74  C   UNL A   1      48.847  26.644  29.140  1.00  0.00     0.009 A 
ATOM     75  C   UNL A   1      49.778  25.403  31.460  1.00  0.00     0.001 A 
ATOM     76  C   UNL A   1      50.173  26.217  29.218  1.00  0.00     0.001 A 
ATOM     77  C   UNL A   1      50.639  25.603  30.380  1.00  0.00     0.000 A 
ENDBRANCH  59  72
ENDBRANCH  33  34
ENDBRANCH  26  28
ENDBRANCH  25  26
ENDBRANCH  24  25
ENDBRANCH   1  24
TORSDOF 17
ENDMDL
