MODEL 1
REMARK VINA RESULT:     -13.0      0.000      0.000
REMARK SMILES COc1ccc(-n2c(SCc3cn(-c4ccc(C(=O)OCCOC(=O)c5ccc(-c6c7nc(c(-c8ccccc8)c8ccc([nH]8)c(-c8ccccc8)c8nc(c(-c9ccccc9)c9ccc6[nH]9)C=C8)C=C7)cc5)cc4)nn3)nc3ccccc3c2=O)cc1
REMARK SMILES IDX 18 1 19 2 17 3 14 4 15 5 75 6 16 7 74 8 13 9 11 10 12 11
REMARK SMILES IDX 77 12 76 13 10 14 9 15 8 16 7 17 85 18 78 19 84 20 86 21
REMARK SMILES IDX 79 22 83 23 80 24 82 25 81 26 6 27 3 28 4 29 88 30 5 31
REMARK SMILES IDX 87 32 2 33 1 34 20 35 21 36 22 37 23 38 24 39 25 40 26 41
REMARK SMILES IDX 27 42 73 43 28 44 72 45 29 46 30 47 31 48 66 49 32 50 71 51
REMARK SMILES IDX 65 52 67 53 33 54 70 55 64 56 63 57 34 59 56 60 41 61 55 62
REMARK SMILES IDX 42 63 45 64 54 65 68 66 43 67 44 68 53 70 69 71 46 72 35 73
REMARK SMILES IDX 36 74 40 75 37 76 39 77 38 78 57 79 58 80 62 81 59 82 61 83
REMARK SMILES IDX 60 84 47 85 48 86 52 87 49 88 51 89 50 90
REMARK H PARENT 67 58 45 69
REMARK Flexibility Score: inf
ROOT
ATOM      1  C   UNL A   1      41.553  20.193  26.516  1.00  0.00     0.338 C 
ATOM      2  O   UNL A   1      42.249  20.554  27.455  1.00  0.00    -0.246 OA
ENDROOT
BRANCH   1   3
ATOM      3  C   UNL A   1      40.207  20.733  26.260  1.00  0.00     0.060 A 
ATOM      4  C   UNL A   1      37.802  21.764  25.429  1.00  0.00     0.066 A 
ATOM      5  C   UNL A   1      38.069  20.418  25.182  1.00  0.00     0.029 A 
ATOM      6  C   UNL A   1      38.644  22.549  26.232  1.00  0.00     0.029 A 
ATOM      7  C   UNL A   1      39.299  19.914  25.573  1.00  0.00     0.018 A 
ATOM      8  C   UNL A   1      39.853  22.025  26.658  1.00  0.00     0.018 A 
BRANCH   4   9
ATOM      9  N   UNL A   1      36.806  22.387  24.668  1.00  0.00    -0.220 N 
ATOM     10  C   UNL A   1      35.294  23.802  24.041  1.00  0.00     0.093 A 
ATOM     11  C   UNL A   1      35.899  23.280  25.155  1.00  0.00     0.141 A 
ATOM     12  N   UNL A   1      35.847  23.248  22.928  1.00  0.00    -0.134 NA
ATOM     13  N   UNL A   1      36.788  22.399  23.319  1.00  0.00    -0.062 NA
BRANCH  10  14
ATOM     14  C   UNL A   1      34.225  24.802  23.965  1.00  0.00     0.138 C 
BRANCH  14  15
ATOM     15  S   UNL A   1      34.031  25.702  25.505  1.00  0.00    -0.081 SA
BRANCH  15  16
ATOM     16  C   UNL A   1      32.393  25.182  26.092  1.00  0.00     0.176 A 
ATOM     17  N   UNL A   1      31.567  24.821  25.053  1.00  0.00    -0.255 N 
ATOM     18  C   UNL A   1      30.895  25.863  24.434  1.00  0.00     0.266 A 
ATOM     19  N   UNL A   1      31.895  25.904  27.054  1.00  0.00    -0.223 NA
ATOM     20  C   UNL A   1      31.054  27.176  25.150  1.00  0.00     0.066 A 
ATOM     21  O   UNL A   1      30.265  25.803  23.385  1.00  0.00    -0.268 OA
ATOM     22  C   UNL A   1      31.420  27.122  26.513  1.00  0.00     0.079 A 
ATOM     23  C   UNL A   1      31.117  28.383  24.460  1.00  0.00     0.016 A 
ATOM     24  C   UNL A   1      31.664  28.294  27.224  1.00  0.00     0.029 A 
ATOM     25  C   UNL A   1      31.496  29.538  25.153  1.00  0.00     0.001 A 
ATOM     26  C   UNL A   1      31.722  29.504  26.534  1.00  0.00     0.002 A 
BRANCH  17  27
ATOM     27  C   UNL A   1      31.552  23.476  24.622  1.00  0.00     0.052 A 
ATOM     28  C   UNL A   1      32.316  20.914  23.825  1.00  0.00     0.119 A 
ATOM     29  C   UNL A   1      32.021  21.152  25.164  1.00  0.00     0.048 A 
ATOM     30  C   UNL A   1      32.107  21.909  22.869  1.00  0.00     0.048 A 
ATOM     31  C   UNL A   1      31.672  22.444  25.568  1.00  0.00     0.030 A 
ATOM     32  C   UNL A   1      31.693  23.185  23.264  1.00  0.00     0.030 A 
BRANCH  28  33
ATOM     33  O   UNL A   1      32.785  19.683  23.451  1.00  0.00    -0.497 OA
ATOM     34  C   UNL A   1      33.116  18.895  24.602  1.00  0.00     0.278 C 
ENDBRANCH  28  33
ENDBRANCH  17  27
ENDBRANCH  15  16
ENDBRANCH  14  15
ENDBRANCH  10  14
ENDBRANCH   4   9
ENDBRANCH   1   3
BRANCH   1  35
ATOM     35  O   UNL A   1      41.906  19.350  25.520  1.00  0.00    -0.458 OA
BRANCH  35  36
ATOM     36  C   UNL A   1      43.077  18.572  25.790  1.00  0.00     0.275 C 
BRANCH  36  37
ATOM     37  C   UNL A   1      44.172  18.903  24.788  1.00  0.00     0.275 C 
BRANCH  37  38
ATOM     38  O   UNL A   1      44.025  20.209  24.220  1.00  0.00    -0.458 OA
BRANCH  38  39
ATOM     39  C   UNL A   1      45.038  21.067  24.482  1.00  0.00     0.338 C 
ATOM     40  O   UNL A   1      46.225  20.908  24.253  1.00  0.00    -0.246 OA
BRANCH  39  41
ATOM     41  C   UNL A   1      44.538  22.156  25.328  1.00  0.00     0.060 A 
ATOM     42  C   UNL A   1      43.579  23.029  24.805  1.00  0.00     0.016 A 
ATOM     43  C   UNL A   1      45.212  22.440  26.524  1.00  0.00     0.016 A 
ATOM     44  C   UNL A   1      43.372  24.243  25.438  1.00  0.00     0.010 A 
ATOM     45  C   UNL A   1      45.019  23.656  27.141  1.00  0.00     0.010 A 
ATOM     46  C   UNL A   1      44.137  24.569  26.569  1.00  0.00    -0.014 A 
BRANCH  46  47
ATOM     47  C   UNL A   1      43.842  25.803  27.278  1.00  0.00     0.031 A 
ATOM     48  C   UNL A   1      44.798  26.884  26.939  1.00  0.00     0.074 A 
ATOM     49  C   UNL A   1      42.738  26.000  28.027  1.00  0.00     0.049 A 
ATOM     50  N   UNL A   1      45.646  27.450  27.729  1.00  0.00    -0.248 NA
ATOM     51  C   UNL A   1      44.951  27.260  25.521  1.00  0.00     0.031 C 
ATOM     52  C   UNL A   1      41.603  25.089  28.199  1.00  0.00     0.029 A 
ATOM     53  N   UNL A   1      42.337  27.115  28.704  1.00  0.00    -0.354 N 
ATOM     54  C   UNL A   1      46.284  28.414  26.959  1.00  0.00     0.074 A 
ATOM     55  C   UNL A   1      45.966  28.120  25.586  1.00  0.00     0.031 C 
ATOM     56  C   UNL A   1      40.557  25.773  28.719  1.00  0.00     0.029 A 
ATOM     57  C   UNL A   1      40.984  27.127  29.030  1.00  0.00     0.049 A 
ATOM     58  H   UNL A   1      42.952  27.848  28.940  1.00  0.00     0.167 HD
ATOM     59  C   UNL A   1      46.742  29.559  27.532  1.00  0.00     0.031 A 
ATOM     60  C   UNL A   1      40.255  28.189  29.463  1.00  0.00     0.031 A 
ATOM     61  C   UNL A   1      46.888  29.415  28.960  1.00  0.00     0.049 A 
ATOM     62  C   UNL A   1      41.198  29.203  29.978  1.00  0.00     0.074 A 
ATOM     63  C   UNL A   1      47.589  28.566  29.793  1.00  0.00     0.029 A 
ATOM     64  N   UNL A   1      45.915  29.994  29.736  1.00  0.00    -0.354 N 
ATOM     65  N   UNL A   1      41.889  29.056  31.069  1.00  0.00    -0.248 NA
ATOM     66  C   UNL A   1      41.692  30.213  29.057  1.00  0.00     0.031 C 
ATOM     67  C   UNL A   1      46.727  28.344  30.908  1.00  0.00     0.029 A 
ATOM     68  C   UNL A   1      45.583  29.124  30.738  1.00  0.00     0.049 A 
ATOM     69  H   UNL A   1      45.522  30.885  29.595  1.00  0.00     0.167 HD
ATOM     70  C   UNL A   1      43.136  29.573  30.757  1.00  0.00     0.074 A 
ATOM     71  C   UNL A   1      42.917  30.384  29.560  1.00  0.00     0.031 C 
ATOM     72  C   UNL A   1      44.264  29.054  31.326  1.00  0.00     0.031 A 
BRANCH  59  73
ATOM     73  C   UNL A   1      46.535  30.913  26.885  1.00  0.00    -0.014 A 
ATOM     74  C   UNL A   1      47.608  31.823  26.888  1.00  0.00     0.009 A 
ATOM     75  C   UNL A   1      45.264  31.438  26.577  1.00  0.00     0.009 A 
ATOM     76  C   UNL A   1      47.398  33.194  26.692  1.00  0.00     0.001 A 
ATOM     77  C   UNL A   1      45.059  32.798  26.338  1.00  0.00     0.001 A 
ATOM     78  C   UNL A   1      46.122  33.681  26.429  1.00  0.00     0.000 A 
ENDBRANCH  59  73
BRANCH  60  79
ATOM     79  C   UNL A   1      38.829  28.523  29.228  1.00  0.00    -0.014 A 
ATOM     80  C   UNL A   1      37.942  28.669  30.311  1.00  0.00     0.009 A 
ATOM     81  C   UNL A   1      38.406  28.992  27.973  1.00  0.00     0.009 A 
ATOM     82  C   UNL A   1      36.706  29.312  30.151  1.00  0.00     0.001 A 
ATOM     83  C   UNL A   1      37.170  29.628  27.814  1.00  0.00     0.001 A 
ATOM     84  C   UNL A   1      36.327  29.806  28.906  1.00  0.00     0.000 A 
ENDBRANCH  60  79
BRANCH  72  85
ATOM     85  C   UNL A   1      44.099  28.163  32.533  1.00  0.00    -0.014 A 
ATOM     86  C   UNL A   1      43.963  26.765  32.470  1.00  0.00     0.009 A 
ATOM     87  C   UNL A   1      44.181  28.763  33.799  1.00  0.00     0.009 A 
ATOM     88  C   UNL A   1      43.860  26.001  33.638  1.00  0.00     0.001 A 
ATOM     89  C   UNL A   1      44.106  28.000  34.964  1.00  0.00     0.001 A 
ATOM     90  C   UNL A   1      43.932  26.620  34.884  1.00  0.00     0.000 A 
ENDBRANCH  72  85
ENDBRANCH  46  47
ENDBRANCH  39  41
ENDBRANCH  38  39
ENDBRANCH  37  38
ENDBRANCH  36  37
ENDBRANCH  35  36
ENDBRANCH   1  35
TORSDOF 17
ENDMDL
MODEL 2
REMARK VINA RESULT:     -12.9      1.824      2.725
REMARK SMILES COc1ccc(-n2c(SCc3cn(-c4ccc(C(=O)OCCOC(=O)c5ccc(-c6c7nc(c(-c8ccccc8)c8ccc([nH]8)c(-c8ccccc8)c8nc(c(-c9ccccc9)c9ccc6[nH]9)C=C8)C=C7)cc5)cc4)nn3)nc3ccccc3c2=O)cc1
REMARK SMILES IDX 18 1 19 2 17 3 14 4 15 5 75 6 16 7 74 8 13 9 11 10 12 11
REMARK SMILES IDX 77 12 76 13 10 14 9 15 8 16 7 17 85 18 78 19 84 20 86 21
REMARK SMILES IDX 79 22 83 23 80 24 82 25 81 26 6 27 3 28 4 29 88 30 5 31
REMARK SMILES IDX 87 32 2 33 1 34 20 35 21 36 22 37 23 38 24 39 25 40 26 41
REMARK SMILES IDX 27 42 73 43 28 44 72 45 29 46 30 47 31 48 66 49 32 50 71 51
REMARK SMILES IDX 65 52 67 53 33 54 70 55 64 56 63 57 34 59 56 60 41 61 55 62
REMARK SMILES IDX 42 63 45 64 54 65 68 66 43 67 44 68 53 70 69 71 46 72 35 73
REMARK SMILES IDX 36 74 40 75 37 76 39 77 38 78 57 79 58 80 62 81 59 82 61 83
REMARK SMILES IDX 60 84 47 85 48 86 52 87 49 88 51 89 50 90
REMARK H PARENT 67 58 45 69
REMARK Flexibility Score: inf
ROOT
ATOM      1  C   UNL A   1      43.517  18.594  25.872  1.00  0.00     0.338 C 
ATOM      2  O   UNL A   1      43.679  17.549  26.486  1.00  0.00    -0.246 OA
ENDROOT
BRANCH   1   3
ATOM      3  C   UNL A   1      42.447  19.555  26.190  1.00  0.00     0.060 A 
ATOM      4  C   UNL A   1      40.351  21.311  26.431  1.00  0.00     0.066 A 
ATOM      5  C   UNL A   1      40.074  19.944  26.410  1.00  0.00     0.029 A 
ATOM      6  C   UNL A   1      41.665  21.798  26.506  1.00  0.00     0.029 A 
ATOM      7  C   UNL A   1      41.134  19.066  26.253  1.00  0.00     0.018 A 
ATOM      8  C   UNL A   1      42.722  20.910  26.393  1.00  0.00     0.018 A 
BRANCH   4   9
ATOM      9  N   UNL A   1      39.308  22.198  26.134  1.00  0.00    -0.220 N 
ATOM     10  C   UNL A   1      37.320  22.974  25.780  1.00  0.00     0.093 A 
ATOM     11  C   UNL A   1      38.067  21.826  25.713  1.00  0.00     0.141 A 
ATOM     12  N   UNL A   1      38.096  23.988  26.251  1.00  0.00    -0.134 NA
ATOM     13  N   UNL A   1      39.306  23.500  26.488  1.00  0.00    -0.062 NA
BRANCH  10  14
ATOM     14  C   UNL A   1      35.910  23.170  25.431  1.00  0.00     0.138 C 
BRANCH  14  15
ATOM     15  S   UNL A   1      35.269  21.824  24.432  1.00  0.00    -0.081 SA
BRANCH  15  16
ATOM     16  C   UNL A   1      33.527  21.720  24.934  1.00  0.00     0.176 A 
ATOM     17  N   UNL A   1      32.771  21.023  24.020  1.00  0.00    -0.255 N 
ATOM     18  C   UNL A   1      32.305  21.761  22.944  1.00  0.00     0.266 A 
ATOM     19  N   UNL A   1      33.031  22.812  25.441  1.00  0.00    -0.223 NA
ATOM     20  C   UNL A   1      32.557  23.236  23.086  1.00  0.00     0.066 A 
ATOM     21  O   UNL A   1      31.781  21.318  21.929  1.00  0.00    -0.268 OA
ATOM     22  C   UNL A   1      32.773  23.726  24.393  1.00  0.00     0.079 A 
ATOM     23  C   UNL A   1      32.844  24.039  21.986  1.00  0.00     0.016 A 
ATOM     24  C   UNL A   1      33.092  25.066  24.599  1.00  0.00     0.029 A 
ATOM     25  C   UNL A   1      33.296  25.346  22.202  1.00  0.00     0.001 A 
ATOM     26  C   UNL A   1      33.375  25.872  23.498  1.00  0.00     0.002 A 
BRANCH  17  27
ATOM     27  C   UNL A   1      32.627  19.626  24.170  1.00  0.00     0.052 A 
ATOM     28  C   UNL A   1      33.143  16.898  24.448  1.00  0.00     0.119 A 
ATOM     29  C   UNL A   1      32.961  17.678  25.586  1.00  0.00     0.048 A 
ATOM     30  C   UNL A   1      32.940  17.444  23.180  1.00  0.00     0.048 A 
ATOM     31  C   UNL A   1      32.738  19.051  25.447  1.00  0.00     0.030 A 
ATOM     32  C   UNL A   1      32.650  18.805  23.040  1.00  0.00     0.030 A 
BRANCH  28  33
ATOM     33  O   UNL A   1      33.494  15.582  24.586  1.00  0.00    -0.497 OA
ATOM     34  C   UNL A   1      32.584  14.904  25.463  1.00  0.00     0.278 C 
ENDBRANCH  28  33
ENDBRANCH  17  27
ENDBRANCH  15  16
ENDBRANCH  14  15
ENDBRANCH  10  14
ENDBRANCH   4   9
ENDBRANCH   1   3
BRANCH   1  35
ATOM     35  O   UNL A   1      44.312  19.098  24.901  1.00  0.00    -0.458 OA
BRANCH  35  36
ATOM     36  C   UNL A   1      45.713  18.924  25.135  1.00  0.00     0.275 C 
BRANCH  36  37
ATOM     37  C   UNL A   1      46.492  20.097  24.560  1.00  0.00     0.275 C 
BRANCH  37  38
ATOM     38  O   UNL A   1      46.136  21.345  25.164  1.00  0.00    -0.458 OA
BRANCH  38  39
ATOM     39  C   UNL A   1      45.269  22.102  24.451  1.00  0.00     0.338 C 
ATOM     40  O   UNL A   1      44.856  21.897  23.322  1.00  0.00    -0.246 OA
BRANCH  39  41
ATOM     41  C   UNL A   1      45.067  23.380  25.142  1.00  0.00     0.060 A 
ATOM     42  C   UNL A   1      45.749  23.612  26.342  1.00  0.00     0.016 A 
ATOM     43  C   UNL A   1      44.019  24.212  24.723  1.00  0.00     0.016 A 
ATOM     44  C   UNL A   1      45.304  24.627  27.171  1.00  0.00     0.010 A 
ATOM     45  C   UNL A   1      43.567  25.208  25.558  1.00  0.00     0.010 A 
ATOM     46  C   UNL A   1      44.180  25.379  26.797  1.00  0.00    -0.014 A 
BRANCH  46  47
ATOM     47  C   UNL A   1      43.783  26.502  27.631  1.00  0.00     0.031 A 
ATOM     48  C   UNL A   1      44.697  27.659  27.479  1.00  0.00     0.074 A 
ATOM     49  C   UNL A   1      42.632  26.555  28.332  1.00  0.00     0.049 A 
ATOM     50  N   UNL A   1      45.471  28.164  28.379  1.00  0.00    -0.248 NA
ATOM     51  C   UNL A   1      44.905  28.212  26.127  1.00  0.00     0.031 C 
ATOM     52  C   UNL A   1      41.540  25.579  28.327  1.00  0.00     0.029 A 
ATOM     53  N   UNL A   1      42.138  27.560  29.112  1.00  0.00    -0.354 N 
ATOM     54  C   UNL A   1      46.097  29.243  27.768  1.00  0.00     0.074 A 
ATOM     55  C   UNL A   1      45.868  29.103  26.353  1.00  0.00     0.031 C 
ATOM     56  C   UNL A   1      40.433  26.145  28.862  1.00  0.00     0.029 A 
ATOM     57  C   UNL A   1      40.771  27.469  29.357  1.00  0.00     0.049 A 
ATOM     58  H   UNL A   1      42.700  28.286  29.469  1.00  0.00     0.167 HD
ATOM     59  C   UNL A   1      46.463  30.329  28.498  1.00  0.00     0.031 A 
ATOM     60  C   UNL A   1      39.965  28.436  29.870  1.00  0.00     0.031 A 
ATOM     61  C   UNL A   1      46.541  30.019  29.905  1.00  0.00     0.049 A 
ATOM     62  C   UNL A   1      40.825  29.422  30.556  1.00  0.00     0.074 A 
ATOM     63  C   UNL A   1      47.242  29.109  30.671  1.00  0.00     0.029 A 
ATOM     64  N   UNL A   1      45.499  30.453  30.686  1.00  0.00    -0.354 N 
ATOM     65  N   UNL A   1      41.465  29.175  31.660  1.00  0.00    -0.248 NA
ATOM     66  C   UNL A   1      41.312  30.559  29.793  1.00  0.00     0.031 C 
ATOM     67  C   UNL A   1      46.335  28.712  31.699  1.00  0.00     0.029 A 
ATOM     68  C   UNL A   1      45.162  29.454  31.556  1.00  0.00     0.049 A 
ATOM     69  H   UNL A   1      45.068  31.336  30.630  1.00  0.00     0.167 HD
ATOM     70  C   UNL A   1      42.697  29.784  31.486  1.00  0.00     0.074 A 
ATOM     71  C   UNL A   1      42.498  30.724  30.383  1.00  0.00     0.031 C 
ATOM     72  C   UNL A   1      43.819  29.252  32.054  1.00  0.00     0.031 A 
BRANCH  59  73
ATOM     73  C   UNL A   1      46.220  31.741  28.007  1.00  0.00    -0.014 A 
ATOM     74  C   UNL A   1      44.896  32.214  27.971  1.00  0.00     0.009 A 
ATOM     75  C   UNL A   1      47.176  32.486  27.287  1.00  0.00     0.009 A 
ATOM     76  C   UNL A   1      44.538  33.311  27.177  1.00  0.00     0.001 A 
ATOM     77  C   UNL A   1      46.829  33.607  26.530  1.00  0.00     0.001 A 
ATOM     78  C   UNL A   1      45.504  33.999  26.448  1.00  0.00     0.000 A 
ENDBRANCH  59  73
BRANCH  60  79
ATOM     79  C   UNL A   1      38.538  28.730  29.593  1.00  0.00    -0.014 A 
ATOM     80  C   UNL A   1      37.654  29.030  30.646  1.00  0.00     0.009 A 
ATOM     81  C   UNL A   1      38.110  29.013  28.285  1.00  0.00     0.009 A 
ATOM     82  C   UNL A   1      36.415  29.641  30.399  1.00  0.00     0.001 A 
ATOM     83  C   UNL A   1      36.873  29.617  28.039  1.00  0.00     0.001 A 
ATOM     84  C   UNL A   1      36.032  29.949  29.097  1.00  0.00     0.000 A 
ENDBRANCH  60  79
BRANCH  72  85
ATOM     85  C   UNL A   1      43.639  28.214  33.135  1.00  0.00    -0.014 A 
ATOM     86  C   UNL A   1      43.206  28.502  34.442  1.00  0.00     0.009 A 
ATOM     87  C   UNL A   1      43.828  26.869  32.782  1.00  0.00     0.009 A 
ATOM     88  C   UNL A   1      43.020  27.478  35.377  1.00  0.00     0.001 A 
ATOM     89  C   UNL A   1      43.617  25.845  33.705  1.00  0.00     0.001 A 
ATOM     90  C   UNL A   1      43.224  26.150  35.006  1.00  0.00     0.000 A 
ENDBRANCH  72  85
ENDBRANCH  46  47
ENDBRANCH  39  41
ENDBRANCH  38  39
ENDBRANCH  37  38
ENDBRANCH  36  37
ENDBRANCH  35  36
ENDBRANCH   1  35
TORSDOF 17
ENDMDL
MODEL 3
REMARK VINA RESULT:     -12.7      4.037      9.886
REMARK SMILES COc1ccc(-n2c(SCc3cn(-c4ccc(C(=O)OCCOC(=O)c5ccc(-c6c7nc(c(-c8ccccc8)c8ccc([nH]8)c(-c8ccccc8)c8nc(c(-c9ccccc9)c9ccc6[nH]9)C=C8)C=C7)cc5)cc4)nn3)nc3ccccc3c2=O)cc1
REMARK SMILES IDX 18 1 19 2 17 3 14 4 15 5 75 6 16 7 74 8 13 9 11 10 12 11
REMARK SMILES IDX 77 12 76 13 10 14 9 15 8 16 7 17 85 18 78 19 84 20 86 21
REMARK SMILES IDX 79 22 83 23 80 24 82 25 81 26 6 27 3 28 4 29 88 30 5 31
REMARK SMILES IDX 87 32 2 33 1 34 20 35 21 36 22 37 23 38 24 39 25 40 26 41
REMARK SMILES IDX 27 42 73 43 28 44 72 45 29 46 30 47 31 48 66 49 32 50 71 51
REMARK SMILES IDX 65 52 67 53 33 54 70 55 64 56 63 57 34 59 56 60 41 61 55 62
REMARK SMILES IDX 42 63 45 64 54 65 68 66 43 67 44 68 53 70 69 71 46 72 35 73
REMARK SMILES IDX 36 74 40 75 37 76 39 77 38 78 57 79 58 80 62 81 59 82 61 83
REMARK SMILES IDX 60 84 47 85 48 86 52 87 49 88 51 89 50 90
REMARK H PARENT 67 58 45 69
REMARK Flexibility Score: inf
ROOT
ATOM      1  C   UNL A   1      34.019  34.142  28.621  1.00  0.00     0.338 C 
ATOM      2  O   UNL A   1      35.162  34.530  28.819  1.00  0.00    -0.246 OA
ENDROOT
BRANCH   1   3
ATOM      3  C   UNL A   1      33.707  32.860  27.967  1.00  0.00     0.060 A 
ATOM      4  C   UNL A   1      32.890  30.414  27.027  1.00  0.00     0.066 A 
ATOM      5  C   UNL A   1      32.053  31.513  26.835  1.00  0.00     0.029 A 
ATOM      6  C   UNL A   1      34.194  30.556  27.526  1.00  0.00     0.029 A 
ATOM      7  C   UNL A   1      32.457  32.737  27.343  1.00  0.00     0.018 A 
ATOM      8  C   UNL A   1      34.608  31.792  27.992  1.00  0.00     0.018 A 
BRANCH   4   9
ATOM      9  N   UNL A   1      32.326  29.135  26.939  1.00  0.00    -0.220 N 
ATOM     10  C   UNL A   1      32.098  27.023  26.531  1.00  0.00     0.093 A 
ATOM     11  C   UNL A   1      32.771  28.143  26.118  1.00  0.00     0.141 A 
ATOM     12  N   UNL A   1      31.295  27.343  27.582  1.00  0.00    -0.134 NA
ATOM     13  N   UNL A   1      31.458  28.633  27.842  1.00  0.00    -0.062 NA
BRANCH  10  14
ATOM     14  C   UNL A   1      32.172  25.661  25.994  1.00  0.00     0.138 C 
BRANCH  14  15
ATOM     15  S   UNL A   1      33.849  25.200  25.553  1.00  0.00    -0.081 SA
BRANCH  15  16
ATOM     16  C   UNL A   1      33.770  25.001  23.749  1.00  0.00     0.176 A 
ATOM     17  N   UNL A   1      32.568  24.467  23.345  1.00  0.00    -0.255 N 
ATOM     18  C   UNL A   1      32.482  23.084  23.394  1.00  0.00     0.266 A 
ATOM     19  N   UNL A   1      34.860  24.558  23.193  1.00  0.00    -0.223 NA
ATOM     20  C   UNL A   1      33.796  22.421  23.699  1.00  0.00     0.066 A 
ATOM     21  O   UNL A   1      31.465  22.413  23.265  1.00  0.00    -0.268 OA
ATOM     22  C   UNL A   1      34.966  23.168  23.438  1.00  0.00     0.079 A 
ATOM     23  C   UNL A   1      33.869  21.255  24.454  1.00  0.00     0.016 A 
ATOM     24  C   UNL A   1      36.218  22.654  23.768  1.00  0.00     0.029 A 
ATOM     25  C   UNL A   1      35.121  20.815  24.900  1.00  0.00     0.001 A 
ATOM     26  C   UNL A   1      36.292  21.484  24.520  1.00  0.00     0.002 A 
BRANCH  17  27
ATOM     27  C   UNL A   1      31.499  25.337  23.035  1.00  0.00     0.052 A 
ATOM     28  C   UNL A   1      29.638  27.415  23.093  1.00  0.00     0.119 A 
ATOM     29  C   UNL A   1      30.812  27.570  22.362  1.00  0.00     0.048 A 
ATOM     30  C   UNL A   1      29.333  26.188  23.683  1.00  0.00     0.048 A 
ATOM     31  C   UNL A   1      31.760  26.542  22.362  1.00  0.00     0.030 A 
ATOM     32  C   UNL A   1      30.250  25.134  23.628  1.00  0.00     0.030 A 
BRANCH  28  33
ATOM     33  O   UNL A   1      28.772  28.469  23.201  1.00  0.00    -0.497 OA
ATOM     34  C   UNL A   1      29.204  29.567  22.387  1.00  0.00     0.278 C 
ENDBRANCH  28  33
ENDBRANCH  17  27
ENDBRANCH  15  16
ENDBRANCH  14  15
ENDBRANCH  10  14
ENDBRANCH   4   9
ENDBRANCH   1   3
BRANCH   1  35
ATOM     35  O   UNL A   1      32.877  34.735  29.038  1.00  0.00    -0.458 OA
BRANCH  35  36
ATOM     36  C   UNL A   1      32.998  36.136  29.299  1.00  0.00     0.275 C 
BRANCH  36  37
ATOM     37  C   UNL A   1      32.747  36.421  30.772  1.00  0.00     0.275 C 
BRANCH  37  38
ATOM     38  O   UNL A   1      33.795  35.931  31.616  1.00  0.00    -0.458 OA
BRANCH  38  39
ATOM     39  C   UNL A   1      33.522  34.772  32.259  1.00  0.00     0.338 C 
ATOM     40  O   UNL A   1      32.504  34.479  32.863  1.00  0.00    -0.246 OA
BRANCH  39  41
ATOM     41  C   UNL A   1      34.748  33.972  32.348  1.00  0.00     0.060 A 
ATOM     42  C   UNL A   1      35.972  34.630  32.505  1.00  0.00     0.016 A 
ATOM     43  C   UNL A   1      34.686  32.610  32.020  1.00  0.00     0.016 A 
ATOM     44  C   UNL A   1      37.137  33.936  32.231  1.00  0.00     0.010 A 
ATOM     45  C   UNL A   1      35.845  31.928  31.729  1.00  0.00     0.010 A 
ATOM     46  C   UNL A   1      37.060  32.607  31.788  1.00  0.00    -0.014 A 
BRANCH  46  47
ATOM     47  C   UNL A   1      38.293  31.862  31.596  1.00  0.00     0.031 A 
ATOM     48  C   UNL A   1      38.986  31.590  32.878  1.00  0.00     0.074 A 
ATOM     49  C   UNL A   1      38.682  31.333  30.419  1.00  0.00     0.049 A 
ATOM     50  N   UNL A   1      40.135  32.042  33.253  1.00  0.00    -0.248 NA
ATOM     51  C   UNL A   1      38.244  30.878  33.936  1.00  0.00     0.031 C 
ATOM     52  C   UNL A   1      37.933  31.312  29.160  1.00  0.00     0.029 A 
ATOM     53  N   UNL A   1      39.789  30.590  30.126  1.00  0.00    -0.354 N 
ATOM     54  C   UNL A   1      40.362  31.483  34.505  1.00  0.00     0.074 A 
ATOM     55  C   UNL A   1      39.101  30.951  34.952  1.00  0.00     0.031 C 
ATOM     56  C   UNL A   1      38.485  30.399  28.327  1.00  0.00     0.029 A 
ATOM     57  C   UNL A   1      39.691  29.866  28.940  1.00  0.00     0.049 A 
ATOM     58  H   UNL A   1      40.586  30.567  30.703  1.00  0.00     0.167 HD
ATOM     59  C   UNL A   1      41.629  31.214  34.919  1.00  0.00     0.031 A 
ATOM     60  C   UNL A   1      40.504  28.861  28.524  1.00  0.00     0.031 A 
ATOM     61  C   UNL A   1      42.603  31.959  34.159  1.00  0.00     0.049 A 
ATOM     62  C   UNL A   1      41.767  28.959  29.285  1.00  0.00     0.074 A 
ATOM     63  C   UNL A   1      42.833  33.296  33.904  1.00  0.00     0.029 A 
ATOM     64  N   UNL A   1      43.291  31.263  33.196  1.00  0.00    -0.354 N 
ATOM     65  N   UNL A   1      42.633  29.914  29.121  1.00  0.00    -0.248 NA
ATOM     66  C   UNL A   1      41.879  28.222  30.532  1.00  0.00     0.031 C 
ATOM     67  C   UNL A   1      43.277  33.345  32.548  1.00  0.00     0.029 A 
ATOM     68  C   UNL A   1      43.369  32.037  32.072  1.00  0.00     0.049 A 
ATOM     69  H   UNL A   1      43.665  30.359  33.299  1.00  0.00     0.167 HD
ATOM     70  C   UNL A   1      43.056  30.217  30.405  1.00  0.00     0.074 A 
ATOM     71  C   UNL A   1      42.660  29.064  31.212  1.00  0.00     0.031 C 
ATOM     72  C   UNL A   1      43.417  31.493  30.733  1.00  0.00     0.031 A 
BRANCH  59  73
ATOM     73  C   UNL A   1      41.983  29.915  35.611  1.00  0.00    -0.014 A 
ATOM     74  C   UNL A   1      43.037  29.922  36.542  1.00  0.00     0.009 A 
ATOM     75  C   UNL A   1      41.555  28.652  35.154  1.00  0.00     0.009 A 
ATOM     76  C   UNL A   1      43.687  28.738  36.913  1.00  0.00     0.001 A 
ATOM     77  C   UNL A   1      42.172  27.466  35.556  1.00  0.00     0.001 A 
ATOM     78  C   UNL A   1      43.261  27.512  36.411  1.00  0.00     0.000 A 
ENDBRANCH  59  73
BRANCH  60  79
ATOM     79  C   UNL A   1      40.190  27.655  27.720  1.00  0.00    -0.014 A 
ATOM     80  C   UNL A   1      40.908  27.376  26.541  1.00  0.00     0.009 A 
ATOM     81  C   UNL A   1      39.402  26.624  28.259  1.00  0.00     0.009 A 
ATOM     82  C   UNL A   1      40.879  26.099  25.962  1.00  0.00     0.001 A 
ATOM     83  C   UNL A   1      39.369  25.353  27.677  1.00  0.00     0.001 A 
ATOM     84  C   UNL A   1      40.123  25.084  26.539  1.00  0.00     0.000 A 
ENDBRANCH  60  79
BRANCH  72  85
ATOM     85  C   UNL A   1      43.672  32.466  29.608  1.00  0.00    -0.014 A 
ATOM     86  C   UNL A   1      42.792  33.502  29.245  1.00  0.00     0.009 A 
ATOM     87  C   UNL A   1      44.906  32.384  28.946  1.00  0.00     0.009 A 
ATOM     88  C   UNL A   1      43.121  34.393  28.218  1.00  0.00     0.001 A 
ATOM     89  C   UNL A   1      45.246  33.288  27.940  1.00  0.00     0.001 A 
ATOM     90  C   UNL A   1      44.348  34.285  27.567  1.00  0.00     0.000 A 
ENDBRANCH  72  85
ENDBRANCH  46  47
ENDBRANCH  39  41
ENDBRANCH  38  39
ENDBRANCH  37  38
ENDBRANCH  36  37
ENDBRANCH  35  36
ENDBRANCH   1  35
TORSDOF 17
ENDMDL
