MODEL 1
REMARK VINA RESULT:      -9.6      0.000      0.000
REMARK SMILES C#CC[N@H+](CC(=O)OCCOC(=O)c1ccc(-c2c3nc(c(-c4ccccc4)c4ccc([nH]4)c(-c4ccccc4)c4nc(c(-c5ccccc5)c5ccc2[nH]5)C=C4)C=C3)cc1)[C@H](C)c1ccccc1[N+](=O)[O-]
REMARK SMILES IDX 9 1 8 2 6 3 7 4 5 5 4 6 3 8 2 9 1 10 62 11 63 12 64 13 65 14
REMARK SMILES IDX 69 15 66 16 68 17 67 18 70 19 71 20 72 21 10 22 11 23 12 24
REMARK SMILES IDX 13 25 14 26 15 27 61 28 16 29 60 30 17 31 18 32 19 33 54 34
REMARK SMILES IDX 20 35 59 36 53 37 55 38 21 39 58 40 52 41 51 42 22 44 44 45
REMARK SMILES IDX 29 46 43 47 30 48 33 49 42 50 56 51 31 52 32 53 41 55 57 56
REMARK SMILES IDX 34 57 23 58 24 59 28 60 25 61 27 62 26 63 45 64 46 65 50 66
REMARK SMILES IDX 47 67 49 68 48 69 35 70 36 71 40 72 37 73 39 74 38 75
REMARK H PARENT 4 7 55 43 33 54
REMARK Flexibility Score: inf
ROOT
ATOM      1  C   UNL A   1      37.927  20.998  25.313  1.00  0.00     0.274 C 
ENDROOT
BRANCH   1   2
ATOM      2  O   UNL A   1      36.639  20.810  24.699  1.00  0.00    -0.458 OA
BRANCH   2   3
ATOM      3  C   UNL A   1      35.584  21.464  25.252  1.00  0.00     0.361 C 
ATOM      4  O   UNL A   1      35.306  21.427  26.445  1.00  0.00    -0.245 OA
BRANCH   3   5
ATOM      5  C   UNL A   1      34.691  22.152  24.213  1.00  0.00     0.387 C 
BRANCH   5   6
ATOM      6  N   UNL A   1      33.751  23.230  24.700  1.00  0.00    -0.309 N 
ATOM      7  H   UNL A   1      33.646  23.271  25.713  1.00  0.00     0.349 HD
BRANCH   6   8
ATOM      8  C   UNL A   1      34.335  24.529  24.331  1.00  0.00     0.354 C 
BRANCH   8   9
ATOM      9  C   UNL A   1      34.029  25.735  25.205  1.00  0.00    -0.047 C 
ATOM     10  C   UNL A   1      33.767  26.768  25.956  1.00  0.00     0.010 C 
ENDBRANCH   8   9
ENDBRANCH   6   8
BRANCH   6  11
ATOM     11  C   UNL A   1      32.355  22.922  24.234  1.00  0.00     0.220 C 
ATOM     12  C   UNL A   1      32.281  22.257  22.838  1.00  0.00     0.081 C 
BRANCH  11  13
ATOM     13  C   UNL A   1      31.312  24.047  24.406  1.00  0.00     0.087 A 
ATOM     14  C   UNL A   1      30.943  24.839  23.287  1.00  0.00     0.017 A 
ATOM     15  C   UNL A   1      30.726  24.413  25.642  1.00  0.00     0.278 A 
ATOM     16  C   UNL A   1      30.092  25.948  23.394  1.00  0.00     0.001 A 
ATOM     17  C   UNL A   1      29.873  25.538  25.748  1.00  0.00     0.086 A 
ATOM     18  C   UNL A   1      29.571  26.307  24.627  1.00  0.00     0.007 A 
BRANCH  15  19
ATOM     19  N   UNL A   1      30.943  23.649  26.878  1.00  0.00     0.063 N 
ATOM     20  O   UNL A   1      31.966  23.902  27.533  1.00  0.00    -0.258 OA
ATOM     21  O   UNL A   1      30.040  22.892  27.258  1.00  0.00    -0.258 OA
ENDBRANCH  15  19
ENDBRANCH  11  13
ENDBRANCH   6  11
ENDBRANCH   5   6
ENDBRANCH   3   5
ENDBRANCH   2   3
ENDBRANCH   1   2
BRANCH   1  22
ATOM     22  C   UNL A   1      38.873  19.834  24.998  1.00  0.00     0.275 C 
BRANCH  22  23
ATOM     23  O   UNL A   1      39.671  19.493  26.146  1.00  0.00    -0.458 OA
BRANCH  23  24
ATOM     24  C   UNL A   1      41.007  19.688  26.022  1.00  0.00     0.338 C 
ATOM     25  O   UNL A   1      41.810  18.964  25.466  1.00  0.00    -0.246 OA
BRANCH  24  26
ATOM     26  C   UNL A   1      41.325  21.021  26.560  1.00  0.00     0.060 A 
ATOM     27  C   UNL A   1      41.128  21.257  27.922  1.00  0.00     0.016 A 
ATOM     28  C   UNL A   1      41.825  22.026  25.732  1.00  0.00     0.016 A 
ATOM     29  C   UNL A   1      41.484  22.481  28.481  1.00  0.00     0.010 A 
ATOM     30  C   UNL A   1      42.167  23.261  26.290  1.00  0.00     0.010 A 
ATOM     31  C   UNL A   1      42.016  23.488  27.669  1.00  0.00    -0.014 A 
BRANCH  31  32
ATOM     32  C   UNL A   1      42.419  24.781  28.265  1.00  0.00     0.031 A 
ATOM     33  C   UNL A   1      41.403  25.865  28.461  1.00  0.00     0.074 A 
ATOM     34  C   UNL A   1      43.702  24.977  28.621  1.00  0.00     0.049 A 
ATOM     35  N   UNL A   1      41.581  27.098  28.859  1.00  0.00    -0.248 NA
ATOM     36  C   UNL A   1      40.005  25.516  28.167  1.00  0.00     0.031 C 
ATOM     37  C   UNL A   1      44.766  23.975  28.529  1.00  0.00     0.029 A 
ATOM     38  N   UNL A   1      44.329  26.088  29.123  1.00  0.00    -0.354 N 
ATOM     39  C   UNL A   1      40.320  27.681  28.849  1.00  0.00     0.074 A 
ATOM     40  C   UNL A   1      39.390  26.671  28.388  1.00  0.00     0.031 C 
ATOM     41  C   UNL A   1      45.916  24.522  28.956  1.00  0.00     0.029 A 
ATOM     42  C   UNL A   1      45.681  25.922  29.298  1.00  0.00     0.049 A 
ATOM     43  H   UNL A   1      43.855  26.926  29.336  1.00  0.00     0.167 HD
ATOM     44  C   UNL A   1      39.975  28.944  29.192  1.00  0.00     0.031 A 
ATOM     45  C   UNL A   1      46.628  26.808  29.656  1.00  0.00     0.031 A 
ATOM     46  C   UNL A   1      40.908  29.945  29.640  1.00  0.00     0.049 A 
ATOM     47  C   UNL A   1      46.231  28.231  29.935  1.00  0.00     0.074 A 
ATOM     48  C   UNL A   1      40.654  31.250  30.027  1.00  0.00     0.029 A 
ATOM     49  N   UNL A   1      42.276  29.754  29.753  1.00  0.00    -0.354 N 
ATOM     50  N   UNL A   1      45.037  28.771  29.929  1.00  0.00    -0.248 NA
ATOM     51  C   UNL A   1      47.316  29.169  30.260  1.00  0.00     0.031 C 
ATOM     52  C   UNL A   1      41.877  31.866  30.315  1.00  0.00     0.029 A 
ATOM     53  C   UNL A   1      42.886  30.929  30.164  1.00  0.00     0.049 A 
ATOM     54  H   UNL A   1      42.746  28.908  29.567  1.00  0.00     0.167 HD
ATOM     55  C   UNL A   1      45.224  30.106  30.263  1.00  0.00     0.074 A 
ATOM     56  C   UNL A   1      46.644  30.288  30.487  1.00  0.00     0.031 C 
ATOM     57  C   UNL A   1      44.302  31.095  30.369  1.00  0.00     0.031 A 
BRANCH  44  58
ATOM     58  C   UNL A   1      38.530  29.330  29.049  1.00  0.00    -0.014 A 
ATOM     59  C   UNL A   1      37.643  29.270  30.135  1.00  0.00     0.009 A 
ATOM     60  C   UNL A   1      38.057  29.796  27.811  1.00  0.00     0.009 A 
ATOM     61  C   UNL A   1      36.305  29.640  29.977  1.00  0.00     0.001 A 
ATOM     62  C   UNL A   1      36.726  30.191  27.663  1.00  0.00     0.001 A 
ATOM     63  C   UNL A   1      35.849  30.105  28.743  1.00  0.00     0.000 A 
ENDBRANCH  44  58
BRANCH  45  64
ATOM     64  C   UNL A   1      48.053  26.389  29.721  1.00  0.00    -0.014 A 
ATOM     65  C   UNL A   1      48.882  26.490  28.595  1.00  0.00     0.009 A 
ATOM     66  C   UNL A   1      48.589  25.876  30.914  1.00  0.00     0.009 A 
ATOM     67  C   UNL A   1      50.213  26.068  28.655  1.00  0.00     0.001 A 
ATOM     68  C   UNL A   1      49.928  25.483  30.980  1.00  0.00     0.001 A 
ATOM     69  C   UNL A   1      50.735  25.571  29.848  1.00  0.00     0.000 A 
ENDBRANCH  45  64
BRANCH  57  70
ATOM     70  C   UNL A   1      44.803  32.457  30.758  1.00  0.00    -0.014 A 
ATOM     71  C   UNL A   1      45.190  33.392  29.785  1.00  0.00     0.009 A 
ATOM     72  C   UNL A   1      44.853  32.822  32.113  1.00  0.00     0.009 A 
ATOM     73  C   UNL A   1      45.645  34.656  30.164  1.00  0.00     0.001 A 
ATOM     74  C   UNL A   1      45.282  34.097  32.486  1.00  0.00     0.001 A 
ATOM     75  C   UNL A   1      45.686  35.009  31.512  1.00  0.00     0.000 A 
ENDBRANCH  57  70
ENDBRANCH  31  32
ENDBRANCH  24  26
ENDBRANCH  23  24
ENDBRANCH  22  23
ENDBRANCH   1  22
TORSDOF 17
ENDMDL
MODEL 2
REMARK VINA RESULT:      -9.5      4.781      9.968
REMARK SMILES C#CC[N@H+](CC(=O)OCCOC(=O)c1ccc(-c2c3nc(c(-c4ccccc4)c4ccc([nH]4)c(-c4ccccc4)c4nc(c(-c5ccccc5)c5ccc2[nH]5)C=C4)C=C3)cc1)[C@H](C)c1ccccc1[N+](=O)[O-]
REMARK SMILES IDX 9 1 8 2 6 3 7 4 5 5 4 6 3 8 2 9 1 10 62 11 63 12 64 13 65 14
REMARK SMILES IDX 69 15 66 16 68 17 67 18 70 19 71 20 72 21 10 22 11 23 12 24
REMARK SMILES IDX 13 25 14 26 15 27 61 28 16 29 60 30 17 31 18 32 19 33 54 34
REMARK SMILES IDX 20 35 59 36 53 37 55 38 21 39 58 40 52 41 51 42 22 44 44 45
REMARK SMILES IDX 29 46 43 47 30 48 33 49 42 50 56 51 31 52 32 53 41 55 57 56
REMARK SMILES IDX 34 57 23 58 24 59 28 60 25 61 27 62 26 63 45 64 46 65 50 66
REMARK SMILES IDX 47 67 49 68 48 69 35 70 36 71 40 72 37 73 39 74 38 75
REMARK H PARENT 4 7 55 43 33 54
REMARK Flexibility Score: inf
ROOT
ATOM      1  C   UNL A   1      33.760  34.289  27.745  1.00  0.00     0.274 C 
ENDROOT
BRANCH   1   2
ATOM      2  O   UNL A   1      34.475  34.810  28.880  1.00  0.00    -0.458 OA
BRANCH   2   3
ATOM      3  C   UNL A   1      33.932  34.599  30.108  1.00  0.00     0.361 C 
ATOM      4  O   UNL A   1      32.842  35.039  30.458  1.00  0.00    -0.245 OA
BRANCH   3   5
ATOM      5  C   UNL A   1      34.876  33.864  31.066  1.00  0.00     0.387 C 
BRANCH   5   6
ATOM      6  N   UNL A   1      36.018  34.650  31.667  1.00  0.00    -0.309 N 
ATOM      7  H   UNL A   1      36.158  35.571  31.253  1.00  0.00     0.349 HD
BRANCH   6   8
ATOM      8  C   UNL A   1      35.680  34.919  33.074  1.00  0.00     0.354 C 
BRANCH   8   9
ATOM      9  C   UNL A   1      34.621  35.967  33.375  1.00  0.00    -0.047 C 
ATOM     10  C   UNL A   1      33.713  36.866  33.635  1.00  0.00     0.010 C 
ENDBRANCH   8   9
ENDBRANCH   6   8
BRANCH   6  11
ATOM     11  C   UNL A   1      37.315  33.950  31.370  1.00  0.00     0.220 C 
ATOM     12  C   UNL A   1      37.461  33.471  29.906  1.00  0.00     0.081 C 
BRANCH  11  13
ATOM     13  C   UNL A   1      37.763  32.879  32.387  1.00  0.00     0.087 A 
ATOM     14  C   UNL A   1      37.208  31.574  32.322  1.00  0.00     0.017 A 
ATOM     15  C   UNL A   1      38.658  33.117  33.459  1.00  0.00     0.278 A 
ATOM     16  C   UNL A   1      37.481  30.588  33.281  1.00  0.00     0.001 A 
ATOM     17  C   UNL A   1      38.926  32.123  34.430  1.00  0.00     0.086 A 
ATOM     18  C   UNL A   1      38.326  30.868  34.344  1.00  0.00     0.007 A 
BRANCH  15  19
ATOM     19  N   UNL A   1      39.376  34.388  33.623  1.00  0.00     0.063 N 
ATOM     20  O   UNL A   1      40.381  34.570  32.919  1.00  0.00    -0.258 OA
ATOM     21  O   UNL A   1      38.873  35.249  34.357  1.00  0.00    -0.258 OA
ENDBRANCH  15  19
ENDBRANCH  11  13
ENDBRANCH   6  11
ENDBRANCH   5   6
ENDBRANCH   3   5
ENDBRANCH   2   3
ENDBRANCH   1   2
BRANCH   1  22
ATOM     22  C   UNL A   1      33.504  32.785  27.886  1.00  0.00     0.275 C 
BRANCH  22  23
ATOM     23  O   UNL A   1      34.742  32.057  27.984  1.00  0.00    -0.458 OA
BRANCH  23  24
ATOM     24  C   UNL A   1      34.656  30.713  27.827  1.00  0.00     0.338 C 
ATOM     25  O   UNL A   1      33.731  30.083  27.353  1.00  0.00    -0.246 OA
BRANCH  24  26
ATOM     26  C   UNL A   1      35.954  30.127  28.202  1.00  0.00     0.060 A 
ATOM     27  C   UNL A   1      36.997  30.165  27.274  1.00  0.00     0.016 A 
ATOM     28  C   UNL A   1      36.145  29.556  29.460  1.00  0.00     0.016 A 
ATOM     29  C   UNL A   1      38.258  29.687  27.617  1.00  0.00     0.010 A 
ATOM     30  C   UNL A   1      37.407  29.061  29.799  1.00  0.00     0.010 A 
ATOM     31  C   UNL A   1      38.474  29.140  28.886  1.00  0.00    -0.014 A 
BRANCH  31  32
ATOM     32  C   UNL A   1      39.820  28.654  29.262  1.00  0.00     0.031 A 
ATOM     33  C   UNL A   1      40.746  29.537  30.042  1.00  0.00     0.074 A 
ATOM     34  C   UNL A   1      40.206  27.419  28.892  1.00  0.00     0.049 A 
ATOM     35  N   UNL A   1      41.997  29.337  30.366  1.00  0.00    -0.248 NA
ATOM     36  C   UNL A   1      40.191  30.815  30.514  1.00  0.00     0.031 C 
ATOM     37  C   UNL A   1      39.371  26.451  28.180  1.00  0.00     0.029 A 
ATOM     38  N   UNL A   1      41.405  26.772  29.057  1.00  0.00    -0.354 N 
ATOM     39  C   UNL A   1      42.388  30.469  31.068  1.00  0.00     0.074 A 
ATOM     40  C   UNL A   1      41.246  31.360  31.106  1.00  0.00     0.031 C 
ATOM     41  C   UNL A   1      40.085  25.334  27.965  1.00  0.00     0.029 A 
ATOM     42  C   UNL A   1      41.440  25.529  28.474  1.00  0.00     0.049 A 
ATOM     43  H   UNL A   1      42.166  27.162  29.546  1.00  0.00     0.167 HD
ATOM     44  C   UNL A   1      43.591  30.738  31.627  1.00  0.00     0.031 A 
ATOM     45  C   UNL A   1      42.461  24.663  28.332  1.00  0.00     0.031 A 
ATOM     46  C   UNL A   1      44.724  29.851  31.576  1.00  0.00     0.049 A 
ATOM     47  C   UNL A   1      43.814  25.031  28.874  1.00  0.00     0.074 A 
ATOM     48  C   UNL A   1      45.982  30.025  32.127  1.00  0.00     0.029 A 
ATOM     49  N   UNL A   1      44.737  28.625  30.930  1.00  0.00    -0.354 N 
ATOM     50  N   UNL A   1      44.173  26.100  29.542  1.00  0.00    -0.248 NA
ATOM     51  C   UNL A   1      44.905  24.075  28.634  1.00  0.00     0.031 C 
ATOM     52  C   UNL A   1      46.775  28.932  31.760  1.00  0.00     0.029 A 
ATOM     53  C   UNL A   1      45.994  28.049  31.032  1.00  0.00     0.049 A 
ATOM     54  H   UNL A   1      43.967  28.222  30.465  1.00  0.00     0.167 HD
ATOM     55  C   UNL A   1      45.525  25.940  29.814  1.00  0.00     0.074 A 
ATOM     56  C   UNL A   1      45.916  24.660  29.260  1.00  0.00     0.031 C 
ATOM     57  C   UNL A   1      46.369  26.781  30.463  1.00  0.00     0.031 A 
BRANCH  44  58
ATOM     58  C   UNL A   1      43.759  32.070  32.302  1.00  0.00    -0.014 A 
ATOM     59  C   UNL A   1      44.220  33.195  31.601  1.00  0.00     0.009 A 
ATOM     60  C   UNL A   1      43.416  32.209  33.657  1.00  0.00     0.009 A 
ATOM     61  C   UNL A   1      44.362  34.424  32.251  1.00  0.00     0.001 A 
ATOM     62  C   UNL A   1      43.533  33.443  34.297  1.00  0.00     0.001 A 
ATOM     63  C   UNL A   1      44.013  34.548  33.596  1.00  0.00     0.000 A 
ENDBRANCH  44  58
BRANCH  45  64
ATOM     64  C   UNL A   1      42.256  23.386  27.599  1.00  0.00    -0.014 A 
ATOM     65  C   UNL A   1      42.526  23.295  26.226  1.00  0.00     0.009 A 
ATOM     66  C   UNL A   1      41.780  22.249  28.273  1.00  0.00     0.009 A 
ATOM     67  C   UNL A   1      42.304  22.099  25.538  1.00  0.00     0.001 A 
ATOM     68  C   UNL A   1      41.588  21.046  27.589  1.00  0.00     0.001 A 
ATOM     69  C   UNL A   1      41.842  20.975  26.221  1.00  0.00     0.000 A 
ENDBRANCH  45  64
BRANCH  57  70
ATOM     70  C   UNL A   1      47.795  26.333  30.616  1.00  0.00    -0.014 A 
ATOM     71  C   UNL A   1      48.653  26.254  29.508  1.00  0.00     0.009 A 
ATOM     72  C   UNL A   1      48.295  26.021  31.890  1.00  0.00     0.009 A 
ATOM     73  C   UNL A   1      49.978  25.843  29.671  1.00  0.00     0.001 A 
ATOM     74  C   UNL A   1      49.628  25.638  32.052  1.00  0.00     0.001 A 
ATOM     75  C   UNL A   1      50.465  25.541  30.942  1.00  0.00     0.000 A 
ENDBRANCH  57  70
ENDBRANCH  31  32
ENDBRANCH  24  26
ENDBRANCH  23  24
ENDBRANCH  22  23
ENDBRANCH   1  22
TORSDOF 17
ENDMDL
MODEL 3
REMARK VINA RESULT:      -9.5      1.388      2.265
REMARK SMILES C#CC[N@H+](CC(=O)OCCOC(=O)c1ccc(-c2c3nc(c(-c4ccccc4)c4ccc([nH]4)c(-c4ccccc4)c4nc(c(-c5ccccc5)c5ccc2[nH]5)C=C4)C=C3)cc1)[C@H](C)c1ccccc1[N+](=O)[O-]
REMARK SMILES IDX 9 1 8 2 6 3 7 4 5 5 4 6 3 8 2 9 1 10 62 11 63 12 64 13 65 14
REMARK SMILES IDX 69 15 66 16 68 17 67 18 70 19 71 20 72 21 10 22 11 23 12 24
REMARK SMILES IDX 13 25 14 26 15 27 61 28 16 29 60 30 17 31 18 32 19 33 54 34
REMARK SMILES IDX 20 35 59 36 53 37 55 38 21 39 58 40 52 41 51 42 22 44 44 45
REMARK SMILES IDX 29 46 43 47 30 48 33 49 42 50 56 51 31 52 32 53 41 55 57 56
REMARK SMILES IDX 34 57 23 58 24 59 28 60 25 61 27 62 26 63 45 64 46 65 50 66
REMARK SMILES IDX 47 67 49 68 48 69 35 70 36 71 40 72 37 73 39 74 38 75
REMARK H PARENT 4 7 55 43 33 54
REMARK Flexibility Score: inf
ROOT
ATOM      1  C   UNL A   1      37.895  21.126  25.330  1.00  0.00     0.274 C 
ENDROOT
BRANCH   1   2
ATOM      2  O   UNL A   1      36.646  21.069  24.617  1.00  0.00    -0.458 OA
BRANCH   2   3
ATOM      3  C   UNL A   1      36.159  22.236  24.119  1.00  0.00     0.361 C 
ATOM      4  O   UNL A   1      36.741  22.919  23.284  1.00  0.00    -0.245 OA
BRANCH   3   5
ATOM      5  C   UNL A   1      34.864  22.688  24.802  1.00  0.00     0.387 C 
BRANCH   5   6
ATOM      6  N   UNL A   1      33.838  23.408  23.958  1.00  0.00    -0.309 N 
ATOM      7  H   UNL A   1      34.233  24.070  23.290  1.00  0.00     0.349 HD
BRANCH   6   8
ATOM      8  C   UNL A   1      33.160  22.400  23.128  1.00  0.00     0.354 C 
BRANCH   8   9
ATOM      9  C   UNL A   1      32.845  21.047  23.745  1.00  0.00    -0.047 C 
ATOM     10  C   UNL A   1      32.575  19.887  24.276  1.00  0.00     0.010 C 
ENDBRANCH   8   9
ENDBRANCH   6   8
BRANCH   6  11
ATOM     11  C   UNL A   1      32.995  24.286  24.839  1.00  0.00     0.220 C 
ATOM     12  C   UNL A   1      31.472  24.033  24.723  1.00  0.00     0.081 C 
BRANCH  11  13
ATOM     13  C   UNL A   1      33.343  25.790  24.840  1.00  0.00     0.087 A 
ATOM     14  C   UNL A   1      33.723  26.422  26.054  1.00  0.00     0.017 A 
ATOM     15  C   UNL A   1      33.244  26.636  23.708  1.00  0.00     0.278 A 
ATOM     16  C   UNL A   1      33.940  27.803  26.151  1.00  0.00     0.001 A 
ATOM     17  C   UNL A   1      33.456  28.031  23.811  1.00  0.00     0.086 A 
ATOM     18  C   UNL A   1      33.790  28.610  25.033  1.00  0.00     0.007 A 
BRANCH  15  19
ATOM     19  N   UNL A   1      32.939  26.127  22.365  1.00  0.00     0.063 N 
ATOM     20  O   UNL A   1      31.785  26.291  21.941  1.00  0.00    -0.258 OA
ATOM     21  O   UNL A   1      33.874  25.679  21.687  1.00  0.00    -0.258 OA
ENDBRANCH  15  19
ENDBRANCH  11  13
ENDBRANCH   6  11
ENDBRANCH   5   6
ENDBRANCH   3   5
ENDBRANCH   2   3
ENDBRANCH   1   2
BRANCH   1  22
ATOM     22  C   UNL A   1      38.804  19.949  24.962  1.00  0.00     0.275 C 
BRANCH  22  23
ATOM     23  O   UNL A   1      39.566  19.510  26.102  1.00  0.00    -0.458 OA
BRANCH  23  24
ATOM     24  C   UNL A   1      40.910  19.671  26.018  1.00  0.00     0.338 C 
ATOM     25  O   UNL A   1      41.712  18.919  25.500  1.00  0.00    -0.246 OA
BRANCH  24  26
ATOM     26  C   UNL A   1      41.243  21.005  26.545  1.00  0.00     0.060 A 
ATOM     27  C   UNL A   1      41.035  21.258  27.903  1.00  0.00     0.016 A 
ATOM     28  C   UNL A   1      41.768  21.993  25.713  1.00  0.00     0.016 A 
ATOM     29  C   UNL A   1      41.405  22.482  28.453  1.00  0.00     0.010 A 
ATOM     30  C   UNL A   1      42.124  23.228  26.262  1.00  0.00     0.010 A 
ATOM     31  C   UNL A   1      41.961  23.472  27.637  1.00  0.00    -0.014 A 
BRANCH  31  32
ATOM     32  C   UNL A   1      42.378  24.765  28.224  1.00  0.00     0.031 A 
ATOM     33  C   UNL A   1      41.370  25.853  28.431  1.00  0.00     0.074 A 
ATOM     34  C   UNL A   1      43.666  24.955  28.561  1.00  0.00     0.049 A 
ATOM     35  N   UNL A   1      41.559  27.087  28.823  1.00  0.00    -0.248 NA
ATOM     36  C   UNL A   1      39.966  25.510  28.157  1.00  0.00     0.031 C 
ATOM     37  C   UNL A   1      44.724  23.949  28.457  1.00  0.00     0.029 A 
ATOM     38  N   UNL A   1      44.305  26.065  29.051  1.00  0.00    -0.354 N 
ATOM     39  C   UNL A   1      40.301  27.675  28.829  1.00  0.00     0.074 A 
ATOM     40  C   UNL A   1      39.360  26.668  28.384  1.00  0.00     0.031 C 
ATOM     41  C   UNL A   1      45.883  24.491  28.867  1.00  0.00     0.029 A 
ATOM     42  C   UNL A   1      45.659  25.893  29.209  1.00  0.00     0.049 A 
ATOM     43  H   UNL A   1      43.839  26.905  29.269  1.00  0.00     0.167 HD
ATOM     44  C   UNL A   1      39.966  28.941  29.173  1.00  0.00     0.031 A 
ATOM     45  C   UNL A   1      46.615  26.776  29.551  1.00  0.00     0.031 A 
ATOM     46  C   UNL A   1      40.909  29.939  29.606  1.00  0.00     0.049 A 
ATOM     47  C   UNL A   1      46.229  28.201  29.832  1.00  0.00     0.074 A 
ATOM     48  C   UNL A   1      40.667  31.245  29.993  1.00  0.00     0.029 A 
ATOM     49  N   UNL A   1      42.278  29.741  29.700  1.00  0.00    -0.354 N 
ATOM     50  N   UNL A   1      45.037  28.747  29.841  1.00  0.00    -0.248 NA
ATOM     51  C   UNL A   1      47.322  29.135  30.139  1.00  0.00     0.031 C 
ATOM     52  C   UNL A   1      41.896  31.857  30.262  1.00  0.00     0.029 A 
ATOM     53  C   UNL A   1      42.899  30.915  30.100  1.00  0.00     0.049 A 
ATOM     54  H   UNL A   1      42.742  28.893  29.510  1.00  0.00     0.167 HD
ATOM     55  C   UNL A   1      45.234  30.082  30.168  1.00  0.00     0.074 A 
ATOM     56  C   UNL A   1      46.658  30.258  30.373  1.00  0.00     0.031 C 
ATOM     57  C   UNL A   1      44.318  31.075  30.285  1.00  0.00     0.031 A 
BRANCH  44  58
ATOM     58  C   UNL A   1      38.520  29.333  29.049  1.00  0.00    -0.014 A 
ATOM     59  C   UNL A   1      37.657  29.314  30.155  1.00  0.00     0.009 A 
ATOM     60  C   UNL A   1      38.024  29.764  27.808  1.00  0.00     0.009 A 
ATOM     61  C   UNL A   1      36.319  29.688  30.015  1.00  0.00     0.001 A 
ATOM     62  C   UNL A   1      36.693  30.163  27.676  1.00  0.00     0.001 A 
ATOM     63  C   UNL A   1      35.839  30.118  28.777  1.00  0.00     0.000 A 
ENDBRANCH  44  58
BRANCH  45  64
ATOM     64  C   UNL A   1      48.039  26.350  29.598  1.00  0.00    -0.014 A 
ATOM     65  C   UNL A   1      48.591  25.819  30.773  1.00  0.00     0.009 A 
ATOM     66  C   UNL A   1      48.857  26.481  28.464  1.00  0.00     0.009 A 
ATOM     67  C   UNL A   1      49.937  25.447  30.817  1.00  0.00     0.001 A 
ATOM     68  C   UNL A   1      50.194  26.081  28.502  1.00  0.00     0.001 A 
ATOM     69  C   UNL A   1      50.735  25.572  29.681  1.00  0.00     0.000 A 
ENDBRANCH  45  64
BRANCH  57  70
ATOM     70  C   UNL A   1      44.830  32.436  30.663  1.00  0.00    -0.014 A 
ATOM     71  C   UNL A   1      45.164  33.383  29.682  1.00  0.00     0.009 A 
ATOM     72  C   UNL A   1      44.945  32.787  32.018  1.00  0.00     0.009 A 
ATOM     73  C   UNL A   1      45.631  34.646  30.052  1.00  0.00     0.001 A 
ATOM     74  C   UNL A   1      45.385  34.060  32.383  1.00  0.00     0.001 A 
ATOM     75  C   UNL A   1      45.736  34.985  31.401  1.00  0.00     0.000 A 
ENDBRANCH  57  70
ENDBRANCH  31  32
ENDBRANCH  24  26
ENDBRANCH  23  24
ENDBRANCH  22  23
ENDBRANCH   1  22
TORSDOF 17
ENDMDL
