MODEL 1
REMARK VINA RESULT:      -9.8      0.000      0.000
REMARK SMILES Nc1nnc(S[C@H](F)C(=O)OCCOC(=O)c2ccc(-c3c4nc(c(-c5ccccc5)c5ccc([nH]5)c(-c5ccccc5)c5nc(c(-c6ccccc6)c6ccc3[nH]6)C=C5)C=C4)cc2)s1
REMARK SMILES IDX 12 1 11 2 9 3 10 4 7 5 8 6 6 7 5 8 2 9 3 10 65 11 4 12 1 13
REMARK SMILES IDX 13 16 14 17 15 18 16 19 17 20 18 21 64 22 19 23 63 24 20 25
REMARK SMILES IDX 21 26 22 27 57 28 23 29 62 30 56 31 58 32 24 33 61 34 55 35
REMARK SMILES IDX 54 36 25 38 47 39 32 40 46 41 33 42 36 43 45 44 59 45 34 46
REMARK SMILES IDX 35 47 44 49 60 50 37 51 26 52 27 53 31 54 28 55 30 56 29 57
REMARK SMILES IDX 48 58 49 59 53 60 50 61 52 62 51 63 38 64 39 65 43 66 40 67
REMARK SMILES IDX 42 68 41 69
REMARK H PARENT 1 14 1 15 58 37 36 48
REMARK Flexibility Score: inf
ROOT
ATOM      1  C   UNL A   1      45.744  21.145  24.866  1.00  0.00     0.274 C 
ENDROOT
BRANCH   1   2
ATOM      2  O   UNL A   1      46.460  20.005  25.373  1.00  0.00    -0.459 OA
BRANCH   2   3
ATOM      3  C   UNL A   1      45.816  18.806  25.295  1.00  0.00     0.351 C 
ATOM      4  O   UNL A   1      46.360  17.707  25.379  1.00  0.00    -0.248 OA
BRANCH   3   5
ATOM      5  C   UNL A   1      44.323  18.971  25.103  1.00  0.00     0.340 C 
ATOM      6  F   UNL A   1      43.896  18.452  23.912  1.00  0.00    -0.222 F 
BRANCH   5   7
ATOM      7  S   UNL A   1      43.270  18.286  26.404  1.00  0.00    -0.044 SA
BRANCH   7   8
ATOM      8  C   UNL A   1      41.884  19.332  26.511  1.00  0.00     0.179 A 
ATOM      9  C   UNL A   1      40.329  21.104  26.826  1.00  0.00     0.203 A 
ATOM     10  N   UNL A   1      39.903  20.212  25.961  1.00  0.00    -0.120 NA
ATOM     11  S   UNL A   1      41.863  20.732  27.503  1.00  0.00    -0.069 S 
ATOM     12  N   UNL A   1      40.823  19.207  25.750  1.00  0.00    -0.130 NA
BRANCH   9  13
ATOM     13  N   UNL A   1      39.659  22.216  27.154  1.00  0.00    -0.374 N 
ATOM     14  H   UNL A   1      39.694  23.004  26.564  1.00  0.00     0.159 HD
ATOM     15  H   UNL A   1      39.132  22.246  27.985  1.00  0.00     0.159 HD
ENDBRANCH   9  13
ENDBRANCH   7   8
ENDBRANCH   5   7
ENDBRANCH   3   5
ENDBRANCH   2   3
ENDBRANCH   1   2
BRANCH   1  16
ATOM     16  C   UNL A   1      45.473  22.192  25.953  1.00  0.00     0.275 C 
BRANCH  16  17
ATOM     17  O   UNL A   1      44.172  22.795  25.815  1.00  0.00    -0.458 OA
BRANCH  17  18
ATOM     18  C   UNL A   1      44.175  24.085  25.407  1.00  0.00     0.338 C 
ATOM     19  O   UNL A   1      44.528  24.513  24.321  1.00  0.00    -0.246 OA
BRANCH  18  20
ATOM     20  C   UNL A   1      43.519  24.935  26.418  1.00  0.00     0.060 A 
ATOM     21  C   UNL A   1      43.926  26.272  26.500  1.00  0.00     0.016 A 
ATOM     22  C   UNL A   1      42.561  24.431  27.300  1.00  0.00     0.016 A 
ATOM     23  C   UNL A   1      43.379  27.112  27.464  1.00  0.00     0.010 A 
ATOM     24  C   UNL A   1      42.019  25.274  28.275  1.00  0.00     0.010 A 
ATOM     25  C   UNL A   1      42.435  26.615  28.368  1.00  0.00    -0.014 A 
BRANCH  25  26
ATOM     26  C   UNL A   1      41.948  27.486  29.459  1.00  0.00     0.031 A 
ATOM     27  C   UNL A   1      42.645  27.468  30.787  1.00  0.00     0.074 A 
ATOM     28  C   UNL A   1      40.902  28.307  29.252  1.00  0.00     0.049 A 
ATOM     29  N   UNL A   1      42.359  28.125  31.882  1.00  0.00    -0.248 NA
ATOM     30  C   UNL A   1      43.822  26.593  30.897  1.00  0.00     0.031 C 
ATOM     31  C   UNL A   1      40.172  28.442  27.992  1.00  0.00     0.029 A 
ATOM     32  N   UNL A   1      40.274  29.179  30.103  1.00  0.00    -0.354 N 
ATOM     33  C   UNL A   1      43.308  27.731  32.815  1.00  0.00     0.074 A 
ATOM     34  C   UNL A   1      44.166  26.763  32.166  1.00  0.00     0.031 C 
ATOM     35  C   UNL A   1      39.186  29.339  28.156  1.00  0.00     0.029 A 
ATOM     36  C   UNL A   1      39.194  29.811  29.538  1.00  0.00     0.049 A 
ATOM     37  H   UNL A   1      40.568  29.336  31.030  1.00  0.00     0.167 HD
ATOM     38  C   UNL A   1      43.449  28.138  34.099  1.00  0.00     0.031 A 
ATOM     39  C   UNL A   1      38.297  30.653  30.083  1.00  0.00     0.031 A 
ATOM     40  C   UNL A   1      42.586  29.092  34.745  1.00  0.00     0.049 A 
ATOM     41  C   UNL A   1      38.437  31.044  31.528  1.00  0.00     0.074 A 
ATOM     42  C   UNL A   1      42.659  29.585  36.036  1.00  0.00     0.029 A 
ATOM     43  N   UNL A   1      41.485  29.688  34.149  1.00  0.00    -0.354 N 
ATOM     44  N   UNL A   1      39.353  30.685  32.396  1.00  0.00    -0.248 NA
ATOM     45  C   UNL A   1      37.424  31.961  32.068  1.00  0.00     0.031 C 
ATOM     46  C   UNL A   1      41.567  30.437  36.238  1.00  0.00     0.029 A 
ATOM     47  C   UNL A   1      40.850  30.520  35.055  1.00  0.00     0.049 A 
ATOM     48  H   UNL A   1      41.198  29.541  33.219  1.00  0.00     0.167 HD
ATOM     49  C   UNL A   1      39.038  31.345  33.577  1.00  0.00     0.074 A 
ATOM     50  C   UNL A   1      37.857  32.140  33.308  1.00  0.00     0.031 C 
ATOM     51  C   UNL A   1      39.670  31.297  34.775  1.00  0.00     0.031 A 
BRANCH  38  52
ATOM     52  C   UNL A   1      44.553  27.508  34.901  1.00  0.00    -0.014 A 
ATOM     53  C   UNL A   1      45.837  28.074  34.958  1.00  0.00     0.009 A 
ATOM     54  C   UNL A   1      44.299  26.330  35.621  1.00  0.00     0.009 A 
ATOM     55  C   UNL A   1      46.852  27.450  35.686  1.00  0.00     0.001 A 
ATOM     56  C   UNL A   1      45.308  25.724  36.370  1.00  0.00     0.001 A 
ATOM     57  C   UNL A   1      46.587  26.278  36.394  1.00  0.00     0.000 A 
ENDBRANCH  38  52
BRANCH  39  58
ATOM     58  C   UNL A   1      37.165  31.155  29.262  1.00  0.00    -0.014 A 
ATOM     59  C   UNL A   1      36.058  30.339  28.983  1.00  0.00     0.009 A 
ATOM     60  C   UNL A   1      37.186  32.466  28.757  1.00  0.00     0.009 A 
ATOM     61  C   UNL A   1      35.005  30.821  28.202  1.00  0.00     0.001 A 
ATOM     62  C   UNL A   1      36.119  32.953  27.999  1.00  0.00     0.001 A 
ATOM     63  C   UNL A   1      35.033  32.128  27.717  1.00  0.00     0.000 A 
ENDBRANCH  39  58
BRANCH  51  64
ATOM     64  C   UNL A   1      39.111  32.151  35.880  1.00  0.00    -0.014 A 
ATOM     65  C   UNL A   1      38.154  31.649  36.775  1.00  0.00     0.009 A 
ATOM     66  C   UNL A   1      39.583  33.462  36.051  1.00  0.00     0.009 A 
ATOM     67  C   UNL A   1      37.658  32.455  37.801  1.00  0.00     0.001 A 
ATOM     68  C   UNL A   1      39.106  34.256  37.094  1.00  0.00     0.001 A 
ATOM     69  C   UNL A   1      38.137  33.755  37.963  1.00  0.00     0.000 A 
ENDBRANCH  51  64
ENDBRANCH  25  26
ENDBRANCH  18  20
ENDBRANCH  17  18
ENDBRANCH  16  17
ENDBRANCH   1  16
TORSDOF 14
ENDMDL
MODEL 2
REMARK VINA RESULT:      -9.4      0.623      6.368
REMARK SMILES Nc1nnc(S[C@H](F)C(=O)OCCOC(=O)c2ccc(-c3c4nc(c(-c5ccccc5)c5ccc([nH]5)c(-c5ccccc5)c5nc(c(-c6ccccc6)c6ccc3[nH]6)C=C5)C=C4)cc2)s1
REMARK SMILES IDX 12 1 11 2 9 3 10 4 7 5 8 6 6 7 5 8 2 9 3 10 65 11 4 12 1 13
REMARK SMILES IDX 13 16 14 17 15 18 16 19 17 20 18 21 64 22 19 23 63 24 20 25
REMARK SMILES IDX 21 26 22 27 57 28 23 29 62 30 56 31 58 32 24 33 61 34 55 35
REMARK SMILES IDX 54 36 25 38 47 39 32 40 46 41 33 42 36 43 45 44 59 45 34 46
REMARK SMILES IDX 35 47 44 49 60 50 37 51 26 52 27 53 31 54 28 55 30 56 29 57
REMARK SMILES IDX 48 58 49 59 53 60 50 61 52 62 51 63 38 64 39 65 43 66 40 67
REMARK SMILES IDX 42 68 41 69
REMARK H PARENT 1 14 1 15 58 37 36 48
REMARK Flexibility Score: inf
ROOT
ATOM      1  C   UNL A   1      45.693  21.447  24.770  1.00  0.00     0.274 C 
ENDROOT
BRANCH   1   2
ATOM      2  O   UNL A   1      46.481  20.330  25.221  1.00  0.00    -0.459 OA
BRANCH   2   3
ATOM      3  C   UNL A   1      45.880  19.108  25.163  1.00  0.00     0.351 C 
ATOM      4  O   UNL A   1      46.443  18.036  25.376  1.00  0.00    -0.248 OA
BRANCH   3   5
ATOM      5  C   UNL A   1      44.411  19.210  24.814  1.00  0.00     0.340 C 
ATOM      6  F   UNL A   1      44.154  18.792  23.537  1.00  0.00    -0.222 F 
BRANCH   5   7
ATOM      7  S   UNL A   1      43.268  18.338  25.911  1.00  0.00    -0.044 SA
BRANCH   7   8
ATOM      8  C   UNL A   1      41.936  19.423  26.190  1.00  0.00     0.179 A 
ATOM      9  C   UNL A   1      40.482  21.262  26.590  1.00  0.00     0.203 A 
ATOM     10  N   UNL A   1      39.867  20.252  26.020  1.00  0.00    -0.120 NA
ATOM     11  S   UNL A   1      42.143  20.966  26.911  1.00  0.00    -0.069 S 
ATOM     12  N   UNL A   1      40.719  19.203  25.752  1.00  0.00    -0.130 NA
BRANCH   9  13
ATOM     13  N   UNL A   1      39.899  22.430  26.888  1.00  0.00    -0.374 N 
ATOM     14  H   UNL A   1      39.947  22.784  27.805  1.00  0.00     0.159 HD
ATOM     15  H   UNL A   1      39.421  22.935  26.190  1.00  0.00     0.159 HD
ENDBRANCH   9  13
ENDBRANCH   7   8
ENDBRANCH   5   7
ENDBRANCH   3   5
ENDBRANCH   2   3
ENDBRANCH   1   2
BRANCH   1  16
ATOM     16  C   UNL A   1      45.878  22.685  25.655  1.00  0.00     0.275 C 
BRANCH  16  17
ATOM     17  O   UNL A   1      44.628  23.346  25.933  1.00  0.00    -0.458 OA
BRANCH  17  18
ATOM     18  C   UNL A   1      44.601  24.669  25.648  1.00  0.00     0.338 C 
ATOM     19  O   UNL A   1      44.985  25.210  24.625  1.00  0.00    -0.246 OA
BRANCH  18  20
ATOM     20  C   UNL A   1      43.869  25.396  26.702  1.00  0.00     0.060 A 
ATOM     21  C   UNL A   1      44.201  26.741  26.906  1.00  0.00     0.016 A 
ATOM     22  C   UNL A   1      42.914  24.771  27.506  1.00  0.00     0.016 A 
ATOM     23  C   UNL A   1      43.580  27.468  27.916  1.00  0.00     0.010 A 
ATOM     24  C   UNL A   1      42.298  25.500  28.528  1.00  0.00     0.010 A 
ATOM     25  C   UNL A   1      42.638  26.849  28.744  1.00  0.00    -0.014 A 
BRANCH  25  26
ATOM     26  C   UNL A   1      42.071  27.599  29.886  1.00  0.00     0.031 A 
ATOM     27  C   UNL A   1      40.767  28.322  29.721  1.00  0.00     0.074 A 
ATOM     28  C   UNL A   1      42.709  27.609  31.070  1.00  0.00     0.049 A 
ATOM     29  N   UNL A   1      40.117  29.064  30.581  1.00  0.00    -0.248 NA
ATOM     30  C   UNL A   1      40.108  28.194  28.412  1.00  0.00     0.031 C 
ATOM     31  C   UNL A   1      43.960  26.910  31.362  1.00  0.00     0.029 A 
ATOM     32  N   UNL A   1      42.389  28.237  32.247  1.00  0.00    -0.354 N 
ATOM     33  C   UNL A   1      38.982  29.504  29.914  1.00  0.00     0.074 A 
ATOM     34  C   UNL A   1      39.042  28.965  28.571  1.00  0.00     0.031 C 
ATOM     35  C   UNL A   1      44.307  27.155  32.636  1.00  0.00     0.029 A 
ATOM     36  C   UNL A   1      43.325  28.056  33.234  1.00  0.00     0.049 A 
ATOM     37  H   UNL A   1      41.568  28.767  32.371  1.00  0.00     0.167 HD
ATOM     38  C   UNL A   1      37.981  30.290  30.378  1.00  0.00     0.031 A 
ATOM     39  C   UNL A   1      43.396  28.581  34.472  1.00  0.00     0.031 A 
ATOM     40  C   UNL A   1      37.932  30.835  31.709  1.00  0.00     0.049 A 
ATOM     41  C   UNL A   1      42.305  29.501  34.945  1.00  0.00     0.074 A 
ATOM     42  C   UNL A   1      36.950  31.625  32.281  1.00  0.00     0.029 A 
ATOM     43  N   UNL A   1      38.913  30.653  32.672  1.00  0.00    -0.354 N 
ATOM     44  N   UNL A   1      41.223  29.891  34.315  1.00  0.00    -0.248 NA
ATOM     45  C   UNL A   1      42.441  30.047  36.302  1.00  0.00     0.031 C 
ATOM     46  C   UNL A   1      37.367  31.968  33.573  1.00  0.00     0.029 A 
ATOM     47  C   UNL A   1      38.578  31.342  33.824  1.00  0.00     0.049 A 
ATOM     48  H   UNL A   1      39.728  30.113  32.553  1.00  0.00     0.167 HD
ATOM     49  C   UNL A   1      40.541  30.713  35.203  1.00  0.00     0.074 A 
ATOM     50  C   UNL A   1      41.323  30.750  36.422  1.00  0.00     0.031 C 
ATOM     51  C   UNL A   1      39.372  31.376  35.026  1.00  0.00     0.031 A 
BRANCH  38  52
ATOM     52  C   UNL A   1      36.885  30.646  29.413  1.00  0.00    -0.014 A 
ATOM     53  C   UNL A   1      35.920  29.705  29.017  1.00  0.00     0.009 A 
ATOM     54  C   UNL A   1      36.812  31.950  28.900  1.00  0.00     0.009 A 
ATOM     55  C   UNL A   1      34.931  30.055  28.095  1.00  0.00     0.001 A 
ATOM     56  C   UNL A   1      35.805  32.304  28.001  1.00  0.00     0.001 A 
ATOM     57  C   UNL A   1      34.872  31.354  27.590  1.00  0.00     0.000 A 
ENDBRANCH  38  52
BRANCH  39  58
ATOM     58  C   UNL A   1      44.565  28.273  35.336  1.00  0.00    -0.014 A 
ATOM     59  C   UNL A   1      45.715  29.076  35.306  1.00  0.00     0.009 A 
ATOM     60  C   UNL A   1      44.529  27.171  36.205  1.00  0.00     0.009 A 
ATOM     61  C   UNL A   1      46.811  28.770  36.118  1.00  0.00     0.001 A 
ATOM     62  C   UNL A   1      45.615  26.884  37.035  1.00  0.00     0.001 A 
ATOM     63  C   UNL A   1      46.758  27.680  36.985  1.00  0.00     0.000 A 
ENDBRANCH  39  58
BRANCH  51  64
ATOM     64  C   UNL A   1      38.855  32.178  36.188  1.00  0.00    -0.014 A 
ATOM     65  C   UNL A   1      37.980  31.615  37.130  1.00  0.00     0.009 A 
ATOM     66  C   UNL A   1      39.285  33.503  36.364  1.00  0.00     0.009 A 
ATOM     67  C   UNL A   1      37.522  32.375  38.208  1.00  0.00     0.001 A 
ATOM     68  C   UNL A   1      38.848  34.250  37.458  1.00  0.00     0.001 A 
ATOM     69  C   UNL A   1      37.959  33.688  38.374  1.00  0.00     0.000 A 
ENDBRANCH  51  64
ENDBRANCH  25  26
ENDBRANCH  18  20
ENDBRANCH  17  18
ENDBRANCH  16  17
ENDBRANCH   1  16
TORSDOF 14
ENDMDL
MODEL 3
REMARK VINA RESULT:      -9.2      3.459      4.538
REMARK SMILES Nc1nnc(S[C@H](F)C(=O)OCCOC(=O)c2ccc(-c3c4nc(c(-c5ccccc5)c5ccc([nH]5)c(-c5ccccc5)c5nc(c(-c6ccccc6)c6ccc3[nH]6)C=C5)C=C4)cc2)s1
REMARK SMILES IDX 12 1 11 2 9 3 10 4 7 5 8 6 6 7 5 8 2 9 3 10 65 11 4 12 1 13
REMARK SMILES IDX 13 16 14 17 15 18 16 19 17 20 18 21 64 22 19 23 63 24 20 25
REMARK SMILES IDX 21 26 22 27 57 28 23 29 62 30 56 31 58 32 24 33 61 34 55 35
REMARK SMILES IDX 54 36 25 38 47 39 32 40 46 41 33 42 36 43 45 44 59 45 34 46
REMARK SMILES IDX 35 47 44 49 60 50 37 51 26 52 27 53 31 54 28 55 30 56 29 57
REMARK SMILES IDX 48 58 49 59 53 60 50 61 52 62 51 63 38 64 39 65 43 66 40 67
REMARK SMILES IDX 42 68 41 69
REMARK H PARENT 1 14 1 15 58 37 36 48
REMARK Flexibility Score: inf
ROOT
ATOM      1  C   UNL A   1      42.406  21.707  27.388  1.00  0.00     0.274 C 
ENDROOT
BRANCH   1   2
ATOM      2  O   UNL A   1      42.902  22.801  26.596  1.00  0.00    -0.459 OA
BRANCH   2   3
ATOM      3  C   UNL A   1      44.241  23.041  26.673  1.00  0.00     0.351 C 
ATOM      4  O   UNL A   1      44.938  22.829  27.663  1.00  0.00    -0.248 OA
BRANCH   3   5
ATOM      5  C   UNL A   1      44.798  23.595  25.379  1.00  0.00     0.340 C 
ATOM      6  F   UNL A   1      46.134  23.875  25.472  1.00  0.00    -0.222 F 
BRANCH   5   7
ATOM      7  S   UNL A   1      44.556  22.578  23.904  1.00  0.00    -0.044 SA
BRANCH   7   8
ATOM      8  C   UNL A   1      44.792  20.928  24.406  1.00  0.00     0.179 A 
ATOM      9  C   UNL A   1      45.567  18.848  25.259  1.00  0.00     0.203 A 
ATOM     10  N   UNL A   1      44.258  18.897  25.171  1.00  0.00    -0.120 NA
ATOM     11  S   UNL A   1      46.350  20.275  24.711  1.00  0.00    -0.069 S 
ATOM     12  N   UNL A   1      43.809  20.117  24.715  1.00  0.00    -0.130 NA
BRANCH   9  13
ATOM     13  N   UNL A   1      46.253  17.803  25.741  1.00  0.00    -0.374 N 
ATOM     14  H   UNL A   1      46.149  16.914  25.330  1.00  0.00     0.159 HD
ATOM     15  H   UNL A   1      46.860  17.923  26.507  1.00  0.00     0.159 HD
ENDBRANCH   9  13
ENDBRANCH   7   8
ENDBRANCH   5   7
ENDBRANCH   3   5
ENDBRANCH   2   3
ENDBRANCH   1   2
BRANCH   1  16
ATOM     16  C   UNL A   1      40.927  21.411  27.112  1.00  0.00     0.275 C 
BRANCH  16  17
ATOM     17  O   UNL A   1      40.422  22.164  25.993  1.00  0.00    -0.458 OA
BRANCH  17  18
ATOM     18  C   UNL A   1      39.234  22.778  26.202  1.00  0.00     0.338 C 
ATOM     19  O   UNL A   1      38.122  22.302  26.047  1.00  0.00    -0.246 OA
BRANCH  18  20
ATOM     20  C   UNL A   1      39.451  24.098  26.823  1.00  0.00     0.060 A 
ATOM     21  C   UNL A   1      40.170  25.047  26.087  1.00  0.00     0.016 A 
ATOM     22  C   UNL A   1      39.005  24.391  28.113  1.00  0.00     0.016 A 
ATOM     23  C   UNL A   1      40.448  26.294  26.636  1.00  0.00     0.010 A 
ATOM     24  C   UNL A   1      39.294  25.641  28.669  1.00  0.00     0.010 A 
ATOM     25  C   UNL A   1      40.028  26.593  27.936  1.00  0.00    -0.014 A 
BRANCH  25  26
ATOM     26  C   UNL A   1      40.429  27.877  28.551  1.00  0.00     0.031 A 
ATOM     27  C   UNL A   1      41.834  28.053  29.044  1.00  0.00     0.074 A 
ATOM     28  C   UNL A   1      39.545  28.887  28.641  1.00  0.00     0.049 A 
ATOM     29  N   UNL A   1      42.379  29.081  29.642  1.00  0.00    -0.248 NA
ATOM     30  C   UNL A   1      42.748  26.919  28.837  1.00  0.00     0.031 C 
ATOM     31  C   UNL A   1      38.165  28.848  28.159  1.00  0.00     0.029 A 
ATOM     32  N   UNL A   1      39.682  30.143  29.176  1.00  0.00    -0.354 N 
ATOM     33  C   UNL A   1      43.693  28.714  29.898  1.00  0.00     0.074 A 
ATOM     34  C   UNL A   1      43.859  27.361  29.409  1.00  0.00     0.031 C 
ATOM     35  C   UNL A   1      37.577  30.025  28.429  1.00  0.00     0.029 A 
ATOM     36  C   UNL A   1      38.526  30.883  29.134  1.00  0.00     0.049 A 
ATOM     37  H   UNL A   1      40.526  30.480  29.554  1.00  0.00     0.167 HD
ATOM     38  C   UNL A   1      44.673  29.438  30.489  1.00  0.00     0.031 A 
ATOM     39  C   UNL A   1      38.257  32.103  29.633  1.00  0.00     0.031 A 
ATOM     40  C   UNL A   1      44.501  30.778  30.986  1.00  0.00     0.049 A 
ATOM     41  C   UNL A   1      39.343  32.865  30.342  1.00  0.00     0.074 A 
ATOM     42  C   UNL A   1      45.438  31.604  31.582  1.00  0.00     0.029 A 
ATOM     43  N   UNL A   1      43.308  31.484  30.951  1.00  0.00    -0.354 N 
ATOM     44  N   UNL A   1      40.590  32.518  30.557  1.00  0.00    -0.248 NA
ATOM     45  C   UNL A   1      38.987  34.189  30.871  1.00  0.00     0.031 C 
ATOM     46  C   UNL A   1      44.795  32.788  31.960  1.00  0.00     0.029 A 
ATOM     47  C   UNL A   1      43.474  32.723  31.545  1.00  0.00     0.049 A 
ATOM     48  H   UNL A   1      42.466  31.152  30.562  1.00  0.00     0.167 HD
ATOM     49  C   UNL A   1      41.171  33.586  31.228  1.00  0.00     0.074 A 
ATOM     50  C   UNL A   1      40.145  34.599  31.368  1.00  0.00     0.031 C 
ATOM     51  C   UNL A   1      42.440  33.716  31.685  1.00  0.00     0.031 A 
BRANCH  38  52
ATOM     52  C   UNL A   1      46.005  28.767  30.676  1.00  0.00    -0.014 A 
ATOM     53  C   UNL A   1      46.300  28.029  31.834  1.00  0.00     0.009 A 
ATOM     54  C   UNL A   1      46.978  28.870  29.670  1.00  0.00     0.009 A 
ATOM     55  C   UNL A   1      47.558  27.442  31.995  1.00  0.00     0.001 A 
ATOM     56  C   UNL A   1      48.223  28.258  29.822  1.00  0.00     0.001 A 
ATOM     57  C   UNL A   1      48.517  27.554  30.988  1.00  0.00     0.000 A 
ENDBRANCH  38  52
BRANCH  39  58
ATOM     58  C   UNL A   1      36.886  32.663  29.510  1.00  0.00    -0.014 A 
ATOM     59  C   UNL A   1      36.508  33.401  28.378  1.00  0.00     0.009 A 
ATOM     60  C   UNL A   1      35.944  32.454  30.530  1.00  0.00     0.009 A 
ATOM     61  C   UNL A   1      35.219  33.930  28.279  1.00  0.00     0.001 A 
ATOM     62  C   UNL A   1      34.648  32.962  30.415  1.00  0.00     0.001 A 
ATOM     63  C   UNL A   1      34.289  33.705  29.293  1.00  0.00     0.000 A 
ENDBRANCH  39  58
BRANCH  51  64
ATOM     64  C   UNL A   1      42.797  35.012  32.359  1.00  0.00    -0.014 A 
ATOM     65  C   UNL A   1      43.441  36.045  31.658  1.00  0.00     0.009 A 
ATOM     66  C   UNL A   1      42.446  35.217  33.702  1.00  0.00     0.009 A 
ATOM     67  C   UNL A   1      43.751  37.245  32.300  1.00  0.00     0.001 A 
ATOM     68  C   UNL A   1      42.733  36.428  34.333  1.00  0.00     0.001 A 
ATOM     69  C   UNL A   1      43.394  37.437  33.634  1.00  0.00     0.000 A 
ENDBRANCH  51  64
ENDBRANCH  25  26
ENDBRANCH  18  20
ENDBRANCH  17  18
ENDBRANCH  16  17
ENDBRANCH   1  16
TORSDOF 14
ENDMDL
