MODEL 1
REMARK VINA RESULT:     -12.5      0.000      0.000
REMARK SMILES O=C(OCCOC(=O)[C@H]1[C@H]2CC[C@H](C2)[C@@H]1C(=O)N1CCN(c2cccc(Cl)c2)CC1)c1ccc(-c2c3nc(c(-c4ccccc4)c4ccc([nH]4)c(-c4ccccc4)c4nc(c(-c5ccccc5)c5ccc2[nH]5)C=C4)C=C3)cc1
REMARK SMILES IDX 4 1 3 2 2 3 1 4 31 5 32 6 78 7 33 8 77 9 34 10 35 11 36 12
REMARK SMILES IDX 71 13 37 14 76 15 70 16 72 17 38 18 75 19 69 20 68 21 39 23
REMARK SMILES IDX 61 24 46 25 60 26 47 27 50 28 59 29 73 30 48 31 49 32 58 34
REMARK SMILES IDX 74 35 51 36 40 37 41 38 45 39 42 40 44 41 43 42 62 43 63 44
REMARK SMILES IDX 67 45 64 46 66 47 65 48 52 49 53 50 57 51 54 52 56 53 55 54
REMARK SMILES IDX 5 55 6 56 7 57 8 58 9 59 10 60 15 61 11 62 14 63 13 64 12 65
REMARK SMILES IDX 16 66 17 67 18 68 19 69 30 70 20 71 29 72 21 73 22 74 23 75
REMARK SMILES IDX 28 76 24 77 26 78 25 79 27 80
REMARK H PARENT 72 22 50 33
REMARK Flexibility Score: inf
ROOT
ATOM      1  C   UNL A   1      31.523  32.274  27.023  1.00  0.00     0.275 C 
ENDROOT
BRANCH   1   2
ATOM      2  O   UNL A   1      32.077  33.593  27.204  1.00  0.00    -0.458 OA
BRANCH   2   3
ATOM      3  C   UNL A   1      32.915  34.093  28.143  1.00  0.00     0.338 C 
ATOM      4  O   UNL A   1      32.623  35.174  28.656  1.00  0.00    -0.246 OA
BRANCH   3   5
ATOM      5  C   UNL A   1      34.228  33.479  28.546  1.00  0.00     0.060 A 
ATOM      6  C   UNL A   1      35.465  33.630  27.908  1.00  0.00     0.016 A 
ATOM      7  C   UNL A   1      34.213  32.728  29.737  1.00  0.00     0.016 A 
ATOM      8  C   UNL A   1      36.665  33.166  28.495  1.00  0.00     0.010 A 
ATOM      9  C   UNL A   1      35.408  32.314  30.347  1.00  0.00     0.010 A 
ATOM     10  C   UNL A   1      36.662  32.542  29.743  1.00  0.00    -0.014 A 
BRANCH  10  11
ATOM     11  C   UNL A   1      37.892  32.017  30.416  1.00  0.00     0.031 A 
ATOM     12  C   UNL A   1      38.310  30.612  30.097  1.00  0.00     0.074 A 
ATOM     13  C   UNL A   1      38.639  32.696  31.320  1.00  0.00     0.049 A 
ATOM     14  N   UNL A   1      39.329  29.947  30.573  1.00  0.00    -0.248 NA
ATOM     15  C   UNL A   1      37.558  29.900  29.047  1.00  0.00     0.031 C 
ATOM     16  C   UNL A   1      38.606  34.123  31.605  1.00  0.00     0.029 A 
ATOM     17  N   UNL A   1      39.534  32.230  32.262  1.00  0.00    -0.354 N 
ATOM     18  C   UNL A   1      39.427  28.825  29.774  1.00  0.00     0.074 A 
ATOM     19  C   UNL A   1      38.253  28.781  28.934  1.00  0.00     0.031 C 
ATOM     20  C   UNL A   1      39.188  34.368  32.793  1.00  0.00     0.029 A 
ATOM     21  C   UNL A   1      39.771  33.134  33.280  1.00  0.00     0.049 A 
ATOM     22  H   UNL A   1      39.960  31.343  32.214  1.00  0.00     0.167 HD
ATOM     23  C   UNL A   1      40.484  27.994  29.645  1.00  0.00     0.031 A 
ATOM     24  C   UNL A   1      40.417  32.998  34.455  1.00  0.00     0.031 A 
ATOM     25  C   UNL A   1      41.628  28.017  30.506  1.00  0.00     0.049 A 
ATOM     26  C   UNL A   1      41.375  31.849  34.552  1.00  0.00     0.074 A 
ATOM     27  C   UNL A   1      42.757  27.222  30.466  1.00  0.00     0.029 A 
ATOM     28  N   UNL A   1      41.772  28.870  31.590  1.00  0.00    -0.354 N 
ATOM     29  N   UNL A   1      41.546  30.863  33.707  1.00  0.00    -0.248 NA
ATOM     30  C   UNL A   1      42.347  31.887  35.651  1.00  0.00     0.031 C 
ATOM     31  C   UNL A   1      43.549  27.542  31.575  1.00  0.00     0.029 A 
ATOM     32  C   UNL A   1      42.942  28.577  32.268  1.00  0.00     0.049 A 
ATOM     33  H   UNL A   1      41.136  29.578  31.840  1.00  0.00     0.167 HD
ATOM     34  C   UNL A   1      42.725  30.247  34.090  1.00  0.00     0.074 A 
ATOM     35  C   UNL A   1      43.191  30.936  35.278  1.00  0.00     0.031 C 
ATOM     36  C   UNL A   1      43.390  29.246  33.463  1.00  0.00     0.031 A 
BRANCH  23  37
ATOM     37  C   UNL A   1      40.431  27.055  28.481  1.00  0.00    -0.014 A 
ATOM     38  C   UNL A   1      39.918  25.755  28.647  1.00  0.00     0.009 A 
ATOM     39  C   UNL A   1      40.942  27.436  27.237  1.00  0.00     0.009 A 
ATOM     40  C   UNL A   1      39.962  24.838  27.598  1.00  0.00     0.001 A 
ATOM     41  C   UNL A   1      40.962  26.524  26.181  1.00  0.00     0.001 A 
ATOM     42  C   UNL A   1      40.483  25.225  26.365  1.00  0.00     0.000 A 
ENDBRANCH  23  37
BRANCH  24  43
ATOM     43  C   UNL A   1      40.342  34.016  35.540  1.00  0.00    -0.014 A 
ATOM     44  C   UNL A   1      39.425  33.901  36.596  1.00  0.00     0.009 A 
ATOM     45  C   UNL A   1      41.127  35.179  35.458  1.00  0.00     0.009 A 
ATOM     46  C   UNL A   1      39.263  34.944  37.516  1.00  0.00     0.001 A 
ATOM     47  C   UNL A   1      40.972  36.215  36.389  1.00  0.00     0.001 A 
ATOM     48  C   UNL A   1      40.031  36.101  37.410  1.00  0.00     0.000 A 
ENDBRANCH  24  43
BRANCH  36  49
ATOM     49  C   UNL A   1      44.720  28.857  34.036  1.00  0.00    -0.014 A 
ATOM     50  C   UNL A   1      45.894  29.537  33.681  1.00  0.00     0.009 A 
ATOM     51  C   UNL A   1      44.791  27.806  34.962  1.00  0.00     0.009 A 
ATOM     52  C   UNL A   1      47.122  29.141  34.212  1.00  0.00     0.001 A 
ATOM     53  C   UNL A   1      46.013  27.438  35.522  1.00  0.00     0.001 A 
ATOM     54  C   UNL A   1      47.179  28.099  35.138  1.00  0.00     0.000 A 
ENDBRANCH  36  49
ENDBRANCH  10  11
ENDBRANCH   3   5
ENDBRANCH   2   3
ENDBRANCH   1   2
BRANCH   1  55
ATOM     55  C   UNL A   1      32.554  31.156  26.824  1.00  0.00     0.274 C 
BRANCH  55  56
ATOM     56  O   UNL A   1      31.919  29.876  26.812  1.00  0.00    -0.462 OA
BRANCH  56  57
ATOM     57  C   UNL A   1      32.678  28.729  26.847  1.00  0.00     0.310 C 
ATOM     58  O   UNL A   1      33.664  28.565  27.533  1.00  0.00    -0.252 OA
BRANCH  57  59
ATOM     59  C   UNL A   1      32.047  27.697  25.907  1.00  0.00     0.115 C 
ATOM     60  C   UNL A   1      31.825  28.351  24.545  1.00  0.00     0.004 C 
ATOM     61  C   UNL A   1      32.849  26.442  25.470  1.00  0.00     0.096 C 
ATOM     62  C   UNL A   1      33.154  28.829  23.967  1.00  0.00     0.005 C 
ATOM     63  C   UNL A   1      31.467  27.201  23.641  1.00  0.00     0.009 C 
ATOM     64  C   UNL A   1      32.790  26.492  23.918  1.00  0.00     0.003 C 
ATOM     65  C   UNL A   1      33.766  27.552  23.410  1.00  0.00     0.005 C 
BRANCH  61  66
ATOM     66  C   UNL A   1      32.234  25.170  26.058  1.00  0.00     0.226 C 
ATOM     67  O   UNL A   1      31.316  25.253  26.874  1.00  0.00    -0.275 OA
ATOM     68  N   UNL A   1      32.554  23.968  25.448  1.00  0.00    -0.339 N 
ATOM     69  C   UNL A   1      31.440  23.101  25.072  1.00  0.00     0.141 C 
ATOM     70  C   UNL A   1      33.798  23.221  25.720  1.00  0.00     0.141 C 
ATOM     71  C   UNL A   1      31.801  22.255  23.839  1.00  0.00     0.138 C 
ATOM     72  C   UNL A   1      34.198  22.290  24.556  1.00  0.00     0.138 C 
ATOM     73  N   UNL A   1      33.042  21.509  24.104  1.00  0.00    -0.368 N 
BRANCH  73  74
ATOM     74  C   UNL A   1      33.134  20.155  23.877  1.00  0.00     0.038 A 
ATOM     75  C   UNL A   1      32.282  19.526  22.958  1.00  0.00     0.026 A 
ATOM     76  C   UNL A   1      34.091  19.363  24.523  1.00  0.00     0.046 A 
ATOM     77  C   UNL A   1      32.383  18.162  22.678  1.00  0.00     0.004 A 
ATOM     78  C   UNL A   1      34.188  17.997  24.253  1.00  0.00     0.043 A 
ATOM     79  C   UNL A   1      33.341  17.395  23.328  1.00  0.00     0.020 A 
ATOM     80  Cl  UNL A   1      35.370  17.049  25.071  1.00  0.00    -0.084 Cl
ENDBRANCH  73  74
ENDBRANCH  61  66
ENDBRANCH  57  59
ENDBRANCH  56  57
ENDBRANCH  55  56
ENDBRANCH   1  55
TORSDOF 13
ENDMDL
MODEL 2
REMARK VINA RESULT:     -12.2      3.256      6.011
REMARK SMILES O=C(OCCOC(=O)[C@H]1[C@H]2CC[C@H](C2)[C@@H]1C(=O)N1CCN(c2cccc(Cl)c2)CC1)c1ccc(-c2c3nc(c(-c4ccccc4)c4ccc([nH]4)c(-c4ccccc4)c4nc(c(-c5ccccc5)c5ccc2[nH]5)C=C4)C=C3)cc1
REMARK SMILES IDX 4 1 3 2 2 3 1 4 31 5 32 6 78 7 33 8 77 9 34 10 35 11 36 12
REMARK SMILES IDX 71 13 37 14 76 15 70 16 72 17 38 18 75 19 69 20 68 21 39 23
REMARK SMILES IDX 61 24 46 25 60 26 47 27 50 28 59 29 73 30 48 31 49 32 58 34
REMARK SMILES IDX 74 35 51 36 40 37 41 38 45 39 42 40 44 41 43 42 62 43 63 44
REMARK SMILES IDX 67 45 64 46 66 47 65 48 52 49 53 50 57 51 54 52 56 53 55 54
REMARK SMILES IDX 5 55 6 56 7 57 8 58 9 59 10 60 15 61 11 62 14 63 13 64 12 65
REMARK SMILES IDX 16 66 17 67 18 68 19 69 30 70 20 71 29 72 21 73 22 74 23 75
REMARK SMILES IDX 28 76 24 77 26 78 25 79 27 80
REMARK H PARENT 72 22 50 33
REMARK Flexibility Score: inf
ROOT
ATOM      1  C   UNL A   1      29.747  26.561  24.043  1.00  0.00     0.275 C 
ENDROOT
BRANCH   1   2
ATOM      2  O   UNL A   1      30.513  27.682  23.559  1.00  0.00    -0.458 OA
BRANCH   2   3
ATOM      3  C   UNL A   1      30.446  29.005  23.843  1.00  0.00     0.338 C 
ATOM      4  O   UNL A   1      29.608  29.679  23.241  1.00  0.00    -0.246 OA
BRANCH   3   5
ATOM      5  C   UNL A   1      31.377  29.740  24.768  1.00  0.00     0.060 A 
ATOM      6  C   UNL A   1      31.038  30.731  25.697  1.00  0.00     0.016 A 
ATOM      7  C   UNL A   1      32.723  29.328  24.737  1.00  0.00     0.016 A 
ATOM      8  C   UNL A   1      31.970  31.205  26.650  1.00  0.00     0.010 A 
ATOM      9  C   UNL A   1      33.633  29.758  25.715  1.00  0.00     0.010 A 
ATOM     10  C   UNL A   1      33.268  30.695  26.704  1.00  0.00    -0.014 A 
BRANCH  10  11
ATOM     11  C   UNL A   1      34.307  31.158  27.676  1.00  0.00     0.031 A 
ATOM     12  C   UNL A   1      35.436  30.219  27.984  1.00  0.00     0.074 A 
ATOM     13  C   UNL A   1      34.291  32.346  28.331  1.00  0.00     0.049 A 
ATOM     14  N   UNL A   1      36.435  30.404  28.805  1.00  0.00    -0.248 NA
ATOM     15  C   UNL A   1      35.509  28.967  27.209  1.00  0.00     0.031 C 
ATOM     16  C   UNL A   1      33.476  33.512  28.032  1.00  0.00     0.029 A 
ATOM     17  N   UNL A   1      34.944  32.732  29.484  1.00  0.00    -0.354 N 
ATOM     18  C   UNL A   1      37.319  29.380  28.524  1.00  0.00     0.074 A 
ATOM     19  C   UNL A   1      36.657  28.462  27.628  1.00  0.00     0.031 C 
ATOM     20  C   UNL A   1      33.448  34.339  29.093  1.00  0.00     0.029 A 
ATOM     21  C   UNL A   1      34.368  33.832  30.091  1.00  0.00     0.049 A 
ATOM     22  H   UNL A   1      35.739  32.271  29.838  1.00  0.00     0.167 HD
ATOM     23  C   UNL A   1      38.625  29.302  28.862  1.00  0.00     0.031 A 
ATOM     24  C   UNL A   1      34.585  34.394  31.297  1.00  0.00     0.031 A 
ATOM     25  C   UNL A   1      39.267  30.193  29.782  1.00  0.00     0.049 A 
ATOM     26  C   UNL A   1      35.892  34.069  31.952  1.00  0.00     0.074 A 
ATOM     27  C   UNL A   1      40.584  30.206  30.196  1.00  0.00     0.029 A 
ATOM     28  N   UNL A   1      38.619  31.217  30.457  1.00  0.00    -0.354 N 
ATOM     29  N   UNL A   1      36.784  33.182  31.586  1.00  0.00    -0.248 NA
ATOM     30  C   UNL A   1      36.311  34.933  33.063  1.00  0.00     0.031 C 
ATOM     31  C   UNL A   1      40.716  31.190  31.183  1.00  0.00     0.029 A 
ATOM     32  C   UNL A   1      39.495  31.829  31.337  1.00  0.00     0.049 A 
ATOM     33  H   UNL A   1      37.677  31.469  30.331  1.00  0.00     0.167 HD
ATOM     34  C   UNL A   1      37.920  33.471  32.323  1.00  0.00     0.074 A 
ATOM     35  C   UNL A   1      37.581  34.578  33.198  1.00  0.00     0.031 C 
ATOM     36  C   UNL A   1      39.149  32.911  32.223  1.00  0.00     0.031 A 
BRANCH  23  37
ATOM     37  C   UNL A   1      39.413  28.243  28.158  1.00  0.00    -0.014 A 
ATOM     38  C   UNL A   1      40.158  28.567  27.007  1.00  0.00     0.009 A 
ATOM     39  C   UNL A   1      39.372  26.916  28.596  1.00  0.00     0.009 A 
ATOM     40  C   UNL A   1      40.809  27.570  26.283  1.00  0.00     0.001 A 
ATOM     41  C   UNL A   1      40.045  25.924  27.882  1.00  0.00     0.001 A 
ATOM     42  C   UNL A   1      40.753  26.249  26.722  1.00  0.00     0.000 A 
ENDBRANCH  23  37
BRANCH  24  43
ATOM     43  C   UNL A   1      33.678  35.421  31.882  1.00  0.00    -0.014 A 
ATOM     44  C   UNL A   1      34.139  36.701  32.226  1.00  0.00     0.009 A 
ATOM     45  C   UNL A   1      32.353  35.079  32.202  1.00  0.00     0.009 A 
ATOM     46  C   UNL A   1      33.313  37.595  32.917  1.00  0.00     0.001 A 
ATOM     47  C   UNL A   1      31.523  35.981  32.880  1.00  0.00     0.001 A 
ATOM     48  C   UNL A   1      32.009  37.234  33.248  1.00  0.00     0.000 A 
ENDBRANCH  24  43
BRANCH  36  49
ATOM     49  C   UNL A   1      40.235  33.512  33.064  1.00  0.00    -0.014 A 
ATOM     50  C   UNL A   1      40.505  33.037  34.356  1.00  0.00     0.009 A 
ATOM     51  C   UNL A   1      41.012  34.557  32.542  1.00  0.00     0.009 A 
ATOM     52  C   UNL A   1      41.507  33.628  35.126  1.00  0.00     0.001 A 
ATOM     53  C   UNL A   1      42.039  35.119  33.299  1.00  0.00     0.001 A 
ATOM     54  C   UNL A   1      42.278  34.662  34.594  1.00  0.00     0.000 A 
ENDBRANCH  36  49
ENDBRANCH  10  11
ENDBRANCH   3   5
ENDBRANCH   2   3
ENDBRANCH   1   2
BRANCH   1  55
ATOM     55  C   UNL A   1      29.955  26.221  25.524  1.00  0.00     0.274 C 
BRANCH  55  56
ATOM     56  O   UNL A   1      30.619  24.964  25.668  1.00  0.00    -0.462 OA
BRANCH  56  57
ATOM     57  C   UNL A   1      31.969  24.864  25.420  1.00  0.00     0.310 C 
ATOM     58  O   UNL A   1      32.783  25.739  25.626  1.00  0.00    -0.252 OA
BRANCH  57  59
ATOM     59  C   UNL A   1      32.263  23.461  24.881  1.00  0.00     0.115 C 
ATOM     60  C   UNL A   1      31.539  23.291  23.547  1.00  0.00     0.004 C 
ATOM     61  C   UNL A   1      33.705  23.074  24.451  1.00  0.00     0.096 C 
ATOM     62  C   UNL A   1      32.021  24.338  22.548  1.00  0.00     0.005 C 
ATOM     63  C   UNL A   1      32.106  22.013  22.984  1.00  0.00     0.009 C 
ATOM     64  C   UNL A   1      33.527  22.569  22.992  1.00  0.00     0.003 C 
ATOM     65  C   UNL A   1      33.345  23.767  22.061  1.00  0.00     0.005 C 
BRANCH  61  66
ATOM     66  C   UNL A   1      34.288  22.017  25.390  1.00  0.00     0.226 C 
ATOM     67  O   UNL A   1      33.587  21.078  25.769  1.00  0.00    -0.275 OA
ATOM     68  N   UNL A   1      35.663  22.011  25.566  1.00  0.00    -0.339 N 
ATOM     69  C   UNL A   1      36.348  20.735  25.373  1.00  0.00     0.141 C 
ATOM     70  C   UNL A   1      36.369  22.908  26.502  1.00  0.00     0.141 C 
ATOM     71  C   UNL A   1      37.785  20.961  24.870  1.00  0.00     0.138 C 
ATOM     72  C   UNL A   1      37.845  23.134  26.109  1.00  0.00     0.138 C 
ATOM     73  N   UNL A   1      38.493  21.855  25.799  1.00  0.00    -0.368 N 
BRANCH  73  74
ATOM     74  C   UNL A   1      39.734  21.539  26.302  1.00  0.00     0.038 A 
ATOM     75  C   UNL A   1      40.404  22.427  27.157  1.00  0.00     0.026 A 
ATOM     76  C   UNL A   1      40.360  20.321  26.010  1.00  0.00     0.046 A 
ATOM     77  C   UNL A   1      41.645  22.112  27.714  1.00  0.00     0.004 A 
ATOM     78  C   UNL A   1      41.605  20.008  26.558  1.00  0.00     0.043 A 
ATOM     79  C   UNL A   1      42.247  20.897  27.413  1.00  0.00     0.020 A 
ATOM     80  Cl  UNL A   1      42.352  18.505  26.172  1.00  0.00    -0.084 Cl
ENDBRANCH  73  74
ENDBRANCH  61  66
ENDBRANCH  57  59
ENDBRANCH  56  57
ENDBRANCH  55  56
ENDBRANCH   1  55
TORSDOF 13
ENDMDL
MODEL 3
REMARK VINA RESULT:     -12.2      5.169      9.918
REMARK SMILES O=C(OCCOC(=O)[C@H]1[C@H]2CC[C@H](C2)[C@@H]1C(=O)N1CCN(c2cccc(Cl)c2)CC1)c1ccc(-c2c3nc(c(-c4ccccc4)c4ccc([nH]4)c(-c4ccccc4)c4nc(c(-c5ccccc5)c5ccc2[nH]5)C=C4)C=C3)cc1
REMARK SMILES IDX 4 1 3 2 2 3 1 4 31 5 32 6 78 7 33 8 77 9 34 10 35 11 36 12
REMARK SMILES IDX 71 13 37 14 76 15 70 16 72 17 38 18 75 19 69 20 68 21 39 23
REMARK SMILES IDX 61 24 46 25 60 26 47 27 50 28 59 29 73 30 48 31 49 32 58 34
REMARK SMILES IDX 74 35 51 36 40 37 41 38 45 39 42 40 44 41 43 42 62 43 63 44
REMARK SMILES IDX 67 45 64 46 66 47 65 48 52 49 53 50 57 51 54 52 56 53 55 54
REMARK SMILES IDX 5 55 6 56 7 57 8 58 9 59 10 60 15 61 11 62 14 63 13 64 12 65
REMARK SMILES IDX 16 66 17 67 18 68 19 69 30 70 20 71 29 72 21 73 22 74 23 75
REMARK SMILES IDX 28 76 24 77 26 78 25 79 27 80
REMARK H PARENT 72 22 50 33
REMARK Flexibility Score: inf
ROOT
ATOM      1  C   UNL A   1      39.107  19.839  25.240  1.00  0.00     0.275 C 
ENDROOT
BRANCH   1   2
ATOM      2  O   UNL A   1      40.122  19.220  26.057  1.00  0.00    -0.458 OA
BRANCH   2   3
ATOM      3  C   UNL A   1      41.468  19.365  26.079  1.00  0.00     0.338 C 
ATOM      4  O   UNL A   1      42.157  18.349  25.968  1.00  0.00    -0.246 OA
BRANCH   3   5
ATOM      5  C   UNL A   1      42.196  20.659  26.323  1.00  0.00     0.060 A 
ATOM      6  C   UNL A   1      42.907  21.420  25.387  1.00  0.00     0.016 A 
ATOM      7  C   UNL A   1      42.083  21.189  27.623  1.00  0.00     0.016 A 
ATOM      8  C   UNL A   1      43.379  22.718  25.691  1.00  0.00     0.010 A 
ATOM      9  C   UNL A   1      42.503  22.497  27.909  1.00  0.00     0.010 A 
ATOM     10  C   UNL A   1      43.146  23.295  26.939  1.00  0.00    -0.014 A 
BRANCH  10  11
ATOM     11  C   UNL A   1      43.626  24.658  27.331  1.00  0.00     0.031 A 
ATOM     12  C   UNL A   1      42.611  25.761  27.384  1.00  0.00     0.074 A 
ATOM     13  C   UNL A   1      44.912  24.984  27.608  1.00  0.00     0.049 A 
ATOM     14  N   UNL A   1      42.803  27.019  27.681  1.00  0.00    -0.248 NA
ATOM     15  C   UNL A   1      41.197  25.397  27.174  1.00  0.00     0.031 C 
ATOM     16  C   UNL A   1      46.019  24.079  27.876  1.00  0.00     0.029 A 
ATOM     17  N   UNL A   1      45.534  26.217  27.613  1.00  0.00    -0.354 N 
ATOM     18  C   UNL A   1      41.536  27.543  27.849  1.00  0.00     0.074 A 
ATOM     19  C   UNL A   1      40.587  26.545  27.413  1.00  0.00     0.031 C 
ATOM     20  C   UNL A   1      47.189  24.726  27.729  1.00  0.00     0.029 A 
ATOM     21  C   UNL A   1      46.909  26.131  27.507  1.00  0.00     0.049 A 
ATOM     22  H   UNL A   1      45.047  27.070  27.683  1.00  0.00     0.167 HD
ATOM     23  C   UNL A   1      41.195  28.696  28.465  1.00  0.00     0.031 A 
ATOM     24  C   UNL A   1      47.843  27.079  27.296  1.00  0.00     0.031 A 
ATOM     25  C   UNL A   1      42.138  29.700  28.861  1.00  0.00     0.049 A 
ATOM     26  C   UNL A   1      47.437  28.488  27.607  1.00  0.00     0.074 A 
ATOM     27  C   UNL A   1      41.903  30.906  29.491  1.00  0.00     0.029 A 
ATOM     28  N   UNL A   1      43.503  29.621  28.631  1.00  0.00    -0.354 N 
ATOM     29  N   UNL A   1      46.243  28.941  27.900  1.00  0.00    -0.248 NA
ATOM     30  C   UNL A   1      48.515  29.475  27.742  1.00  0.00     0.031 C 
ATOM     31  C   UNL A   1      43.120  31.593  29.573  1.00  0.00     0.029 A 
ATOM     32  C   UNL A   1      44.119  30.788  29.048  1.00  0.00     0.049 A 
ATOM     33  H   UNL A   1      43.966  28.851  28.229  1.00  0.00     0.167 HD
ATOM     34  C   UNL A   1      46.442  30.221  28.388  1.00  0.00     0.074 A 
ATOM     35  C   UNL A   1      47.864  30.489  28.293  1.00  0.00     0.031 C 
ATOM     36  C   UNL A   1      45.529  31.063  28.930  1.00  0.00     0.031 A 
BRANCH  23  37
ATOM     37  C   UNL A   1      39.741  28.855  28.781  1.00  0.00    -0.014 A 
ATOM     38  C   UNL A   1      38.882  29.472  27.852  1.00  0.00     0.009 A 
ATOM     39  C   UNL A   1      39.235  28.451  30.020  1.00  0.00     0.009 A 
ATOM     40  C   UNL A   1      37.549  29.722  28.180  1.00  0.00     0.001 A 
ATOM     41  C   UNL A   1      37.895  28.680  30.335  1.00  0.00     0.001 A 
ATOM     42  C   UNL A   1      37.058  29.324  29.421  1.00  0.00     0.000 A 
ENDBRANCH  23  37
BRANCH  24  43
ATOM     43  C   UNL A   1      49.256  26.757  26.951  1.00  0.00    -0.014 A 
ATOM     44  C   UNL A   1      49.684  26.653  25.619  1.00  0.00     0.009 A 
ATOM     45  C   UNL A   1      50.168  26.441  27.974  1.00  0.00     0.009 A 
ATOM     46  C   UNL A   1      50.973  26.195  25.318  1.00  0.00     0.001 A 
ATOM     47  C   UNL A   1      51.461  25.998  27.669  1.00  0.00     0.001 A 
ATOM     48  C   UNL A   1      51.858  25.863  26.341  1.00  0.00     0.000 A 
ENDBRANCH  24  43
BRANCH  36  49
ATOM     49  C   UNL A   1      46.050  32.349  29.498  1.00  0.00    -0.014 A 
ATOM     50  C   UNL A   1      46.073  33.526  28.737  1.00  0.00     0.009 A 
ATOM     51  C   UNL A   1      46.504  32.382  30.825  1.00  0.00     0.009 A 
ATOM     52  C   UNL A   1      46.583  34.704  29.282  1.00  0.00     0.001 A 
ATOM     53  C   UNL A   1      46.976  33.570  31.380  1.00  0.00     0.001 A 
ATOM     54  C   UNL A   1      47.025  34.727  30.604  1.00  0.00     0.000 A 
ENDBRANCH  36  49
ENDBRANCH  10  11
ENDBRANCH   3   5
ENDBRANCH   2   3
ENDBRANCH   1   2
BRANCH   1  55
ATOM     55  C   UNL A   1      38.676  21.241  25.689  1.00  0.00     0.274 C 
BRANCH  55  56
ATOM     56  O   UNL A   1      37.674  21.767  24.817  1.00  0.00    -0.462 OA
BRANCH  56  57
ATOM     57  C   UNL A   1      36.923  22.853  25.205  1.00  0.00     0.310 C 
ATOM     58  O   UNL A   1      37.322  23.767  25.894  1.00  0.00    -0.252 OA
BRANCH  57  59
ATOM     59  C   UNL A   1      35.526  22.725  24.590  1.00  0.00     0.115 C 
ATOM     60  C   UNL A   1      34.880  21.444  25.114  1.00  0.00     0.004 C 
ATOM     61  C   UNL A   1      34.415  23.748  24.951  1.00  0.00     0.096 C 
ATOM     62  C   UNL A   1      34.771  21.492  26.635  1.00  0.00     0.005 C 
ATOM     63  C   UNL A   1      33.442  21.554  24.677  1.00  0.00     0.009 C 
ATOM     64  C   UNL A   1      33.244  22.855  25.450  1.00  0.00     0.003 C 
ATOM     65  C   UNL A   1      33.548  22.369  26.865  1.00  0.00     0.005 C 
BRANCH  61  66
ATOM     66  C   UNL A   1      34.048  24.605  23.737  1.00  0.00     0.226 C 
ATOM     67  O   UNL A   1      34.662  24.464  22.679  1.00  0.00    -0.275 OA
ATOM     68  N   UNL A   1      32.863  25.319  23.797  1.00  0.00    -0.339 N 
ATOM     69  C   UNL A   1      31.940  25.163  22.675  1.00  0.00     0.141 C 
ATOM     70  C   UNL A   1      32.730  26.624  24.476  1.00  0.00     0.141 C 
ATOM     71  C   UNL A   1      30.484  25.346  23.138  1.00  0.00     0.138 C 
ATOM     72  C   UNL A   1      31.280  26.920  24.914  1.00  0.00     0.138 C 
ATOM     73  N   UNL A   1      30.347  26.646  23.815  1.00  0.00    -0.368 N 
BRANCH  73  74
ATOM     74  C   UNL A   1      29.350  27.533  23.482  1.00  0.00     0.038 A 
ATOM     75  C   UNL A   1      28.012  27.253  23.794  1.00  0.00     0.026 A 
ATOM     76  C   UNL A   1      29.629  28.752  22.851  1.00  0.00     0.046 A 
ATOM     77  C   UNL A   1      26.987  28.156  23.504  1.00  0.00     0.004 A 
ATOM     78  C   UNL A   1      28.605  29.652  22.551  1.00  0.00     0.043 A 
ATOM     79  C   UNL A   1      27.285  29.361  22.881  1.00  0.00     0.020 A 
ATOM     80  Cl  UNL A   1      28.980  31.138  21.767  1.00  0.00    -0.084 Cl
ENDBRANCH  73  74
ENDBRANCH  61  66
ENDBRANCH  57  59
ENDBRANCH  56  57
ENDBRANCH  55  56
ENDBRANCH   1  55
TORSDOF 13
ENDMDL
