MODEL 1
REMARK VINA RESULT:     -10.8      0.000      0.000
REMARK SMILES Cc1ccc(NC(=O)CN2C(=O)S/C(=C\c3cc(Cl)c(OCC(=O)OCCOC(=O)c4ccc(-c5c6nc(c(-c7ccccc7)c7ccc([nH]7)c(-c7ccccc7)c7nc(c(-c8ccccc8)c8ccc5[nH]8)C=C7)C=C6)cc4)c(Cl)c3)C2=O)cc1
REMARK SMILES IDX 23 1 24 2 22 3 21 4 20 5 16 6 17 7 81 8 18 9 79 10 19 11
REMARK SMILES IDX 80 12 15 13 10 14 11 15 82 16 12 17 13 18 14 19 83 20 9 21
REMARK SMILES IDX 7 22 6 23 8 25 5 26 1 27 2 28 3 29 85 30 4 31 84 32 25 33
REMARK SMILES IDX 26 34 27 35 28 36 29 37 30 38 31 39 32 40 78 41 33 42 77 43
REMARK SMILES IDX 34 44 35 45 36 46 71 47 37 48 76 49 70 50 72 51 38 52 75 53
REMARK SMILES IDX 69 54 68 55 39 57 61 58 46 59 60 60 47 61 50 62 59 63 73 64
REMARK SMILES IDX 48 65 49 66 58 68 74 69 51 70 40 71 41 72 45 73 42 74 44 75
REMARK SMILES IDX 43 76 62 77 63 78 67 79 64 80 66 81 65 82 52 83 53 84 57 85
REMARK SMILES IDX 54 86 56 87 55 88
REMARK H PARENT 6 24 72 56 50 67
REMARK Flexibility Score: inf
ROOT
ATOM      1  C   UNL A   1      45.867  33.337  34.526  1.00  0.00     0.344 C 
ATOM      2  O   UNL A   1      46.270  32.554  35.419  1.00  0.00    -0.248 OA
ENDROOT
BRANCH   1   3
ATOM      3  C   UNL A   1      44.436  33.033  32.883  1.00  0.00     0.352 C 
BRANCH   3   4
ATOM      4  O   UNL A   1      44.330  32.311  31.468  1.00  0.00    -0.479 OA
BRANCH   4   5
ATOM      5  C   UNL A   1      43.995  30.993  31.216  1.00  0.00     0.157 A 
ATOM      6  C   UNL A   1      43.446  28.372  30.075  1.00  0.00    -0.021 A 
ATOM      7  C   UNL A   1      44.339  28.537  31.152  1.00  0.00     0.032 A 
ATOM      8  C   UNL A   1      42.744  29.534  29.731  1.00  0.00     0.032 A 
ATOM      9  C   UNL A   1      44.619  29.835  31.705  1.00  0.00     0.085 A 
ATOM     10  C   UNL A   1      42.921  30.775  30.358  1.00  0.00     0.085 A 
ATOM     11  Cl  UNL A   1      45.732  29.930  33.025  1.00  0.00    -0.080 Cl
ATOM     12  Cl  UNL A   1      41.783  32.021  29.969  1.00  0.00    -0.080 Cl
BRANCH   6  13
ATOM     13  C   UNL A   1      43.363  27.112  29.225  1.00  0.00     0.029 C 
ATOM     14  N   UNL A   1      45.528  25.374  26.854  1.00  0.00    -0.259 N 
ATOM     15  C   UNL A   1      46.247  26.523  26.995  1.00  0.00     0.294 C 
ATOM     16  C   UNL A   1      44.315  25.387  27.537  1.00  0.00     0.268 C 
ATOM     17  O   UNL A   1      47.457  26.666  27.018  1.00  0.00    -0.261 OA
ATOM     18  S   UNL A   1      45.131  27.830  27.229  1.00  0.00    -0.022 SA
ATOM     19  C   UNL A   1      44.080  26.783  28.120  1.00  0.00     0.083 C 
ATOM     20  O   UNL A   1      43.591  24.423  27.738  1.00  0.00    -0.268 OA
BRANCH  14  21
ATOM     21  C   UNL A   1      46.236  24.174  26.410  1.00  0.00     0.230 C 
BRANCH  21  22
ATOM     22  C   UNL A   1      46.140  23.964  24.875  1.00  0.00     0.244 C 
ATOM     23  N   UNL A   1      45.206  23.138  24.310  1.00  0.00    -0.325 N 
ATOM     24  H   UNL A   1      44.912  23.408  23.410  1.00  0.00     0.169 HD
ATOM     25  O   UNL A   1      46.882  24.594  24.113  1.00  0.00    -0.273 OA
BRANCH  23  26
ATOM     26  C   UNL A   1      44.598  21.973  24.795  1.00  0.00     0.041 A 
ATOM     27  C   UNL A   1      42.606  18.431  26.236  1.00  0.00     0.044 C 
ATOM     28  C   UNL A   1      43.261  19.674  25.715  1.00  0.00    -0.051 A 
ATOM     29  C   UNL A   1      44.496  19.572  25.069  1.00  0.00     0.005 A 
ATOM     30  C   UNL A   1      42.675  20.935  25.860  1.00  0.00     0.005 A 
ATOM     31  C   UNL A   1      45.149  20.711  24.602  1.00  0.00     0.026 A 
ATOM     32  C   UNL A   1      43.335  22.078  25.391  1.00  0.00     0.026 A 
ENDBRANCH  23  26
ENDBRANCH  21  22
ENDBRANCH  14  21
ENDBRANCH   6  13
ENDBRANCH   4   5
ENDBRANCH   3   4
ENDBRANCH   1   3
BRANCH   1  33
ATOM     33  O   UNL A   1      46.434  34.621  34.855  1.00  0.00    -0.460 OA
BRANCH  33  34
ATOM     34  C   UNL A   1      46.174  35.129  36.169  1.00  0.00     0.274 C 
BRANCH  34  35
ATOM     35  C   UNL A   1      44.975  36.080  36.102  1.00  0.00     0.275 C 
BRANCH  35  36
ATOM     36  O   UNL A   1      43.656  35.508  36.341  1.00  0.00    -0.458 OA
BRANCH  36  37
ATOM     37  C   UNL A   1      42.459  36.086  36.606  1.00  0.00     0.338 C 
ATOM     38  O   UNL A   1      42.112  36.336  37.752  1.00  0.00    -0.246 OA
BRANCH  37  39
ATOM     39  C   UNL A   1      41.439  36.151  35.532  1.00  0.00     0.060 A 
ATOM     40  C   UNL A   1      39.774  35.748  36.167  1.00  0.00     0.016 A 
ATOM     41  C   UNL A   1      41.876  35.712  33.840  1.00  0.00     0.016 A 
ATOM     42  C   UNL A   1      38.690  34.671  35.215  1.00  0.00     0.010 A 
ATOM     43  C   UNL A   1      40.742  34.659  32.873  1.00  0.00     0.010 A 
ATOM     44  C   UNL A   1      39.228  34.052  33.628  1.00  0.00    -0.014 A 
BRANCH  44  45
ATOM     45  C   UNL A   1      38.967  32.632  33.271  1.00  0.00     0.031 A 
ATOM     46  C   UNL A   1      40.074  31.694  33.518  1.00  0.00     0.074 A 
ATOM     47  C   UNL A   1      37.736  32.162  32.899  1.00  0.00     0.049 A 
ATOM     48  N   UNL A   1      40.248  30.596  32.873  1.00  0.00    -0.248 NA
ATOM     49  C   UNL A   1      41.153  31.976  34.461  1.00  0.00     0.031 C 
ATOM     50  C   UNL A   1      37.272  30.765  32.910  1.00  0.00     0.029 A 
ATOM     51  N   UNL A   1      36.606  32.809  32.402  1.00  0.00    -0.354 N 
ATOM     52  C   UNL A   1      41.228  29.893  33.534  1.00  0.00     0.074 A 
ATOM     53  C   UNL A   1      41.877  30.856  34.383  1.00  0.00     0.031 C 
ATOM     54  C   UNL A   1      36.125  30.655  32.211  1.00  0.00     0.029 A 
ATOM     55  C   UNL A   1      35.858  31.943  31.606  1.00  0.00     0.049 A 
ATOM     56  H   UNL A   1      36.370  33.748  32.585  1.00  0.00     0.167 HD
ATOM     57  C   UNL A   1      41.250  28.537  33.424  1.00  0.00     0.031 A 
ATOM     58  C   UNL A   1      35.579  32.159  30.283  1.00  0.00     0.031 A 
ATOM     59  C   UNL A   1      40.183  28.085  32.529  1.00  0.00     0.049 A 
ATOM     60  C   UNL A   1      36.333  31.164  29.421  1.00  0.00     0.074 A 
ATOM     61  C   UNL A   1      38.922  27.568  32.771  1.00  0.00     0.029 A 
ATOM     62  N   UNL A   1      40.192  28.505  31.206  1.00  0.00    -0.354 N 
ATOM     63  N   UNL A   1      37.281  30.407  29.905  1.00  0.00    -0.248 NA
ATOM     64  C   UNL A   1      36.120  30.918  27.995  1.00  0.00     0.031 C 
ATOM     65  C   UNL A   1      38.147  27.747  31.590  1.00  0.00     0.029 A 
ATOM     66  C   UNL A   1      38.951  28.330  30.623  1.00  0.00     0.049 A 
ATOM     67  H   UNL A   1      40.978  28.879  30.745  1.00  0.00     0.167 HD
ATOM     68  C   UNL A   1      37.771  29.580  28.943  1.00  0.00     0.074 A 
ATOM     69  C   UNL A   1      37.020  29.944  27.754  1.00  0.00     0.031 C 
ATOM     70  C   UNL A   1      38.754  28.675  29.219  1.00  0.00     0.031 A 
BRANCH  57  71
ATOM     71  C   UNL A   1      42.028  27.599  34.315  1.00  0.00    -0.014 A 
ATOM     72  C   UNL A   1      43.040  26.804  33.744  1.00  0.00     0.009 A 
ATOM     73  C   UNL A   1      41.814  27.415  35.692  1.00  0.00     0.009 A 
ATOM     74  C   UNL A   1      43.763  25.863  34.489  1.00  0.00     0.001 A 
ATOM     75  C   UNL A   1      42.523  26.466  36.444  1.00  0.00     0.001 A 
ATOM     76  C   UNL A   1      43.498  25.688  35.840  1.00  0.00     0.000 A 
ENDBRANCH  57  71
BRANCH  58  77
ATOM     77  C   UNL A   1      35.293  33.586  29.971  1.00  0.00    -0.014 A 
ATOM     78  C   UNL A   1      35.530  33.989  28.638  1.00  0.00     0.009 A 
ATOM     79  C   UNL A   1      34.374  34.311  30.739  1.00  0.00     0.009 A 
ATOM     80  C   UNL A   1      34.703  34.929  28.022  1.00  0.00     0.001 A 
ATOM     81  C   UNL A   1      33.571  35.280  30.123  1.00  0.00     0.001 A 
ATOM     82  C   UNL A   1      33.694  35.542  28.756  1.00  0.00     0.000 A 
ENDBRANCH  58  77
BRANCH  70  83
ATOM     83  C   UNL A   1      39.597  27.969  28.190  1.00  0.00    -0.014 A 
ATOM     84  C   UNL A   1      39.580  26.587  27.982  1.00  0.00     0.009 A 
ATOM     85  C   UNL A   1      40.351  28.739  27.275  1.00  0.00     0.009 A 
ATOM     86  C   UNL A   1      40.343  25.998  26.967  1.00  0.00     0.001 A 
ATOM     87  C   UNL A   1      41.047  28.165  26.213  1.00  0.00     0.001 A 
ATOM     88  C   UNL A   1      41.065  26.786  26.077  1.00  0.00     0.000 A 
ENDBRANCH  70  83
ENDBRANCH  44  45
ENDBRANCH  37  39
ENDBRANCH  36  37
ENDBRANCH  35  36
ENDBRANCH  34  35
ENDBRANCH  33  34
ENDBRANCH   1  33
TORSDOF 17
ENDMDL
MODEL 2
REMARK VINA RESULT:     -10.4      7.758     11.976
REMARK SMILES Cc1ccc(NC(=O)CN2C(=O)S/C(=C\c3cc(Cl)c(OCC(=O)OCCOC(=O)c4ccc(-c5c6nc(c(-c7ccccc7)c7ccc([nH]7)c(-c7ccccc7)c7nc(c(-c8ccccc8)c8ccc5[nH]8)C=C7)C=C6)cc4)c(Cl)c3)C2=O)cc1
REMARK SMILES IDX 23 1 24 2 22 3 21 4 20 5 16 6 17 7 81 8 18 9 79 10 19 11
REMARK SMILES IDX 80 12 15 13 10 14 11 15 82 16 12 17 13 18 14 19 83 20 9 21
REMARK SMILES IDX 7 22 6 23 8 25 5 26 1 27 2 28 3 29 85 30 4 31 84 32 25 33
REMARK SMILES IDX 26 34 27 35 28 36 29 37 30 38 31 39 32 40 78 41 33 42 77 43
REMARK SMILES IDX 34 44 35 45 36 46 71 47 37 48 76 49 70 50 72 51 38 52 75 53
REMARK SMILES IDX 69 54 68 55 39 57 61 58 46 59 60 60 47 61 50 62 59 63 73 64
REMARK SMILES IDX 48 65 49 66 58 68 74 69 51 70 40 71 41 72 45 73 42 74 44 75
REMARK SMILES IDX 43 76 62 77 63 78 67 79 64 80 66 81 65 82 52 83 53 84 57 85
REMARK SMILES IDX 54 86 56 87 55 88
REMARK H PARENT 6 24 72 56 50 67
REMARK Flexibility Score: inf
ROOT
ATOM      1  C   UNL A   1      45.607  32.993  26.546  1.00  0.00     0.344 C 
ATOM      2  O   UNL A   1      46.483  32.409  25.864  1.00  0.00    -0.248 OA
ENDROOT
BRANCH   1   3
ATOM      3  C   UNL A   1      44.971  35.098  26.576  1.00  0.00     0.352 C 
BRANCH   3   4
ATOM      4  O   UNL A   1      44.655  36.269  27.608  1.00  0.00    -0.479 OA
BRANCH   4   5
ATOM      5  C   UNL A   1      43.940  37.429  27.374  1.00  0.00     0.157 A 
ATOM      6  C   UNL A   1      42.701  39.831  26.291  1.00  0.00    -0.021 A 
ATOM      7  C   UNL A   1      41.933  38.793  26.854  1.00  0.00     0.032 A 
ATOM      8  C   UNL A   1      44.083  39.672  26.453  1.00  0.00     0.032 A 
ATOM      9  C   UNL A   1      42.547  37.600  27.376  1.00  0.00     0.085 A 
ATOM     10  C   UNL A   1      44.681  38.570  27.080  1.00  0.00     0.085 A 
ATOM     11  Cl  UNL A   1      41.515  36.385  28.043  1.00  0.00    -0.080 Cl
ATOM     12  Cl  UNL A   1      46.377  38.680  27.411  1.00  0.00    -0.080 Cl
BRANCH   6  13
ATOM     13  C   UNL A   1      42.124  40.940  25.423  1.00  0.00     0.029 C 
ATOM     14  N   UNL A   1      43.411  43.310  22.961  1.00  0.00    -0.259 N 
ATOM     15  C   UNL A   1      44.596  42.820  23.423  1.00  0.00     0.294 C 
ATOM     16  C   UNL A   1      42.300  42.816  23.639  1.00  0.00     0.268 C 
ATOM     17  O   UNL A   1      45.620  42.598  22.804  1.00  0.00    -0.261 OA
ATOM     18  S   UNL A   1      44.407  42.463  25.110  1.00  0.00    -0.022 SA
ATOM     19  C   UNL A   1      42.768  41.980  24.833  1.00  0.00     0.083 C 
ATOM     20  O   UNL A   1      41.133  42.936  23.295  1.00  0.00    -0.268 OA
BRANCH  14  21
ATOM     21  C   UNL A   1      43.390  43.903  21.624  1.00  0.00     0.230 C 
BRANCH  21  22
ATOM     22  C   UNL A   1      43.151  42.847  20.512  1.00  0.00     0.244 C 
ATOM     23  N   UNL A   1      43.235  43.160  19.182  1.00  0.00    -0.325 N 
ATOM     24  H   UNL A   1      43.532  42.418  18.606  1.00  0.00     0.169 HD
ATOM     25  O   UNL A   1      42.932  41.667  20.810  1.00  0.00    -0.273 OA
BRANCH  23  26
ATOM     26  C   UNL A   1      42.971  44.354  18.501  1.00  0.00     0.041 A 
ATOM     27  C   UNL A   1      42.286  48.034  16.361  1.00  0.00     0.044 C 
ATOM     28  C   UNL A   1      42.564  46.753  17.087  1.00  0.00    -0.051 A 
ATOM     29  C   UNL A   1      41.628  45.718  17.022  1.00  0.00     0.005 A 
ATOM     30  C   UNL A   1      43.732  46.564  17.832  1.00  0.00     0.005 A 
ATOM     31  C   UNL A   1      41.838  44.526  17.713  1.00  0.00     0.026 A 
ATOM     32  C   UNL A   1      43.940  45.365  18.525  1.00  0.00     0.026 A 
ENDBRANCH  23  26
ENDBRANCH  21  22
ENDBRANCH  14  21
ENDBRANCH   6  13
ENDBRANCH   4   5
ENDBRANCH   3   4
ENDBRANCH   1   3
BRANCH   1  33
ATOM     33  O   UNL A   1      44.929  31.950  27.275  1.00  0.00    -0.460 OA
BRANCH  33  34
ATOM     34  C   UNL A   1      45.493  31.565  28.535  1.00  0.00     0.274 C 
BRANCH  34  35
ATOM     35  C   UNL A   1      45.779  32.828  29.354  1.00  0.00     0.275 C 
BRANCH  35  36
ATOM     36  O   UNL A   1      46.442  32.653  30.639  1.00  0.00    -0.458 OA
BRANCH  36  37
ATOM     37  C   UNL A   1      46.677  33.519  31.656  1.00  0.00     0.338 C 
ATOM     38  O   UNL A   1      47.774  34.040  31.807  1.00  0.00    -0.246 OA
BRANCH  37  39
ATOM     39  C   UNL A   1      45.695  33.613  32.762  1.00  0.00     0.060 A 
ATOM     40  C   UNL A   1      45.546  32.031  33.661  1.00  0.00     0.016 A 
ATOM     41  C   UNL A   1      44.255  34.687  32.606  1.00  0.00     0.016 A 
ATOM     42  C   UNL A   1      43.920  31.417  34.129  1.00  0.00     0.010 A 
ATOM     43  C   UNL A   1      42.622  34.065  33.130  1.00  0.00     0.010 A 
ATOM     44  C   UNL A   1      42.467  32.390  33.764  1.00  0.00    -0.014 A 
BRANCH  44  45
ATOM     45  C   UNL A   1      41.248  31.716  33.243  1.00  0.00     0.031 A 
ATOM     46  C   UNL A   1      41.311  31.266  31.843  1.00  0.00     0.074 A 
ATOM     47  C   UNL A   1      40.185  31.366  34.031  1.00  0.00     0.049 A 
ATOM     48  N   UNL A   1      40.286  31.123  31.084  1.00  0.00    -0.248 NA
ATOM     49  C   UNL A   1      42.574  31.035  31.144  1.00  0.00     0.031 C 
ATOM     50  C   UNL A   1      39.137  30.377  33.731  1.00  0.00     0.029 A 
ATOM     51  N   UNL A   1      39.767  31.818  35.282  1.00  0.00    -0.354 N 
ATOM     52  C   UNL A   1      40.713  30.473  29.949  1.00  0.00     0.074 A 
ATOM     53  C   UNL A   1      42.146  30.610  29.952  1.00  0.00     0.031 C 
ATOM     54  C   UNL A   1      38.114  30.512  34.598  1.00  0.00     0.029 A 
ATOM     55  C   UNL A   1      38.387  31.673  35.417  1.00  0.00     0.049 A 
ATOM     56  H   UNL A   1      40.363  32.190  35.973  1.00  0.00     0.167 HD
ATOM     57  C   UNL A   1      39.818  29.733  29.239  1.00  0.00     0.031 A 
ATOM     58  C   UNL A   1      37.522  32.711  35.643  1.00  0.00     0.031 A 
ATOM     59  C   UNL A   1      38.490  29.827  29.847  1.00  0.00     0.049 A 
ATOM     60  C   UNL A   1      36.664  32.952  34.415  1.00  0.00     0.074 A 
ATOM     61  C   UNL A   1      37.792  28.984  30.695  1.00  0.00     0.029 A 
ATOM     62  N   UNL A   1      37.874  31.068  29.928  1.00  0.00    -0.354 N 
ATOM     63  N   UNL A   1      36.928  32.392  33.265  1.00  0.00    -0.248 NA
ATOM     64  C   UNL A   1      35.475  33.801  34.343  1.00  0.00     0.031 C 
ATOM     65  C   UNL A   1      36.787  29.756  31.342  1.00  0.00     0.029 A 
ATOM     66  C   UNL A   1      36.848  31.051  30.853  1.00  0.00     0.049 A 
ATOM     67  H   UNL A   1      38.134  31.856  29.397  1.00  0.00     0.167 HD
ATOM     68  C   UNL A   1      35.993  32.737  32.340  1.00  0.00     0.074 A 
ATOM     69  C   UNL A   1      35.105  33.634  33.057  1.00  0.00     0.031 C 
ATOM     70  C   UNL A   1      36.043  32.251  31.066  1.00  0.00     0.031 A 
BRANCH  57  71
ATOM     71  C   UNL A   1      40.169  28.714  28.182  1.00  0.00    -0.014 A 
ATOM     72  C   UNL A   1      39.731  27.386  28.349  1.00  0.00     0.009 A 
ATOM     73  C   UNL A   1      40.937  28.962  27.031  1.00  0.00     0.009 A 
ATOM     74  C   UNL A   1      40.069  26.367  27.448  1.00  0.00     0.001 A 
ATOM     75  C   UNL A   1      41.292  27.946  26.131  1.00  0.00     0.001 A 
ATOM     76  C   UNL A   1      40.858  26.647  26.340  1.00  0.00     0.000 A 
ENDBRANCH  57  71
BRANCH  58  77
ATOM     77  C   UNL A   1      38.067  33.735  36.575  1.00  0.00    -0.014 A 
ATOM     78  C   UNL A   1      38.179  33.345  37.929  1.00  0.00     0.009 A 
ATOM     79  C   UNL A   1      38.895  34.760  36.101  1.00  0.00     0.009 A 
ATOM     80  C   UNL A   1      39.242  33.794  38.712  1.00  0.00     0.001 A 
ATOM     81  C   UNL A   1      39.940  35.233  36.905  1.00  0.00     0.001 A 
ATOM     82  C   UNL A   1      40.149  34.706  38.182  1.00  0.00     0.000 A 
ENDBRANCH  58  77
BRANCH  70  83
ATOM     83  C   UNL A   1      35.289  32.816  29.892  1.00  0.00    -0.014 A 
ATOM     84  C   UNL A   1      34.494  32.052  29.033  1.00  0.00     0.009 A 
ATOM     85  C   UNL A   1      35.254  34.218  29.708  1.00  0.00     0.009 A 
ATOM     86  C   UNL A   1      33.769  32.648  27.995  1.00  0.00     0.001 A 
ATOM     87  C   UNL A   1      34.471  34.822  28.728  1.00  0.00     0.001 A 
ATOM     88  C   UNL A   1      33.748  34.031  27.850  1.00  0.00     0.000 A 
ENDBRANCH  70  83
ENDBRANCH  44  45
ENDBRANCH  37  39
ENDBRANCH  36  37
ENDBRANCH  35  36
ENDBRANCH  34  35
ENDBRANCH  33  34
ENDBRANCH   1  33
TORSDOF 17
ENDMDL
MODEL 3
REMARK VINA RESULT:     -10.4      5.238      9.808
REMARK SMILES Cc1ccc(NC(=O)CN2C(=O)S/C(=C\c3cc(Cl)c(OCC(=O)OCCOC(=O)c4ccc(-c5c6nc(c(-c7ccccc7)c7ccc([nH]7)c(-c7ccccc7)c7nc(c(-c8ccccc8)c8ccc5[nH]8)C=C7)C=C6)cc4)c(Cl)c3)C2=O)cc1
REMARK SMILES IDX 23 1 24 2 22 3 21 4 20 5 16 6 17 7 81 8 18 9 79 10 19 11
REMARK SMILES IDX 80 12 15 13 10 14 11 15 82 16 12 17 13 18 14 19 83 20 9 21
REMARK SMILES IDX 7 22 6 23 8 25 5 26 1 27 2 28 3 29 85 30 4 31 84 32 25 33
REMARK SMILES IDX 26 34 27 35 28 36 29 37 30 38 31 39 32 40 78 41 33 42 77 43
REMARK SMILES IDX 34 44 35 45 36 46 71 47 37 48 76 49 70 50 72 51 38 52 75 53
REMARK SMILES IDX 69 54 68 55 39 57 61 58 46 59 60 60 47 61 50 62 59 63 73 64
REMARK SMILES IDX 48 65 49 66 58 68 74 69 51 70 40 71 41 72 45 73 42 74 44 75
REMARK SMILES IDX 43 76 62 77 63 78 67 79 64 80 66 81 65 82 52 83 53 84 57 85
REMARK SMILES IDX 54 86 56 87 55 88
REMARK H PARENT 6 24 72 56 50 67
REMARK Flexibility Score: inf
ROOT
ATOM      1  C   UNL A   1      34.047  34.741  31.573  1.00  0.00     0.344 C 
ATOM      2  O   UNL A   1      32.833  35.055  31.544  1.00  0.00    -0.248 OA
ENDROOT
BRANCH   1   3
ATOM      3  C   UNL A   1      35.155  33.169  30.505  1.00  0.00     0.352 C 
BRANCH   3   4
ATOM      4  O   UNL A   1      35.444  32.665  29.023  1.00  0.00    -0.479 OA
BRANCH   4   5
ATOM      5  C   UNL A   1      34.622  31.899  28.217  1.00  0.00     0.157 A 
ATOM      6  C   UNL A   1      32.895  29.882  27.026  1.00  0.00    -0.021 A 
ATOM      7  C   UNL A   1      32.495  31.228  27.130  1.00  0.00     0.032 A 
ATOM      8  C   UNL A   1      34.229  29.651  27.385  1.00  0.00     0.032 A 
ATOM      9  C   UNL A   1      33.345  32.221  27.732  1.00  0.00     0.085 A 
ATOM     10  C   UNL A   1      35.102  30.645  27.849  1.00  0.00     0.085 A 
ATOM     11  Cl  UNL A   1      32.760  33.845  27.813  1.00  0.00    -0.080 Cl
ATOM     12  Cl  UNL A   1      36.773  30.217  27.995  1.00  0.00    -0.080 Cl
BRANCH   6  13
ATOM     13  C   UNL A   1      31.942  28.732  26.729  1.00  0.00     0.029 C 
ATOM     14  N   UNL A   1      32.241  25.274  25.598  1.00  0.00    -0.259 N 
ATOM     15  C   UNL A   1      33.528  25.675  25.396  1.00  0.00     0.294 C 
ATOM     16  C   UNL A   1      31.396  26.297  26.019  1.00  0.00     0.268 C 
ATOM     17  O   UNL A   1      34.556  25.042  25.556  1.00  0.00    -0.261 OA
ATOM     18  S   UNL A   1      33.502  27.343  24.923  1.00  0.00    -0.022 SA
ATOM     19  C   UNL A   1      32.152  27.627  25.968  1.00  0.00     0.083 C 
ATOM     20  O   UNL A   1      30.264  26.162  26.458  1.00  0.00    -0.268 OA
BRANCH  14  21
ATOM     21  C   UNL A   1      31.989  23.844  25.774  1.00  0.00     0.230 C 
BRANCH  21  22
ATOM     22  C   UNL A   1      31.683  23.127  24.432  1.00  0.00     0.244 C 
ATOM     23  N   UNL A   1      32.408  22.049  24.001  1.00  0.00    -0.325 N 
ATOM     24  H   UNL A   1      31.901  21.409  23.450  1.00  0.00     0.169 HD
ATOM     25  O   UNL A   1      30.724  23.486  23.739  1.00  0.00    -0.273 OA
BRANCH  23  26
ATOM     26  C   UNL A   1      33.748  21.701  24.210  1.00  0.00     0.041 A 
ATOM     27  C   UNL A   1      37.902  20.760  24.880  1.00  0.00     0.044 C 
ATOM     28  C   UNL A   1      36.466  21.128  24.660  1.00  0.00    -0.051 A 
ATOM     29  C   UNL A   1      35.466  20.309  25.191  1.00  0.00     0.005 A 
ATOM     30  C   UNL A   1      36.097  22.265  23.936  1.00  0.00     0.005 A 
ATOM     31  C   UNL A   1      34.120  20.603  24.978  1.00  0.00     0.026 A 
ATOM     32  C   UNL A   1      34.744  22.557  23.723  1.00  0.00     0.026 A 
ENDBRANCH  23  26
ENDBRANCH  21  22
ENDBRANCH  14  21
ENDBRANCH   6  13
ENDBRANCH   4   5
ENDBRANCH   3   4
ENDBRANCH   1   3
BRANCH   1  33
ATOM     33  O   UNL A   1      34.684  35.746  32.386  1.00  0.00    -0.460 OA
BRANCH  33  34
ATOM     34  C   UNL A   1      34.816  35.466  33.785  1.00  0.00     0.274 C 
BRANCH  34  35
ATOM     35  C   UNL A   1      35.070  33.965  33.965  1.00  0.00     0.275 C 
BRANCH  35  36
ATOM     36  O   UNL A   1      36.366  33.568  34.499  1.00  0.00    -0.458 OA
BRANCH  36  37
ATOM     37  C   UNL A   1      37.488  33.112  33.891  1.00  0.00     0.338 C 
ATOM     38  O   UNL A   1      37.784  33.460  32.756  1.00  0.00    -0.246 OA
BRANCH  37  39
ATOM     39  C   UNL A   1      38.210  31.961  34.484  1.00  0.00     0.060 A 
ATOM     40  C   UNL A   1      39.770  32.485  35.276  1.00  0.00     0.016 A 
ATOM     41  C   UNL A   1      38.105  30.333  33.716  1.00  0.00     0.016 A 
ATOM     42  C   UNL A   1      41.266  31.513  35.037  1.00  0.00     0.010 A 
ATOM     43  C   UNL A   1      39.625  29.341  33.526  1.00  0.00     0.010 A 
ATOM     44  C   UNL A   1      41.200  30.008  34.077  1.00  0.00    -0.014 A 
BRANCH  44  45
ATOM     45  C   UNL A   1      42.291  29.710  33.110  1.00  0.00     0.031 A 
ATOM     46  C   UNL A   1      42.215  30.412  31.819  1.00  0.00     0.074 A 
ATOM     47  C   UNL A   1      43.399  28.973  33.429  1.00  0.00     0.049 A 
ATOM     48  N   UNL A   1      42.723  29.970  30.725  1.00  0.00    -0.248 NA
ATOM     49  C   UNL A   1      41.454  31.646  31.634  1.00  0.00     0.031 C 
ATOM     50  C   UNL A   1      44.689  28.944  32.718  1.00  0.00     0.029 A 
ATOM     51  N   UNL A   1      43.643  28.055  34.449  1.00  0.00    -0.354 N 
ATOM     52  C   UNL A   1      42.656  30.993  29.808  1.00  0.00     0.074 A 
ATOM     53  C   UNL A   1      41.707  31.927  30.352  1.00  0.00     0.031 C 
ATOM     54  C   UNL A   1      45.426  27.899  33.144  1.00  0.00     0.029 A 
ATOM     55  C   UNL A   1      44.605  27.127  34.052  1.00  0.00     0.049 A 
ATOM     56  H   UNL A   1      43.196  28.059  35.327  1.00  0.00     0.167 HD
ATOM     57  C   UNL A   1      43.554  31.018  28.786  1.00  0.00     0.031 A 
ATOM     58  C   UNL A   1      44.389  25.777  33.979  1.00  0.00     0.031 A 
ATOM     59  C   UNL A   1      44.433  29.850  28.856  1.00  0.00     0.049 A 
ATOM     60  C   UNL A   1      44.380  25.327  32.531  1.00  0.00     0.074 A 
ATOM     61  C   UNL A   1      45.716  29.677  29.346  1.00  0.00     0.029 A 
ATOM     62  N   UNL A   1      43.876  28.583  28.750  1.00  0.00    -0.354 N 
ATOM     63  N   UNL A   1      44.337  26.178  31.541  1.00  0.00    -0.248 NA
ATOM     64  C   UNL A   1      44.417  23.945  32.053  1.00  0.00     0.031 C 
ATOM     65  C   UNL A   1      45.899  28.289  29.600  1.00  0.00     0.029 A 
ATOM     66  C   UNL A   1      44.747  27.619  29.222  1.00  0.00     0.049 A 
ATOM     67  H   UNL A   1      42.980  28.395  28.387  1.00  0.00     0.167 HD
ATOM     68  C   UNL A   1      44.376  25.527  30.348  1.00  0.00     0.074 A 
ATOM     69  C   UNL A   1      44.414  24.123  30.717  1.00  0.00     0.031 C 
ATOM     70  C   UNL A   1      44.369  26.210  29.167  1.00  0.00     0.031 A 
BRANCH  57  71
ATOM     71  C   UNL A   1      43.834  32.206  27.896  1.00  0.00    -0.014 A 
ATOM     72  C   UNL A   1      43.813  33.495  28.461  1.00  0.00     0.009 A 
ATOM     73  C   UNL A   1      44.090  32.150  26.515  1.00  0.00     0.009 A 
ATOM     74  C   UNL A   1      43.997  34.652  27.692  1.00  0.00     0.001 A 
ATOM     75  C   UNL A   1      44.262  33.302  25.735  1.00  0.00     0.001 A 
ATOM     76  C   UNL A   1      44.215  34.556  26.324  1.00  0.00     0.000 A 
ENDBRANCH  57  71
BRANCH  58  77
ATOM     77  C   UNL A   1      43.543  25.259  35.089  1.00  0.00    -0.014 A 
ATOM     78  C   UNL A   1      44.032  25.477  36.396  1.00  0.00     0.009 A 
ATOM     79  C   UNL A   1      42.167  25.077  34.907  1.00  0.00     0.009 A 
ATOM     80  C   UNL A   1      43.154  25.744  37.447  1.00  0.00     0.001 A 
ATOM     81  C   UNL A   1      41.292  25.312  35.976  1.00  0.00     0.001 A 
ATOM     82  C   UNL A   1      41.782  25.705  37.223  1.00  0.00     0.000 A 
ENDBRANCH  58  77
BRANCH  70  83
ATOM     83  C   UNL A   1      44.066  25.610  27.820  1.00  0.00    -0.014 A 
ATOM     84  C   UNL A   1      42.876  24.943  27.512  1.00  0.00     0.009 A 
ATOM     85  C   UNL A   1      44.958  25.842  26.747  1.00  0.00     0.009 A 
ATOM     86  C   UNL A   1      42.629  24.461  26.222  1.00  0.00     0.001 A 
ATOM     87  C   UNL A   1      44.680  25.435  25.445  1.00  0.00     0.001 A 
ATOM     88  C   UNL A   1      43.524  24.717  25.188  1.00  0.00     0.000 A 
ENDBRANCH  70  83
ENDBRANCH  44  45
ENDBRANCH  37  39
ENDBRANCH  36  37
ENDBRANCH  35  36
ENDBRANCH  34  35
ENDBRANCH  33  34
ENDBRANCH   1  33
TORSDOF 17
ENDMDL
