MODEL 1
REMARK VINA RESULT:     -12.7      0.000      0.000
REMARK SMILES O=C(OCCOC(=O)c1ccccc1-c1ccc(/C=C2/SC(=S)N(Cc3ccccc3)C2=O)o1)c1ccc(-c2c3nc(c(-c4ccccc4)c4ccc([nH]4)c(-c4ccccc4)c4nc(c(-c5ccccc5)c5ccc2[nH]5)C=C4)C=C3)cc1
REMARK SMILES IDX 5 1 4 2 3 3 2 4 1 5 35 6 36 7 82 8 37 9 81 10 38 11 39 12
REMARK SMILES IDX 40 13 75 14 41 15 80 16 74 17 76 18 42 19 79 20 73 21 72 22
REMARK SMILES IDX 43 24 65 25 50 26 64 27 51 28 54 29 63 30 77 31 52 32 53 33
REMARK SMILES IDX 62 35 78 36 55 37 44 38 45 39 49 40 46 41 48 42 47 43 66 44
REMARK SMILES IDX 67 45 71 46 68 47 70 48 69 49 56 50 57 51 61 52 58 53 60 54
REMARK SMILES IDX 59 55 6 56 7 57 8 58 9 59 10 60 14 61 11 62 13 63 12 64
REMARK SMILES IDX 15 65 16 66 34 67 17 68 18 69 19 70 20 71 21 72 32 73 22 74
REMARK SMILES IDX 24 75 33 76 23 77 25 78 26 79 27 80 31 81 28 82 30 83 29 84
REMARK H PARENT 76 23 54 34
REMARK Flexibility Score: inf
ROOT
ATOM      1  C   UNL A   1      32.364  31.020  26.847  1.00  0.00     0.275 C 
ENDROOT
BRANCH   1   2
ATOM      2  C   UNL A   1      31.457  32.238  27.008  1.00  0.00     0.275 C 
BRANCH   2   3
ATOM      3  O   UNL A   1      32.178  33.481  27.098  1.00  0.00    -0.458 OA
BRANCH   3   4
ATOM      4  C   UNL A   1      32.896  34.031  28.103  1.00  0.00     0.338 C 
ATOM      5  O   UNL A   1      32.421  35.017  28.670  1.00  0.00    -0.246 OA
BRANCH   4   6
ATOM      6  C   UNL A   1      34.259  33.583  28.557  1.00  0.00     0.060 A 
ATOM      7  C   UNL A   1      35.484  33.898  27.967  1.00  0.00     0.016 A 
ATOM      8  C   UNL A   1      34.294  32.767  29.709  1.00  0.00     0.016 A 
ATOM      9  C   UNL A   1      36.693  33.446  28.507  1.00  0.00     0.010 A 
ATOM     10  C   UNL A   1      35.498  32.313  30.261  1.00  0.00     0.010 A 
ATOM     11  C   UNL A   1      36.708  32.644  29.650  1.00  0.00    -0.014 A 
BRANCH  11  12
ATOM     12  C   UNL A   1      37.995  32.070  30.106  1.00  0.00     0.031 A 
ATOM     13  C   UNL A   1      38.671  32.688  31.278  1.00  0.00     0.074 A 
ATOM     14  C   UNL A   1      38.493  30.951  29.550  1.00  0.00     0.049 A 
ATOM     15  N   UNL A   1      39.739  32.284  31.909  1.00  0.00    -0.248 NA
ATOM     16  C   UNL A   1      38.058  33.910  31.822  1.00  0.00     0.031 C 
ATOM     17  C   UNL A   1      37.854  30.265  28.449  1.00  0.00     0.029 A 
ATOM     18  N   UNL A   1      39.586  30.175  29.821  1.00  0.00    -0.354 N 
ATOM     19  C   UNL A   1      39.924  33.198  32.931  1.00  0.00     0.074 A 
ATOM     20  C   UNL A   1      38.881  34.194  32.818  1.00  0.00     0.031 C 
ATOM     21  C   UNL A   1      38.521  29.144  28.145  1.00  0.00     0.029 A 
ATOM     22  C   UNL A   1      39.685  29.063  29.012  1.00  0.00     0.049 A 
ATOM     23  H   UNL A   1      40.240  30.389  30.526  1.00  0.00     0.167 HD
ATOM     24  C   UNL A   1      40.887  33.195  33.879  1.00  0.00     0.031 A 
ATOM     25  C   UNL A   1      40.616  28.091  28.971  1.00  0.00     0.031 A 
ATOM     26  C   UNL A   1      41.947  32.226  33.929  1.00  0.00     0.049 A 
ATOM     27  C   UNL A   1      41.732  28.176  29.968  1.00  0.00     0.074 A 
ATOM     28  C   UNL A   1      43.013  32.155  34.805  1.00  0.00     0.029 A 
ATOM     29  N   UNL A   1      42.080  31.162  33.043  1.00  0.00    -0.354 N 
ATOM     30  N   UNL A   1      41.899  29.046  30.937  1.00  0.00    -0.248 NA
ATOM     31  C   UNL A   1      42.785  27.159  29.878  1.00  0.00     0.031 C 
ATOM     32  C   UNL A   1      43.822  31.082  34.415  1.00  0.00     0.029 A 
ATOM     33  C   UNL A   1      43.227  30.443  33.336  1.00  0.00     0.049 A 
ATOM     34  H   UNL A   1      41.452  30.950  32.316  1.00  0.00     0.167 HD
ATOM     35  C   UNL A   1      43.065  28.675  31.583  1.00  0.00     0.074 A 
ATOM     36  C   UNL A   1      43.550  27.483  30.911  1.00  0.00     0.031 C 
ATOM     37  C   UNL A   1      43.682  29.267  32.635  1.00  0.00     0.031 A 
BRANCH  24  38
ATOM     38  C   UNL A   1      40.849  34.328  34.861  1.00  0.00    -0.014 A 
ATOM     39  C   UNL A   1      41.545  35.524  34.621  1.00  0.00     0.009 A 
ATOM     40  C   UNL A   1      40.176  34.162  36.080  1.00  0.00     0.009 A 
ATOM     41  C   UNL A   1      41.607  36.513  35.605  1.00  0.00     0.001 A 
ATOM     42  C   UNL A   1      40.216  35.163  37.050  1.00  0.00     0.001 A 
ATOM     43  C   UNL A   1      40.943  36.331  36.818  1.00  0.00     0.000 A 
ENDBRANCH  24  38
BRANCH  25  44
ATOM     44  C   UNL A   1      40.547  27.001  27.956  1.00  0.00    -0.014 A 
ATOM     45  C   UNL A   1      41.233  27.099  26.736  1.00  0.00     0.009 A 
ATOM     46  C   UNL A   1      39.775  25.852  28.200  1.00  0.00     0.009 A 
ATOM     47  C   UNL A   1      41.125  26.086  25.775  1.00  0.00     0.001 A 
ATOM     48  C   UNL A   1      39.694  24.827  27.252  1.00  0.00     0.001 A 
ATOM     49  C   UNL A   1      40.361  24.950  26.036  1.00  0.00     0.000 A 
ENDBRANCH  25  44
BRANCH  37  50
ATOM     50  C   UNL A   1      44.936  28.608  33.128  1.00  0.00    -0.014 A 
ATOM     51  C   UNL A   1      46.201  29.142  32.838  1.00  0.00     0.009 A 
ATOM     52  C   UNL A   1      44.842  27.455  33.921  1.00  0.00     0.009 A 
ATOM     53  C   UNL A   1      47.353  28.510  33.308  1.00  0.00     0.001 A 
ATOM     54  C   UNL A   1      45.993  26.846  34.417  1.00  0.00     0.001 A 
ATOM     55  C   UNL A   1      47.247  27.368  34.103  1.00  0.00     0.000 A 
ENDBRANCH  37  50
ENDBRANCH  11  12
ENDBRANCH   4   6
ENDBRANCH   3   4
ENDBRANCH   2   3
ENDBRANCH   1   2
BRANCH   1  56
ATOM     56  O   UNL A   1      31.649  29.894  26.328  1.00  0.00    -0.458 OA
BRANCH  56  57
ATOM     57  C   UNL A   1      31.978  29.505  25.073  1.00  0.00     0.338 C 
ATOM     58  O   UNL A   1      33.073  29.596  24.542  1.00  0.00    -0.246 OA
BRANCH  57  59
ATOM     59  C   UNL A   1      30.828  28.837  24.434  1.00  0.00     0.071 A 
ATOM     60  C   UNL A   1      29.897  29.665  23.786  1.00  0.00     0.016 A 
ATOM     61  C   UNL A   1      30.659  27.444  24.447  1.00  0.00     0.032 A 
ATOM     62  C   UNL A   1      28.802  29.110  23.125  1.00  0.00     0.001 A 
ATOM     63  C   UNL A   1      29.497  26.915  23.859  1.00  0.00     0.013 A 
ATOM     64  C   UNL A   1      28.594  27.734  23.173  1.00  0.00     0.001 A 
BRANCH  61  65
ATOM     65  C   UNL A   1      31.680  26.541  24.958  1.00  0.00     0.135 A 
ATOM     66  C   UNL A   1      31.902  25.883  26.144  1.00  0.00     0.051 A 
ATOM     67  O   UNL A   1      32.749  26.358  24.132  1.00  0.00    -0.457 OA
ATOM     68  C   UNL A   1      33.177  25.277  26.023  1.00  0.00     0.051 A 
ATOM     69  C   UNL A   1      33.666  25.555  24.752  1.00  0.00     0.128 A 
BRANCH  69  70
ATOM     70  C   UNL A   1      34.870  25.104  24.144  1.00  0.00     0.068 C 
ATOM     71  C   UNL A   1      35.085  23.794  23.972  1.00  0.00     0.084 C 
ATOM     72  S   UNL A   1      36.628  23.063  23.766  1.00  0.00    -0.054 SA
ATOM     73  C   UNL A   1      34.084  22.728  24.205  1.00  0.00     0.266 C 
ATOM     74  C   UNL A   1      36.078  21.573  24.557  1.00  0.00     0.148 C 
ATOM     75  N   UNL A   1      34.713  21.618  24.731  1.00  0.00    -0.288 N 
ATOM     76  O   UNL A   1      32.898  22.826  23.928  1.00  0.00    -0.268 OA
ATOM     77  S   UNL A   1      37.136  20.359  24.990  1.00  0.00    -0.052 S 
BRANCH  75  78
ATOM     78  C   UNL A   1      33.881  20.590  25.354  1.00  0.00     0.163 C 
BRANCH  78  79
ATOM     79  C   UNL A   1      33.619  19.412  24.427  1.00  0.00    -0.028 A 
ATOM     80  C   UNL A   1      32.536  19.424  23.537  1.00  0.00     0.005 A 
ATOM     81  C   UNL A   1      34.430  18.263  24.465  1.00  0.00     0.005 A 
ATOM     82  C   UNL A   1      32.282  18.323  22.710  1.00  0.00     0.000 A 
ATOM     83  C   UNL A   1      34.192  17.178  23.621  1.00  0.00     0.000 A 
ATOM     84  C   UNL A   1      33.114  17.205  22.746  1.00  0.00     0.000 A 
ENDBRANCH  78  79
ENDBRANCH  75  78
ENDBRANCH  69  70
ENDBRANCH  61  65
ENDBRANCH  57  59
ENDBRANCH  56  57
ENDBRANCH   1  56
TORSDOF 15
ENDMDL
MODEL 2
REMARK VINA RESULT:     -12.4      0.508      5.751
REMARK SMILES O=C(OCCOC(=O)c1ccccc1-c1ccc(/C=C2/SC(=S)N(Cc3ccccc3)C2=O)o1)c1ccc(-c2c3nc(c(-c4ccccc4)c4ccc([nH]4)c(-c4ccccc4)c4nc(c(-c5ccccc5)c5ccc2[nH]5)C=C4)C=C3)cc1
REMARK SMILES IDX 5 1 4 2 3 3 2 4 1 5 35 6 36 7 82 8 37 9 81 10 38 11 39 12
REMARK SMILES IDX 40 13 75 14 41 15 80 16 74 17 76 18 42 19 79 20 73 21 72 22
REMARK SMILES IDX 43 24 65 25 50 26 64 27 51 28 54 29 63 30 77 31 52 32 53 33
REMARK SMILES IDX 62 35 78 36 55 37 44 38 45 39 49 40 46 41 48 42 47 43 66 44
REMARK SMILES IDX 67 45 71 46 68 47 70 48 69 49 56 50 57 51 61 52 58 53 60 54
REMARK SMILES IDX 59 55 6 56 7 57 8 58 9 59 10 60 14 61 11 62 13 63 12 64
REMARK SMILES IDX 15 65 16 66 34 67 17 68 18 69 19 70 20 71 21 72 32 73 22 74
REMARK SMILES IDX 24 75 33 76 23 77 25 78 26 79 27 80 31 81 28 82 30 83 29 84
REMARK H PARENT 76 23 54 34
REMARK Flexibility Score: inf
ROOT
ATOM      1  C   UNL A   1      32.481  30.931  26.816  1.00  0.00     0.275 C 
ENDROOT
BRANCH   1   2
ATOM      2  C   UNL A   1      31.635  32.184  27.023  1.00  0.00     0.275 C 
BRANCH   2   3
ATOM      3  O   UNL A   1      32.410  33.397  27.081  1.00  0.00    -0.458 OA
BRANCH   3   4
ATOM      4  C   UNL A   1      33.046  34.007  28.107  1.00  0.00     0.338 C 
ATOM      5  O   UNL A   1      32.569  35.064  28.524  1.00  0.00    -0.246 OA
BRANCH   4   6
ATOM      6  C   UNL A   1      34.323  33.540  28.752  1.00  0.00     0.060 A 
ATOM      7  C   UNL A   1      35.624  33.842  28.348  1.00  0.00     0.016 A 
ATOM      8  C   UNL A   1      34.180  32.720  29.893  1.00  0.00     0.016 A 
ATOM      9  C   UNL A   1      36.736  33.374  29.056  1.00  0.00     0.010 A 
ATOM     10  C   UNL A   1      35.286  32.248  30.611  1.00  0.00     0.010 A 
ATOM     11  C   UNL A   1      36.576  32.567  30.184  1.00  0.00    -0.014 A 
BRANCH  11  12
ATOM     12  C   UNL A   1      37.776  31.976  30.820  1.00  0.00     0.031 A 
ATOM     13  C   UNL A   1      38.385  30.770  30.200  1.00  0.00     0.074 A 
ATOM     14  C   UNL A   1      38.372  32.574  31.867  1.00  0.00     0.049 A 
ATOM     15  N   UNL A   1      39.492  30.159  30.523  1.00  0.00    -0.248 NA
ATOM     16  C   UNL A   1      37.666  30.182  29.059  1.00  0.00     0.031 C 
ATOM     17  C   UNL A   1      37.867  33.784  32.479  1.00  0.00     0.029 A 
ATOM     18  N   UNL A   1      39.508  32.304  32.579  1.00  0.00    -0.354 N 
ATOM     19  C   UNL A   1      39.609  29.117  29.620  1.00  0.00     0.074 A 
ATOM     20  C   UNL A   1      38.447  29.157  28.758  1.00  0.00     0.031 C 
ATOM     21  C   UNL A   1      38.693  34.197  33.449  1.00  0.00     0.029 A 
ATOM     22  C   UNL A   1      39.774  33.234  33.562  1.00  0.00     0.049 A 
ATOM     23  H   UNL A   1      40.082  31.522  32.407  1.00  0.00     0.167 HD
ATOM     24  C   UNL A   1      40.606  28.210  29.527  1.00  0.00     0.031 A 
ATOM     25  C   UNL A   1      40.777  33.296  34.459  1.00  0.00     0.031 A 
ATOM     26  C   UNL A   1      41.717  28.159  30.436  1.00  0.00     0.049 A 
ATOM     27  C   UNL A   1      41.811  32.212  34.398  1.00  0.00     0.074 A 
ATOM     28  C   UNL A   1      42.757  27.250  30.480  1.00  0.00     0.029 A 
ATOM     29  N   UNL A   1      41.918  29.054  31.482  1.00  0.00    -0.354 N 
ATOM     30  N   UNL A   1      41.915  31.228  33.536  1.00  0.00    -0.248 NA
ATOM     31  C   UNL A   1      42.864  32.238  35.420  1.00  0.00     0.031 C 
ATOM     32  C   UNL A   1      43.557  27.561  31.585  1.00  0.00     0.029 A 
ATOM     33  C   UNL A   1      43.053  28.703  32.194  1.00  0.00     0.049 A 
ATOM     34  H   UNL A   1      41.340  29.823  31.686  1.00  0.00     0.167 HD
ATOM     35  C   UNL A   1      43.050  30.525  33.899  1.00  0.00     0.074 A 
ATOM     36  C   UNL A   1      43.617  31.213  35.045  1.00  0.00     0.031 C 
ATOM     37  C   UNL A   1      43.578  29.409  33.338  1.00  0.00     0.031 A 
BRANCH  24  38
ATOM     38  C   UNL A   1      40.460  27.178  28.450  1.00  0.00    -0.014 A 
ATOM     39  C   UNL A   1      41.015  27.371  27.174  1.00  0.00     0.009 A 
ATOM     40  C   UNL A   1      39.685  26.034  28.691  1.00  0.00     0.009 A 
ATOM     41  C   UNL A   1      40.754  26.462  26.146  1.00  0.00     0.001 A 
ATOM     42  C   UNL A   1      39.451  25.113  27.670  1.00  0.00     0.001 A 
ATOM     43  C   UNL A   1      39.972  25.335  26.396  1.00  0.00     0.000 A 
ENDBRANCH  24  38
BRANCH  25  44
ATOM     44  C   UNL A   1      40.830  34.380  35.481  1.00  0.00    -0.014 A 
ATOM     45  C   UNL A   1      40.154  34.258  36.705  1.00  0.00     0.009 A 
ATOM     46  C   UNL A   1      41.552  35.559  35.229  1.00  0.00     0.009 A 
ATOM     47  C   UNL A   1      40.179  35.302  37.639  1.00  0.00     0.001 A 
ATOM     48  C   UNL A   1      41.601  36.587  36.175  1.00  0.00     0.001 A 
ATOM     49  C   UNL A   1      40.906  36.462  37.375  1.00  0.00     0.000 A 
ENDBRANCH  25  44
BRANCH  37  50
ATOM     50  C   UNL A   1      44.843  28.888  33.952  1.00  0.00    -0.014 A 
ATOM     51  C   UNL A   1      44.816  27.911  34.959  1.00  0.00     0.009 A 
ATOM     52  C   UNL A   1      46.079  29.364  33.489  1.00  0.00     0.009 A 
ATOM     53  C   UNL A   1      46.007  27.444  35.515  1.00  0.00     0.001 A 
ATOM     54  C   UNL A   1      47.268  28.870  34.023  1.00  0.00     0.001 A 
ATOM     55  C   UNL A   1      47.231  27.919  35.042  1.00  0.00     0.000 A 
ENDBRANCH  37  50
ENDBRANCH  11  12
ENDBRANCH   4   6
ENDBRANCH   3   4
ENDBRANCH   2   3
ENDBRANCH   1   2
BRANCH   1  56
ATOM     56  O   UNL A   1      31.708  29.853  26.277  1.00  0.00    -0.458 OA
BRANCH  56  57
ATOM     57  C   UNL A   1      32.008  29.478  25.012  1.00  0.00     0.338 C 
ATOM     58  O   UNL A   1      33.091  29.573  24.458  1.00  0.00    -0.246 OA
BRANCH  57  59
ATOM     59  C   UNL A   1      30.843  28.817  24.392  1.00  0.00     0.071 A 
ATOM     60  C   UNL A   1      29.915  29.650  23.745  1.00  0.00     0.016 A 
ATOM     61  C   UNL A   1      30.657  27.427  24.421  1.00  0.00     0.032 A 
ATOM     62  C   UNL A   1      28.807  29.101  23.101  1.00  0.00     0.001 A 
ATOM     63  C   UNL A   1      29.482  26.906  23.851  1.00  0.00     0.013 A 
ATOM     64  C   UNL A   1      28.583  27.730  23.166  1.00  0.00     0.001 A 
BRANCH  61  65
ATOM     65  C   UNL A   1      31.673  26.516  24.931  1.00  0.00     0.135 A 
ATOM     66  C   UNL A   1      31.887  25.850  26.114  1.00  0.00     0.051 A 
ATOM     67  O   UNL A   1      32.744  26.334  24.108  1.00  0.00    -0.457 OA
ATOM     68  C   UNL A   1      33.160  25.240  25.994  1.00  0.00     0.051 A 
ATOM     69  C   UNL A   1      33.655  25.524  24.726  1.00  0.00     0.128 A 
BRANCH  69  70
ATOM     70  C   UNL A   1      34.860  25.072  24.121  1.00  0.00     0.068 C 
ATOM     71  C   UNL A   1      35.085  23.760  23.972  1.00  0.00     0.084 C 
ATOM     72  S   UNL A   1      36.633  23.039  23.771  1.00  0.00    -0.054 SA
ATOM     73  C   UNL A   1      34.094  22.691  24.229  1.00  0.00     0.266 C 
ATOM     74  C   UNL A   1      36.100  21.558  24.592  1.00  0.00     0.148 C 
ATOM     75  N   UNL A   1      34.734  21.596  24.771  1.00  0.00    -0.288 N 
ATOM     76  O   UNL A   1      32.906  22.774  23.956  1.00  0.00    -0.268 OA
ATOM     77  S   UNL A   1      37.169  20.361  25.041  1.00  0.00    -0.052 S 
BRANCH  75  78
ATOM     78  C   UNL A   1      33.914  20.572  25.417  1.00  0.00     0.163 C 
BRANCH  78  79
ATOM     79  C   UNL A   1      33.629  19.391  24.501  1.00  0.00    -0.028 A 
ATOM     80  C   UNL A   1      34.459  18.262  24.502  1.00  0.00     0.005 A 
ATOM     81  C   UNL A   1      32.550  19.416  23.598  1.00  0.00     0.005 A 
ATOM     82  C   UNL A   1      34.210  17.194  23.633  1.00  0.00     0.000 A 
ATOM     83  C   UNL A   1      32.286  18.339  22.752  1.00  0.00     0.000 A 
ATOM     84  C   UNL A   1      33.120  17.228  22.765  1.00  0.00     0.000 A 
ENDBRANCH  78  79
ENDBRANCH  75  78
ENDBRANCH  69  70
ENDBRANCH  61  65
ENDBRANCH  57  59
ENDBRANCH  56  57
ENDBRANCH   1  56
TORSDOF 15
ENDMDL
MODEL 3
REMARK VINA RESULT:     -12.3      3.830      9.565
REMARK SMILES O=C(OCCOC(=O)c1ccccc1-c1ccc(/C=C2/SC(=S)N(Cc3ccccc3)C2=O)o1)c1ccc(-c2c3nc(c(-c4ccccc4)c4ccc([nH]4)c(-c4ccccc4)c4nc(c(-c5ccccc5)c5ccc2[nH]5)C=C4)C=C3)cc1
REMARK SMILES IDX 5 1 4 2 3 3 2 4 1 5 35 6 36 7 82 8 37 9 81 10 38 11 39 12
REMARK SMILES IDX 40 13 75 14 41 15 80 16 74 17 76 18 42 19 79 20 73 21 72 22
REMARK SMILES IDX 43 24 65 25 50 26 64 27 51 28 54 29 63 30 77 31 52 32 53 33
REMARK SMILES IDX 62 35 78 36 55 37 44 38 45 39 49 40 46 41 48 42 47 43 66 44
REMARK SMILES IDX 67 45 71 46 68 47 70 48 69 49 56 50 57 51 61 52 58 53 60 54
REMARK SMILES IDX 59 55 6 56 7 57 8 58 9 59 10 60 14 61 11 62 13 63 12 64
REMARK SMILES IDX 15 65 16 66 34 67 17 68 18 69 19 70 20 71 21 72 32 73 22 74
REMARK SMILES IDX 24 75 33 76 23 77 25 78 26 79 27 80 31 81 28 82 30 83 29 84
REMARK H PARENT 76 23 54 34
REMARK Flexibility Score: inf
ROOT
ATOM      1  C   UNL A   1      37.911  20.955  25.230  1.00  0.00     0.275 C 
ENDROOT
BRANCH   1   2
ATOM      2  C   UNL A   1      38.536  19.585  24.982  1.00  0.00     0.275 C 
BRANCH   2   3
ATOM      3  O   UNL A   1      39.568  19.245  25.927  1.00  0.00    -0.458 OA
BRANCH   3   4
ATOM      4  C   UNL A   1      40.836  19.693  26.071  1.00  0.00     0.338 C 
ATOM      5  O   UNL A   1      41.748  18.884  25.900  1.00  0.00    -0.246 OA
BRANCH   4   6
ATOM      6  C   UNL A   1      41.235  21.086  26.480  1.00  0.00     0.060 A 
ATOM      7  C   UNL A   1      41.639  22.122  25.637  1.00  0.00     0.016 A 
ATOM      8  C   UNL A   1      41.179  21.368  27.862  1.00  0.00     0.016 A 
ATOM      9  C   UNL A   1      41.952  23.390  26.138  1.00  0.00     0.010 A 
ATOM     10  C   UNL A   1      41.485  22.635  28.375  1.00  0.00     0.010 A 
ATOM     11  C   UNL A   1      41.887  23.653  27.508  1.00  0.00    -0.014 A 
BRANCH  11  12
ATOM     12  C   UNL A   1      42.362  24.963  28.011  1.00  0.00     0.031 A 
ATOM     13  C   UNL A   1      43.823  25.240  27.998  1.00  0.00     0.074 A 
ATOM     14  C   UNL A   1      41.493  25.925  28.369  1.00  0.00     0.049 A 
ATOM     15  N   UNL A   1      44.443  26.351  28.286  1.00  0.00    -0.248 NA
ATOM     16  C   UNL A   1      44.700  24.131  27.593  1.00  0.00     0.031 C 
ATOM     17  C   UNL A   1      40.058  25.742  28.346  1.00  0.00     0.029 A 
ATOM     18  N   UNL A   1      41.645  27.221  28.777  1.00  0.00    -0.354 N 
ATOM     19  C   UNL A   1      45.786  26.079  28.091  1.00  0.00     0.074 A 
ATOM     20  C   UNL A   1      45.894  24.692  27.692  1.00  0.00     0.031 C 
ATOM     21  C   UNL A   1      39.436  26.881  28.678  1.00  0.00     0.029 A 
ATOM     22  C   UNL A   1      40.449  27.873  28.994  1.00  0.00     0.049 A 
ATOM     23  H   UNL A   1      42.523  27.649  28.905  1.00  0.00     0.167 HD
ATOM     24  C   UNL A   1      46.831  26.923  28.234  1.00  0.00     0.031 A 
ATOM     25  C   UNL A   1      40.201  29.129  29.410  1.00  0.00     0.031 A 
ATOM     26  C   UNL A   1      46.697  28.279  28.691  1.00  0.00     0.049 A 
ATOM     27  C   UNL A   1      41.387  30.009  29.664  1.00  0.00     0.074 A 
ATOM     28  C   UNL A   1      47.688  29.210  28.933  1.00  0.00     0.029 A 
ATOM     29  N   UNL A   1      45.485  28.889  28.994  1.00  0.00    -0.354 N 
ATOM     30  N   UNL A   1      42.658  29.742  29.473  1.00  0.00    -0.248 NA
ATOM     31  C   UNL A   1      41.121  31.354  30.185  1.00  0.00     0.031 C 
ATOM     32  C   UNL A   1      47.080  30.366  29.436  1.00  0.00     0.029 A 
ATOM     33  C   UNL A   1      45.705  30.179  29.447  1.00  0.00     0.049 A 
ATOM     34  H   UNL A   1      44.600  28.467  28.900  1.00  0.00     0.167 HD
ATOM     35  C   UNL A   1      43.344  30.888  29.835  1.00  0.00     0.074 A 
ATOM     36  C   UNL A   1      42.344  31.863  30.232  1.00  0.00     0.031 C 
ATOM     37  C   UNL A   1      44.681  31.116  29.843  1.00  0.00     0.031 A 
BRANCH  24  38
ATOM     38  C   UNL A   1      48.187  26.344  27.965  1.00  0.00    -0.014 A 
ATOM     39  C   UNL A   1      48.764  26.402  26.685  1.00  0.00     0.009 A 
ATOM     40  C   UNL A   1      48.860  25.657  28.986  1.00  0.00     0.009 A 
ATOM     41  C   UNL A   1      49.966  25.741  26.422  1.00  0.00     0.001 A 
ATOM     42  C   UNL A   1      50.075  25.022  28.727  1.00  0.00     0.001 A 
ATOM     43  C   UNL A   1      50.618  25.051  27.444  1.00  0.00     0.000 A 
ENDBRANCH  24  38
BRANCH  25  44
ATOM     44  C   UNL A   1      38.805  29.605  29.632  1.00  0.00    -0.014 A 
ATOM     45  C   UNL A   1      38.063  29.184  30.747  1.00  0.00     0.009 A 
ATOM     46  C   UNL A   1      38.198  30.479  28.715  1.00  0.00     0.009 A 
ATOM     47  C   UNL A   1      36.739  29.606  30.921  1.00  0.00     0.001 A 
ATOM     48  C   UNL A   1      36.887  30.924  28.907  1.00  0.00     0.001 A 
ATOM     49  C   UNL A   1      36.154  30.479  30.005  1.00  0.00     0.000 A 
ENDBRANCH  25  44
BRANCH  37  50
ATOM     50  C   UNL A   1      45.122  32.483  30.273  1.00  0.00    -0.014 A 
ATOM     51  C   UNL A   1      45.243  33.533  29.350  1.00  0.00     0.009 A 
ATOM     52  C   UNL A   1      45.388  32.726  31.629  1.00  0.00     0.009 A 
ATOM     53  C   UNL A   1      45.656  34.796  29.776  1.00  0.00     0.001 A 
ATOM     54  C   UNL A   1      45.767  33.997  32.055  1.00  0.00     0.001 A 
ATOM     55  C   UNL A   1      45.910  35.028  31.128  1.00  0.00     0.000 A 
ENDBRANCH  37  50
ENDBRANCH  11  12
ENDBRANCH   4   6
ENDBRANCH   3   4
ENDBRANCH   2   3
ENDBRANCH   1   2
BRANCH   1  56
ATOM     56  O   UNL A   1      36.640  21.082  24.585  1.00  0.00    -0.458 OA
BRANCH  56  57
ATOM     57  C   UNL A   1      35.557  21.097  25.397  1.00  0.00     0.338 C 
ATOM     58  O   UNL A   1      35.516  21.480  26.555  1.00  0.00    -0.246 OA
BRANCH  57  59
ATOM     59  C   UNL A   1      34.358  20.673  24.649  1.00  0.00     0.071 A 
ATOM     60  C   UNL A   1      34.106  19.292  24.591  1.00  0.00     0.016 A 
ATOM     61  C   UNL A   1      33.489  21.584  24.029  1.00  0.00     0.032 A 
ATOM     62  C   UNL A   1      32.974  18.810  23.936  1.00  0.00     0.001 A 
ATOM     63  C   UNL A   1      32.409  21.069  23.292  1.00  0.00     0.013 A 
ATOM     64  C   UNL A   1      32.132  19.698  23.274  1.00  0.00     0.001 A 
BRANCH  61  65
ATOM     65  C   UNL A   1      33.618  23.024  24.205  1.00  0.00     0.135 A 
ATOM     66  C   UNL A   1      34.188  24.051  23.492  1.00  0.00     0.051 A 
ATOM     67  O   UNL A   1      33.173  23.497  25.404  1.00  0.00    -0.457 OA
ATOM     68  C   UNL A   1      34.082  25.202  24.312  1.00  0.00     0.051 A 
ATOM     69  C   UNL A   1      33.415  24.840  25.476  1.00  0.00     0.128 A 
BRANCH  69  70
ATOM     70  C   UNL A   1      33.013  25.665  26.563  1.00  0.00     0.068 C 
ATOM     71  C   UNL A   1      32.231  26.730  26.343  1.00  0.00     0.084 C 
ATOM     72  S   UNL A   1      32.091  28.087  27.391  1.00  0.00    -0.054 SA
ATOM     73  C   UNL A   1      31.574  27.054  25.057  1.00  0.00     0.266 C 
ATOM     74  C   UNL A   1      31.776  29.169  26.019  1.00  0.00     0.148 C 
ATOM     75  N   UNL A   1      31.570  28.423  24.880  1.00  0.00    -0.288 N 
ATOM     76  O   UNL A   1      31.085  26.225  24.306  1.00  0.00    -0.268 OA
ATOM     77  S   UNL A   1      31.757  30.827  26.187  1.00  0.00    -0.052 S 
BRANCH  75  78
ATOM     78  C   UNL A   1      31.291  28.940  23.541  1.00  0.00     0.163 C 
BRANCH  78  79
ATOM     79  C   UNL A   1      29.847  29.389  23.379  1.00  0.00    -0.028 A 
ATOM     80  C   UNL A   1      29.479  30.723  23.600  1.00  0.00     0.005 A 
ATOM     81  C   UNL A   1      28.834  28.472  23.044  1.00  0.00     0.005 A 
ATOM     82  C   UNL A   1      28.142  31.123  23.482  1.00  0.00     0.000 A 
ATOM     83  C   UNL A   1      27.506  28.877  22.899  1.00  0.00     0.000 A 
ATOM     84  C   UNL A   1      27.159  30.203  23.123  1.00  0.00     0.000 A 
ENDBRANCH  78  79
ENDBRANCH  75  78
ENDBRANCH  69  70
ENDBRANCH  61  65
ENDBRANCH  57  59
ENDBRANCH  56  57
ENDBRANCH   1  56
TORSDOF 15
ENDMDL
