MODEL 1
REMARK VINA RESULT:     -11.8      0.000      0.000
REMARK SMILES C[C@@H](C(=O)OCCOC(=O)c1ccc(-c2c3nc(c(-c4ccccc4)c4ccc([nH]4)c(-c4ccccc4)c4nc(c(-c5ccccc5)c5ccc2[nH]5)C=C4)C=C3)cc1)c1ccc(-c2cccc(OC(=O)NCCCc3ccccc3)c2)c(F)c1
REMARK SMILES IDX 1 1 2 2 3 3 4 4 5 5 6 6 7 7 8 8 9 9 10 10 11 11 12 12 58 13
REMARK SMILES IDX 13 14 57 15 14 16 15 17 16 18 51 19 17 20 56 21 50 22 52 23
REMARK SMILES IDX 18 24 55 25 49 26 48 27 19 29 41 30 26 31 40 32 27 33 30 34
REMARK SMILES IDX 39 35 53 36 28 37 29 38 38 40 54 41 31 42 20 43 21 44 25 45
REMARK SMILES IDX 22 46 24 47 23 48 42 49 43 50 47 51 44 52 46 53 45 54 32 55
REMARK SMILES IDX 33 56 37 57 34 58 36 59 35 60 59 61 60 62 84 63 61 64 82 65
REMARK SMILES IDX 62 66 83 67 63 68 64 69 81 70 65 71 67 72 66 73 68 74 69 75
REMARK SMILES IDX 70 76 71 77 72 79 73 80 74 81 75 82 76 83 80 84 77 85 79 86
REMARK SMILES IDX 78 87
REMARK H PARENT 52 28 30 39 71 78
REMARK Flexibility Score: inf
ROOT
ATOM      1  C   UNL A   1      41.898  18.852  27.969  1.00  0.00     0.025 C 
ATOM      2  C   UNL A   1      42.059  19.807  26.774  1.00  0.00     0.126 C 
ENDROOT
BRANCH   2   3
ATOM      3  C   UNL A   1      42.916  19.171  25.657  1.00  0.00     0.313 C 
ATOM      4  O   UNL A   1      43.090  17.964  25.525  1.00  0.00    -0.252 OA
BRANCH   3   5
ATOM      5  O   UNL A   1      43.409  20.095  24.785  1.00  0.00    -0.462 OA
BRANCH   5   6
ATOM      6  C   UNL A   1      44.160  21.187  25.352  1.00  0.00     0.274 C 
BRANCH   6   7
ATOM      7  C   UNL A   1      44.287  22.344  24.360  1.00  0.00     0.275 C 
BRANCH   7   8
ATOM      8  O   UNL A   1      43.472  23.460  24.765  1.00  0.00    -0.458 OA
BRANCH   8   9
ATOM      9  C   UNL A   1      44.145  24.570  25.147  1.00  0.00     0.338 C 
ATOM     10  O   UNL A   1      45.174  25.019  24.676  1.00  0.00    -0.246 OA
BRANCH   9  11
ATOM     11  C   UNL A   1      43.361  25.275  26.173  1.00  0.00     0.060 A 
ATOM     12  C   UNL A   1      43.612  26.629  26.337  1.00  0.00     0.016 A 
ATOM     13  C   UNL A   1      42.481  24.617  27.034  1.00  0.00     0.016 A 
ATOM     14  C   UNL A   1      43.021  27.328  27.380  1.00  0.00     0.010 A 
ATOM     15  C   UNL A   1      41.858  25.336  28.070  1.00  0.00     0.010 A 
ATOM     16  C   UNL A   1      42.140  26.699  28.265  1.00  0.00    -0.014 A 
BRANCH  16  17
ATOM     17  C   UNL A   1      41.620  27.477  29.425  1.00  0.00     0.031 A 
ATOM     18  C   UNL A   1      42.468  27.628  30.661  1.00  0.00     0.074 A 
ATOM     19  C   UNL A   1      40.481  28.193  29.318  1.00  0.00     0.049 A 
ATOM     20  N   UNL A   1      42.215  28.289  31.765  1.00  0.00    -0.248 NA
ATOM     21  C   UNL A   1      43.779  26.962  30.645  1.00  0.00     0.031 C 
ATOM     22  C   UNL A   1      39.665  28.299  28.109  1.00  0.00     0.029 A 
ATOM     23  N   UNL A   1      39.875  29.054  30.205  1.00  0.00    -0.354 N 
ATOM     24  C   UNL A   1      43.307  28.064  32.596  1.00  0.00     0.074 A 
ATOM     25  C   UNL A   1      44.236  27.233  31.859  1.00  0.00     0.031 C 
ATOM     26  C   UNL A   1      38.748  29.266  28.286  1.00  0.00     0.029 A 
ATOM     27  C   UNL A   1      38.849  29.783  29.649  1.00  0.00     0.049 A 
ATOM     28  H   UNL A   1      40.150  29.139  31.146  1.00  0.00     0.167 HD
ATOM     29  C   UNL A   1      43.508  28.486  33.868  1.00  0.00     0.031 A 
ATOM     30  C   UNL A   1      38.097  30.777  30.169  1.00  0.00     0.031 A 
ATOM     31  C   UNL A   1      42.612  29.346  34.594  1.00  0.00     0.049 A 
ATOM     32  C   UNL A   1      38.303  31.184  31.605  1.00  0.00     0.074 A 
ATOM     33  C   UNL A   1      42.691  29.756  35.915  1.00  0.00     0.029 A 
ATOM     34  N   UNL A   1      41.488  29.947  34.055  1.00  0.00    -0.354 N 
ATOM     35  N   UNL A   1      39.279  30.876  32.424  1.00  0.00    -0.248 NA
ATOM     36  C   UNL A   1      37.278  32.062  32.194  1.00  0.00     0.031 C 
ATOM     37  C   UNL A   1      41.580  30.562  36.189  1.00  0.00     0.029 A 
ATOM     38  C   UNL A   1      40.846  30.700  35.023  1.00  0.00     0.049 A 
ATOM     39  H   UNL A   1      41.189  29.852  33.122  1.00  0.00     0.167 HD
ATOM     40  C   UNL A   1      38.981  31.516  33.622  1.00  0.00     0.074 A 
ATOM     41  C   UNL A   1      37.768  32.275  33.408  1.00  0.00     0.031 C 
ATOM     42  C   UNL A   1      39.643  31.458  34.805  1.00  0.00     0.031 A 
BRANCH  29  43
ATOM     43  C   UNL A   1      44.695  27.929  34.600  1.00  0.00    -0.014 A 
ATOM     44  C   UNL A   1      44.626  26.746  35.348  1.00  0.00     0.009 A 
ATOM     45  C   UNL A   1      45.923  28.606  34.506  1.00  0.00     0.009 A 
ATOM     46  C   UNL A   1      45.761  26.266  36.010  1.00  0.00     0.001 A 
ATOM     47  C   UNL A   1      47.059  28.111  35.145  1.00  0.00     0.001 A 
ATOM     48  C   UNL A   1      46.976  26.946  35.904  1.00  0.00     0.000 A 
ENDBRANCH  29  43
BRANCH  30  49
ATOM     49  C   UNL A   1      37.066  31.475  29.348  1.00  0.00    -0.014 A 
ATOM     50  C   UNL A   1      37.312  32.766  28.852  1.00  0.00     0.009 A 
ATOM     51  C   UNL A   1      35.814  30.890  29.107  1.00  0.00     0.009 A 
ATOM     52  C   UNL A   1      36.318  33.464  28.159  1.00  0.00     0.001 A 
ATOM     53  C   UNL A   1      34.836  31.572  28.382  1.00  0.00     0.001 A 
ATOM     54  C   UNL A   1      35.083  32.864  27.921  1.00  0.00     0.000 A 
ENDBRANCH  30  49
BRANCH  42  55
ATOM     55  C   UNL A   1      39.074  32.231  35.964  1.00  0.00    -0.014 A 
ATOM     56  C   UNL A   1      38.157  31.638  36.847  1.00  0.00     0.009 A 
ATOM     57  C   UNL A   1      39.502  33.544  36.214  1.00  0.00     0.009 A 
ATOM     58  C   UNL A   1      37.659  32.354  37.938  1.00  0.00     0.001 A 
ATOM     59  C   UNL A   1      39.024  34.248  37.321  1.00  0.00     0.001 A 
ATOM     60  C   UNL A   1      38.097  33.655  38.177  1.00  0.00     0.000 A 
ENDBRANCH  42  55
ENDBRANCH  16  17
ENDBRANCH   9  11
ENDBRANCH   8   9
ENDBRANCH   7   8
ENDBRANCH   6   7
ENDBRANCH   5   6
ENDBRANCH   3   5
ENDBRANCH   2   3
BRANCH   2  61
ATOM     61  C   UNL A   1      40.724  20.355  26.247  1.00  0.00    -0.031 A 
ATOM     62  C   UNL A   1      39.809  19.498  25.605  1.00  0.00     0.005 A 
ATOM     63  C   UNL A   1      40.340  21.694  26.406  1.00  0.00     0.044 A 
ATOM     64  C   UNL A   1      38.536  19.940  25.211  1.00  0.00     0.012 A 
ATOM     65  C   UNL A   1      39.082  22.134  25.992  1.00  0.00     0.131 A 
ATOM     66  C   UNL A   1      38.146  21.270  25.408  1.00  0.00     0.018 A 
ATOM     67  F   UNL A   1      38.770  23.421  26.209  1.00  0.00    -0.206 F 
BRANCH  66  68
ATOM     68  C   UNL A   1      36.811  21.754  25.032  1.00  0.00    -0.012 A 
ATOM     69  C   UNL A   1      36.586  22.501  23.864  1.00  0.00     0.009 A 
ATOM     70  C   UNL A   1      35.705  21.445  25.831  1.00  0.00     0.056 A 
ATOM     71  C   UNL A   1      35.296  22.866  23.469  1.00  0.00     0.004 A 
ATOM     72  C   UNL A   1      34.436  21.889  25.475  1.00  0.00     0.133 A 
ATOM     73  C   UNL A   1      34.213  22.556  24.276  1.00  0.00     0.047 A 
BRANCH  72  74
ATOM     74  O   UNL A   1      33.308  21.696  26.275  1.00  0.00    -0.410 OA
BRANCH  74  75
ATOM     75  C   UNL A   1      32.202  21.118  25.682  1.00  0.00     0.412 C 
ATOM     76  O   UNL A   1      32.136  20.011  25.152  1.00  0.00    -0.224 OA
ATOM     77  N   UNL A   1      31.098  21.910  25.758  1.00  0.00    -0.321 N 
ATOM     78  H   UNL A   1      30.330  21.668  25.190  1.00  0.00     0.167 HD
BRANCH  77  79
ATOM     79  C   UNL A   1      30.958  23.075  26.600  1.00  0.00     0.120 C 
BRANCH  79  80
ATOM     80  C   UNL A   1      30.717  24.368  25.828  1.00  0.00     0.026 C 
BRANCH  80  81
ATOM     81  C   UNL A   1      31.945  25.127  25.314  1.00  0.00     0.037 C 
BRANCH  81  82
ATOM     82  C   UNL A   1      32.366  26.434  25.949  1.00  0.00    -0.048 A 
ATOM     83  C   UNL A   1      33.626  27.024  25.812  1.00  0.00     0.004 A 
ATOM     84  C   UNL A   1      31.429  27.073  26.780  1.00  0.00     0.004 A 
ATOM     85  C   UNL A   1      33.951  28.198  26.501  1.00  0.00     0.000 A 
ATOM     86  C   UNL A   1      31.743  28.255  27.453  1.00  0.00     0.000 A 
ATOM     87  C   UNL A   1      33.010  28.813  27.320  1.00  0.00     0.000 A 
ENDBRANCH  81  82
ENDBRANCH  80  81
ENDBRANCH  79  80
ENDBRANCH  77  79
ENDBRANCH  74  75
ENDBRANCH  72  74
ENDBRANCH  66  68
ENDBRANCH   2  61
TORSDOF 19
ENDMDL
MODEL 2
REMARK VINA RESULT:     -11.6      4.390      8.158
REMARK SMILES C[C@@H](C(=O)OCCOC(=O)c1ccc(-c2c3nc(c(-c4ccccc4)c4ccc([nH]4)c(-c4ccccc4)c4nc(c(-c5ccccc5)c5ccc2[nH]5)C=C4)C=C3)cc1)c1ccc(-c2cccc(OC(=O)NCCCc3ccccc3)c2)c(F)c1
REMARK SMILES IDX 1 1 2 2 3 3 4 4 5 5 6 6 7 7 8 8 9 9 10 10 11 11 12 12 58 13
REMARK SMILES IDX 13 14 57 15 14 16 15 17 16 18 51 19 17 20 56 21 50 22 52 23
REMARK SMILES IDX 18 24 55 25 49 26 48 27 19 29 41 30 26 31 40 32 27 33 30 34
REMARK SMILES IDX 39 35 53 36 28 37 29 38 38 40 54 41 31 42 20 43 21 44 25 45
REMARK SMILES IDX 22 46 24 47 23 48 42 49 43 50 47 51 44 52 46 53 45 54 32 55
REMARK SMILES IDX 33 56 37 57 34 58 36 59 35 60 59 61 60 62 84 63 61 64 82 65
REMARK SMILES IDX 62 66 83 67 63 68 64 69 81 70 65 71 67 72 66 73 68 74 69 75
REMARK SMILES IDX 70 76 71 77 72 79 73 80 74 81 75 82 76 83 80 84 77 85 79 86
REMARK SMILES IDX 78 87
REMARK H PARENT 52 28 30 39 71 78
REMARK Flexibility Score: inf
ROOT
ATOM      1  C   UNL A   1      41.238  22.857  28.383  1.00  0.00     0.025 C 
ATOM      2  C   UNL A   1      40.979  22.175  27.029  1.00  0.00     0.126 C 
ENDROOT
BRANCH   2   3
ATOM      3  C   UNL A   1      41.235  20.653  27.107  1.00  0.00     0.313 C 
ATOM      4  O   UNL A   1      40.767  19.920  27.970  1.00  0.00    -0.252 OA
BRANCH   3   5
ATOM      5  O   UNL A   1      41.989  20.196  26.068  1.00  0.00    -0.462 OA
BRANCH   5   6
ATOM      6  C   UNL A   1      42.295  18.788  26.057  1.00  0.00     0.274 C 
BRANCH   6   7
ATOM      7  C   UNL A   1      43.650  18.521  25.401  1.00  0.00     0.275 C 
BRANCH   7   8
ATOM      8  O   UNL A   1      43.880  19.431  24.308  1.00  0.00    -0.458 OA
BRANCH   8   9
ATOM      9  C   UNL A   1      45.124  19.957  24.234  1.00  0.00     0.338 C 
ATOM     10  O   UNL A   1      46.107  19.478  23.697  1.00  0.00    -0.246 OA
BRANCH   9  11
ATOM     11  C   UNL A   1      45.103  21.315  24.798  1.00  0.00     0.060 A 
ATOM     12  C   UNL A   1      44.850  22.358  23.920  1.00  0.00     0.016 A 
ATOM     13  C   UNL A   1      45.433  21.584  26.127  1.00  0.00     0.016 A 
ATOM     14  C   UNL A   1      44.960  23.674  24.348  1.00  0.00     0.010 A 
ATOM     15  C   UNL A   1      45.512  22.918  26.566  1.00  0.00     0.010 A 
ATOM     16  C   UNL A   1      45.295  23.979  25.671  1.00  0.00    -0.014 A 
BRANCH  16  17
ATOM     17  C   UNL A   1      45.499  25.408  26.042  1.00  0.00     0.031 A 
ATOM     18  C   UNL A   1      44.404  26.156  26.756  1.00  0.00     0.074 A 
ATOM     19  C   UNL A   1      46.710  25.988  25.905  1.00  0.00     0.049 A 
ATOM     20  N   UNL A   1      44.391  27.392  27.193  1.00  0.00    -0.248 NA
ATOM     21  C   UNL A   1      43.166  25.409  27.028  1.00  0.00     0.031 C 
ATOM     22  C   UNL A   1      47.914  25.318  25.416  1.00  0.00     0.029 A 
ATOM     23  N   UNL A   1      47.152  27.240  26.271  1.00  0.00    -0.354 N 
ATOM     24  C   UNL A   1      43.124  27.587  27.733  1.00  0.00     0.074 A 
ATOM     25  C   UNL A   1      42.409  26.336  27.597  1.00  0.00     0.031 C 
ATOM     26  C   UNL A   1      48.975  26.115  25.631  1.00  0.00     0.029 A 
ATOM     27  C   UNL A   1      48.518  27.387  26.187  1.00  0.00     0.049 A 
ATOM     28  H   UNL A   1      46.549  27.960  26.565  1.00  0.00     0.167 HD
ATOM     29  C   UNL A   1      42.594  28.713  28.269  1.00  0.00     0.031 A 
ATOM     30  C   UNL A   1      49.313  28.417  26.546  1.00  0.00     0.031 A 
ATOM     31  C   UNL A   1      43.308  29.948  28.448  1.00  0.00     0.049 A 
ATOM     32  C   UNL A   1      48.689  29.679  27.083  1.00  0.00     0.074 A 
ATOM     33  C   UNL A   1      42.828  31.165  28.902  1.00  0.00     0.029 A 
ATOM     34  N   UNL A   1      44.660  30.118  28.202  1.00  0.00    -0.354 N 
ATOM     35  N   UNL A   1      47.460  29.891  27.486  1.00  0.00    -0.248 NA
ATOM     36  C   UNL A   1      49.568  30.855  27.189  1.00  0.00     0.031 C 
ATOM     37  C   UNL A   1      43.881  32.087  28.878  1.00  0.00     0.029 A 
ATOM     38  C   UNL A   1      45.026  31.427  28.467  1.00  0.00     0.049 A 
ATOM     39  H   UNL A   1      45.270  29.413  27.886  1.00  0.00     0.167 HD
ATOM     40  C   UNL A   1      47.419  31.223  27.886  1.00  0.00     0.074 A 
ATOM     41  C   UNL A   1      48.757  31.752  27.732  1.00  0.00     0.031 C 
ATOM     42  C   UNL A   1      46.359  31.949  28.318  1.00  0.00     0.031 A 
BRANCH  29  43
ATOM     43  C   UNL A   1      41.128  28.695  28.599  1.00  0.00    -0.014 A 
ATOM     44  C   UNL A   1      40.652  28.400  29.883  1.00  0.00     0.009 A 
ATOM     45  C   UNL A   1      40.207  29.012  27.585  1.00  0.00     0.009 A 
ATOM     46  C   UNL A   1      39.277  28.399  30.139  1.00  0.00     0.001 A 
ATOM     47  C   UNL A   1      38.839  29.036  27.851  1.00  0.00     0.001 A 
ATOM     48  C   UNL A   1      38.374  28.721  29.125  1.00  0.00     0.000 A 
ENDBRANCH  29  43
BRANCH  30  49
ATOM     49  C   UNL A   1      50.796  28.328  26.417  1.00  0.00    -0.014 A 
ATOM     50  C   UNL A   1      51.577  27.907  27.506  1.00  0.00     0.009 A 
ATOM     51  C   UNL A   1      51.445  28.720  25.237  1.00  0.00     0.009 A 
ATOM     52  C   UNL A   1      52.973  27.907  27.424  1.00  0.00     0.001 A 
ATOM     53  C   UNL A   1      52.838  28.683  25.143  1.00  0.00     0.001 A 
ATOM     54  C   UNL A   1      53.601  28.290  26.240  1.00  0.00     0.000 A 
ENDBRANCH  30  49
BRANCH  42  55
ATOM     55  C   UNL A   1      46.592  33.397  28.654  1.00  0.00    -0.014 A 
ATOM     56  C   UNL A   1      47.005  33.784  29.939  1.00  0.00     0.009 A 
ATOM     57  C   UNL A   1      46.460  34.381  27.661  1.00  0.00     0.009 A 
ATOM     58  C   UNL A   1      47.250  35.127  30.231  1.00  0.00     0.001 A 
ATOM     59  C   UNL A   1      46.733  35.720  27.948  1.00  0.00     0.001 A 
ATOM     60  C   UNL A   1      47.120  36.093  29.234  1.00  0.00     0.000 A 
ENDBRANCH  42  55
ENDBRANCH  16  17
ENDBRANCH   9  11
ENDBRANCH   8   9
ENDBRANCH   7   8
ENDBRANCH   6   7
ENDBRANCH   5   6
ENDBRANCH   3   5
ENDBRANCH   2   3
BRANCH   2  61
ATOM     61  C   UNL A   1      39.602  22.507  26.433  1.00  0.00    -0.031 A 
ATOM     62  C   UNL A   1      39.069  23.804  26.558  1.00  0.00     0.005 A 
ATOM     63  C   UNL A   1      38.842  21.570  25.718  1.00  0.00     0.044 A 
ATOM     64  C   UNL A   1      37.868  24.170  25.930  1.00  0.00     0.012 A 
ATOM     65  C   UNL A   1      37.637  21.934  25.116  1.00  0.00     0.131 A 
ATOM     66  C   UNL A   1      37.133  23.239  25.187  1.00  0.00     0.018 A 
ATOM     67  F   UNL A   1      36.981  20.993  24.419  1.00  0.00    -0.206 F 
BRANCH  66  68
ATOM     68  C   UNL A   1      35.888  23.601  24.497  1.00  0.00    -0.012 A 
ATOM     69  C   UNL A   1      35.353  22.822  23.457  1.00  0.00     0.009 A 
ATOM     70  C   UNL A   1      35.176  24.739  24.891  1.00  0.00     0.056 A 
ATOM     71  C   UNL A   1      34.117  23.126  22.881  1.00  0.00     0.004 A 
ATOM     72  C   UNL A   1      33.990  25.081  24.251  1.00  0.00     0.133 A 
ATOM     73  C   UNL A   1      33.428  24.259  23.281  1.00  0.00     0.047 A 
BRANCH  72  74
ATOM     74  O   UNL A   1      33.281  26.251  24.532  1.00  0.00    -0.410 OA
BRANCH  74  75
ATOM     75  C   UNL A   1      33.220  26.654  25.852  1.00  0.00     0.412 C 
ATOM     76  O   UNL A   1      34.048  27.326  26.463  1.00  0.00    -0.224 OA
ATOM     77  N   UNL A   1      32.077  26.249  26.467  1.00  0.00    -0.321 N 
ATOM     78  H   UNL A   1      32.044  26.315  27.450  1.00  0.00     0.167 HD
BRANCH  77  79
ATOM     79  C   UNL A   1      30.906  25.727  25.801  1.00  0.00     0.120 C 
BRANCH  79  80
ATOM     80  C   UNL A   1      30.362  24.445  26.423  1.00  0.00     0.026 C 
BRANCH  80  81
ATOM     81  C   UNL A   1      30.716  23.120  25.739  1.00  0.00     0.037 C 
BRANCH  81  82
ATOM     82  C   UNL A   1      32.020  22.418  26.046  1.00  0.00    -0.048 A 
ATOM     83  C   UNL A   1      32.490  21.274  25.393  1.00  0.00     0.004 A 
ATOM     84  C   UNL A   1      32.789  22.931  27.106  1.00  0.00     0.004 A 
ATOM     85  C   UNL A   1      33.673  20.648  25.798  1.00  0.00     0.000 A 
ATOM     86  C   UNL A   1      33.981  22.319  27.499  1.00  0.00     0.000 A 
ATOM     87  C   UNL A   1      34.419  21.170  26.850  1.00  0.00     0.000 A 
ENDBRANCH  81  82
ENDBRANCH  80  81
ENDBRANCH  79  80
ENDBRANCH  77  79
ENDBRANCH  74  75
ENDBRANCH  72  74
ENDBRANCH  66  68
ENDBRANCH   2  61
TORSDOF 19
ENDMDL
MODEL 3
REMARK VINA RESULT:     -11.5      3.808      5.242
REMARK SMILES C[C@@H](C(=O)OCCOC(=O)c1ccc(-c2c3nc(c(-c4ccccc4)c4ccc([nH]4)c(-c4ccccc4)c4nc(c(-c5ccccc5)c5ccc2[nH]5)C=C4)C=C3)cc1)c1ccc(-c2cccc(OC(=O)NCCCc3ccccc3)c2)c(F)c1
REMARK SMILES IDX 1 1 2 2 3 3 4 4 5 5 6 6 7 7 8 8 9 9 10 10 11 11 12 12 58 13
REMARK SMILES IDX 13 14 57 15 14 16 15 17 16 18 51 19 17 20 56 21 50 22 52 23
REMARK SMILES IDX 18 24 55 25 49 26 48 27 19 29 41 30 26 31 40 32 27 33 30 34
REMARK SMILES IDX 39 35 53 36 28 37 29 38 38 40 54 41 31 42 20 43 21 44 25 45
REMARK SMILES IDX 22 46 24 47 23 48 42 49 43 50 47 51 44 52 46 53 45 54 32 55
REMARK SMILES IDX 33 56 37 57 34 58 36 59 35 60 59 61 60 62 84 63 61 64 82 65
REMARK SMILES IDX 62 66 83 67 63 68 64 69 81 70 65 71 67 72 66 73 68 74 69 75
REMARK SMILES IDX 70 76 71 77 72 79 73 80 74 81 75 82 76 83 80 84 77 85 79 86
REMARK SMILES IDX 78 87
REMARK H PARENT 52 28 30 39 71 78
REMARK Flexibility Score: inf
ROOT
ATOM      1  C   UNL A   1      41.425  22.506  28.302  1.00  0.00     0.025 C 
ATOM      2  C   UNL A   1      41.013  21.830  26.984  1.00  0.00     0.126 C 
ENDROOT
BRANCH   2   3
ATOM      3  C   UNL A   1      41.126  20.292  27.080  1.00  0.00     0.313 C 
ATOM      4  O   UNL A   1      40.786  19.637  28.059  1.00  0.00    -0.252 OA
BRANCH   3   5
ATOM      5  O   UNL A   1      41.586  19.728  25.928  1.00  0.00    -0.462 OA
BRANCH   5   6
ATOM      6  C   UNL A   1      42.659  18.774  26.055  1.00  0.00     0.274 C 
BRANCH   6   7
ATOM      7  C   UNL A   1      43.883  19.209  25.250  1.00  0.00     0.275 C 
BRANCH   7   8
ATOM      8  O   UNL A   1      43.739  20.564  24.787  1.00  0.00    -0.458 OA
BRANCH   8   9
ATOM      9  C   UNL A   1      44.856  21.325  24.841  1.00  0.00     0.338 C 
ATOM     10  O   UNL A   1      45.901  21.162  24.237  1.00  0.00    -0.246 OA
BRANCH   9  11
ATOM     11  C   UNL A   1      44.586  22.514  25.664  1.00  0.00     0.060 A 
ATOM     12  C   UNL A   1      44.109  23.639  25.007  1.00  0.00     0.016 A 
ATOM     13  C   UNL A   1      44.895  22.575  27.023  1.00  0.00     0.016 A 
ATOM     14  C   UNL A   1      43.972  24.840  25.689  1.00  0.00     0.010 A 
ATOM     15  C   UNL A   1      44.724  23.786  27.719  1.00  0.00     0.010 A 
ATOM     16  C   UNL A   1      44.279  24.939  27.050  1.00  0.00    -0.014 A 
BRANCH  16  17
ATOM     17  C   UNL A   1      44.210  26.279  27.700  1.00  0.00     0.031 A 
ATOM     18  C   UNL A   1      45.430  27.161  27.718  1.00  0.00     0.074 A 
ATOM     19  C   UNL A   1      43.029  26.782  28.114  1.00  0.00     0.049 A 
ATOM     20  N   UNL A   1      45.573  28.371  28.203  1.00  0.00    -0.248 NA
ATOM     21  C   UNL A   1      46.646  26.617  27.093  1.00  0.00     0.031 C 
ATOM     22  C   UNL A   1      41.734  26.117  27.972  1.00  0.00     0.029 A 
ATOM     23  N   UNL A   1      42.713  28.016  28.636  1.00  0.00    -0.354 N 
ATOM     24  C   UNL A   1      46.908  28.704  27.998  1.00  0.00     0.074 A 
ATOM     25  C   UNL A   1      47.524  27.583  27.318  1.00  0.00     0.031 C 
ATOM     26  C   UNL A   1      40.759  26.992  28.273  1.00  0.00     0.029 A 
ATOM     27  C   UNL A   1      41.358  28.248  28.717  1.00  0.00     0.049 A 
ATOM     28  H   UNL A   1      43.390  28.670  28.923  1.00  0.00     0.167 HD
ATOM     29  C   UNL A   1      47.569  29.828  28.365  1.00  0.00     0.031 A 
ATOM     30  C   UNL A   1      40.679  29.357  29.079  1.00  0.00     0.031 A 
ATOM     31  C   UNL A   1      46.958  30.963  29.003  1.00  0.00     0.049 A 
ATOM     32  C   UNL A   1      41.441  30.573  29.541  1.00  0.00     0.074 A 
ATOM     33  C   UNL A   1      47.565  32.109  29.489  1.00  0.00     0.029 A 
ATOM     34  N   UNL A   1      45.599  31.106  29.221  1.00  0.00    -0.354 N 
ATOM     35  N   UNL A   1      42.722  30.834  29.448  1.00  0.00    -0.248 NA
ATOM     36  C   UNL A   1      40.655  31.638  30.185  1.00  0.00     0.031 C 
ATOM     37  C   UNL A   1      46.575  32.923  30.052  1.00  0.00     0.029 A 
ATOM     38  C   UNL A   1      45.349  32.308  29.862  1.00  0.00     0.049 A 
ATOM     39  H   UNL A   1      44.913  30.451  28.959  1.00  0.00     0.167 HD
ATOM     40  C   UNL A   1      42.893  32.088  30.026  1.00  0.00     0.074 A 
ATOM     41  C   UNL A   1      41.581  32.559  30.413  1.00  0.00     0.031 C 
ATOM     42  C   UNL A   1      44.042  32.776  30.240  1.00  0.00     0.031 A 
BRANCH  29  43
ATOM     43  C   UNL A   1      49.061  29.838  28.190  1.00  0.00    -0.014 A 
ATOM     44  C   UNL A   1      49.932  29.302  29.149  1.00  0.00     0.009 A 
ATOM     45  C   UNL A   1      49.596  30.380  27.009  1.00  0.00     0.009 A 
ATOM     46  C   UNL A   1      51.314  29.334  28.937  1.00  0.00     0.001 A 
ATOM     47  C   UNL A   1      50.973  30.386  26.789  1.00  0.00     0.001 A 
ATOM     48  C   UNL A   1      51.832  29.871  27.758  1.00  0.00     0.000 A 
ENDBRANCH  29  43
BRANCH  30  49
ATOM     49  C   UNL A   1      39.189  29.399  29.033  1.00  0.00    -0.014 A 
ATOM     50  C   UNL A   1      38.436  29.060  30.170  1.00  0.00     0.009 A 
ATOM     51  C   UNL A   1      38.510  29.713  27.847  1.00  0.00     0.009 A 
ATOM     52  C   UNL A   1      37.040  29.008  30.110  1.00  0.00     0.001 A 
ATOM     53  C   UNL A   1      37.114  29.699  27.798  1.00  0.00     0.001 A 
ATOM     54  C   UNL A   1      36.381  29.333  28.925  1.00  0.00     0.000 A 
ENDBRANCH  30  49
BRANCH  42  55
ATOM     55  C   UNL A   1      43.940  34.111  30.926  1.00  0.00    -0.014 A 
ATOM     56  C   UNL A   1      44.026  34.214  32.324  1.00  0.00     0.009 A 
ATOM     57  C   UNL A   1      43.819  35.286  30.168  1.00  0.00     0.009 A 
ATOM     58  C   UNL A   1      43.962  35.461  32.949  1.00  0.00     0.001 A 
ATOM     59  C   UNL A   1      43.784  36.535  30.793  1.00  0.00     0.001 A 
ATOM     60  C   UNL A   1      43.848  36.620  32.183  1.00  0.00     0.000 A 
ENDBRANCH  42  55
ENDBRANCH  16  17
ENDBRANCH   9  11
ENDBRANCH   8   9
ENDBRANCH   7   8
ENDBRANCH   6   7
ENDBRANCH   5   6
ENDBRANCH   3   5
ENDBRANCH   2   3
BRANCH   2  61
ATOM     61  C   UNL A   1      39.639  22.285  26.469  1.00  0.00    -0.031 A 
ATOM     62  C   UNL A   1      39.203  23.607  26.683  1.00  0.00     0.005 A 
ATOM     63  C   UNL A   1      38.786  21.440  25.744  1.00  0.00     0.044 A 
ATOM     64  C   UNL A   1      38.004  24.085  26.131  1.00  0.00     0.012 A 
ATOM     65  C   UNL A   1      37.584  21.916  25.217  1.00  0.00     0.131 A 
ATOM     66  C   UNL A   1      37.175  23.246  25.377  1.00  0.00     0.018 A 
ATOM     67  F   UNL A   1      36.835  21.059  24.505  1.00  0.00    -0.206 F 
BRANCH  66  68
ATOM     68  C   UNL A   1      35.930  23.728  24.764  1.00  0.00    -0.012 A 
ATOM     69  C   UNL A   1      35.415  23.173  23.580  1.00  0.00     0.009 A 
ATOM     70  C   UNL A   1      35.199  24.750  25.378  1.00  0.00     0.056 A 
ATOM     71  C   UNL A   1      34.178  23.574  23.067  1.00  0.00     0.004 A 
ATOM     72  C   UNL A   1      34.013  25.202  24.810  1.00  0.00     0.133 A 
ATOM     73  C   UNL A   1      33.470  24.591  23.685  1.00  0.00     0.047 A 
BRANCH  72  74
ATOM     74  O   UNL A   1      33.284  26.279  25.319  1.00  0.00    -0.410 OA
BRANCH  74  75
ATOM     75  C   UNL A   1      32.398  26.905  24.465  1.00  0.00     0.412 C 
ATOM     76  O   UNL A   1      32.641  27.379  23.356  1.00  0.00    -0.224 OA
ATOM     77  N   UNL A   1      31.132  26.939  24.962  1.00  0.00    -0.321 N 
ATOM     78  H   UNL A   1      30.488  27.537  24.518  1.00  0.00     0.167 HD
BRANCH  77  79
ATOM     79  C   UNL A   1      30.653  26.170  26.087  1.00  0.00     0.120 C 
BRANCH  79  80
ATOM     80  C   UNL A   1      30.368  24.708  25.759  1.00  0.00     0.026 C 
BRANCH  80  81
ATOM     81  C   UNL A   1      30.847  23.650  26.759  1.00  0.00     0.037 C 
BRANCH  81  82
ATOM     82  C   UNL A   1      31.877  22.619  26.358  1.00  0.00    -0.048 A 
ATOM     83  C   UNL A   1      31.766  21.757  25.262  1.00  0.00     0.004 A 
ATOM     84  C   UNL A   1      33.008  22.489  27.183  1.00  0.00     0.004 A 
ATOM     85  C   UNL A   1      32.736  20.780  25.013  1.00  0.00     0.000 A 
ATOM     86  C   UNL A   1      33.987  21.528  26.925  1.00  0.00     0.000 A 
ATOM     87  C   UNL A   1      33.846  20.666  25.843  1.00  0.00     0.000 A 
ENDBRANCH  81  82
ENDBRANCH  80  81
ENDBRANCH  79  80
ENDBRANCH  77  79
ENDBRANCH  74  75
ENDBRANCH  72  74
ENDBRANCH  66  68
ENDBRANCH   2  61
TORSDOF 19
ENDMDL
