MODEL 1
REMARK VINA RESULT:     -12.5      0.000      0.000
REMARK SMILES Cc1c(CC(=O)N[C@@H](C)C(=O)OCCOC(=O)c2ccc(-c3c4nc(c(-c5ccccc5)c5ccc([nH]5)c(-c5ccccc5)c5nc(c(-c6ccccc6)c6ccc3[nH]6)C=C5)C=C4)cc2)c(=O)oc2cc3oc4c(c3cc12)CCCC4
REMARK SMILES IDX 13 1 12 2 10 3 11 4 8 5 9 6 7 7 5 8 6 9 4 11 3 12 1 13 2 14
REMARK SMILES IDX 77 15 66 16 69 17 76 18 67 19 68 20 70 21 75 22 71 23 74 24
REMARK SMILES IDX 72 25 73 26 78 27 81 28 79 29 80 30 14 31 15 32 16 33 17 34
REMARK SMILES IDX 18 35 19 36 65 37 20 38 64 39 21 40 22 41 23 42 58 43 24 44
REMARK SMILES IDX 63 45 57 46 59 47 25 48 62 49 56 50 55 51 26 53 48 54 33 55
REMARK SMILES IDX 47 56 34 57 37 58 46 59 60 60 35 61 36 62 45 64 61 65 38 66
REMARK SMILES IDX 27 67 28 68 32 69 29 70 31 71 30 72 49 73 50 74 54 75 51 76
REMARK SMILES IDX 53 77 52 78 39 79 40 80 44 81 41 82 43 83 42 84
REMARK H PARENT 7 10 59 52 37 63
REMARK Flexibility Score: inf
ROOT
ATOM      1  C   UNL A   1      44.702  39.207  28.360  1.00  0.00     0.274 C 
ENDROOT
BRANCH   1   2
ATOM      2  O   UNL A   1      43.669  40.203  28.264  1.00  0.00    -0.461 OA
BRANCH   2   3
ATOM      3  C   UNL A   1      44.038  41.404  27.746  1.00  0.00     0.328 C 
ATOM      4  O   UNL A   1      44.806  42.195  28.282  1.00  0.00    -0.250 OA
BRANCH   3   5
ATOM      5  C   UNL A   1      43.365  41.679  26.397  1.00  0.00     0.189 C 
ATOM      6  C   UNL A   1      42.133  40.790  26.287  1.00  0.00     0.043 C 
BRANCH   5   7
ATOM      7  N   UNL A   1      44.247  41.487  25.245  1.00  0.00    -0.343 N 
ATOM      8  C   UNL A   1      44.520  42.338  24.210  1.00  0.00     0.225 C 
ATOM      9  O   UNL A   1      45.376  41.998  23.388  1.00  0.00    -0.275 OA
ATOM     10  H   UNL A   1      44.712  40.619  25.209  1.00  0.00     0.164 HD
BRANCH   8  11
ATOM     11  C   UNL A   1      43.741  43.646  24.039  1.00  0.00     0.143 C 
BRANCH  11  12
ATOM     12  C   UNL A   1      43.180  43.775  22.644  1.00  0.00     0.051 A 
ATOM     13  C   UNL A   1      45.082  45.197  21.811  1.00  0.00     0.046 C 
ATOM     14  C   UNL A   1      43.856  44.332  21.620  1.00  0.00    -0.029 A 
ATOM     15  C   UNL A   1      43.352  44.136  20.257  1.00  0.00     0.022 A 
ATOM     16  C   UNL A   1      41.833  43.173  22.447  1.00  0.00     0.340 A 
ATOM     17  C   UNL A   1      42.073  43.607  20.067  1.00  0.00     0.142 A 
ATOM     18  C   UNL A   1      44.088  44.560  19.147  1.00  0.00     0.024 A 
ATOM     19  O   UNL A   1      41.177  42.750  23.392  1.00  0.00    -0.246 OA
ATOM     20  O   UNL A   1      41.339  43.110  21.158  1.00  0.00    -0.422 OA
ATOM     21  C   UNL A   1      41.399  43.633  18.843  1.00  0.00     0.095 A 
ATOM     22  C   UNL A   1      43.371  44.809  17.971  1.00  0.00     0.025 A 
ATOM     23  C   UNL A   1      42.047  44.391  17.879  1.00  0.00     0.138 A 
ATOM     24  C   UNL A   1      43.575  45.752  16.931  1.00  0.00     0.001 A 
ATOM     25  O   UNL A   1      41.424  45.034  16.849  1.00  0.00    -0.461 OA
ATOM     26  C   UNL A   1      42.296  46.003  16.472  1.00  0.00     0.108 A 
ATOM     27  C   UNL A   1      44.604  46.828  16.873  1.00  0.00     0.040 C 
ATOM     28  C   UNL A   1      41.788  47.405  16.354  1.00  0.00     0.076 C 
ATOM     29  C   UNL A   1      44.017  48.110  17.510  1.00  0.00     0.005 C 
ATOM     30  C   UNL A   1      42.461  48.181  17.524  1.00  0.00     0.008 C 
ENDBRANCH  11  12
ENDBRANCH   8  11
ENDBRANCH   5   7
ENDBRANCH   3   5
ENDBRANCH   2   3
ENDBRANCH   1   2
BRANCH   1  31
ATOM     31  C   UNL A   1      44.545  38.209  27.214  1.00  0.00     0.275 C 
BRANCH  31  32
ATOM     32  O   UNL A   1      43.283  37.527  27.308  1.00  0.00    -0.458 OA
BRANCH  32  33
ATOM     33  C   UNL A   1      43.233  36.278  26.796  1.00  0.00     0.338 C 
ATOM     34  O   UNL A   1      43.575  35.896  25.690  1.00  0.00    -0.246 OA
BRANCH  33  35
ATOM     35  C   UNL A   1      42.848  35.397  27.898  1.00  0.00     0.060 A 
ATOM     36  C   UNL A   1      41.566  35.478  28.440  1.00  0.00     0.016 A 
ATOM     37  C   UNL A   1      43.809  34.543  28.433  1.00  0.00     0.016 A 
ATOM     38  C   UNL A   1      41.256  34.701  29.548  1.00  0.00     0.010 A 
ATOM     39  C   UNL A   1      43.504  33.778  29.546  1.00  0.00     0.010 A 
ATOM     40  C   UNL A   1      42.223  33.849  30.101  1.00  0.00    -0.014 A 
BRANCH  40  41
ATOM     41  C   UNL A   1      41.823  32.985  31.221  1.00  0.00     0.031 A 
ATOM     42  C   UNL A   1      40.415  33.201  31.680  1.00  0.00     0.074 A 
ATOM     43  C   UNL A   1      42.381  31.762  31.359  1.00  0.00     0.049 A 
ATOM     44  N   UNL A   1      39.415  32.654  31.057  1.00  0.00    -0.248 NA
ATOM     45  C   UNL A   1      40.004  34.238  32.622  1.00  0.00     0.031 C 
ATOM     46  C   UNL A   1      42.912  30.965  30.239  1.00  0.00     0.029 A 
ATOM     47  N   UNL A   1      42.427  30.904  32.432  1.00  0.00    -0.354 N 
ATOM     48  C   UNL A   1      38.250  33.288  31.467  1.00  0.00     0.074 A 
ATOM     49  C   UNL A   1      38.667  34.247  32.463  1.00  0.00     0.031 C 
ATOM     50  C   UNL A   1      43.069  29.690  30.650  1.00  0.00     0.029 A 
ATOM     51  C   UNL A   1      42.785  29.609  32.076  1.00  0.00     0.049 A 
ATOM     52  H   UNL A   1      42.227  31.180  33.356  1.00  0.00     0.167 HD
ATOM     53  C   UNL A   1      37.032  32.927  30.967  1.00  0.00     0.031 A 
ATOM     54  C   UNL A   1      42.390  28.490  32.737  1.00  0.00     0.031 A 
ATOM     55  C   UNL A   1      37.039  31.853  29.997  1.00  0.00     0.049 A 
ATOM     56  C   UNL A   1      40.968  28.354  32.246  1.00  0.00     0.074 A 
ATOM     57  C   UNL A   1      36.465  31.511  28.791  1.00  0.00     0.029 A 
ATOM     58  N   UNL A   1      37.882  30.828  30.303  1.00  0.00    -0.354 N 
ATOM     59  N   UNL A   1      40.588  27.901  31.080  1.00  0.00    -0.248 NA
ATOM     60  C   UNL A   1      39.896  29.002  33.020  1.00  0.00     0.031 C 
ATOM     61  C   UNL A   1      36.999  30.226  28.419  1.00  0.00     0.029 A 
ATOM     62  C   UNL A   1      37.854  29.795  29.424  1.00  0.00     0.049 A 
ATOM     63  H   UNL A   1      38.465  30.836  31.098  1.00  0.00     0.167 HD
ATOM     64  C   UNL A   1      39.333  28.464  30.867  1.00  0.00     0.074 A 
ATOM     65  C   UNL A   1      38.891  28.967  32.153  1.00  0.00     0.031 C 
ATOM     66  C   UNL A   1      38.814  28.734  29.630  1.00  0.00     0.031 A 
BRANCH  53  67
ATOM     67  C   UNL A   1      35.740  33.315  31.589  1.00  0.00    -0.014 A 
ATOM     68  C   UNL A   1      35.261  32.808  32.799  1.00  0.00     0.009 A 
ATOM     69  C   UNL A   1      35.042  34.378  30.979  1.00  0.00     0.009 A 
ATOM     70  C   UNL A   1      34.114  33.364  33.385  1.00  0.00     0.001 A 
ATOM     71  C   UNL A   1      33.904  34.932  31.565  1.00  0.00     0.001 A 
ATOM     72  C   UNL A   1      33.441  34.425  32.773  1.00  0.00     0.000 A 
ENDBRANCH  53  67
BRANCH  54  73
ATOM     73  C   UNL A   1      42.760  28.413  34.188  1.00  0.00    -0.014 A 
ATOM     74  C   UNL A   1      43.558  29.354  34.851  1.00  0.00     0.009 A 
ATOM     75  C   UNL A   1      42.274  27.332  34.954  1.00  0.00     0.009 A 
ATOM     76  C   UNL A   1      44.014  29.125  36.154  1.00  0.00     0.001 A 
ATOM     77  C   UNL A   1      42.699  27.120  36.270  1.00  0.00     0.001 A 
ATOM     78  C   UNL A   1      43.605  27.995  36.855  1.00  0.00     0.000 A 
ENDBRANCH  54  73
BRANCH  66  79
ATOM     79  C   UNL A   1      39.399  28.020  28.465  1.00  0.00    -0.014 A 
ATOM     80  C   UNL A   1      39.248  26.634  28.305  1.00  0.00     0.009 A 
ATOM     81  C   UNL A   1      40.207  28.725  27.563  1.00  0.00     0.009 A 
ATOM     82  C   UNL A   1      39.924  25.966  27.284  1.00  0.00     0.001 A 
ATOM     83  C   UNL A   1      40.875  28.059  26.539  1.00  0.00     0.001 A 
ATOM     84  C   UNL A   1      40.745  26.677  26.409  1.00  0.00     0.000 A 
ENDBRANCH  66  79
ENDBRANCH  40  41
ENDBRANCH  33  35
ENDBRANCH  32  33
ENDBRANCH  31  32
ENDBRANCH   1  31
TORSDOF 14
ENDMDL
MODEL 2
REMARK VINA RESULT:     -12.5     10.554     22.599
REMARK SMILES Cc1c(CC(=O)N[C@@H](C)C(=O)OCCOC(=O)c2ccc(-c3c4nc(c(-c5ccccc5)c5ccc([nH]5)c(-c5ccccc5)c5nc(c(-c6ccccc6)c6ccc3[nH]6)C=C5)C=C4)cc2)c(=O)oc2cc3oc4c(c3cc12)CCCC4
REMARK SMILES IDX 13 1 12 2 10 3 11 4 8 5 9 6 7 7 5 8 6 9 4 11 3 12 1 13 2 14
REMARK SMILES IDX 77 15 66 16 69 17 76 18 67 19 68 20 70 21 75 22 71 23 74 24
REMARK SMILES IDX 72 25 73 26 78 27 81 28 79 29 80 30 14 31 15 32 16 33 17 34
REMARK SMILES IDX 18 35 19 36 65 37 20 38 64 39 21 40 22 41 23 42 58 43 24 44
REMARK SMILES IDX 63 45 57 46 59 47 25 48 62 49 56 50 55 51 26 53 48 54 33 55
REMARK SMILES IDX 47 56 34 57 37 58 46 59 60 60 35 61 36 62 45 64 61 65 38 66
REMARK SMILES IDX 27 67 28 68 32 69 29 70 31 71 30 72 49 73 50 74 54 75 51 76
REMARK SMILES IDX 53 77 52 78 39 79 40 80 44 81 41 82 43 83 42 84
REMARK H PARENT 7 10 59 52 37 63
REMARK Flexibility Score: inf
ROOT
ATOM      1  C   UNL A   1      45.636  20.172  35.702  1.00  0.00     0.274 C 
ENDROOT
BRANCH   1   2
ATOM      2  O   UNL A   1      46.902  19.578  36.037  1.00  0.00    -0.461 OA
BRANCH   2   3
ATOM      3  C   UNL A   1      47.485  20.012  37.186  1.00  0.00     0.328 C 
ATOM      4  O   UNL A   1      48.551  20.614  37.249  1.00  0.00    -0.250 OA
BRANCH   3   5
ATOM      5  C   UNL A   1      46.658  19.645  38.423  1.00  0.00     0.189 C 
ATOM      6  C   UNL A   1      46.580  20.867  39.326  1.00  0.00     0.043 C 
BRANCH   5   7
ATOM      7  N   UNL A   1      47.174  18.488  39.157  1.00  0.00    -0.343 N 
ATOM      8  C   UNL A   1      46.546  17.695  40.078  1.00  0.00     0.225 C 
ATOM      9  O   UNL A   1      47.153  16.709  40.505  1.00  0.00    -0.275 OA
ATOM     10  H   UNL A   1      48.108  18.246  38.961  1.00  0.00     0.164 HD
BRANCH   8  11
ATOM     11  C   UNL A   1      45.155  18.055  40.610  1.00  0.00     0.143 C 
BRANCH  11  12
ATOM     12  C   UNL A   1      44.290  16.828  40.764  1.00  0.00     0.051 A 
ATOM     13  C   UNL A   1      45.035  16.370  43.123  1.00  0.00     0.046 C 
ATOM     14  C   UNL A   1      44.124  16.177  41.932  1.00  0.00    -0.029 A 
ATOM     15  C   UNL A   1      43.040  15.195  42.040  1.00  0.00     0.022 A 
ATOM     16  C   UNL A   1      43.561  16.413  39.534  1.00  0.00     0.340 A 
ATOM     17  C   UNL A   1      42.378  14.773  40.884  1.00  0.00     0.142 A 
ATOM     18  C   UNL A   1      42.724  14.600  43.264  1.00  0.00     0.024 A 
ATOM     19  O   UNL A   1      43.779  16.943  38.450  1.00  0.00    -0.246 OA
ATOM     20  O   UNL A   1      42.627  15.401  39.651  1.00  0.00    -0.422 OA
ATOM     21  C   UNL A   1      41.533  13.660  40.839  1.00  0.00     0.095 A 
ATOM     22  C   UNL A   1      42.074  13.361  43.216  1.00  0.00     0.025 A 
ATOM     23  C   UNL A   1      41.554  12.911  42.006  1.00  0.00     0.138 A 
ATOM     24  C   UNL A   1      42.138  12.236  44.077  1.00  0.00     0.001 A 
ATOM     25  O   UNL A   1      41.307  11.571  42.073  1.00  0.00    -0.461 OA
ATOM     26  C   UNL A   1      41.892  11.171  43.230  1.00  0.00     0.108 A 
ATOM     27  C   UNL A   1      43.026  12.048  45.259  1.00  0.00     0.040 C 
ATOM     28  C   UNL A   1      42.819   9.999  43.187  1.00  0.00     0.076 C 
ATOM     29  C   UNL A   1      44.342  11.384  44.788  1.00  0.00     0.005 C 
ATOM     30  C   UNL A   1      44.235  10.590  43.452  1.00  0.00     0.008 C 
ENDBRANCH  11  12
ENDBRANCH   8  11
ENDBRANCH   5   7
ENDBRANCH   3   5
ENDBRANCH   2   3
ENDBRANCH   1   2
BRANCH   1  31
ATOM     31  C   UNL A   1      45.870  21.588  35.176  1.00  0.00     0.275 C 
BRANCH  31  32
ATOM     32  O   UNL A   1      44.621  22.283  35.026  1.00  0.00    -0.458 OA
BRANCH  32  33
ATOM     33  C   UNL A   1      44.610  23.588  35.374  1.00  0.00     0.338 C 
ATOM     34  O   UNL A   1      44.598  24.076  36.491  1.00  0.00    -0.246 OA
BRANCH  33  35
ATOM     35  C   UNL A   1      44.803  24.345  34.138  1.00  0.00     0.060 A 
ATOM     36  C   UNL A   1      45.630  25.467  34.129  1.00  0.00     0.016 A 
ATOM     37  C   UNL A   1      44.084  23.965  33.007  1.00  0.00     0.016 A 
ATOM     38  C   UNL A   1      45.720  26.226  32.970  1.00  0.00     0.010 A 
ATOM     39  C   UNL A   1      44.162  24.730  31.855  1.00  0.00     0.010 A 
ATOM     40  C   UNL A   1      44.988  25.858  31.832  1.00  0.00    -0.014 A 
BRANCH  40  41
ATOM     41  C   UNL A   1      45.179  26.644  30.604  1.00  0.00     0.031 A 
ATOM     42  C   UNL A   1      45.218  25.817  29.357  1.00  0.00     0.074 A 
ATOM     43  C   UNL A   1      44.718  27.912  30.539  1.00  0.00     0.049 A 
ATOM     44  N   UNL A   1      44.125  25.410  28.786  1.00  0.00    -0.248 NA
ATOM     45  C   UNL A   1      46.412  25.146  28.850  1.00  0.00     0.031 C 
ATOM     46  C   UNL A   1      43.573  28.417  31.318  1.00  0.00     0.029 A 
ATOM     47  N   UNL A   1      45.013  28.938  29.674  1.00  0.00    -0.354 N 
ATOM     48  C   UNL A   1      44.453  24.405  27.887  1.00  0.00     0.074 A 
ATOM     49  C   UNL A   1      45.893  24.297  27.943  1.00  0.00     0.031 C 
ATOM     50  C   UNL A   1      43.161  29.582  30.779  1.00  0.00     0.029 A 
ATOM     51  C   UNL A   1      44.082  29.970  29.719  1.00  0.00     0.049 A 
ATOM     52  H   UNL A   1      45.801  28.942  29.083  1.00  0.00     0.167 HD
ATOM     53  C   UNL A   1      43.496  23.777  27.143  1.00  0.00     0.031 A 
ATOM     54  C   UNL A   1      43.781  30.785  28.675  1.00  0.00     0.031 A 
ATOM     55  C   UNL A   1      42.136  24.227  27.351  1.00  0.00     0.049 A 
ATOM     56  C   UNL A   1      42.902  29.876  27.848  1.00  0.00     0.074 A 
ATOM     57  C   UNL A   1      40.863  23.719  27.503  1.00  0.00     0.029 A 
ATOM     58  N   UNL A   1      42.006  25.579  27.469  1.00  0.00    -0.354 N 
ATOM     59  N   UNL A   1      41.652  29.577  28.083  1.00  0.00    -0.248 NA
ATOM     60  C   UNL A   1      43.537  29.042  26.813  1.00  0.00     0.031 C 
ATOM     61  C   UNL A   1      39.981  24.842  27.692  1.00  0.00     0.029 A 
ATOM     62  C   UNL A   1      40.727  26.009  27.613  1.00  0.00     0.049 A 
ATOM     63  H   UNL A   1      42.776  26.192  27.451  1.00  0.00     0.167 HD
ATOM     64  C   UNL A   1      41.449  28.354  27.452  1.00  0.00     0.074 A 
ATOM     65  C   UNL A   1      42.568  28.174  26.547  1.00  0.00     0.031 C 
ATOM     66  C   UNL A   1      40.537  27.421  27.863  1.00  0.00     0.031 A 
BRANCH  53  67
ATOM     67  C   UNL A   1      43.795  22.950  25.946  1.00  0.00    -0.014 A 
ATOM     68  C   UNL A   1      44.266  23.457  24.733  1.00  0.00     0.009 A 
ATOM     69  C   UNL A   1      43.740  21.552  26.117  1.00  0.00     0.009 A 
ATOM     70  C   UNL A   1      44.680  22.576  23.722  1.00  0.00     0.001 A 
ATOM     71  C   UNL A   1      44.155  20.679  25.113  1.00  0.00     0.001 A 
ATOM     72  C   UNL A   1      44.630  21.193  23.913  1.00  0.00     0.000 A 
ENDBRANCH  53  67
BRANCH  54  73
ATOM     73  C   UNL A   1      44.922  31.564  28.092  1.00  0.00    -0.014 A 
ATOM     74  C   UNL A   1      46.202  31.631  28.657  1.00  0.00     0.009 A 
ATOM     75  C   UNL A   1      44.713  32.275  26.892  1.00  0.00     0.009 A 
ATOM     76  C   UNL A   1      47.164  32.521  28.163  1.00  0.00     0.001 A 
ATOM     77  C   UNL A   1      45.686  33.137  26.374  1.00  0.00     0.001 A 
ATOM     78  C   UNL A   1      46.896  33.293  27.037  1.00  0.00     0.000 A 
ENDBRANCH  54  73
BRANCH  66  79
ATOM     79  C   UNL A   1      39.424  27.880  28.736  1.00  0.00    -0.014 A 
ATOM     80  C   UNL A   1      38.402  28.705  28.243  1.00  0.00     0.009 A 
ATOM     81  C   UNL A   1      39.452  27.573  30.103  1.00  0.00     0.009 A 
ATOM     82  C   UNL A   1      37.449  29.239  29.112  1.00  0.00     0.001 A 
ATOM     83  C   UNL A   1      38.497  28.100  30.967  1.00  0.00     0.001 A 
ATOM     84  C   UNL A   1      37.504  28.944  30.474  1.00  0.00     0.000 A 
ENDBRANCH  66  79
ENDBRANCH  40  41
ENDBRANCH  33  35
ENDBRANCH  32  33
ENDBRANCH  31  32
ENDBRANCH   1  31
TORSDOF 14
ENDMDL
MODEL 3
REMARK VINA RESULT:     -12.4      8.080     14.371
REMARK SMILES Cc1c(CC(=O)N[C@@H](C)C(=O)OCCOC(=O)c2ccc(-c3c4nc(c(-c5ccccc5)c5ccc([nH]5)c(-c5ccccc5)c5nc(c(-c6ccccc6)c6ccc3[nH]6)C=C5)C=C4)cc2)c(=O)oc2cc3oc4c(c3cc12)CCCC4
REMARK SMILES IDX 13 1 12 2 10 3 11 4 8 5 9 6 7 7 5 8 6 9 4 11 3 12 1 13 2 14
REMARK SMILES IDX 77 15 66 16 69 17 76 18 67 19 68 20 70 21 75 22 71 23 74 24
REMARK SMILES IDX 72 25 73 26 78 27 81 28 79 29 80 30 14 31 15 32 16 33 17 34
REMARK SMILES IDX 18 35 19 36 65 37 20 38 64 39 21 40 22 41 23 42 58 43 24 44
REMARK SMILES IDX 63 45 57 46 59 47 25 48 62 49 56 50 55 51 26 53 48 54 33 55
REMARK SMILES IDX 47 56 34 57 37 58 46 59 60 60 35 61 36 62 45 64 61 65 38 66
REMARK SMILES IDX 27 67 28 68 32 69 29 70 31 71 30 72 49 73 50 74 54 75 51 76
REMARK SMILES IDX 53 77 52 78 39 79 40 80 44 81 41 82 43 83 42 84
REMARK H PARENT 7 10 59 52 37 63
REMARK Flexibility Score: inf
ROOT
ATOM      1  C   UNL A   1      33.147  33.428  27.821  1.00  0.00     0.274 C 
ENDROOT
BRANCH   1   2
ATOM      2  O   UNL A   1      33.455  32.024  27.775  1.00  0.00    -0.461 OA
BRANCH   2   3
ATOM      3  C   UNL A   1      32.677  31.265  26.959  1.00  0.00     0.328 C 
ATOM      4  O   UNL A   1      31.572  31.588  26.541  1.00  0.00    -0.250 OA
BRANCH   3   5
ATOM      5  C   UNL A   1      33.338  29.923  26.625  1.00  0.00     0.189 C 
ATOM      6  C   UNL A   1      34.614  29.799  27.446  1.00  0.00     0.043 C 
BRANCH   5   7
ATOM      7  N   UNL A   1      33.618  29.740  25.199  1.00  0.00    -0.343 N 
ATOM      8  C   UNL A   1      32.821  29.218  24.219  1.00  0.00     0.225 C 
ATOM      9  O   UNL A   1      33.236  29.246  23.056  1.00  0.00    -0.275 OA
ATOM     10  H   UNL A   1      34.510  30.036  24.904  1.00  0.00     0.164 HD
BRANCH   8  11
ATOM     11  C   UNL A   1      31.481  28.559  24.560  1.00  0.00     0.143 C 
BRANCH  11  12
ATOM     12  C   UNL A   1      31.528  27.067  24.336  1.00  0.00     0.051 A 
ATOM     13  C   UNL A   1      32.720  26.591  26.500  1.00  0.00     0.046 C 
ATOM     14  C   UNL A   1      31.938  26.187  25.270  1.00  0.00    -0.029 A 
ATOM     15  C   UNL A   1      31.661  24.762  25.062  1.00  0.00     0.022 A 
ATOM     16  C   UNL A   1      31.016  26.612  23.014  1.00  0.00     0.340 A 
ATOM     17  C   UNL A   1      31.216  24.324  23.812  1.00  0.00     0.142 A 
ATOM     18  C   UNL A   1      31.927  23.822  26.061  1.00  0.00     0.024 A 
ATOM     19  O   UNL A   1      30.730  27.410  22.129  1.00  0.00    -0.246 OA
ATOM     20  O   UNL A   1      30.877  25.252  22.812  1.00  0.00    -0.422 OA
ATOM     21  C   UNL A   1      31.186  22.980  23.430  1.00  0.00     0.095 A 
ATOM     22  C   UNL A   1      32.124  22.499  25.647  1.00  0.00     0.025 A 
ATOM     23  C   UNL A   1      31.803  22.138  24.343  1.00  0.00     0.138 A 
ATOM     24  C   UNL A   1      32.953  21.470  26.164  1.00  0.00     0.001 A 
ATOM     25  O   UNL A   1      32.398  20.952  24.025  1.00  0.00    -0.461 OA
ATOM     26  C   UNL A   1      33.260  20.716  25.046  1.00  0.00     0.108 A 
ATOM     27  C   UNL A   1      33.937  21.572  27.277  1.00  0.00     0.040 C 
ATOM     28  C   UNL A   1      34.680  20.389  24.712  1.00  0.00     0.076 C 
ATOM     29  C   UNL A   1      35.312  21.970  26.688  1.00  0.00     0.005 C 
ATOM     30  C   UNL A   1      35.503  21.625  25.181  1.00  0.00     0.008 C 
ENDBRANCH  11  12
ENDBRANCH   8  11
ENDBRANCH   5   7
ENDBRANCH   3   5
ENDBRANCH   2   3
ENDBRANCH   1   2
BRANCH   1  31
ATOM     31  C   UNL A   1      34.451  34.226  27.861  1.00  0.00     0.275 C 
BRANCH  31  32
ATOM     32  O   UNL A   1      35.469  33.493  28.562  1.00  0.00    -0.458 OA
BRANCH  32  33
ATOM     33  C   UNL A   1      35.513  33.652  29.903  1.00  0.00     0.338 C 
ATOM     34  O   UNL A   1      34.742  34.264  30.621  1.00  0.00    -0.246 OA
BRANCH  33  35
ATOM     35  C   UNL A   1      36.585  32.783  30.385  1.00  0.00     0.060 A 
ATOM     36  C   UNL A   1      37.302  31.994  29.486  1.00  0.00     0.016 A 
ATOM     37  C   UNL A   1      36.812  32.707  31.758  1.00  0.00     0.016 A 
ATOM     38  C   UNL A   1      38.249  31.106  29.979  1.00  0.00     0.010 A 
ATOM     39  C   UNL A   1      37.746  31.811  32.250  1.00  0.00     0.010 A 
ATOM     40  C   UNL A   1      38.473  31.014  31.360  1.00  0.00    -0.014 A 
BRANCH  40  41
ATOM     41  C   UNL A   1      39.541  30.119  31.828  1.00  0.00     0.031 A 
ATOM     42  C   UNL A   1      39.574  28.797  31.128  1.00  0.00     0.074 A 
ATOM     43  C   UNL A   1      40.693  30.640  32.307  1.00  0.00     0.049 A 
ATOM     44  N   UNL A   1      40.138  28.667  29.965  1.00  0.00    -0.248 NA
ATOM     45  C   UNL A   1      38.753  27.648  31.496  1.00  0.00     0.031 C 
ATOM     46  C   UNL A   1      41.236  31.950  31.907  1.00  0.00     0.029 A 
ATOM     47  N   UNL A   1      41.692  30.080  33.066  1.00  0.00    -0.354 N 
ATOM     48  C   UNL A   1      39.724  27.462  29.415  1.00  0.00     0.074 A 
ATOM     49  C   UNL A   1      38.885  26.851  30.419  1.00  0.00     0.031 C 
ATOM     50  C   UNL A   1      42.530  32.016  32.282  1.00  0.00     0.029 A 
ATOM     51  C   UNL A   1      42.863  30.829  33.058  1.00  0.00     0.049 A 
ATOM     52  H   UNL A   1      41.589  29.236  33.562  1.00  0.00     0.167 HD
ATOM     53  C   UNL A   1      40.152  27.061  28.181  1.00  0.00     0.031 A 
ATOM     54  C   UNL A   1      44.110  30.314  33.209  1.00  0.00     0.031 A 
ATOM     55  C   UNL A   1      41.055  27.963  27.500  1.00  0.00     0.049 A 
ATOM     56  C   UNL A   1      44.344  29.724  31.839  1.00  0.00     0.074 A 
ATOM     57  C   UNL A   1      41.276  28.496  26.247  1.00  0.00     0.029 A 
ATOM     58  N   UNL A   1      42.003  28.520  28.305  1.00  0.00    -0.354 N 
ATOM     59  N   UNL A   1      44.657  30.380  30.752  1.00  0.00    -0.248 NA
ATOM     60  C   UNL A   1      43.961  28.321  31.606  1.00  0.00     0.031 C 
ATOM     61  C   UNL A   1      42.412  29.374  26.357  1.00  0.00     0.029 A 
ATOM     62  C   UNL A   1      42.883  29.327  27.662  1.00  0.00     0.049 A 
ATOM     63  H   UNL A   1      42.044  28.351  29.275  1.00  0.00     0.167 HD
ATOM     64  C   UNL A   1      44.228  29.570  29.706  1.00  0.00     0.074 A 
ATOM     65  C   UNL A   1      43.987  28.260  30.280  1.00  0.00     0.031 C 
ATOM     66  C   UNL A   1      43.837  30.040  28.482  1.00  0.00     0.031 A 
BRANCH  53  67
ATOM     67  C   UNL A   1      40.027  25.669  27.681  1.00  0.00    -0.014 A 
ATOM     68  C   UNL A   1      40.903  24.631  28.004  1.00  0.00     0.009 A 
ATOM     69  C   UNL A   1      38.855  25.362  26.959  1.00  0.00     0.009 A 
ATOM     70  C   UNL A   1      40.601  23.315  27.619  1.00  0.00     0.001 A 
ATOM     71  C   UNL A   1      38.555  24.054  26.580  1.00  0.00     0.001 A 
ATOM     72  C   UNL A   1      39.429  23.027  26.914  1.00  0.00     0.000 A 
ENDBRANCH  53  67
BRANCH  54  73
ATOM     73  C   UNL A   1      44.363  29.553  34.476  1.00  0.00    -0.014 A 
ATOM     74  C   UNL A   1      45.620  29.085  34.880  1.00  0.00     0.009 A 
ATOM     75  C   UNL A   1      43.275  29.287  35.335  1.00  0.00     0.009 A 
ATOM     76  C   UNL A   1      45.754  28.227  35.978  1.00  0.00     0.001 A 
ATOM     77  C   UNL A   1      43.412  28.459  36.454  1.00  0.00     0.001 A 
ATOM     78  C   UNL A   1      44.645  27.893  36.749  1.00  0.00     0.000 A 
ENDBRANCH  54  73
BRANCH  66  79
ATOM     79  C   UNL A   1      44.286  31.403  28.090  1.00  0.00    -0.014 A 
ATOM     80  C   UNL A   1      43.677  32.552  28.615  1.00  0.00     0.009 A 
ATOM     81  C   UNL A   1      45.264  31.543  27.096  1.00  0.00     0.009 A 
ATOM     82  C   UNL A   1      44.017  33.814  28.126  1.00  0.00     0.001 A 
ATOM     83  C   UNL A   1      45.609  32.803  26.615  1.00  0.00     0.001 A 
ATOM     84  C   UNL A   1      44.975  33.937  27.120  1.00  0.00     0.000 A 
ENDBRANCH  66  79
ENDBRANCH  40  41
ENDBRANCH  33  35
ENDBRANCH  32  33
ENDBRANCH  31  32
ENDBRANCH   1  31
TORSDOF 14
ENDMDL
