MODEL 1
REMARK VINA RESULT:     -11.4      0.000      0.000
REMARK SMILES CC(=O)Nc1cccc(-c2cc(F)ccc2C(=O)OCCOC(=O)c2ccc(-c3c4nc(c(-c5ccccc5)c5ccc([nH]5)c(-c5ccccc5)c5nc(c(-c6ccccc6)c6ccc3[nH]6)C=C5)C=C4)cc2)c1
REMARK SMILES IDX 20 1 19 2 17 3 18 4 16 5 10 6 11 7 12 8 15 9 13 10 14 11
REMARK SMILES IDX 9 12 5 13 6 14 73 15 7 16 8 17 4 18 1 19 2 20 3 21 21 23
REMARK SMILES IDX 22 24 23 25 24 26 25 27 26 28 72 29 27 30 71 31 28 32 29 33
REMARK SMILES IDX 30 34 65 35 31 36 70 37 64 38 66 39 32 40 69 41 63 42 62 43
REMARK SMILES IDX 33 45 55 46 40 47 54 48 41 49 44 50 53 51 67 52 42 53 43 54
REMARK SMILES IDX 52 56 68 57 45 58 34 59 35 60 39 61 36 62 38 63 37 64 56 65
REMARK SMILES IDX 57 66 61 67 58 68 60 69 59 70 46 71 47 72 51 73 48 74 50 75
REMARK SMILES IDX 49 76
REMARK H PARENT 4 22 66 44 44 55
REMARK Flexibility Score: inf
ROOT
ATOM      1  C   UNL A   1      32.579  29.140  25.013  1.00  0.00     0.275 C 
ENDROOT
BRANCH   1   2
ATOM      2  O   UNL A   1      32.641  29.312  23.581  1.00  0.00    -0.458 OA
BRANCH   2   3
ATOM      3  C   UNL A   1      32.066  28.344  22.825  1.00  0.00     0.338 C 
ATOM      4  O   UNL A   1      32.638  27.462  22.214  1.00  0.00    -0.246 OA
BRANCH   3   5
ATOM      5  C   UNL A   1      30.579  28.441  22.865  1.00  0.00     0.068 A 
ATOM      6  C   UNL A   1      29.755  27.455  23.457  1.00  0.00    -0.001 A 
ATOM      7  C   UNL A   1      28.364  27.678  23.456  1.00  0.00     0.048 A 
ATOM      8  C   UNL A   1      27.823  28.831  22.889  1.00  0.00     0.123 A 
ATOM      9  C   UNL A   1      30.016  29.616  22.330  1.00  0.00     0.019 A 
ATOM     10  F   UNL A   1      26.497  29.014  22.904  1.00  0.00    -0.207 F 
ATOM     11  C   UNL A   1      28.637  29.801  22.323  1.00  0.00     0.040 A 
BRANCH   6  12
ATOM     12  C   UNL A   1      30.293  26.231  24.080  1.00  0.00    -0.015 A 
ATOM     13  C   UNL A   1      30.926  23.877  23.879  1.00  0.00     0.041 A 
ATOM     14  C   UNL A   1      30.979  23.794  25.275  1.00  0.00     0.026 A 
ATOM     15  C   UNL A   1      30.613  25.104  23.294  1.00  0.00     0.034 A 
ATOM     16  C   UNL A   1      30.742  24.917  26.068  1.00  0.00     0.003 A 
ATOM     17  C   UNL A   1      30.393  26.127  25.474  1.00  0.00     0.009 A 
BRANCH  13  18
ATOM     18  N   UNL A   1      31.079  22.676  23.166  1.00  0.00    -0.326 N 
ATOM     19  C   UNL A   1      33.517  22.182  23.406  1.00  0.00     0.114 C 
ATOM     20  C   UNL A   1      32.168  21.948  22.789  1.00  0.00     0.221 C 
ATOM     21  O   UNL A   1      32.012  21.054  21.953  1.00  0.00    -0.275 OA
ATOM     22  H   UNL A   1      30.225  22.279  22.881  1.00  0.00     0.169 HD
ENDBRANCH  13  18
ENDBRANCH   6  12
ENDBRANCH   3   5
ENDBRANCH   2   3
ENDBRANCH   1   2
BRANCH   1  23
ATOM     23  C   UNL A   1      31.831  30.301  25.660  1.00  0.00     0.275 C 
BRANCH  23  24
ATOM     24  O   UNL A   1      32.313  30.482  27.001  1.00  0.00    -0.458 OA
BRANCH  24  25
ATOM     25  C   UNL A   1      32.963  31.642  27.223  1.00  0.00     0.338 C 
ATOM     26  O   UNL A   1      32.531  32.782  27.137  1.00  0.00    -0.246 OA
BRANCH  25  27
ATOM     27  C   UNL A   1      34.310  31.340  27.711  1.00  0.00     0.060 A 
ATOM     28  C   UNL A   1      34.612  30.015  28.019  1.00  0.00     0.016 A 
ATOM     29  C   UNL A   1      35.216  32.358  27.990  1.00  0.00     0.016 A 
ATOM     30  C   UNL A   1      35.789  29.706  28.690  1.00  0.00     0.010 A 
ATOM     31  C   UNL A   1      36.437  32.034  28.589  1.00  0.00     0.010 A 
ATOM     32  C   UNL A   1      36.719  30.711  28.981  1.00  0.00    -0.014 A 
BRANCH  32  33
ATOM     33  C   UNL A   1      37.954  30.395  29.747  1.00  0.00     0.031 A 
ATOM     34  C   UNL A   1      39.048  29.584  29.103  1.00  0.00     0.074 A 
ATOM     35  C   UNL A   1      38.110  30.836  31.011  1.00  0.00     0.049 A 
ATOM     36  N   UNL A   1      40.102  29.035  29.649  1.00  0.00    -0.248 NA
ATOM     37  C   UNL A   1      38.929  29.347  27.654  1.00  0.00     0.031 C 
ATOM     38  C   UNL A   1      37.164  31.683  31.741  1.00  0.00     0.029 A 
ATOM     39  N   UNL A   1      39.131  30.633  31.907  1.00  0.00    -0.354 N 
ATOM     40  C   UNL A   1      40.733  28.332  28.629  1.00  0.00     0.074 A 
ATOM     41  C   UNL A   1      39.946  28.527  27.430  1.00  0.00     0.031 C 
ATOM     42  C   UNL A   1      37.662  31.950  32.957  1.00  0.00     0.029 A 
ATOM     43  C   UNL A   1      38.914  31.222  33.128  1.00  0.00     0.049 A 
ATOM     44  H   UNL A   1      39.940  30.113  31.694  1.00  0.00     0.167 HD
ATOM     45  C   UNL A   1      41.862  27.586  28.689  1.00  0.00     0.031 A 
ATOM     46  C   UNL A   1      39.614  31.148  34.275  1.00  0.00     0.031 A 
ATOM     47  C   UNL A   1      42.667  27.433  29.871  1.00  0.00     0.049 A 
ATOM     48  C   UNL A   1      40.844  30.289  34.328  1.00  0.00     0.074 A 
ATOM     49  C   UNL A   1      43.838  26.711  30.031  1.00  0.00     0.029 A 
ATOM     50  N   UNL A   1      42.394  28.027  31.094  1.00  0.00    -0.354 N 
ATOM     51  N   UNL A   1      41.397  29.580  33.373  1.00  0.00    -0.248 NA
ATOM     52  C   UNL A   1      41.534  30.203  35.622  1.00  0.00     0.031 C 
ATOM     53  C   UNL A   1      44.250  26.835  31.363  1.00  0.00     0.029 A 
ATOM     54  C   UNL A   1      43.364  27.676  32.016  1.00  0.00     0.049 A 
ATOM     55  H   UNL A   1      41.623  28.611  31.278  1.00  0.00     0.167 HD
ATOM     56  C   UNL A   1      42.507  28.975  33.947  1.00  0.00     0.074 A 
ATOM     57  C   UNL A   1      42.560  29.417  35.326  1.00  0.00     0.031 C 
ATOM     58  C   UNL A   1      43.398  28.123  33.385  1.00  0.00     0.031 A 
BRANCH  45  59
ATOM     59  C   UNL A   1      42.267  26.836  27.450  1.00  0.00    -0.014 A 
ATOM     60  C   UNL A   1      43.134  27.393  26.498  1.00  0.00     0.009 A 
ATOM     61  C   UNL A   1      41.790  25.530  27.253  1.00  0.00     0.009 A 
ATOM     62  C   UNL A   1      43.488  26.668  25.357  1.00  0.00     0.001 A 
ATOM     63  C   UNL A   1      42.168  24.797  26.126  1.00  0.00     0.001 A 
ATOM     64  C   UNL A   1      43.009  25.370  25.174  1.00  0.00     0.000 A 
ENDBRANCH  45  59
BRANCH  46  65
ATOM     65  C   UNL A   1      39.133  31.866  35.484  1.00  0.00    -0.014 A 
ATOM     66  C   UNL A   1      38.242  31.249  36.376  1.00  0.00     0.009 A 
ATOM     67  C   UNL A   1      39.572  33.172  35.758  1.00  0.00     0.009 A 
ATOM     68  C   UNL A   1      37.794  31.930  37.510  1.00  0.00     0.001 A 
ATOM     69  C   UNL A   1      39.146  33.838  36.909  1.00  0.00     0.001 A 
ATOM     70  C   UNL A   1      38.252  33.220  37.780  1.00  0.00     0.000 A 
ENDBRANCH  46  65
BRANCH  58  71
ATOM     71  C   UNL A   1      44.524  27.644  34.253  1.00  0.00    -0.014 A 
ATOM     72  C   UNL A   1      45.726  28.362  34.347  1.00  0.00     0.009 A 
ATOM     73  C   UNL A   1      44.367  26.473  35.010  1.00  0.00     0.009 A 
ATOM     74  C   UNL A   1      46.761  27.898  35.161  1.00  0.00     0.001 A 
ATOM     75  C   UNL A   1      45.393  26.025  35.842  1.00  0.00     0.001 A 
ATOM     76  C   UNL A   1      46.593  26.733  35.909  1.00  0.00     0.000 A 
ENDBRANCH  58  71
ENDBRANCH  32  33
ENDBRANCH  25  27
ENDBRANCH  24  25
ENDBRANCH  23  24
ENDBRANCH   1  23
TORSDOF 13
ENDMDL
MODEL 2
REMARK VINA RESULT:     -11.3      4.094      7.129
REMARK SMILES CC(=O)Nc1cccc(-c2cc(F)ccc2C(=O)OCCOC(=O)c2ccc(-c3c4nc(c(-c5ccccc5)c5ccc([nH]5)c(-c5ccccc5)c5nc(c(-c6ccccc6)c6ccc3[nH]6)C=C5)C=C4)cc2)c1
REMARK SMILES IDX 20 1 19 2 17 3 18 4 16 5 10 6 11 7 12 8 15 9 13 10 14 11
REMARK SMILES IDX 9 12 5 13 6 14 73 15 7 16 8 17 4 18 1 19 2 20 3 21 21 23
REMARK SMILES IDX 22 24 23 25 24 26 25 27 26 28 72 29 27 30 71 31 28 32 29 33
REMARK SMILES IDX 30 34 65 35 31 36 70 37 64 38 66 39 32 40 69 41 63 42 62 43
REMARK SMILES IDX 33 45 55 46 40 47 54 48 41 49 44 50 53 51 67 52 42 53 43 54
REMARK SMILES IDX 52 56 68 57 45 58 34 59 35 60 39 61 36 62 38 63 37 64 56 65
REMARK SMILES IDX 57 66 61 67 58 68 60 69 59 70 46 71 47 72 51 73 48 74 50 75
REMARK SMILES IDX 49 76
REMARK H PARENT 4 22 66 44 44 55
REMARK Flexibility Score: inf
ROOT
ATOM      1  C   UNL A   1      37.125  21.663  24.242  1.00  0.00     0.275 C 
ENDROOT
BRANCH   1   2
ATOM      2  O   UNL A   1      35.749  21.553  24.666  1.00  0.00    -0.458 OA
BRANCH   2   3
ATOM      3  C   UNL A   1      34.855  22.367  24.052  1.00  0.00     0.338 C 
ATOM      4  O   UNL A   1      34.970  22.879  22.955  1.00  0.00    -0.246 OA
BRANCH   3   5
ATOM      5  C   UNL A   1      33.625  22.535  24.877  1.00  0.00     0.068 A 
ATOM      6  C   UNL A   1      32.595  21.567  24.939  1.00  0.00    -0.001 A 
ATOM      7  C   UNL A   1      31.496  21.833  25.780  1.00  0.00     0.048 A 
ATOM      8  C   UNL A   1      31.430  23.011  26.522  1.00  0.00     0.123 A 
ATOM      9  C   UNL A   1      33.556  23.702  25.664  1.00  0.00     0.019 A 
ATOM     10  F   UNL A   1      30.372  23.234  27.312  1.00  0.00    -0.207 F 
ATOM     11  C   UNL A   1      32.449  23.949  26.469  1.00  0.00     0.040 A 
BRANCH   6  12
ATOM     12  C   UNL A   1      32.639  20.303  24.180  1.00  0.00    -0.015 A 
ATOM     13  C   UNL A   1      33.564  18.057  23.893  1.00  0.00     0.041 A 
ATOM     14  C   UNL A   1      33.028  18.024  22.601  1.00  0.00     0.026 A 
ATOM     15  C   UNL A   1      33.338  19.185  24.682  1.00  0.00     0.034 A 
ATOM     16  C   UNL A   1      32.268  19.088  22.115  1.00  0.00     0.003 A 
ATOM     17  C   UNL A   1      32.081  20.225  22.897  1.00  0.00     0.009 A 
BRANCH  13  18
ATOM     18  N   UNL A   1      34.398  16.988  24.261  1.00  0.00    -0.326 N 
ATOM     19  C   UNL A   1      32.843  15.446  25.465  1.00  0.00     0.114 C 
ATOM     20  C   UNL A   1      34.216  15.894  25.054  1.00  0.00     0.221 C 
ATOM     21  O   UNL A   1      35.211  15.247  25.393  1.00  0.00    -0.275 OA
ATOM     22  H   UNL A   1      35.298  17.040  23.865  1.00  0.00     0.169 HD
ENDBRANCH  13  18
ENDBRANCH   6  12
ENDBRANCH   3   5
ENDBRANCH   2   3
ENDBRANCH   1   2
BRANCH   1  23
ATOM     23  C   UNL A   1      38.068  21.440  25.421  1.00  0.00     0.275 C 
BRANCH  23  24
ATOM     24  O   UNL A   1      38.271  22.688  26.103  1.00  0.00    -0.458 OA
BRANCH  24  25
ATOM     25  C   UNL A   1      39.554  22.976  26.399  1.00  0.00     0.338 C 
ATOM     26  O   UNL A   1      40.553  22.309  26.173  1.00  0.00    -0.246 OA
BRANCH  25  27
ATOM     27  C   UNL A   1      39.614  24.323  26.971  1.00  0.00     0.060 A 
ATOM     28  C   UNL A   1      40.270  25.314  26.245  1.00  0.00     0.016 A 
ATOM     29  C   UNL A   1      39.153  24.574  28.259  1.00  0.00     0.016 A 
ATOM     30  C   UNL A   1      40.549  26.541  26.833  1.00  0.00     0.010 A 
ATOM     31  C   UNL A   1      39.361  25.838  28.819  1.00  0.00     0.010 A 
ATOM     32  C   UNL A   1      40.096  26.821  28.127  1.00  0.00    -0.014 A 
BRANCH  32  33
ATOM     33  C   UNL A   1      40.439  28.111  28.784  1.00  0.00     0.031 A 
ATOM     34  C   UNL A   1      41.814  28.313  29.364  1.00  0.00     0.074 A 
ATOM     35  C   UNL A   1      39.533  29.107  28.856  1.00  0.00     0.049 A 
ATOM     36  N   UNL A   1      42.252  29.269  30.143  1.00  0.00    -0.248 NA
ATOM     37  C   UNL A   1      42.826  27.295  29.036  1.00  0.00     0.031 C 
ATOM     38  C   UNL A   1      38.185  29.077  28.284  1.00  0.00     0.029 A 
ATOM     39  N   UNL A   1      39.616  30.345  29.444  1.00  0.00    -0.354 N 
ATOM     40  C   UNL A   1      43.564  28.933  30.453  1.00  0.00     0.074 A 
ATOM     41  C   UNL A   1      43.854  27.687  29.776  1.00  0.00     0.031 C 
ATOM     42  C   UNL A   1      37.581  30.250  28.522  1.00  0.00     0.029 A 
ATOM     43  C   UNL A   1      38.459  31.079  29.339  1.00  0.00     0.049 A 
ATOM     44  H   UNL A   1      40.425  30.675  29.897  1.00  0.00     0.167 HD
ATOM     45  C   UNL A   1      44.445  29.598  31.238  1.00  0.00     0.031 A 
ATOM     46  C   UNL A   1      38.121  32.264  29.879  1.00  0.00     0.031 A 
ATOM     47  C   UNL A   1      44.168  30.860  31.871  1.00  0.00     0.049 A 
ATOM     48  C   UNL A   1      39.100  32.969  30.773  1.00  0.00     0.074 A 
ATOM     49  C   UNL A   1      44.999  31.624  32.674  1.00  0.00     0.029 A 
ATOM     50  N   UNL A   1      42.973  31.554  31.760  1.00  0.00    -0.354 N 
ATOM     51  N   UNL A   1      40.316  32.611  31.108  1.00  0.00    -0.248 NA
ATOM     52  C   UNL A   1      38.652  34.230  31.378  1.00  0.00     0.031 C 
ATOM     53  C   UNL A   1      44.291  32.760  33.081  1.00  0.00     0.029 A 
ATOM     54  C   UNL A   1      43.039  32.727  32.490  1.00  0.00     0.049 A 
ATOM     55  H   UNL A   1      42.193  31.254  31.239  1.00  0.00     0.167 HD
ATOM     56  C   UNL A   1      40.784  33.608  31.953  1.00  0.00     0.074 A 
ATOM     57  C   UNL A   1      39.728  34.596  32.061  1.00  0.00     0.031 C 
ATOM     58  C   UNL A   1      41.977  33.696  32.588  1.00  0.00     0.031 A 
BRANCH  45  59
ATOM     59  C   UNL A   1      45.776  28.949  31.496  1.00  0.00    -0.014 A 
ATOM     60  C   UNL A   1      46.894  29.205  30.688  1.00  0.00     0.009 A 
ATOM     61  C   UNL A   1      45.915  28.084  32.595  1.00  0.00     0.009 A 
ATOM     62  C   UNL A   1      48.115  28.582  30.956  1.00  0.00     0.001 A 
ATOM     63  C   UNL A   1      47.144  27.485  32.877  1.00  0.00     0.001 A 
ATOM     64  C   UNL A   1      48.241  27.728  32.052  1.00  0.00     0.000 A 
ENDBRANCH  45  59
BRANCH  46  65
ATOM     65  C   UNL A   1      36.768  32.830  29.635  1.00  0.00    -0.014 A 
ATOM     66  C   UNL A   1      35.762  32.726  30.608  1.00  0.00     0.009 A 
ATOM     67  C   UNL A   1      36.480  33.488  28.428  1.00  0.00     0.009 A 
ATOM     68  C   UNL A   1      34.493  33.259  30.370  1.00  0.00     0.001 A 
ATOM     69  C   UNL A   1      35.220  34.048  28.207  1.00  0.00     0.001 A 
ATOM     70  C   UNL A   1      34.225  33.926  29.175  1.00  0.00     0.000 A 
ENDBRANCH  46  65
BRANCH  58  71
ATOM     71  C   UNL A   1      42.215  34.917  33.428  1.00  0.00    -0.014 A 
ATOM     72  C   UNL A   1      41.778  34.979  34.759  1.00  0.00     0.009 A 
ATOM     73  C   UNL A   1      42.912  36.007  32.885  1.00  0.00     0.009 A 
ATOM     74  C   UNL A   1      42.008  36.125  35.522  1.00  0.00     0.001 A 
ATOM     75  C   UNL A   1      43.163  37.141  33.658  1.00  0.00     0.001 A 
ATOM     76  C   UNL A   1      42.703  37.203  34.973  1.00  0.00     0.000 A 
ENDBRANCH  58  71
ENDBRANCH  32  33
ENDBRANCH  25  27
ENDBRANCH  24  25
ENDBRANCH  23  24
ENDBRANCH   1  23
TORSDOF 13
ENDMDL
MODEL 3
REMARK VINA RESULT:     -11.3      3.984      8.833
REMARK SMILES CC(=O)Nc1cccc(-c2cc(F)ccc2C(=O)OCCOC(=O)c2ccc(-c3c4nc(c(-c5ccccc5)c5ccc([nH]5)c(-c5ccccc5)c5nc(c(-c6ccccc6)c6ccc3[nH]6)C=C5)C=C4)cc2)c1
REMARK SMILES IDX 20 1 19 2 17 3 18 4 16 5 10 6 11 7 12 8 15 9 13 10 14 11
REMARK SMILES IDX 9 12 5 13 6 14 73 15 7 16 8 17 4 18 1 19 2 20 3 21 21 23
REMARK SMILES IDX 22 24 23 25 24 26 25 27 26 28 72 29 27 30 71 31 28 32 29 33
REMARK SMILES IDX 30 34 65 35 31 36 70 37 64 38 66 39 32 40 69 41 63 42 62 43
REMARK SMILES IDX 33 45 55 46 40 47 54 48 41 49 44 50 53 51 67 52 42 53 43 54
REMARK SMILES IDX 52 56 68 57 45 58 34 59 35 60 39 61 36 62 38 63 37 64 56 65
REMARK SMILES IDX 57 66 61 67 58 68 60 69 59 70 46 71 47 72 51 73 48 74 50 75
REMARK SMILES IDX 49 76
REMARK H PARENT 4 22 66 44 44 55
REMARK Flexibility Score: inf
ROOT
ATOM      1  C   UNL A   1      36.651  22.569  23.529  1.00  0.00     0.275 C 
ENDROOT
BRANCH   1   2
ATOM      2  O   UNL A   1      35.600  23.472  23.935  1.00  0.00    -0.458 OA
BRANCH   2   3
ATOM      3  C   UNL A   1      34.443  23.417  23.232  1.00  0.00     0.338 C 
ATOM      4  O   UNL A   1      34.327  23.375  22.022  1.00  0.00    -0.246 OA
BRANCH   3   5
ATOM      5  C   UNL A   1      33.263  23.352  24.141  1.00  0.00     0.068 A 
ATOM      6  C   UNL A   1      32.557  24.498  24.577  1.00  0.00    -0.001 A 
ATOM      7  C   UNL A   1      31.440  24.301  25.413  1.00  0.00     0.048 A 
ATOM      8  C   UNL A   1      31.048  23.019  25.794  1.00  0.00     0.123 A 
ATOM      9  C   UNL A   1      32.828  22.063  24.507  1.00  0.00     0.019 A 
ATOM     10  F   UNL A   1      29.981  22.864  26.589  1.00  0.00    -0.207 F 
ATOM     11  C   UNL A   1      31.734  21.898  25.351  1.00  0.00     0.040 A 
BRANCH   6  12
ATOM     12  C   UNL A   1      32.935  25.868  24.182  1.00  0.00    -0.015 A 
ATOM     13  C   UNL A   1      33.758  28.083  24.810  1.00  0.00     0.041 A 
ATOM     14  C   UNL A   1      33.339  28.569  23.566  1.00  0.00     0.026 A 
ATOM     15  C   UNL A   1      33.580  26.730  25.093  1.00  0.00     0.034 A 
ATOM     16  C   UNL A   1      32.771  27.716  22.620  1.00  0.00     0.003 A 
ATOM     17  C   UNL A   1      32.562  26.374  22.929  1.00  0.00     0.009 A 
BRANCH  13  18
ATOM     18  N   UNL A   1      34.227  29.031  25.736  1.00  0.00    -0.326 N 
ATOM     19  C   UNL A   1      32.227  29.454  27.173  1.00  0.00     0.114 C 
ATOM     20  C   UNL A   1      33.612  29.781  26.694  1.00  0.00     0.221 C 
ATOM     21  O   UNL A   1      34.241  30.716  27.197  1.00  0.00    -0.275 OA
ATOM     22  H   UNL A   1      35.198  29.186  25.680  1.00  0.00     0.169 HD
ENDBRANCH  13  18
ENDBRANCH   6  12
ENDBRANCH   3   5
ENDBRANCH   2   3
ENDBRANCH   1   2
BRANCH   1  23
ATOM     23  C   UNL A   1      36.717  21.367  24.466  1.00  0.00     0.275 C 
BRANCH  23  24
ATOM     24  O   UNL A   1      37.224  21.792  25.742  1.00  0.00    -0.458 OA
BRANCH  24  25
ATOM     25  C   UNL A   1      38.522  21.506  25.965  1.00  0.00     0.338 C 
ATOM     26  O   UNL A   1      39.141  20.498  25.658  1.00  0.00    -0.246 OA
BRANCH  25  27
ATOM     27  C   UNL A   1      39.163  22.675  26.573  1.00  0.00     0.060 A 
ATOM     28  C   UNL A   1      38.661  23.935  26.253  1.00  0.00     0.016 A 
ATOM     29  C   UNL A   1      40.319  22.543  27.333  1.00  0.00     0.016 A 
ATOM     30  C   UNL A   1      39.362  25.078  26.619  1.00  0.00     0.010 A 
ATOM     31  C   UNL A   1      40.978  23.695  27.772  1.00  0.00     0.010 A 
ATOM     32  C   UNL A   1      40.528  24.974  27.386  1.00  0.00    -0.014 A 
BRANCH  32  33
ATOM     33  C   UNL A   1      41.312  26.189  27.733  1.00  0.00     0.031 A 
ATOM     34  C   UNL A   1      40.732  27.210  28.677  1.00  0.00     0.074 A 
ATOM     35  C   UNL A   1      42.543  26.382  27.220  1.00  0.00     0.049 A 
ATOM     36  N   UNL A   1      41.155  28.417  28.952  1.00  0.00    -0.248 NA
ATOM     37  C   UNL A   1      39.503  26.826  29.392  1.00  0.00     0.031 C 
ATOM     38  C   UNL A   1      43.258  25.450  26.344  1.00  0.00     0.029 A 
ATOM     39  N   UNL A   1      43.416  27.433  27.366  1.00  0.00    -0.354 N 
ATOM     40  C   UNL A   1      40.211  28.960  29.816  1.00  0.00     0.074 A 
ATOM     41  C   UNL A   1      39.195  27.951  30.022  1.00  0.00     0.031 C 
ATOM     42  C   UNL A   1      44.466  25.956  26.058  1.00  0.00     0.029 A 
ATOM     43  C   UNL A   1      44.578  27.283  26.650  1.00  0.00     0.049 A 
ATOM     44  H   UNL A   1      43.225  28.218  27.928  1.00  0.00     0.167 HD
ATOM     45  C   UNL A   1      40.189  30.192  30.379  1.00  0.00     0.031 A 
ATOM     46  C   UNL A   1      45.600  28.136  26.449  1.00  0.00     0.031 A 
ATOM     47  C   UNL A   1      41.225  31.175  30.209  1.00  0.00     0.049 A 
ATOM     48  C   UNL A   1      45.540  29.507  27.056  1.00  0.00     0.074 A 
ATOM     49  C   UNL A   1      41.305  32.448  30.750  1.00  0.00     0.029 A 
ATOM     50  N   UNL A   1      42.372  30.991  29.452  1.00  0.00    -0.354 N 
ATOM     51  N   UNL A   1      44.613  30.031  27.821  1.00  0.00    -0.248 NA
ATOM     52  C   UNL A   1      46.658  30.412  26.755  1.00  0.00     0.031 C 
ATOM     53  C   UNL A   1      42.482  33.047  30.286  1.00  0.00     0.029 A 
ATOM     54  C   UNL A   1      43.157  32.129  29.500  1.00  0.00     0.049 A 
ATOM     55  H   UNL A   1      42.594  30.170  28.954  1.00  0.00     0.167 HD
ATOM     56  C   UNL A   1      45.041  31.321  28.103  1.00  0.00     0.074 A 
ATOM     57  C   UNL A   1      46.321  31.492  27.445  1.00  0.00     0.031 C 
ATOM     58  C   UNL A   1      44.426  32.281  28.836  1.00  0.00     0.031 A 
BRANCH  45  59
ATOM     59  C   UNL A   1      38.982  30.563  31.194  1.00  0.00    -0.014 A 
ATOM     60  C   UNL A   1      38.922  30.330  32.576  1.00  0.00     0.009 A 
ATOM     61  C   UNL A   1      37.894  31.189  30.562  1.00  0.00     0.009 A 
ATOM     62  C   UNL A   1      37.782  30.687  33.303  1.00  0.00     0.001 A 
ATOM     63  C   UNL A   1      36.769  31.569  31.296  1.00  0.00     0.001 A 
ATOM     64  C   UNL A   1      36.710  31.311  32.664  1.00  0.00     0.000 A 
ENDBRANCH  45  59
BRANCH  46  65
ATOM     65  C   UNL A   1      46.741  27.732  25.586  1.00  0.00    -0.014 A 
ATOM     66  C   UNL A   1      47.847  27.061  26.129  1.00  0.00     0.009 A 
ATOM     67  C   UNL A   1      46.723  28.008  24.209  1.00  0.00     0.009 A 
ATOM     68  C   UNL A   1      48.915  26.685  25.311  1.00  0.00     0.001 A 
ATOM     69  C   UNL A   1      47.779  27.603  23.389  1.00  0.00     0.001 A 
ATOM     70  C   UNL A   1      48.877  26.949  23.942  1.00  0.00     0.000 A 
ENDBRANCH  46  65
BRANCH  58  71
ATOM     71  C   UNL A   1      45.149  33.588  28.990  1.00  0.00    -0.014 A 
ATOM     72  C   UNL A   1      44.963  34.633  28.073  1.00  0.00     0.009 A 
ATOM     73  C   UNL A   1      46.003  33.784  30.086  1.00  0.00     0.009 A 
ATOM     74  C   UNL A   1      45.645  35.840  28.234  1.00  0.00     0.001 A 
ATOM     75  C   UNL A   1      46.663  35.000  30.259  1.00  0.00     0.001 A 
ATOM     76  C   UNL A   1      46.491  36.024  29.328  1.00  0.00     0.000 A 
ENDBRANCH  58  71
ENDBRANCH  32  33
ENDBRANCH  25  27
ENDBRANCH  24  25
ENDBRANCH  23  24
ENDBRANCH   1  23
TORSDOF 13
ENDMDL
