MODEL 1
REMARK VINA RESULT:     -12.1      0.000      0.000
REMARK SMILES Cc1cccc(N2CCN(C(=O)[C@@H]3CC=CC[C@@H]3C(=O)OCCOC(=O)c3ccc(-c4c5nc(c(-c6ccccc6)c6ccc([nH]6)c(-c6ccccc6)c6nc(c(-c7ccccc7)c7ccc4[nH]7)C=C6)C=C5)cc3)CC2)c1C
REMARK SMILES IDX 22 1 21 2 19 3 20 4 18 5 13 6 14 7 15 8 17 9 16 10 11 11
REMARK SMILES IDX 7 12 8 13 76 14 9 15 75 16 10 17 12 18 6 19 1 20 2 21 3 22
REMARK SMILES IDX 77 23 4 24 78 25 5 26 23 27 24 28 25 29 26 30 27 31 28 32
REMARK SMILES IDX 74 33 29 34 73 35 30 36 31 37 32 38 67 39 33 40 72 41 66 42
REMARK SMILES IDX 68 43 34 44 71 45 65 46 64 47 35 49 57 50 42 51 56 52 43 53
REMARK SMILES IDX 46 54 55 55 69 56 44 57 45 58 54 60 70 61 47 62 36 63 37 64
REMARK SMILES IDX 41 65 38 66 40 67 39 68 58 69 59 70 63 71 60 72 62 73 61 74
REMARK SMILES IDX 48 75 49 76 53 77 50 78 52 79 51 80
REMARK H PARENT 68 48 46 59
REMARK Flexibility Score: inf
ROOT
ATOM      1  C   UNL A   1      34.166  28.559  26.854  1.00  0.00     0.274 C 
ENDROOT
BRANCH   1   2
ATOM      2  O   UNL A   1      33.093  27.600  26.684  1.00  0.00    -0.462 OA
BRANCH   2   3
ATOM      3  C   UNL A   1      32.669  27.446  25.402  1.00  0.00     0.310 C 
ATOM      4  O   UNL A   1      33.388  27.033  24.499  1.00  0.00    -0.252 OA
BRANCH   3   5
ATOM      5  C   UNL A   1      31.200  27.779  25.181  1.00  0.00     0.115 C 
ATOM      6  C   UNL A   1      30.307  26.637  24.652  1.00  0.00     0.097 C 
ATOM      7  C   UNL A   1      30.293  26.495  23.132  1.00  0.00     0.041 C 
ATOM      8  C   UNL A   1      30.394  27.792  22.387  1.00  0.00    -0.030 C 
ATOM      9  C   UNL A   1      31.002  29.100  24.426  1.00  0.00     0.043 C 
ATOM     10  C   UNL A   1      30.728  28.954  22.961  1.00  0.00    -0.030 C 
BRANCH   6  11
ATOM     11  C   UNL A   1      30.470  25.410  25.564  1.00  0.00     0.227 C 
ATOM     12  N   UNL A   1      33.088  22.107  25.134  1.00  0.00    -0.368 N 
ATOM     13  C   UNL A   1      32.500  22.448  26.433  1.00  0.00     0.138 C 
ATOM     14  C   UNL A   1      32.241  22.421  23.982  1.00  0.00     0.138 C 
ATOM     15  C   UNL A   1      32.184  23.944  26.476  1.00  0.00     0.141 C 
ATOM     16  C   UNL A   1      31.796  23.897  24.005  1.00  0.00     0.141 C 
ATOM     17  N   UNL A   1      31.405  24.425  25.320  1.00  0.00    -0.339 N 
ATOM     18  O   UNL A   1      29.883  25.439  26.653  1.00  0.00    -0.275 OA
BRANCH  12  19
ATOM     19  C   UNL A   1      33.930  21.008  25.007  1.00  0.00     0.040 A 
ATOM     20  C   UNL A   1      37.609  19.897  24.882  1.00  0.00     0.044 C 
ATOM     21  C   UNL A   1      36.103  19.884  24.865  1.00  0.00    -0.046 A 
ATOM     22  C   UNL A   1      35.451  18.671  24.597  1.00  0.00     0.004 A 
ATOM     23  C   UNL A   1      35.340  21.053  25.123  1.00  0.00    -0.025 A 
ATOM     24  C   UNL A   1      34.065  18.609  24.553  1.00  0.00     0.002 A 
ATOM     25  C   UNL A   1      36.047  22.327  25.513  1.00  0.00     0.047 C 
ATOM     26  C   UNL A   1      33.319  19.768  24.748  1.00  0.00     0.026 A 
ENDBRANCH  12  19
ENDBRANCH   6  11
ENDBRANCH   3   5
ENDBRANCH   2   3
ENDBRANCH   1   2
BRANCH   1  27
ATOM     27  C   UNL A   1      33.628  29.895  27.372  1.00  0.00     0.275 C 
BRANCH  27  28
ATOM     28  O   UNL A   1      34.687  30.858  27.306  1.00  0.00    -0.458 OA
BRANCH  28  29
ATOM     29  C   UNL A   1      35.211  31.196  28.505  1.00  0.00     0.338 C 
ATOM     30  O   UNL A   1      34.674  31.770  29.432  1.00  0.00    -0.246 OA
BRANCH  29  31
ATOM     31  C   UNL A   1      36.487  30.482  28.583  1.00  0.00     0.060 A 
ATOM     32  C   UNL A   1      36.836  29.921  29.814  1.00  0.00     0.016 A 
ATOM     33  C   UNL A   1      37.304  30.342  27.470  1.00  0.00     0.016 A 
ATOM     34  C   UNL A   1      38.045  29.260  29.970  1.00  0.00     0.010 A 
ATOM     35  C   UNL A   1      38.494  29.634  27.612  1.00  0.00     0.010 A 
ATOM     36  C   UNL A   1      38.883  29.112  28.865  1.00  0.00    -0.014 A 
BRANCH  36  37
ATOM     37  C   UNL A   1      40.218  28.496  28.997  1.00  0.00     0.031 A 
ATOM     38  C   UNL A   1      41.370  29.391  29.332  1.00  0.00     0.074 A 
ATOM     39  C   UNL A   1      40.411  27.188  28.754  1.00  0.00     0.049 A 
ATOM     40  N   UNL A   1      42.647  29.208  29.137  1.00  0.00    -0.248 NA
ATOM     41  C   UNL A   1      41.025  30.688  29.938  1.00  0.00     0.031 C 
ATOM     42  C   UNL A   1      39.360  26.194  28.527  1.00  0.00     0.029 A 
ATOM     43  N   UNL A   1      41.577  26.479  28.629  1.00  0.00    -0.354 N 
ATOM     44  C   UNL A   1      43.250  30.402  29.510  1.00  0.00     0.074 A 
ATOM     45  C   UNL A   1      42.204  31.290  29.966  1.00  0.00     0.031 C 
ATOM     46  C   UNL A   1      39.931  25.005  28.280  1.00  0.00     0.029 A 
ATOM     47  C   UNL A   1      41.379  25.176  28.241  1.00  0.00     0.049 A 
ATOM     48  H   UNL A   1      42.466  26.864  28.801  1.00  0.00     0.167 HD
ATOM     49  C   UNL A   1      44.563  30.724  29.445  1.00  0.00     0.031 A 
ATOM     50  C   UNL A   1      42.266  24.251  27.832  1.00  0.00     0.031 A 
ATOM     51  C   UNL A   1      45.581  29.803  29.022  1.00  0.00     0.049 A 
ATOM     52  C   UNL A   1      43.714  24.638  27.724  1.00  0.00     0.074 A 
ATOM     53  C   UNL A   1      46.945  30.004  28.926  1.00  0.00     0.029 A 
ATOM     54  N   UNL A   1      45.337  28.492  28.640  1.00  0.00    -0.354 N 
ATOM     55  N   UNL A   1      44.283  25.789  28.000  1.00  0.00    -0.248 NA
ATOM     56  C   UNL A   1      44.640  23.610  27.231  1.00  0.00     0.031 C 
ATOM     57  C   UNL A   1      47.524  28.822  28.452  1.00  0.00     0.029 A 
ATOM     58  C   UNL A   1      46.525  27.871  28.299  1.00  0.00     0.049 A 
ATOM     59  H   UNL A   1      44.449  28.065  28.615  1.00  0.00     0.167 HD
ATOM     60  C   UNL A   1      45.636  25.615  27.743  1.00  0.00     0.074 A 
ATOM     61  C   UNL A   1      45.802  24.248  27.289  1.00  0.00     0.031 C 
ATOM     62  C   UNL A   1      46.652  26.502  27.873  1.00  0.00     0.031 A 
BRANCH  49  63
ATOM     63  C   UNL A   1      44.942  32.141  29.766  1.00  0.00    -0.014 A 
ATOM     64  C   UNL A   1      45.298  32.540  31.063  1.00  0.00     0.009 A 
ATOM     65  C   UNL A   1      44.934  33.100  28.740  1.00  0.00     0.009 A 
ATOM     66  C   UNL A   1      45.596  33.878  31.333  1.00  0.00     0.001 A 
ATOM     67  C   UNL A   1      45.262  34.430  29.006  1.00  0.00     0.001 A 
ATOM     68  C   UNL A   1      45.581  34.820  30.305  1.00  0.00     0.000 A 
ENDBRANCH  49  63
BRANCH  50  69
ATOM     69  C   UNL A   1      41.800  22.892  27.450  1.00  0.00    -0.014 A 
ATOM     70  C   UNL A   1      41.367  22.638  26.141  1.00  0.00     0.009 A 
ATOM     71  C   UNL A   1      41.811  21.839  28.378  1.00  0.00     0.009 A 
ATOM     72  C   UNL A   1      40.946  21.357  25.771  1.00  0.00     0.001 A 
ATOM     73  C   UNL A   1      41.414  20.555  27.999  1.00  0.00     0.001 A 
ATOM     74  C   UNL A   1      40.977  20.316  26.697  1.00  0.00     0.000 A 
ENDBRANCH  50  69
BRANCH  62  75
ATOM     75  C   UNL A   1      48.038  26.002  27.590  1.00  0.00    -0.014 A 
ATOM     76  C   UNL A   1      48.621  26.147  26.323  1.00  0.00     0.009 A 
ATOM     77  C   UNL A   1      48.791  25.445  28.635  1.00  0.00     0.009 A 
ATOM     78  C   UNL A   1      49.934  25.726  26.106  1.00  0.00     0.001 A 
ATOM     79  C   UNL A   1      50.109  25.046  28.420  1.00  0.00     0.001 A 
ATOM     80  C   UNL A   1      50.678  25.182  27.154  1.00  0.00     0.000 A 
ENDBRANCH  62  75
ENDBRANCH  36  37
ENDBRANCH  29  31
ENDBRANCH  28  29
ENDBRANCH  27  28
ENDBRANCH   1  27
TORSDOF 13
ENDMDL
MODEL 2
REMARK VINA RESULT:     -12.0      3.669      6.809
REMARK SMILES Cc1cccc(N2CCN(C(=O)[C@@H]3CC=CC[C@@H]3C(=O)OCCOC(=O)c3ccc(-c4c5nc(c(-c6ccccc6)c6ccc([nH]6)c(-c6ccccc6)c6nc(c(-c7ccccc7)c7ccc4[nH]7)C=C6)C=C5)cc3)CC2)c1C
REMARK SMILES IDX 22 1 21 2 19 3 20 4 18 5 13 6 14 7 15 8 17 9 16 10 11 11
REMARK SMILES IDX 7 12 8 13 76 14 9 15 75 16 10 17 12 18 6 19 1 20 2 21 3 22
REMARK SMILES IDX 77 23 4 24 78 25 5 26 23 27 24 28 25 29 26 30 27 31 28 32
REMARK SMILES IDX 74 33 29 34 73 35 30 36 31 37 32 38 67 39 33 40 72 41 66 42
REMARK SMILES IDX 68 43 34 44 71 45 65 46 64 47 35 49 57 50 42 51 56 52 43 53
REMARK SMILES IDX 46 54 55 55 69 56 44 57 45 58 54 60 70 61 47 62 36 63 37 64
REMARK SMILES IDX 41 65 38 66 40 67 39 68 58 69 59 70 63 71 60 72 62 73 61 74
REMARK SMILES IDX 48 75 49 76 53 77 50 78 52 79 51 80
REMARK H PARENT 68 48 46 59
REMARK Flexibility Score: inf
ROOT
ATOM      1  C   UNL A   1      31.874  28.170  26.354  1.00  0.00     0.274 C 
ENDROOT
BRANCH   1   2
ATOM      2  O   UNL A   1      32.087  26.963  25.579  1.00  0.00    -0.462 OA
BRANCH   2   3
ATOM      3  C   UNL A   1      31.131  26.012  25.739  1.00  0.00     0.310 C 
ATOM      4  O   UNL A   1      30.832  25.532  26.827  1.00  0.00    -0.252 OA
BRANCH   3   5
ATOM      5  C   UNL A   1      30.412  25.621  24.455  1.00  0.00     0.115 C 
ATOM      6  C   UNL A   1      31.243  24.852  23.407  1.00  0.00     0.097 C 
ATOM      7  C   UNL A   1      32.038  25.739  22.451  1.00  0.00     0.041 C 
ATOM      8  C   UNL A   1      31.358  27.026  22.092  1.00  0.00    -0.030 C 
ATOM      9  C   UNL A   1      29.606  26.780  23.854  1.00  0.00     0.043 C 
ATOM     10  C   UNL A   1      30.282  27.502  22.729  1.00  0.00    -0.030 C 
BRANCH   6  11
ATOM     11  C   UNL A   1      31.889  23.629  24.078  1.00  0.00     0.227 C 
ATOM     12  N   UNL A   1      35.898  23.097  25.339  1.00  0.00    -0.368 N 
ATOM     13  C   UNL A   1      34.813  22.276  25.886  1.00  0.00     0.138 C 
ATOM     14  C   UNL A   1      35.703  23.518  23.951  1.00  0.00     0.138 C 
ATOM     15  C   UNL A   1      33.497  23.050  25.810  1.00  0.00     0.141 C 
ATOM     16  C   UNL A   1      34.345  24.224  23.770  1.00  0.00     0.141 C 
ATOM     17  N   UNL A   1      33.209  23.615  24.479  1.00  0.00    -0.339 N 
ATOM     18  O   UNL A   1      31.128  22.727  24.452  1.00  0.00    -0.275 OA
BRANCH  12  19
ATOM     19  C   UNL A   1      37.212  22.896  25.751  1.00  0.00     0.040 A 
ATOM     20  C   UNL A   1      40.025  20.292  26.040  1.00  0.00     0.044 C 
ATOM     21  C   UNL A   1      39.241  21.574  26.126  1.00  0.00    -0.046 A 
ATOM     22  C   UNL A   1      39.829  22.672  26.771  1.00  0.00     0.004 A 
ATOM     23  C   UNL A   1      37.942  21.698  25.565  1.00  0.00    -0.025 A 
ATOM     24  C   UNL A   1      39.142  23.872  26.892  1.00  0.00     0.002 A 
ATOM     25  C   UNL A   1      37.360  20.547  24.783  1.00  0.00     0.047 C 
ATOM     26  C   UNL A   1      37.846  23.974  26.394  1.00  0.00     0.026 A 
ENDBRANCH  12  19
ENDBRANCH   6  11
ENDBRANCH   3   5
ENDBRANCH   2   3
ENDBRANCH   1   2
BRANCH   1  27
ATOM     27  C   UNL A   1      32.132  29.418  25.506  1.00  0.00     0.275 C 
BRANCH  27  28
ATOM     28  O   UNL A   1      33.416  29.943  25.865  1.00  0.00    -0.458 OA
BRANCH  28  29
ATOM     29  C   UNL A   1      33.385  30.871  26.846  1.00  0.00     0.338 C 
ATOM     30  O   UNL A   1      32.437  31.515  27.251  1.00  0.00    -0.246 OA
BRANCH  29  31
ATOM     31  C   UNL A   1      34.676  30.755  27.529  1.00  0.00     0.060 A 
ATOM     32  C   UNL A   1      35.122  29.470  27.848  1.00  0.00     0.016 A 
ATOM     33  C   UNL A   1      35.441  31.876  27.819  1.00  0.00     0.016 A 
ATOM     34  C   UNL A   1      36.318  29.287  28.524  1.00  0.00     0.010 A 
ATOM     35  C   UNL A   1      36.667  31.690  28.452  1.00  0.00     0.010 A 
ATOM     36  C   UNL A   1      37.100  30.400  28.829  1.00  0.00    -0.014 A 
BRANCH  36  37
ATOM     37  C   UNL A   1      38.337  30.269  29.625  1.00  0.00     0.031 A 
ATOM     38  C   UNL A   1      39.475  29.501  29.027  1.00  0.00     0.074 A 
ATOM     39  C   UNL A   1      38.419  30.761  30.874  1.00  0.00     0.049 A 
ATOM     40  N   UNL A   1      40.484  28.921  29.616  1.00  0.00    -0.248 NA
ATOM     41  C   UNL A   1      39.444  29.337  27.564  1.00  0.00     0.031 C 
ATOM     42  C   UNL A   1      37.427  31.617  31.524  1.00  0.00     0.029 A 
ATOM     43  N   UNL A   1      39.383  30.576  31.830  1.00  0.00    -0.354 N 
ATOM     44  C   UNL A   1      41.158  28.244  28.608  1.00  0.00     0.074 A 
ATOM     45  C   UNL A   1      40.459  28.507  27.369  1.00  0.00     0.031 C 
ATOM     46  C   UNL A   1      37.829  31.876  32.779  1.00  0.00     0.029 A 
ATOM     47  C   UNL A   1      39.054  31.129  33.043  1.00  0.00     0.049 A 
ATOM     48  H   UNL A   1      40.226  30.095  31.664  1.00  0.00     0.167 HD
ATOM     49  C   UNL A   1      42.248  27.452  28.725  1.00  0.00     0.031 A 
ATOM     50  C   UNL A   1      39.641  30.988  34.246  1.00  0.00     0.031 A 
ATOM     51  C   UNL A   1      42.941  27.242  29.967  1.00  0.00     0.049 A 
ATOM     52  C   UNL A   1      40.825  30.071  34.367  1.00  0.00     0.074 A 
ATOM     53  C   UNL A   1      44.064  26.476  30.214  1.00  0.00     0.029 A 
ATOM     54  N   UNL A   1      42.576  27.825  31.172  1.00  0.00    -0.354 N 
ATOM     55  N   UNL A   1      41.422  29.365  33.435  1.00  0.00    -0.248 NA
ATOM     56  C   UNL A   1      41.405  29.913  35.708  1.00  0.00     0.031 C 
ATOM     57  C   UNL A   1      44.358  26.567  31.578  1.00  0.00     0.029 A 
ATOM     58  C   UNL A   1      43.447  27.429  32.170  1.00  0.00     0.049 A 
ATOM     59  H   UNL A   1      41.810  28.431  31.298  1.00  0.00     0.167 HD
ATOM     60  C   UNL A   1      42.465  28.704  34.068  1.00  0.00     0.074 A 
ATOM     61  C   UNL A   1      42.419  29.092  35.464  1.00  0.00     0.031 C 
ATOM     62  C   UNL A   1      43.382  27.855  33.544  1.00  0.00     0.031 A 
BRANCH  49  63
ATOM     63  C   UNL A   1      42.696  26.709  27.500  1.00  0.00    -0.014 A 
ATOM     64  C   UNL A   1      43.510  27.304  26.525  1.00  0.00     0.009 A 
ATOM     65  C   UNL A   1      42.283  25.378  27.319  1.00  0.00     0.009 A 
ATOM     66  C   UNL A   1      43.865  26.597  25.374  1.00  0.00     0.001 A 
ATOM     67  C   UNL A   1      42.665  24.664  26.183  1.00  0.00     0.001 A 
ATOM     68  C   UNL A   1      43.446  25.277  25.206  1.00  0.00     0.000 A 
ENDBRANCH  49  63
BRANCH  50  69
ATOM     69  C   UNL A   1      39.085  31.693  35.431  1.00  0.00    -0.014 A 
ATOM     70  C   UNL A   1      39.462  33.016  35.705  1.00  0.00     0.009 A 
ATOM     71  C   UNL A   1      38.158  31.062  36.276  1.00  0.00     0.009 A 
ATOM     72  C   UNL A   1      38.928  33.690  36.806  1.00  0.00     0.001 A 
ATOM     73  C   UNL A   1      37.606  31.747  37.361  1.00  0.00     0.001 A 
ATOM     74  C   UNL A   1      37.996  33.059  37.628  1.00  0.00     0.000 A 
ENDBRANCH  50  69
BRANCH  62  75
ATOM     75  C   UNL A   1      44.450  27.346  34.466  1.00  0.00    -0.014 A 
ATOM     76  C   UNL A   1      45.658  28.037  34.635  1.00  0.00     0.009 A 
ATOM     77  C   UNL A   1      44.203  26.195  35.230  1.00  0.00     0.009 A 
ATOM     78  C   UNL A   1      46.608  27.571  35.545  1.00  0.00     0.001 A 
ATOM     79  C   UNL A   1      45.144  25.745  36.154  1.00  0.00     0.001 A 
ATOM     80  C   UNL A   1      46.349  26.430  36.306  1.00  0.00     0.000 A 
ENDBRANCH  62  75
ENDBRANCH  36  37
ENDBRANCH  29  31
ENDBRANCH  28  29
ENDBRANCH  27  28
ENDBRANCH   1  27
TORSDOF 13
ENDMDL
MODEL 3
REMARK VINA RESULT:     -11.7      3.938      9.193
REMARK SMILES Cc1cccc(N2CCN(C(=O)[C@@H]3CC=CC[C@@H]3C(=O)OCCOC(=O)c3ccc(-c4c5nc(c(-c6ccccc6)c6ccc([nH]6)c(-c6ccccc6)c6nc(c(-c7ccccc7)c7ccc4[nH]7)C=C6)C=C5)cc3)CC2)c1C
REMARK SMILES IDX 22 1 21 2 19 3 20 4 18 5 13 6 14 7 15 8 17 9 16 10 11 11
REMARK SMILES IDX 7 12 8 13 76 14 9 15 75 16 10 17 12 18 6 19 1 20 2 21 3 22
REMARK SMILES IDX 77 23 4 24 78 25 5 26 23 27 24 28 25 29 26 30 27 31 28 32
REMARK SMILES IDX 74 33 29 34 73 35 30 36 31 37 32 38 67 39 33 40 72 41 66 42
REMARK SMILES IDX 68 43 34 44 71 45 65 46 64 47 35 49 57 50 42 51 56 52 43 53
REMARK SMILES IDX 46 54 55 55 69 56 44 57 45 58 54 60 70 61 47 62 36 63 37 64
REMARK SMILES IDX 41 65 38 66 40 67 39 68 58 69 59 70 63 71 60 72 62 73 61 74
REMARK SMILES IDX 48 75 49 76 53 77 50 78 52 79 51 80
REMARK H PARENT 68 48 46 59
REMARK Flexibility Score: inf
ROOT
ATOM      1  C   UNL A   1      37.382  22.426  24.401  1.00  0.00     0.274 C 
ENDROOT
BRANCH   1   2
ATOM      2  O   UNL A   1      36.236  23.309  24.483  1.00  0.00    -0.462 OA
BRANCH   2   3
ATOM      3  C   UNL A   1      35.120  22.741  25.009  1.00  0.00     0.310 C 
ATOM      4  O   UNL A   1      34.654  23.053  26.100  1.00  0.00    -0.252 OA
BRANCH   3   5
ATOM      5  C   UNL A   1      34.451  21.714  24.106  1.00  0.00     0.115 C 
ATOM      6  C   UNL A   1      33.051  22.077  23.567  1.00  0.00     0.097 C 
ATOM      7  C   UNL A   1      31.898  21.709  24.498  1.00  0.00     0.041 C 
ATOM      8  C   UNL A   1      32.111  20.448  25.279  1.00  0.00    -0.030 C 
ATOM      9  C   UNL A   1      34.528  20.290  24.674  1.00  0.00     0.043 C 
ATOM     10  C   UNL A   1      33.290  19.822  25.373  1.00  0.00    -0.030 C 
BRANCH   6  11
ATOM     11  C   UNL A   1      33.117  23.456  22.890  1.00  0.00     0.227 C 
ATOM     12  N   UNL A   1      32.572  27.290  24.607  1.00  0.00    -0.368 N 
ATOM     13  C   UNL A   1      33.288  27.119  23.339  1.00  0.00     0.138 C 
ATOM     14  C   UNL A   1      31.506  26.315  24.841  1.00  0.00     0.138 C 
ATOM     15  C   UNL A   1      33.908  25.722  23.285  1.00  0.00     0.141 C 
ATOM     16  C   UNL A   1      32.033  24.872  24.706  1.00  0.00     0.141 C 
ATOM     17  N   UNL A   1      32.962  24.634  23.592  1.00  0.00    -0.339 N 
ATOM     18  O   UNL A   1      33.535  23.489  21.725  1.00  0.00    -0.275 OA
BRANCH  12  19
ATOM     19  C   UNL A   1      32.386  28.558  25.147  1.00  0.00     0.040 A 
ATOM     20  C   UNL A   1      33.694  31.059  27.758  1.00  0.00     0.044 C 
ATOM     21  C   UNL A   1      32.880  30.416  26.666  1.00  0.00    -0.046 A 
ATOM     22  C   UNL A   1      31.750  31.098  26.190  1.00  0.00     0.004 A 
ATOM     23  C   UNL A   1      33.233  29.160  26.107  1.00  0.00    -0.025 A 
ATOM     24  C   UNL A   1      30.956  30.541  25.197  1.00  0.00     0.002 A 
ATOM     25  C   UNL A   1      34.507  28.485  26.550  1.00  0.00     0.047 C 
ATOM     26  C   UNL A   1      31.269  29.283  24.691  1.00  0.00     0.026 A 
ENDBRANCH  12  19
ENDBRANCH   6  11
ENDBRANCH   3   5
ENDBRANCH   2   3
ENDBRANCH   1   2
BRANCH   1  27
ATOM     27  C   UNL A   1      38.093  22.328  25.754  1.00  0.00     0.275 C 
BRANCH  27  28
ATOM     28  O   UNL A   1      38.484  23.648  26.149  1.00  0.00    -0.458 OA
BRANCH  28  29
ATOM     29  C   UNL A   1      39.760  23.746  26.584  1.00  0.00     0.338 C 
ATOM     30  O   UNL A   1      40.726  23.084  26.257  1.00  0.00    -0.246 OA
BRANCH  29  31
ATOM     31  C   UNL A   1      39.816  25.003  27.334  1.00  0.00     0.060 A 
ATOM     32  C   UNL A   1      40.449  26.089  26.723  1.00  0.00     0.016 A 
ATOM     33  C   UNL A   1      39.237  25.121  28.589  1.00  0.00     0.016 A 
ATOM     34  C   UNL A   1      40.570  27.299  27.387  1.00  0.00     0.010 A 
ATOM     35  C   UNL A   1      39.312  26.351  29.237  1.00  0.00     0.010 A 
ATOM     36  C   UNL A   1      39.998  27.438  28.652  1.00  0.00    -0.014 A 
BRANCH  36  37
ATOM     37  C   UNL A   1      40.174  28.675  29.438  1.00  0.00     0.031 A 
ATOM     38  C   UNL A   1      41.316  28.732  30.404  1.00  0.00     0.074 A 
ATOM     39  C   UNL A   1      39.298  29.691  29.346  1.00  0.00     0.049 A 
ATOM     40  N   UNL A   1      41.479  29.492  31.452  1.00  0.00    -0.248 NA
ATOM     41  C   UNL A   1      42.408  27.772  30.170  1.00  0.00     0.031 C 
ATOM     42  C   UNL A   1      38.213  29.801  28.371  1.00  0.00     0.029 A 
ATOM     43  N   UNL A   1      39.172  30.816  30.118  1.00  0.00    -0.354 N 
ATOM     44  C   UNL A   1      42.644  29.039  32.056  1.00  0.00     0.074 A 
ATOM     45  C   UNL A   1      43.159  27.959  31.245  1.00  0.00     0.031 C 
ATOM     46  C   UNL A   1      37.524  30.929  28.609  1.00  0.00     0.029 A 
ATOM     47  C   UNL A   1      38.064  31.565  29.806  1.00  0.00     0.049 A 
ATOM     48  H   UNL A   1      39.812  31.063  30.824  1.00  0.00     0.167 HD
ATOM     49  C   UNL A   1      43.207  29.478  33.206  1.00  0.00     0.031 A 
ATOM     50  C   UNL A   1      37.511  32.604  30.457  1.00  0.00     0.031 A 
ATOM     51  C   UNL A   1      42.689  30.580  33.968  1.00  0.00     0.049 A 
ATOM     52  C   UNL A   1      38.124  33.052  31.754  1.00  0.00     0.074 A 
ATOM     53  C   UNL A   1      43.175  31.128  35.139  1.00  0.00     0.029 A 
ATOM     54  N   UNL A   1      41.565  31.313  33.614  1.00  0.00    -0.354 N 
ATOM     55  N   UNL A   1      39.180  32.579  32.374  1.00  0.00    -0.248 NA
ATOM     56  C   UNL A   1      37.460  34.160  32.453  1.00  0.00     0.031 C 
ATOM     57  C   UNL A   1      42.324  32.173  35.513  1.00  0.00     0.029 A 
ATOM     58  C   UNL A   1      41.337  32.306  34.548  1.00  0.00     0.049 A 
ATOM     59  H   UNL A   1      41.012  31.150  32.815  1.00  0.00     0.167 HD
ATOM     60  C   UNL A   1      39.327  33.350  33.519  1.00  0.00     0.074 A 
ATOM     61  C   UNL A   1      38.250  34.321  33.508  1.00  0.00     0.031 C 
ATOM     62  C   UNL A   1      40.267  33.268  34.491  1.00  0.00     0.031 A 
BRANCH  49  63
ATOM     63  C   UNL A   1      44.390  28.716  33.729  1.00  0.00    -0.014 A 
ATOM     64  C   UNL A   1      45.708  29.071  33.402  1.00  0.00     0.009 A 
ATOM     65  C   UNL A   1      44.174  27.608  34.566  1.00  0.00     0.009 A 
ATOM     66  C   UNL A   1      46.781  28.307  33.868  1.00  0.00     0.001 A 
ATOM     67  C   UNL A   1      45.249  26.865  35.054  1.00  0.00     0.001 A 
ATOM     68  C   UNL A   1      46.551  27.208  34.695  1.00  0.00     0.000 A 
ENDBRANCH  49  63
BRANCH  50  69
ATOM     69  C   UNL A   1      36.288  33.253  29.917  1.00  0.00    -0.014 A 
ATOM     70  C   UNL A   1      36.349  33.993  28.727  1.00  0.00     0.009 A 
ATOM     71  C   UNL A   1      35.051  33.116  30.568  1.00  0.00     0.009 A 
ATOM     72  C   UNL A   1      35.199  34.589  28.204  1.00  0.00     0.001 A 
ATOM     73  C   UNL A   1      33.898  33.691  30.029  1.00  0.00     0.001 A 
ATOM     74  C   UNL A   1      33.974  34.432  28.851  1.00  0.00     0.000 A 
ENDBRANCH  50  69
BRANCH  62  75
ATOM     75  C   UNL A   1      40.215  34.296  35.582  1.00  0.00    -0.014 A 
ATOM     76  C   UNL A   1      40.848  35.539  35.443  1.00  0.00     0.009 A 
ATOM     77  C   UNL A   1      39.457  34.035  36.733  1.00  0.00     0.009 A 
ATOM     78  C   UNL A   1      40.733  36.498  36.450  1.00  0.00     0.001 A 
ATOM     79  C   UNL A   1      39.326  35.003  37.727  1.00  0.00     0.001 A 
ATOM     80  C   UNL A   1      39.969  36.232  37.588  1.00  0.00     0.000 A 
ENDBRANCH  62  75
ENDBRANCH  36  37
ENDBRANCH  29  31
ENDBRANCH  28  29
ENDBRANCH  27  28
ENDBRANCH   1  27
TORSDOF 13
ENDMDL
