MODEL 1
REMARK VINA RESULT:     -10.7      0.000      0.000
REMARK SMILES O=C(C[C@H]1C[C@H]2CC[C@@H](C1)N2C(=O)NCc1ncn[nH]1)OCCOC(=O)c1ccc(-c2c3nc(c(-c4ccccc4)c4ccc([nH]4)c(-c4ccccc4)c4nc(c(-c5ccccc5)c5ccc2[nH]5)C=C4)C=C3)cc1
REMARK SMILES IDX 22 1 21 2 2 3 1 4 3 5 4 6 5 7 10 8 6 9 9 10 7 11 11 12 8 13
REMARK SMILES IDX 12 14 13 15 14 16 15 18 16 19 17 20 20 21 18 22 19 23 23 25
REMARK SMILES IDX 24 26 25 27 26 28 27 29 28 30 74 31 29 32 73 33 30 34 31 35
REMARK SMILES IDX 32 36 67 37 33 38 72 39 66 40 68 41 34 42 71 43 65 44 64 45
REMARK SMILES IDX 35 47 57 48 42 49 56 50 43 51 46 52 55 53 69 54 44 55 45 56
REMARK SMILES IDX 54 58 70 59 47 60 36 61 37 62 41 63 38 64 40 65 39 66 58 67
REMARK SMILES IDX 59 68 63 69 60 70 62 71 61 72 48 73 49 74 53 75 50 76 52 77
REMARK SMILES IDX 51 78
REMARK H PARENT 14 17 20 24 68 46 46 57
REMARK Flexibility Score: inf
ROOT
ATOM      1  C   UNL A   1      32.307  29.552  25.608  1.00  0.00     0.274 C 
ENDROOT
BRANCH   1   2
ATOM      2  O   UNL A   1      31.136  28.925  25.055  1.00  0.00    -0.462 OA
BRANCH   2   3
ATOM      3  C   UNL A   1      31.318  27.825  24.272  1.00  0.00     0.306 C 
ATOM      4  O   UNL A   1      31.953  27.876  23.226  1.00  0.00    -0.252 OA
BRANCH   3   5
ATOM      5  C   UNL A   1      30.487  26.620  24.669  1.00  0.00     0.126 C 
BRANCH   5   6
ATOM      6  C   UNL A   1      30.907  25.924  25.980  1.00  0.00     0.004 C 
ATOM      7  C   UNL A   1      30.223  24.550  26.198  1.00  0.00     0.029 C 
ATOM      8  C   UNL A   1      32.451  25.786  26.086  1.00  0.00     0.029 C 
ATOM      9  C   UNL A   1      31.003  23.335  25.645  1.00  0.00     0.087 C 
ATOM     10  C   UNL A   1      33.016  24.460  25.532  1.00  0.00     0.087 C 
ATOM     11  C   UNL A   1      31.310  23.412  24.150  1.00  0.00     0.027 C 
ATOM     12  N   UNL A   1      32.346  23.361  26.202  1.00  0.00    -0.319 N 
ATOM     13  C   UNL A   1      32.614  24.222  24.075  1.00  0.00     0.027 C 
BRANCH  12  14
ATOM     14  C   UNL A   1      32.706  22.471  27.152  1.00  0.00     0.318 C 
ATOM     15  O   UNL A   1      32.314  22.588  28.318  1.00  0.00    -0.249 OA
ATOM     16  N   UNL A   1      33.458  21.393  26.904  1.00  0.00    -0.331 N 
ATOM     17  H   UNL A   1      33.653  20.880  27.722  1.00  0.00     0.165 HD
BRANCH  16  18
ATOM     18  C   UNL A   1      34.055  20.795  25.735  1.00  0.00     0.194 C 
BRANCH  18  19
ATOM     19  C   UNL A   1      33.313  19.565  25.357  1.00  0.00     0.143 A 
ATOM     20  N   UNL A   1      33.019  19.107  24.155  1.00  0.00    -0.218 NA
ATOM     21  N   UNL A   1      32.869  18.665  26.283  1.00  0.00    -0.262 N 
ATOM     22  C   UNL A   1      32.407  17.916  24.407  1.00  0.00     0.246 A 
ATOM     23  N   UNL A   1      32.296  17.601  25.700  1.00  0.00    -0.162 NA
ATOM     24  H   UNL A   1      32.959  18.781  27.257  1.00  0.00     0.192 HD
ENDBRANCH  18  19
ENDBRANCH  16  18
ENDBRANCH  12  14
ENDBRANCH   5   6
ENDBRANCH   3   5
ENDBRANCH   2   3
ENDBRANCH   1   2
BRANCH   1  25
ATOM     25  C   UNL A   1      32.372  29.465  27.136  1.00  0.00     0.275 C 
BRANCH  25  26
ATOM     26  O   UNL A   1      33.716  29.251  27.597  1.00  0.00    -0.458 OA
BRANCH  26  27
ATOM     27  C   UNL A   1      34.416  30.381  27.869  1.00  0.00     0.338 C 
ATOM     28  O   UNL A   1      33.978  31.516  27.941  1.00  0.00    -0.246 OA
BRANCH  27  29
ATOM     29  C   UNL A   1      35.800  30.018  28.244  1.00  0.00     0.060 A 
ATOM     30  C   UNL A   1      36.808  30.186  27.286  1.00  0.00     0.016 A 
ATOM     31  C   UNL A   1      36.118  29.542  29.518  1.00  0.00     0.016 A 
ATOM     32  C   UNL A   1      38.135  29.866  27.593  1.00  0.00     0.010 A 
ATOM     33  C   UNL A   1      37.449  29.240  29.829  1.00  0.00     0.010 A 
ATOM     34  C   UNL A   1      38.465  29.372  28.862  1.00  0.00    -0.014 A 
BRANCH  34  35
ATOM     35  C   UNL A   1      39.817  28.815  29.136  1.00  0.00     0.031 A 
ATOM     36  C   UNL A   1      40.808  29.679  29.874  1.00  0.00     0.074 A 
ATOM     37  C   UNL A   1      40.188  27.582  28.742  1.00  0.00     0.049 A 
ATOM     38  N   UNL A   1      42.068  29.453  30.147  1.00  0.00    -0.248 NA
ATOM     39  C   UNL A   1      40.311  30.982  30.345  1.00  0.00     0.031 C 
ATOM     40  C   UNL A   1      39.343  26.612  28.049  1.00  0.00     0.029 A 
ATOM     41  N   UNL A   1      41.397  26.938  28.874  1.00  0.00    -0.354 N 
ATOM     42  C   UNL A   1      42.520  30.599  30.788  1.00  0.00     0.074 A 
ATOM     43  C   UNL A   1      41.413  31.529  30.829  1.00  0.00     0.031 C 
ATOM     44  C   UNL A   1      40.057  25.493  27.823  1.00  0.00     0.029 A 
ATOM     45  C   UNL A   1      41.418  25.678  28.329  1.00  0.00     0.049 A 
ATOM     46  H   UNL A   1      42.176  27.344  29.319  1.00  0.00     0.167 HD
ATOM     47  C   UNL A   1      43.740  30.861  31.314  1.00  0.00     0.031 A 
ATOM     48  C   UNL A   1      42.421  24.780  28.241  1.00  0.00     0.031 A 
ATOM     49  C   UNL A   1      44.845  29.945  31.314  1.00  0.00     0.049 A 
ATOM     50  C   UNL A   1      43.782  25.098  28.807  1.00  0.00     0.074 A 
ATOM     51  C   UNL A   1      46.105  30.116  31.862  1.00  0.00     0.029 A 
ATOM     52  N   UNL A   1      44.821  28.684  30.745  1.00  0.00    -0.354 N 
ATOM     53  N   UNL A   1      44.187  26.178  29.428  1.00  0.00    -0.248 NA
ATOM     54  C   UNL A   1      44.823  24.066  28.659  1.00  0.00     0.031 C 
ATOM     55  C   UNL A   1      46.859  28.971  31.585  1.00  0.00     0.029 A 
ATOM     56  C   UNL A   1      46.051  28.072  30.908  1.00  0.00     0.049 A 
ATOM     57  H   UNL A   1      44.044  28.282  30.292  1.00  0.00     0.167 HD
ATOM     58  C   UNL A   1      45.514  25.942  29.775  1.00  0.00     0.074 A 
ATOM     59  C   UNL A   1      45.847  24.618  29.295  1.00  0.00     0.031 C 
ATOM     60  C   UNL A   1      46.374  26.750  30.439  1.00  0.00     0.031 A 
BRANCH  47  61
ATOM     61  C   UNL A   1      43.939  32.225  31.909  1.00  0.00    -0.014 A 
ATOM     62  C   UNL A   1      44.388  33.303  31.130  1.00  0.00     0.009 A 
ATOM     63  C   UNL A   1      43.691  32.426  33.275  1.00  0.00     0.009 A 
ATOM     64  C   UNL A   1      44.634  34.543  31.720  1.00  0.00     0.001 A 
ATOM     65  C   UNL A   1      43.910  33.675  33.856  1.00  0.00     0.001 A 
ATOM     66  C   UNL A   1      44.395  34.728  33.081  1.00  0.00     0.000 A 
ENDBRANCH  47  61
BRANCH  48  67
ATOM     67  C   UNL A   1      42.187  23.469  27.579  1.00  0.00    -0.014 A 
ATOM     68  C   UNL A   1      41.670  22.386  28.306  1.00  0.00     0.009 A 
ATOM     69  C   UNL A   1      42.512  23.288  26.226  1.00  0.00     0.009 A 
ATOM     70  C   UNL A   1      41.499  21.142  27.693  1.00  0.00     0.001 A 
ATOM     71  C   UNL A   1      42.312  22.052  25.610  1.00  0.00     0.001 A 
ATOM     72  C   UNL A   1      41.815  20.979  26.346  1.00  0.00     0.000 A 
ENDBRANCH  48  67
BRANCH  60  73
ATOM     73  C   UNL A   1      47.752  26.227  30.734  1.00  0.00    -0.014 A 
ATOM     74  C   UNL A   1      48.783  26.310  29.786  1.00  0.00     0.009 A 
ATOM     75  C   UNL A   1      48.041  25.722  32.012  1.00  0.00     0.009 A 
ATOM     76  C   UNL A   1      50.074  25.883  30.110  1.00  0.00     0.001 A 
ATOM     77  C   UNL A   1      49.337  25.318  32.340  1.00  0.00     0.001 A 
ATOM     78  C   UNL A   1      50.352  25.395  31.387  1.00  0.00     0.000 A 
ENDBRANCH  60  73
ENDBRANCH  34  35
ENDBRANCH  27  29
ENDBRANCH  26  27
ENDBRANCH  25  26
ENDBRANCH   1  25
TORSDOF 15
ENDMDL
MODEL 2
REMARK VINA RESULT:     -10.6      3.477      6.893
REMARK SMILES O=C(C[C@H]1C[C@H]2CC[C@@H](C1)N2C(=O)NCc1ncn[nH]1)OCCOC(=O)c1ccc(-c2c3nc(c(-c4ccccc4)c4ccc([nH]4)c(-c4ccccc4)c4nc(c(-c5ccccc5)c5ccc2[nH]5)C=C4)C=C3)cc1
REMARK SMILES IDX 22 1 21 2 2 3 1 4 3 5 4 6 5 7 10 8 6 9 9 10 7 11 11 12 8 13
REMARK SMILES IDX 12 14 13 15 14 16 15 18 16 19 17 20 20 21 18 22 19 23 23 25
REMARK SMILES IDX 24 26 25 27 26 28 27 29 28 30 74 31 29 32 73 33 30 34 31 35
REMARK SMILES IDX 32 36 67 37 33 38 72 39 66 40 68 41 34 42 71 43 65 44 64 45
REMARK SMILES IDX 35 47 57 48 42 49 56 50 43 51 46 52 55 53 69 54 44 55 45 56
REMARK SMILES IDX 54 58 70 59 47 60 36 61 37 62 41 63 38 64 40 65 39 66 58 67
REMARK SMILES IDX 59 68 63 69 60 70 62 71 61 72 48 73 49 74 53 75 50 76 52 77
REMARK SMILES IDX 51 78
REMARK H PARENT 14 17 20 24 68 46 46 57
REMARK Flexibility Score: inf
ROOT
ATOM      1  C   UNL A   1      34.518  22.354  26.343  1.00  0.00     0.274 C 
ENDROOT
BRANCH   1   2
ATOM      2  O   UNL A   1      33.192  21.920  26.694  1.00  0.00    -0.462 OA
BRANCH   2   3
ATOM      3  C   UNL A   1      32.172  22.809  26.532  1.00  0.00     0.306 C 
ATOM      4  O   UNL A   1      31.525  23.227  27.484  1.00  0.00    -0.252 OA
BRANCH   3   5
ATOM      5  C   UNL A   1      31.759  23.042  25.091  1.00  0.00     0.126 C 
BRANCH   5   6
ATOM      6  C   UNL A   1      31.535  24.516  24.695  1.00  0.00     0.004 C 
ATOM      7  C   UNL A   1      32.732  25.439  25.041  1.00  0.00     0.029 C 
ATOM      8  C   UNL A   1      31.159  24.655  23.194  1.00  0.00     0.029 C 
ATOM      9  C   UNL A   1      33.782  25.600  23.917  1.00  0.00     0.087 C 
ATOM     10  C   UNL A   1      32.360  24.877  22.249  1.00  0.00     0.087 C 
ATOM     11  C   UNL A   1      34.398  24.286  23.439  1.00  0.00     0.027 C 
ATOM     12  N   UNL A   1      33.098  26.037  22.711  1.00  0.00    -0.319 N 
ATOM     13  C   UNL A   1      33.411  23.773  22.377  1.00  0.00     0.027 C 
BRANCH  12  14
ATOM     14  C   UNL A   1      33.233  27.309  22.276  1.00  0.00     0.318 C 
ATOM     15  O   UNL A   1      34.117  27.617  21.469  1.00  0.00    -0.249 OA
ATOM     16  N   UNL A   1      32.414  28.303  22.637  1.00  0.00    -0.331 N 
ATOM     17  H   UNL A   1      32.689  29.167  22.255  1.00  0.00     0.165 HD
BRANCH  16  18
ATOM     18  C   UNL A   1      31.228  28.422  23.450  1.00  0.00     0.194 C 
BRANCH  18  19
ATOM     19  C   UNL A   1      30.146  29.084  22.677  1.00  0.00     0.143 A 
ATOM     20  N   UNL A   1      28.839  29.009  22.843  1.00  0.00    -0.218 NA
ATOM     21  N   UNL A   1      30.404  29.963  21.664  1.00  0.00    -0.262 N 
ATOM     22  C   UNL A   1      28.349  29.875  21.913  1.00  0.00     0.246 A 
ATOM     23  N   UNL A   1      29.272  30.487  21.169  1.00  0.00    -0.162 NA
ATOM     24  H   UNL A   1      31.307  30.186  21.339  1.00  0.00     0.192 HD
ENDBRANCH  18  19
ENDBRANCH  16  18
ENDBRANCH  12  14
ENDBRANCH   5   6
ENDBRANCH   3   5
ENDBRANCH   2   3
ENDBRANCH   1   2
BRANCH   1  25
ATOM     25  C   UNL A   1      35.371  21.241  25.724  1.00  0.00     0.275 C 
BRANCH  25  26
ATOM     26  O   UNL A   1      36.490  21.775  24.998  1.00  0.00    -0.458 OA
BRANCH  26  27
ATOM     27  C   UNL A   1      37.700  21.280  25.362  1.00  0.00     0.338 C 
ATOM     28  O   UNL A   1      38.137  20.166  25.130  1.00  0.00    -0.246 OA
BRANCH  27  29
ATOM     29  C   UNL A   1      38.512  22.366  25.953  1.00  0.00     0.060 A 
ATOM     30  C   UNL A   1      38.027  23.677  25.860  1.00  0.00     0.016 A 
ATOM     31  C   UNL A   1      39.719  22.111  26.609  1.00  0.00     0.016 A 
ATOM     32  C   UNL A   1      38.753  24.739  26.411  1.00  0.00     0.010 A 
ATOM     33  C   UNL A   1      40.434  23.173  27.175  1.00  0.00     0.010 A 
ATOM     34  C   UNL A   1      39.972  24.499  27.058  1.00  0.00    -0.014 A 
BRANCH  34  35
ATOM     35  C   UNL A   1      40.865  25.624  27.447  1.00  0.00     0.031 A 
ATOM     36  C   UNL A   1      40.329  26.662  28.400  1.00  0.00     0.074 A 
ATOM     37  C   UNL A   1      42.119  25.754  26.973  1.00  0.00     0.049 A 
ATOM     38  N   UNL A   1      40.878  27.776  28.812  1.00  0.00    -0.248 NA
ATOM     39  C   UNL A   1      38.983  26.416  28.940  1.00  0.00     0.031 C 
ATOM     40  C   UNL A   1      42.796  24.824  26.072  1.00  0.00     0.029 A 
ATOM     41  N   UNL A   1      43.048  26.744  27.194  1.00  0.00    -0.354 N 
ATOM     42  C   UNL A   1      39.930  28.378  29.629  1.00  0.00     0.074 A 
ATOM     43  C   UNL A   1      38.761  27.526  29.623  1.00  0.00     0.031 C 
ATOM     44  C   UNL A   1      44.037  25.284  25.822  1.00  0.00     0.029 A 
ATOM     45  C   UNL A   1      44.231  26.555  26.522  1.00  0.00     0.049 A 
ATOM     46  H   UNL A   1      42.881  27.517  27.780  1.00  0.00     0.167 HD
ATOM     47  C   UNL A   1      40.016  29.528  30.338  1.00  0.00     0.031 A 
ATOM     48  C   UNL A   1      45.340  27.323  26.470  1.00  0.00     0.031 A 
ATOM     49  C   UNL A   1      41.174  30.375  30.385  1.00  0.00     0.049 A 
ATOM     50  C   UNL A   1      45.409  28.615  27.243  1.00  0.00     0.074 A 
ATOM     51  C   UNL A   1      41.360  31.539  31.110  1.00  0.00     0.029 A 
ATOM     52  N   UNL A   1      42.344  30.147  29.683  1.00  0.00    -0.354 N 
ATOM     53  N   UNL A   1      44.512  29.159  28.027  1.00  0.00    -0.248 NA
ATOM     54  C   UNL A   1      46.652  29.396  27.123  1.00  0.00     0.031 C 
ATOM     55  C   UNL A   1      42.632  32.039  30.813  1.00  0.00     0.029 A 
ATOM     56  C   UNL A   1      43.251  31.159  29.941  1.00  0.00     0.049 A 
ATOM     57  H   UNL A   1      42.508  29.378  29.089  1.00  0.00     0.167 HD
ATOM     58  C   UNL A   1      45.093  30.323  28.519  1.00  0.00     0.074 A 
ATOM     59  C   UNL A   1      46.419  30.409  27.946  1.00  0.00     0.031 C 
ATOM     60  C   UNL A   1      44.573  31.235  29.376  1.00  0.00     0.031 A 
BRANCH  47  61
ATOM     61  C   UNL A   1      38.792  29.945  31.100  1.00  0.00    -0.014 A 
ATOM     62  C   UNL A   1      37.830  30.793  30.529  1.00  0.00     0.009 A 
ATOM     63  C   UNL A   1      38.610  29.494  32.416  1.00  0.00     0.009 A 
ATOM     64  C   UNL A   1      36.737  31.224  31.281  1.00  0.00     0.001 A 
ATOM     65  C   UNL A   1      37.500  29.903  33.155  1.00  0.00     0.001 A 
ATOM     66  C   UNL A   1      36.573  30.779  32.592  1.00  0.00     0.000 A 
ENDBRANCH  47  61
BRANCH  48  67
ATOM     67  C   UNL A   1      46.499  26.895  25.643  1.00  0.00    -0.014 A 
ATOM     68  C   UNL A   1      47.440  25.987  26.151  1.00  0.00     0.009 A 
ATOM     69  C   UNL A   1      46.686  27.420  24.356  1.00  0.00     0.009 A 
ATOM     70  C   UNL A   1      48.556  25.628  25.391  1.00  0.00     0.001 A 
ATOM     71  C   UNL A   1      47.786  27.036  23.588  1.00  0.00     0.001 A 
ATOM     72  C   UNL A   1      48.724  26.147  24.110  1.00  0.00     0.000 A 
ENDBRANCH  48  67
BRANCH  60  73
ATOM     73  C   UNL A   1      45.441  32.389  29.793  1.00  0.00    -0.014 A 
ATOM     74  C   UNL A   1      46.314  32.288  30.887  1.00  0.00     0.009 A 
ATOM     75  C   UNL A   1      45.446  33.564  29.025  1.00  0.00     0.009 A 
ATOM     76  C   UNL A   1      47.164  33.350  31.211  1.00  0.00     0.001 A 
ATOM     77  C   UNL A   1      46.312  34.614  29.337  1.00  0.00     0.001 A 
ATOM     78  C   UNL A   1      47.168  34.507  30.433  1.00  0.00     0.000 A 
ENDBRANCH  60  73
ENDBRANCH  34  35
ENDBRANCH  27  29
ENDBRANCH  26  27
ENDBRANCH  25  26
ENDBRANCH   1  25
TORSDOF 15
ENDMDL
MODEL 3
REMARK VINA RESULT:     -10.6      3.903      7.552
REMARK SMILES O=C(C[C@H]1C[C@H]2CC[C@@H](C1)N2C(=O)NCc1ncn[nH]1)OCCOC(=O)c1ccc(-c2c3nc(c(-c4ccccc4)c4ccc([nH]4)c(-c4ccccc4)c4nc(c(-c5ccccc5)c5ccc2[nH]5)C=C4)C=C3)cc1
REMARK SMILES IDX 22 1 21 2 2 3 1 4 3 5 4 6 5 7 10 8 6 9 9 10 7 11 11 12 8 13
REMARK SMILES IDX 12 14 13 15 14 16 15 18 16 19 17 20 20 21 18 22 19 23 23 25
REMARK SMILES IDX 24 26 25 27 26 28 27 29 28 30 74 31 29 32 73 33 30 34 31 35
REMARK SMILES IDX 32 36 67 37 33 38 72 39 66 40 68 41 34 42 71 43 65 44 64 45
REMARK SMILES IDX 35 47 57 48 42 49 56 50 43 51 46 52 55 53 69 54 44 55 45 56
REMARK SMILES IDX 54 58 70 59 47 60 36 61 37 62 41 63 38 64 40 65 39 66 58 67
REMARK SMILES IDX 59 68 63 69 60 70 62 71 61 72 48 73 49 74 53 75 50 76 52 77
REMARK SMILES IDX 51 78
REMARK H PARENT 14 17 20 24 68 46 46 57
REMARK Flexibility Score: inf
ROOT
ATOM      1  C   UNL A   1      34.921  21.157  24.696  1.00  0.00     0.274 C 
ENDROOT
BRANCH   1   2
ATOM      2  O   UNL A   1      34.850  22.590  24.802  1.00  0.00    -0.462 OA
BRANCH   2   3
ATOM      3  C   UNL A   1      34.787  23.308  23.647  1.00  0.00     0.306 C 
ATOM      4  O   UNL A   1      35.747  23.401  22.892  1.00  0.00    -0.252 OA
BRANCH   3   5
ATOM      5  C   UNL A   1      33.539  24.158  23.496  1.00  0.00     0.126 C 
BRANCH   5   6
ATOM      6  C   UNL A   1      33.630  25.581  24.083  1.00  0.00     0.004 C 
ATOM      7  C   UNL A   1      33.705  26.691  23.002  1.00  0.00     0.029 C 
ATOM      8  C   UNL A   1      32.471  25.868  25.076  1.00  0.00     0.029 C 
ATOM      9  C   UNL A   1      32.340  27.273  22.565  1.00  0.00     0.087 C 
ATOM     10  C   UNL A   1      31.223  26.515  24.437  1.00  0.00     0.087 C 
ATOM     11  C   UNL A   1      31.359  26.236  22.024  1.00  0.00     0.027 C 
ATOM     12  N   UNL A   1      31.635  27.726  23.753  1.00  0.00    -0.319 N 
ATOM     13  C   UNL A   1      30.665  25.683  23.281  1.00  0.00     0.027 C 
BRANCH  12  14
ATOM     14  C   UNL A   1      31.504  29.047  24.004  1.00  0.00     0.318 C 
ATOM     15  O   UNL A   1      32.223  29.614  24.834  1.00  0.00    -0.249 OA
ATOM     16  N   UNL A   1      30.639  29.838  23.359  1.00  0.00    -0.331 N 
ATOM     17  H   UNL A   1      30.654  30.761  23.701  1.00  0.00     0.165 HD
BRANCH  16  18
ATOM     18  C   UNL A   1      29.689  29.672  22.287  1.00  0.00     0.194 C 
BRANCH  18  19
ATOM     19  C   UNL A   1      29.058  30.977  21.960  1.00  0.00     0.143 A 
ATOM     20  N   UNL A   1      28.237  31.280  20.972  1.00  0.00    -0.218 NA
ATOM     21  N   UNL A   1      29.220  32.084  22.744  1.00  0.00    -0.262 N 
ATOM     22  C   UNL A   1      27.919  32.584  21.210  1.00  0.00     0.246 A 
ATOM     23  N   UNL A   1      28.495  33.118  22.289  1.00  0.00    -0.162 NA
ATOM     24  H   UNL A   1      29.795  32.119  23.542  1.00  0.00     0.192 HD
ENDBRANCH  18  19
ENDBRANCH  16  18
ENDBRANCH  12  14
ENDBRANCH   5   6
ENDBRANCH   3   5
ENDBRANCH   2   3
ENDBRANCH   1   2
BRANCH   1  25
ATOM     25  C   UNL A   1      36.321  20.600  24.976  1.00  0.00     0.275 C 
BRANCH  25  26
ATOM     26  O   UNL A   1      37.076  21.475  25.830  1.00  0.00    -0.458 OA
BRANCH  26  27
ATOM     27  C   UNL A   1      38.403  21.201  25.903  1.00  0.00     0.338 C 
ATOM     28  O   UNL A   1      38.966  20.190  25.518  1.00  0.00    -0.246 OA
BRANCH  27  29
ATOM     29  C   UNL A   1      39.124  22.403  26.376  1.00  0.00     0.060 A 
ATOM     30  C   UNL A   1      38.558  23.657  26.112  1.00  0.00     0.016 A 
ATOM     31  C   UNL A   1      40.323  22.312  27.087  1.00  0.00     0.016 A 
ATOM     32  C   UNL A   1      39.195  24.825  26.546  1.00  0.00     0.010 A 
ATOM     33  C   UNL A   1      40.949  23.480  27.536  1.00  0.00     0.010 A 
ATOM     34  C   UNL A   1      40.406  24.748  27.247  1.00  0.00    -0.014 A 
BRANCH  34  35
ATOM     35  C   UNL A   1      41.210  25.970  27.516  1.00  0.00     0.031 A 
ATOM     36  C   UNL A   1      40.618  27.031  28.409  1.00  0.00     0.074 A 
ATOM     37  C   UNL A   1      42.433  26.167  26.987  1.00  0.00     0.049 A 
ATOM     38  N   UNL A   1      41.082  28.216  28.716  1.00  0.00    -0.248 NA
ATOM     39  C   UNL A   1      39.315  26.716  29.017  1.00  0.00     0.031 C 
ATOM     40  C   UNL A   1      43.159  25.230  26.132  1.00  0.00     0.029 A 
ATOM     41  N   UNL A   1      43.280  27.245  27.098  1.00  0.00    -0.354 N 
ATOM     42  C   UNL A   1      40.111  28.798  29.521  1.00  0.00     0.074 A 
ATOM     43  C   UNL A   1      39.021  27.853  29.623  1.00  0.00     0.031 C 
ATOM     44  C   UNL A   1      44.347  25.771  25.802  1.00  0.00     0.029 A 
ATOM     45  C   UNL A   1      44.453  27.103  26.397  1.00  0.00     0.049 A 
ATOM     46  H   UNL A   1      43.066  28.045  27.631  1.00  0.00     0.167 HD
ATOM     47  C   UNL A   1      40.121  30.003  30.139  1.00  0.00     0.031 A 
ATOM     48  C   UNL A   1      45.490  27.954  26.246  1.00  0.00     0.031 A 
ATOM     49  C   UNL A   1      41.203  30.944  30.078  1.00  0.00     0.049 A 
ATOM     50  C   UNL A   1      45.473  29.304  26.917  1.00  0.00     0.074 A 
ATOM     51  C   UNL A   1      41.312  32.173  30.707  1.00  0.00     0.029 A 
ATOM     52  N   UNL A   1      42.366  30.760  29.351  1.00  0.00    -0.354 N 
ATOM     53  N   UNL A   1      44.557  29.831  27.692  1.00  0.00    -0.248 NA
ATOM     54  C   UNL A   1      46.640  30.174  26.693  1.00  0.00     0.031 C 
ATOM     55  C   UNL A   1      42.526  32.752  30.325  1.00  0.00     0.029 A 
ATOM     56  C   UNL A   1      43.190  31.862  29.498  1.00  0.00     0.049 A 
ATOM     57  H   UNL A   1      42.576  29.964  28.810  1.00  0.00     0.167 HD
ATOM     58  C   UNL A   1      45.052  31.074  28.074  1.00  0.00     0.074 A 
ATOM     59  C   UNL A   1      46.346  31.225  27.446  1.00  0.00     0.031 C 
ATOM     60  C   UNL A   1      44.482  32.003  28.879  1.00  0.00     0.031 A 
BRANCH  47  61
ATOM     61  C   UNL A   1      38.890  30.374  30.913  1.00  0.00    -0.014 A 
ATOM     62  C   UNL A   1      38.640  29.840  32.187  1.00  0.00     0.009 A 
ATOM     63  C   UNL A   1      37.960  31.259  30.347  1.00  0.00     0.009 A 
ATOM     64  C   UNL A   1      37.454  30.144  32.856  1.00  0.00     0.001 A 
ATOM     65  C   UNL A   1      36.789  31.584  31.033  1.00  0.00     0.001 A 
ATOM     66  C   UNL A   1      36.531  31.015  32.280  1.00  0.00     0.000 A 
ENDBRANCH  47  61
BRANCH  48  67
ATOM     67  C   UNL A   1      46.655  27.562  25.410  1.00  0.00    -0.014 A 
ATOM     68  C   UNL A   1      46.719  27.935  24.058  1.00  0.00     0.009 A 
ATOM     69  C   UNL A   1      47.690  26.787  25.952  1.00  0.00     0.009 A 
ATOM     70  C   UNL A   1      47.790  27.521  23.262  1.00  0.00     0.001 A 
ATOM     71  C   UNL A   1      48.773  26.400  25.161  1.00  0.00     0.001 A 
ATOM     72  C   UNL A   1      48.818  26.760  23.816  1.00  0.00     0.000 A 
ENDBRANCH  48  67
BRANCH  60  73
ATOM     73  C   UNL A   1      45.261  33.254  29.176  1.00  0.00    -0.014 A 
ATOM     74  C   UNL A   1      45.064  34.429  28.434  1.00  0.00     0.009 A 
ATOM     75  C   UNL A   1      46.140  33.280  30.270  1.00  0.00     0.009 A 
ATOM     76  C   UNL A   1      45.746  35.600  28.775  1.00  0.00     0.001 A 
ATOM     77  C   UNL A   1      46.802  34.457  30.623  1.00  0.00     0.001 A 
ATOM     78  C   UNL A   1      46.608  35.616  29.872  1.00  0.00     0.000 A 
ENDBRANCH  60  73
ENDBRANCH  34  35
ENDBRANCH  27  29
ENDBRANCH  26  27
ENDBRANCH  25  26
ENDBRANCH   1  25
TORSDOF 15
ENDMDL
