MODEL 1
REMARK VINA RESULT:     -12.9      0.000      0.000
REMARK SMILES Cc1ccccc1S(=O)(=O)Nc1ccc(N2CCOCC2)cc1C(=O)OCCOC(=O)c1ccc(-c2c3nc(c(-c4ccccc4)c4ccc([nH]4)c(-c4ccccc4)c4nc(c(-c5ccccc5)c5ccc2[nH]5)C=C4)C=C3)cc1
REMARK SMILES IDX 27 1 26 2 24 3 25 4 23 5 12 6 13 7 14 8 22 9 15 10 11 11
REMARK SMILES IDX 8 13 9 14 10 15 7 16 1 17 2 18 3 19 4 20 6 21 5 22 16 23
REMARK SMILES IDX 17 24 21 25 18 26 20 27 19 28 28 29 29 30 30 31 31 32 32 33
REMARK SMILES IDX 33 34 79 35 34 36 78 37 35 38 36 39 37 40 72 41 38 42 77 43
REMARK SMILES IDX 71 44 73 45 39 46 76 47 70 48 69 49 40 51 62 52 47 53 61 54
REMARK SMILES IDX 48 55 51 56 60 57 74 58 49 59 50 60 59 62 75 63 52 64 41 65
REMARK SMILES IDX 42 66 46 67 43 68 45 69 44 70 63 71 64 72 68 73 65 74 67 75
REMARK SMILES IDX 66 76 53 77 54 78 58 79 55 80 57 81 56 82
REMARK H PARENT 11 12 73 50 51 61
REMARK Flexibility Score: inf
ROOT
ATOM      1  C   UNL A   1      32.675  30.760  26.990  1.00  0.00     0.275 C 
ENDROOT
BRANCH   1   2
ATOM      2  O   UNL A   1      32.981  30.419  25.622  1.00  0.00    -0.458 OA
BRANCH   2   3
ATOM      3  C   UNL A   1      32.678  29.113  25.372  1.00  0.00     0.340 C 
ATOM      4  O   UNL A   1      33.264  28.174  25.911  1.00  0.00    -0.246 OA
BRANCH   3   5
ATOM      5  C   UNL A   1      31.717  28.795  24.279  1.00  0.00     0.086 A 
ATOM      6  C   UNL A   1      31.773  27.806  23.290  1.00  0.00     0.064 A 
ATOM      7  C   UNL A   1      30.779  27.775  22.296  1.00  0.00     0.030 A 
ATOM      8  C   UNL A   1      29.714  28.683  22.308  1.00  0.00     0.028 A 
ATOM      9  C   UNL A   1      30.644  29.710  24.240  1.00  0.00     0.043 A 
ATOM     10  C   UNL A   1      29.639  29.680  23.276  1.00  0.00     0.038 A 
BRANCH   6  11
ATOM     11  N   UNL A   1      32.830  26.861  23.180  1.00  0.00    -0.279 N 
ATOM     12  H   UNL A   1      33.740  27.104  23.467  1.00  0.00     0.180 HD
BRANCH  11  13
ATOM     13  S   UNL A   1      32.516  25.314  22.554  1.00  0.00     0.262 S 
ATOM     14  O   UNL A   1      33.039  25.372  21.203  1.00  0.00    -0.201 OA
ATOM     15  O   UNL A   1      31.130  24.965  22.764  1.00  0.00    -0.201 OA
BRANCH  13  16
ATOM     16  C   UNL A   1      33.576  24.274  23.538  1.00  0.00     0.090 A 
ATOM     17  C   UNL A   1      32.670  22.016  22.622  1.00  0.00     0.046 C 
ATOM     18  C   UNL A   1      33.471  22.869  23.565  1.00  0.00    -0.031 A 
ATOM     19  C   UNL A   1      34.178  22.172  24.564  1.00  0.00     0.005 A 
ATOM     20  C   UNL A   1      35.040  22.832  25.435  1.00  0.00     0.000 A 
ATOM     21  C   UNL A   1      34.487  24.927  24.381  1.00  0.00     0.022 A 
ATOM     22  C   UNL A   1      35.232  24.202  25.309  1.00  0.00     0.001 A 
ENDBRANCH  13  16
ENDBRANCH  11  13
ENDBRANCH   6  11
BRANCH  10  23
ATOM     23  N   UNL A   1      28.615  30.606  23.259  1.00  0.00    -0.367 N 
ATOM     24  C   UNL A   1      27.703  30.692  22.104  1.00  0.00     0.145 C 
ATOM     25  C   UNL A   1      28.826  31.885  23.955  1.00  0.00     0.145 C 
ATOM     26  C   UNL A   1      28.080  31.861  21.178  1.00  0.00     0.181 C 
ATOM     27  C   UNL A   1      29.186  32.985  22.939  1.00  0.00     0.181 C 
ATOM     28  O   UNL A   1      28.193  33.096  21.903  1.00  0.00    -0.378 OA
ENDBRANCH  10  23
ENDBRANCH   3   5
ENDBRANCH   2   3
ENDBRANCH   1   2
BRANCH   1  29
ATOM     29  C   UNL A   1      31.918  32.071  27.289  1.00  0.00     0.275 C 
BRANCH  29  30
ATOM     30  O   UNL A   1      32.591  33.354  27.350  1.00  0.00    -0.458 OA
BRANCH  30  31
ATOM     31  C   UNL A   1      33.169  33.974  28.400  1.00  0.00     0.338 C 
ATOM     32  O   UNL A   1      32.626  34.870  29.033  1.00  0.00    -0.246 OA
BRANCH  31  33
ATOM     33  C   UNL A   1      34.464  33.458  28.805  1.00  0.00     0.060 A 
ATOM     34  C   UNL A   1      35.581  33.785  28.027  1.00  0.00     0.016 A 
ATOM     35  C   UNL A   1      34.563  32.752  29.999  1.00  0.00     0.016 A 
ATOM     36  C   UNL A   1      36.848  33.474  28.490  1.00  0.00     0.010 A 
ATOM     37  C   UNL A   1      35.814  32.507  30.501  1.00  0.00     0.010 A 
ATOM     38  C   UNL A   1      36.940  32.813  29.715  1.00  0.00    -0.014 A 
BRANCH  38  39
ATOM     39  C   UNL A   1      38.052  31.931  30.006  1.00  0.00     0.031 A 
ATOM     40  C   UNL A   1      38.156  30.571  29.470  1.00  0.00     0.074 A 
ATOM     41  C   UNL A   1      39.044  32.624  30.611  1.00  0.00     0.049 A 
ATOM     42  N   UNL A   1      38.929  29.671  29.971  1.00  0.00    -0.248 NA
ATOM     43  C   UNL A   1      37.360  30.075  28.347  1.00  0.00     0.031 C 
ATOM     44  C   UNL A   1      40.461  32.347  30.707  1.00  0.00     0.029 A 
ATOM     45  N   UNL A   1      38.874  33.768  31.409  1.00  0.00    -0.354 N 
ATOM     46  C   UNL A   1      39.010  28.663  29.035  1.00  0.00     0.074 A 
ATOM     47  C   UNL A   1      37.902  28.868  28.138  1.00  0.00     0.031 C 
ATOM     48  C   UNL A   1      40.957  33.069  31.734  1.00  0.00     0.029 A 
ATOM     49  C   UNL A   1      39.820  33.679  32.420  1.00  0.00     0.049 A 
ATOM     50  H   UNL A   1      38.215  34.488  31.279  1.00  0.00     0.167 HD
ATOM     51  C   UNL A   1      40.143  27.910  28.967  1.00  0.00     0.031 A 
ATOM     52  C   UNL A   1      39.435  33.442  33.710  1.00  0.00     0.031 A 
ATOM     53  C   UNL A   1      41.109  28.354  29.963  1.00  0.00     0.049 A 
ATOM     54  C   UNL A   1      40.016  32.131  34.183  1.00  0.00     0.074 A 
ATOM     55  C   UNL A   1      42.173  29.238  29.881  1.00  0.00     0.029 A 
ATOM     56  N   UNL A   1      40.807  28.217  31.309  1.00  0.00    -0.354 N 
ATOM     57  N   UNL A   1      40.253  31.111  33.404  1.00  0.00    -0.248 NA
ATOM     58  C   UNL A   1      40.415  31.894  35.563  1.00  0.00     0.031 C 
ATOM     59  C   UNL A   1      42.466  29.688  31.194  1.00  0.00     0.029 A 
ATOM     60  C   UNL A   1      41.589  29.066  32.066  1.00  0.00     0.049 A 
ATOM     61  H   UNL A   1      40.131  27.601  31.673  1.00  0.00     0.167 HD
ATOM     62  C   UNL A   1      40.947  30.161  34.106  1.00  0.00     0.074 A 
ATOM     63  C   UNL A   1      40.982  30.679  35.465  1.00  0.00     0.031 C 
ATOM     64  C   UNL A   1      41.476  29.049  33.516  1.00  0.00     0.031 A 
BRANCH  51  65
ATOM     65  C   UNL A   1      40.501  27.050  27.784  1.00  0.00    -0.014 A 
ATOM     66  C   UNL A   1      40.234  25.668  27.831  1.00  0.00     0.009 A 
ATOM     67  C   UNL A   1      41.108  27.531  26.612  1.00  0.00     0.009 A 
ATOM     68  C   UNL A   1      40.609  24.800  26.799  1.00  0.00     0.001 A 
ATOM     69  C   UNL A   1      41.505  26.662  25.583  1.00  0.00     0.001 A 
ATOM     70  C   UNL A   1      41.260  25.296  25.680  1.00  0.00     0.000 A 
ENDBRANCH  51  65
BRANCH  52  71
ATOM     71  C   UNL A   1      38.083  33.960  34.105  1.00  0.00    -0.014 A 
ATOM     72  C   UNL A   1      37.344  34.720  33.170  1.00  0.00     0.009 A 
ATOM     73  C   UNL A   1      37.407  33.498  35.246  1.00  0.00     0.009 A 
ATOM     74  C   UNL A   1      35.970  34.938  33.328  1.00  0.00     0.001 A 
ATOM     75  C   UNL A   1      36.032  33.738  35.412  1.00  0.00     0.001 A 
ATOM     76  C   UNL A   1      35.309  34.435  34.445  1.00  0.00     0.000 A 
ENDBRANCH  52  71
BRANCH  64  77
ATOM     77  C   UNL A   1      42.016  27.828  34.219  1.00  0.00    -0.014 A 
ATOM     78  C   UNL A   1      41.241  26.944  34.972  1.00  0.00     0.009 A 
ATOM     79  C   UNL A   1      43.358  27.442  33.975  1.00  0.00     0.009 A 
ATOM     80  C   UNL A   1      41.781  25.754  35.477  1.00  0.00     0.001 A 
ATOM     81  C   UNL A   1      43.883  26.231  34.421  1.00  0.00     0.001 A 
ATOM     82  C   UNL A   1      43.092  25.389  35.185  1.00  0.00     0.000 A 
ENDBRANCH  64  77
ENDBRANCH  38  39
ENDBRANCH  31  33
ENDBRANCH  30  31
ENDBRANCH  29  30
ENDBRANCH   1  29
TORSDOF 15
ENDMDL
MODEL 2
REMARK VINA RESULT:     -12.9      3.638      9.112
REMARK SMILES Cc1ccccc1S(=O)(=O)Nc1ccc(N2CCOCC2)cc1C(=O)OCCOC(=O)c1ccc(-c2c3nc(c(-c4ccccc4)c4ccc([nH]4)c(-c4ccccc4)c4nc(c(-c5ccccc5)c5ccc2[nH]5)C=C4)C=C3)cc1
REMARK SMILES IDX 27 1 26 2 24 3 25 4 23 5 12 6 13 7 14 8 22 9 15 10 11 11
REMARK SMILES IDX 8 13 9 14 10 15 7 16 1 17 2 18 3 19 4 20 6 21 5 22 16 23
REMARK SMILES IDX 17 24 21 25 18 26 20 27 19 28 28 29 29 30 30 31 31 32 32 33
REMARK SMILES IDX 33 34 79 35 34 36 78 37 35 38 36 39 37 40 72 41 38 42 77 43
REMARK SMILES IDX 71 44 73 45 39 46 76 47 70 48 69 49 40 51 62 52 47 53 61 54
REMARK SMILES IDX 48 55 51 56 60 57 74 58 49 59 50 60 59 62 75 63 52 64 41 65
REMARK SMILES IDX 42 66 46 67 43 68 45 69 44 70 63 71 64 72 68 73 65 74 67 75
REMARK SMILES IDX 66 76 53 77 54 78 58 79 55 80 57 81 56 82
REMARK H PARENT 11 12 73 50 51 61
REMARK Flexibility Score: inf
ROOT
ATOM      1  C   UNL A   1      36.792  22.533  25.771  1.00  0.00     0.275 C 
ENDROOT
BRANCH   1   2
ATOM      2  O   UNL A   1      35.849  21.513  26.161  1.00  0.00    -0.458 OA
BRANCH   2   3
ATOM      3  C   UNL A   1      34.572  21.990  26.105  1.00  0.00     0.340 C 
ATOM      4  O   UNL A   1      34.040  22.587  27.040  1.00  0.00    -0.246 OA
BRANCH   3   5
ATOM      5  C   UNL A   1      33.723  21.632  24.935  1.00  0.00     0.086 A 
ATOM      6  C   UNL A   1      33.098  22.455  23.990  1.00  0.00     0.064 A 
ATOM      7  C   UNL A   1      32.254  21.873  23.029  1.00  0.00     0.030 A 
ATOM      8  C   UNL A   1      32.067  20.488  22.971  1.00  0.00     0.028 A 
ATOM      9  C   UNL A   1      33.487  20.243  24.862  1.00  0.00     0.043 A 
ATOM     10  C   UNL A   1      32.671  19.649  23.902  1.00  0.00     0.038 A 
BRANCH   6  11
ATOM     11  N   UNL A   1      33.205  23.873  23.989  1.00  0.00    -0.279 N 
ATOM     12  H   UNL A   1      34.056  24.304  23.745  1.00  0.00     0.180 HD
BRANCH  11  13
ATOM     13  S   UNL A   1      31.858  24.820  24.408  1.00  0.00     0.262 S 
ATOM     14  O   UNL A   1      31.344  24.184  25.606  1.00  0.00    -0.201 OA
ATOM     15  O   UNL A   1      30.991  24.984  23.264  1.00  0.00    -0.201 OA
BRANCH  13  16
ATOM     16  C   UNL A   1      32.601  26.375  24.856  1.00  0.00     0.090 A 
ATOM     17  C   UNL A   1      33.361  27.016  22.454  1.00  0.00     0.046 C 
ATOM     18  C   UNL A   1      33.318  27.179  23.946  1.00  0.00    -0.031 A 
ATOM     19  C   UNL A   1      34.076  28.247  24.464  1.00  0.00     0.005 A 
ATOM     20  C   UNL A   1      34.040  28.573  25.817  1.00  0.00     0.000 A 
ATOM     21  C   UNL A   1      32.524  26.741  26.207  1.00  0.00     0.022 A 
ATOM     22  C   UNL A   1      33.223  27.851  26.678  1.00  0.00     0.001 A 
ENDBRANCH  13  16
ENDBRANCH  11  13
ENDBRANCH   6  11
BRANCH  10  23
ATOM     23  N   UNL A   1      32.447  18.286  23.875  1.00  0.00    -0.367 N 
ATOM     24  C   UNL A   1      32.421  17.508  25.127  1.00  0.00     0.145 C 
ATOM     25  C   UNL A   1      32.919  17.529  22.705  1.00  0.00     0.145 C 
ATOM     26  C   UNL A   1      33.748  16.762  25.350  1.00  0.00     0.181 C 
ATOM     27  C   UNL A   1      34.242  16.815  23.039  1.00  0.00     0.181 C 
ATOM     28  O   UNL A   1      34.114  15.978  24.203  1.00  0.00    -0.378 OA
ENDBRANCH  10  23
ENDBRANCH   3   5
ENDBRANCH   2   3
ENDBRANCH   1   2
BRANCH   1  29
ATOM     29  C   UNL A   1      38.263  22.143  25.520  1.00  0.00     0.275 C 
BRANCH  29  30
ATOM     30  O   UNL A   1      39.277  22.253  26.552  1.00  0.00    -0.458 OA
BRANCH  30  31
ATOM     31  C   UNL A   1      40.415  22.978  26.567  1.00  0.00     0.338 C 
ATOM     32  O   UNL A   1      41.479  22.569  26.120  1.00  0.00    -0.246 OA
BRANCH  31  33
ATOM     33  C   UNL A   1      40.295  24.332  27.077  1.00  0.00     0.060 A 
ATOM     34  C   UNL A   1      40.742  25.386  26.272  1.00  0.00     0.016 A 
ATOM     35  C   UNL A   1      39.648  24.538  28.290  1.00  0.00     0.016 A 
ATOM     36  C   UNL A   1      40.465  26.691  26.642  1.00  0.00     0.010 A 
ATOM     37  C   UNL A   1      39.304  25.821  28.628  1.00  0.00     0.010 A 
ATOM     38  C   UNL A   1      39.769  26.886  27.836  1.00  0.00    -0.014 A 
BRANCH  38  39
ATOM     39  C   UNL A   1      39.945  28.095  28.613  1.00  0.00     0.031 A 
ATOM     40  C   UNL A   1      38.971  29.190  28.622  1.00  0.00     0.074 A 
ATOM     41  C   UNL A   1      40.975  27.942  29.477  1.00  0.00     0.049 A 
ATOM     42  N   UNL A   1      39.253  30.384  29.014  1.00  0.00    -0.248 NA
ATOM     43  C   UNL A   1      37.596  29.060  28.141  1.00  0.00     0.031 C 
ATOM     44  C   UNL A   1      41.276  28.631  30.713  1.00  0.00     0.029 A 
ATOM     45  N   UNL A   1      42.088  27.106  29.284  1.00  0.00    -0.354 N 
ATOM     46  C   UNL A   1      38.048  31.029  29.194  1.00  0.00     0.074 A 
ATOM     47  C   UNL A   1      37.072  30.244  28.483  1.00  0.00     0.031 C 
ATOM     48  C   UNL A   1      42.584  28.440  30.988  1.00  0.00     0.029 A 
ATOM     49  C   UNL A   1      43.175  27.773  29.830  1.00  0.00     0.049 A 
ATOM     50  H   UNL A   1      42.096  26.224  28.847  1.00  0.00     0.167 HD
ATOM     51  C   UNL A   1      37.956  32.016  30.128  1.00  0.00     0.031 A 
ATOM     52  C   UNL A   1      44.154  28.279  29.022  1.00  0.00     0.031 A 
ATOM     53  C   UNL A   1      39.236  32.203  30.798  1.00  0.00     0.049 A 
ATOM     54  C   UNL A   1      44.212  29.781  29.168  1.00  0.00     0.074 A 
ATOM     55  C   UNL A   1      39.739  31.683  31.980  1.00  0.00     0.029 A 
ATOM     56  N   UNL A   1      40.324  32.658  30.068  1.00  0.00    -0.354 N 
ATOM     57  N   UNL A   1      43.178  30.530  29.440  1.00  0.00    -0.248 NA
ATOM     58  C   UNL A   1      45.449  30.540  29.061  1.00  0.00     0.031 C 
ATOM     59  C   UNL A   1      41.154  31.768  31.925  1.00  0.00     0.029 A 
ATOM     60  C   UNL A   1      41.502  32.351  30.718  1.00  0.00     0.049 A 
ATOM     61  H   UNL A   1      40.263  33.134  29.209  1.00  0.00     0.167 HD
ATOM     62  C   UNL A   1      43.603  31.809  29.687  1.00  0.00     0.074 A 
ATOM     63  C   UNL A   1      45.027  31.773  29.390  1.00  0.00     0.031 C 
ATOM     64  C   UNL A   1      42.771  32.785  30.155  1.00  0.00     0.031 A 
BRANCH  51  65
ATOM     65  C   UNL A   1      36.650  32.530  30.670  1.00  0.00    -0.014 A 
ATOM     66  C   UNL A   1      35.981  33.567  29.991  1.00  0.00     0.009 A 
ATOM     67  C   UNL A   1      36.036  32.050  31.839  1.00  0.00     0.009 A 
ATOM     68  C   UNL A   1      34.803  34.141  30.481  1.00  0.00     0.001 A 
ATOM     69  C   UNL A   1      34.864  32.637  32.346  1.00  0.00     0.001 A 
ATOM     70  C   UNL A   1      34.252  33.687  31.669  1.00  0.00     0.000 A 
ENDBRANCH  51  65
BRANCH  52  71
ATOM     71  C   UNL A   1      44.401  27.543  27.738  1.00  0.00    -0.014 A 
ATOM     72  C   UNL A   1      44.692  26.161  27.789  1.00  0.00     0.009 A 
ATOM     73  C   UNL A   1      44.085  28.094  26.486  1.00  0.00     0.009 A 
ATOM     74  C   UNL A   1      44.593  25.350  26.652  1.00  0.00     0.001 A 
ATOM     75  C   UNL A   1      44.008  27.280  25.341  1.00  0.00     0.001 A 
ATOM     76  C   UNL A   1      44.238  25.907  25.428  1.00  0.00     0.000 A 
ENDBRANCH  52  71
BRANCH  64  77
ATOM     77  C   UNL A   1      43.059  34.265  30.207  1.00  0.00    -0.014 A 
ATOM     78  C   UNL A   1      43.668  34.913  31.282  1.00  0.00     0.009 A 
ATOM     79  C   UNL A   1      42.860  35.036  29.034  1.00  0.00     0.009 A 
ATOM     80  C   UNL A   1      44.036  36.263  31.203  1.00  0.00     0.001 A 
ATOM     81  C   UNL A   1      43.279  36.361  28.928  1.00  0.00     0.001 A 
ATOM     82  C   UNL A   1      43.860  36.979  30.023  1.00  0.00     0.000 A 
ENDBRANCH  64  77
ENDBRANCH  38  39
ENDBRANCH  31  33
ENDBRANCH  30  31
ENDBRANCH  29  30
ENDBRANCH   1  29
TORSDOF 15
ENDMDL
MODEL 3
REMARK VINA RESULT:     -12.7      3.409      9.169
REMARK SMILES Cc1ccccc1S(=O)(=O)Nc1ccc(N2CCOCC2)cc1C(=O)OCCOC(=O)c1ccc(-c2c3nc(c(-c4ccccc4)c4ccc([nH]4)c(-c4ccccc4)c4nc(c(-c5ccccc5)c5ccc2[nH]5)C=C4)C=C3)cc1
REMARK SMILES IDX 27 1 26 2 24 3 25 4 23 5 12 6 13 7 14 8 22 9 15 10 11 11
REMARK SMILES IDX 8 13 9 14 10 15 7 16 1 17 2 18 3 19 4 20 6 21 5 22 16 23
REMARK SMILES IDX 17 24 21 25 18 26 20 27 19 28 28 29 29 30 30 31 31 32 32 33
REMARK SMILES IDX 33 34 79 35 34 36 78 37 35 38 36 39 37 40 72 41 38 42 77 43
REMARK SMILES IDX 71 44 73 45 39 46 76 47 70 48 69 49 40 51 62 52 47 53 61 54
REMARK SMILES IDX 48 55 51 56 60 57 74 58 49 59 50 60 59 62 75 63 52 64 41 65
REMARK SMILES IDX 42 66 46 67 43 68 45 69 44 70 63 71 64 72 68 73 65 74 67 75
REMARK SMILES IDX 66 76 53 77 54 78 58 79 55 80 57 81 56 82
REMARK H PARENT 11 12 73 50 51 61
REMARK Flexibility Score: inf
ROOT
ATOM      1  C   UNL A   1      36.444  22.921  26.061  1.00  0.00     0.275 C 
ENDROOT
BRANCH   1   2
ATOM      2  O   UNL A   1      35.863  21.642  26.392  1.00  0.00    -0.458 OA
BRANCH   2   3
ATOM      3  C   UNL A   1      34.503  21.725  26.426  1.00  0.00     0.340 C 
ATOM      4  O   UNL A   1      33.868  21.899  27.466  1.00  0.00    -0.246 OA
BRANCH   3   5
ATOM      5  C   UNL A   1      33.734  21.426  25.186  1.00  0.00     0.086 A 
ATOM      6  C   UNL A   1      33.216  22.291  24.215  1.00  0.00     0.064 A 
ATOM      7  C   UNL A   1      32.429  21.764  23.177  1.00  0.00     0.030 A 
ATOM      8  C   UNL A   1      32.194  20.389  23.073  1.00  0.00     0.028 A 
ATOM      9  C   UNL A   1      33.451  20.048  25.062  1.00  0.00     0.043 A 
ATOM     10  C   UNL A   1      32.691  19.507  24.028  1.00  0.00     0.038 A 
BRANCH   6  11
ATOM     11  N   UNL A   1      33.377  23.704  24.255  1.00  0.00    -0.279 N 
ATOM     12  H   UNL A   1      34.008  24.147  23.642  1.00  0.00     0.180 HD
BRANCH  11  13
ATOM     13  S   UNL A   1      32.475  24.624  25.362  1.00  0.00     0.262 S 
ATOM     14  O   UNL A   1      33.470  25.123  26.292  1.00  0.00    -0.201 OA
ATOM     15  O   UNL A   1      31.363  23.848  25.862  1.00  0.00    -0.201 OA
BRANCH  13  16
ATOM     16  C   UNL A   1      31.892  25.975  24.361  1.00  0.00     0.090 A 
ATOM     17  C   UNL A   1      31.365  27.575  26.340  1.00  0.00     0.046 C 
ATOM     18  C   UNL A   1      31.332  27.152  24.900  1.00  0.00    -0.031 A 
ATOM     19  C   UNL A   1      30.673  28.033  24.021  1.00  0.00     0.005 A 
ATOM     20  C   UNL A   1      30.661  27.812  22.647  1.00  0.00     0.000 A 
ATOM     21  C   UNL A   1      31.925  25.786  22.972  1.00  0.00     0.022 A 
ATOM     22  C   UNL A   1      31.332  26.716  22.120  1.00  0.00     0.001 A 
ENDBRANCH  13  16
ENDBRANCH  11  13
ENDBRANCH   6  11
BRANCH  10  23
ATOM     23  N   UNL A   1      32.418  18.155  23.952  1.00  0.00    -0.367 N 
ATOM     24  C   UNL A   1      32.317  17.343  25.178  1.00  0.00     0.145 C 
ATOM     25  C   UNL A   1      32.904  17.415  22.778  1.00  0.00     0.145 C 
ATOM     26  C   UNL A   1      33.607  16.541  25.426  1.00  0.00     0.181 C 
ATOM     27  C   UNL A   1      34.187  16.641  23.137  1.00  0.00     0.181 C 
ATOM     28  O   UNL A   1      33.986  15.777  24.270  1.00  0.00    -0.378 OA
ENDBRANCH  10  23
ENDBRANCH   3   5
ENDBRANCH   2   3
ENDBRANCH   1   2
BRANCH   1  29
ATOM     29  C   UNL A   1      37.882  22.975  25.505  1.00  0.00     0.275 C 
BRANCH  29  30
ATOM     30  O   UNL A   1      39.010  22.418  26.226  1.00  0.00    -0.458 OA
BRANCH  30  31
ATOM     31  C   UNL A   1      40.207  22.971  26.512  1.00  0.00     0.338 C 
ATOM     32  O   UNL A   1      41.275  22.423  26.272  1.00  0.00    -0.246 OA
BRANCH  31  33
ATOM     33  C   UNL A   1      40.168  24.317  27.056  1.00  0.00     0.060 A 
ATOM     34  C   UNL A   1      40.656  25.365  26.267  1.00  0.00     0.016 A 
ATOM     35  C   UNL A   1      39.554  24.527  28.285  1.00  0.00     0.016 A 
ATOM     36  C   UNL A   1      40.455  26.673  26.674  1.00  0.00     0.010 A 
ATOM     37  C   UNL A   1      39.285  25.817  28.660  1.00  0.00     0.010 A 
ATOM     38  C   UNL A   1      39.791  26.875  27.884  1.00  0.00    -0.014 A 
BRANCH  38  39
ATOM     39  C   UNL A   1      40.045  28.054  28.686  1.00  0.00     0.031 A 
ATOM     40  C   UNL A   1      39.116  29.184  28.764  1.00  0.00     0.074 A 
ATOM     41  C   UNL A   1      41.102  27.838  29.503  1.00  0.00     0.049 A 
ATOM     42  N   UNL A   1      39.459  30.355  29.177  1.00  0.00    -0.248 NA
ATOM     43  C   UNL A   1      37.718  29.121  28.336  1.00  0.00     0.031 C 
ATOM     44  C   UNL A   1      41.478  28.479  30.744  1.00  0.00     0.029 A 
ATOM     45  N   UNL A   1      42.173  26.966  29.242  1.00  0.00    -0.354 N 
ATOM     46  C   UNL A   1      38.288  31.040  29.423  1.00  0.00     0.074 A 
ATOM     47  C   UNL A   1      37.255  30.313  28.732  1.00  0.00     0.031 C 
ATOM     48  C   UNL A   1      42.787  28.231  30.960  1.00  0.00     0.029 A 
ATOM     49  C   UNL A   1      43.306  27.576  29.762  1.00  0.00     0.049 A 
ATOM     50  H   UNL A   1      42.129  26.097  28.782  1.00  0.00     0.167 HD
ATOM     51  C   UNL A   1      38.272  32.002  30.386  1.00  0.00     0.031 A 
ATOM     52  C   UNL A   1      44.271  28.067  28.928  1.00  0.00     0.031 A 
ATOM     53  C   UNL A   1      39.584  32.121  31.009  1.00  0.00     0.049 A 
ATOM     54  C   UNL A   1      44.393  29.561  29.112  1.00  0.00     0.074 A 
ATOM     55  C   UNL A   1      40.112  31.549  32.155  1.00  0.00     0.029 A 
ATOM     56  N   UNL A   1      40.658  32.557  30.248  1.00  0.00    -0.354 N 
ATOM     57  N   UNL A   1      43.400  30.341  29.447  1.00  0.00    -0.248 NA
ATOM     58  C   UNL A   1      45.653  30.276  28.976  1.00  0.00     0.031 C 
ATOM     59  C   UNL A   1      41.527  31.583  32.045  1.00  0.00     0.029 A 
ATOM     60  C   UNL A   1      41.849  32.186  30.841  1.00  0.00     0.049 A 
ATOM     61  H   UNL A   1      40.583  33.059  29.405  1.00  0.00     0.167 HD
ATOM     62  C   UNL A   1      43.885  31.595  29.711  1.00  0.00     0.074 A 
ATOM     63  C   UNL A   1      45.293  31.514  29.356  1.00  0.00     0.031 C 
ATOM     64  C   UNL A   1      43.110  32.588  30.239  1.00  0.00     0.031 A 
BRANCH  51  65
ATOM     65  C   UNL A   1      37.009  32.549  30.995  1.00  0.00    -0.014 A 
ATOM     66  C   UNL A   1      36.594  32.082  32.258  1.00  0.00     0.009 A 
ATOM     67  C   UNL A   1      36.185  33.507  30.380  1.00  0.00     0.009 A 
ATOM     68  C   UNL A   1      35.392  32.491  32.846  1.00  0.00     0.001 A 
ATOM     69  C   UNL A   1      34.968  33.906  30.958  1.00  0.00     0.001 A 
ATOM     70  C   UNL A   1      34.570  33.393  32.188  1.00  0.00     0.000 A 
ENDBRANCH  51  65
BRANCH  52  71
ATOM     71  C   UNL A   1      44.438  27.359  27.616  1.00  0.00    -0.014 A 
ATOM     72  C   UNL A   1      44.799  25.993  27.619  1.00  0.00     0.009 A 
ATOM     73  C   UNL A   1      43.986  27.909  26.405  1.00  0.00     0.009 A 
ATOM     74  C   UNL A   1      44.639  25.191  26.481  1.00  0.00     0.001 A 
ATOM     75  C   UNL A   1      43.847  27.106  25.259  1.00  0.00     0.001 A 
ATOM     76  C   UNL A   1      44.149  25.745  25.303  1.00  0.00     0.000 A 
ENDBRANCH  52  71
BRANCH  64  77
ATOM     77  C   UNL A   1      43.457  34.054  30.319  1.00  0.00    -0.014 A 
ATOM     78  C   UNL A   1      43.412  34.936  29.237  1.00  0.00     0.009 A 
ATOM     79  C   UNL A   1      43.684  34.629  31.594  1.00  0.00     0.009 A 
ATOM     80  C   UNL A   1      43.608  36.312  29.414  1.00  0.00     0.001 A 
ATOM     81  C   UNL A   1      43.818  36.003  31.784  1.00  0.00     0.001 A 
ATOM     82  C   UNL A   1      43.790  36.846  30.686  1.00  0.00     0.000 A 
ENDBRANCH  64  77
ENDBRANCH  38  39
ENDBRANCH  31  33
ENDBRANCH  30  31
ENDBRANCH  29  30
ENDBRANCH   1  29
TORSDOF 15
ENDMDL
