MODEL 1
REMARK VINA RESULT:     -11.1      0.000      0.000
REMARK SMILES CC1=C(C(=O)OCCOC(=O)c2ccc(-c3c4nc(c(-c5ccccc5)c5ccc([nH]5)c(-c5ccccc5)c5nc(c(-c6ccccc6)c6ccc3[nH]6)C=C5)C=C4)cc2)N2C(=O)[C@@H](NC(=O)c3ccn(C)n3)[C@H]2SC1
REMARK SMILES IDX 7 1 6 2 4 3 5 4 3 5 1 6 2 7 75 8 60 9 74 10 61 11 73 12
REMARK SMILES IDX 62 13 63 14 64 15 65 16 66 18 67 19 68 20 72 21 69 22 70 23
REMARK SMILES IDX 71 24 8 25 9 26 10 27 11 28 12 29 13 30 59 31 14 32 58 33
REMARK SMILES IDX 15 34 16 35 17 36 52 37 18 38 57 39 51 40 53 41 19 42 56 43
REMARK SMILES IDX 50 44 49 45 20 47 42 48 27 49 41 50 28 51 31 52 40 53 54 54
REMARK SMILES IDX 29 55 30 56 39 58 55 59 32 60 21 61 22 62 26 63 23 64 25 65
REMARK SMILES IDX 24 66 43 67 44 68 48 69 45 70 47 71 46 72 33 73 34 74 38 75
REMARK SMILES IDX 35 76 37 77 36 78
REMARK H PARENT 64 17 53 46 31 57
REMARK Flexibility Score: inf
ROOT
ATOM      1  C   UNL A   1      32.041  30.174  26.852  1.00  0.00     0.275 C 
ENDROOT
BRANCH   1   2
ATOM      2  O   UNL A   1      31.871  30.343  25.428  1.00  0.00    -0.457 OA
BRANCH   2   3
ATOM      3  C   UNL A   1      32.196  29.263  24.677  1.00  0.00     0.355 C 
ATOM      4  O   UNL A   1      33.317  28.983  24.265  1.00  0.00    -0.244 OA
BRANCH   3   5
ATOM      5  C   UNL A   1      31.015  28.407  24.337  1.00  0.00     0.131 C 
ATOM      6  C   UNL A   1      29.795  30.261  23.138  1.00  0.00     0.043 C 
ATOM      7  C   UNL A   1      29.955  28.839  23.618  1.00  0.00    -0.032 C 
ATOM      8  C   UNL A   1      28.808  27.948  23.179  1.00  0.00     0.105 C 
ATOM      9  N   UNL A   1      31.199  27.079  24.572  1.00  0.00    -0.289 N 
ATOM     10  S   UNL A   1      28.772  26.275  23.880  1.00  0.00    -0.129 SA
ATOM     11  C   UNL A   1      31.260  26.376  25.732  1.00  0.00     0.253 C 
ATOM     12  C   UNL A   1      30.573  26.015  23.810  1.00  0.00     0.181 C 
ATOM     13  O   UNL A   1      31.261  26.705  26.892  1.00  0.00    -0.272 OA
ATOM     14  C   UNL A   1      31.184  25.058  24.895  1.00  0.00     0.206 C 
BRANCH  14  15
ATOM     15  N   UNL A   1      30.338  23.963  25.408  1.00  0.00    -0.336 N 
ATOM     16  C   UNL A   1      30.748  22.763  25.955  1.00  0.00     0.272 C 
ATOM     17  H   UNL A   1      29.364  24.105  25.353  1.00  0.00     0.164 HD
ATOM     18  O   UNL A   1      29.903  21.902  26.193  1.00  0.00    -0.267 OA
BRANCH  16  19
ATOM     19  C   UNL A   1      32.181  22.572  26.229  1.00  0.00     0.150 A 
ATOM     20  C   UNL A   1      32.898  22.946  27.399  1.00  0.00     0.056 A 
ATOM     21  N   UNL A   1      33.004  21.975  25.345  1.00  0.00    -0.168 NA
ATOM     22  C   UNL A   1      34.193  22.537  27.189  1.00  0.00     0.109 A 
ATOM     23  N   UNL A   1      34.186  21.906  25.982  1.00  0.00    -0.275 N 
ATOM     24  C   UNL A   1      35.292  21.201  25.379  1.00  0.00     0.173 C 
ENDBRANCH  16  19
ENDBRANCH  14  15
ENDBRANCH   3   5
ENDBRANCH   2   3
ENDBRANCH   1   2
BRANCH   1  25
ATOM     25  C   UNL A   1      33.190  31.031  27.373  1.00  0.00     0.275 C 
BRANCH  25  26
ATOM     26  O   UNL A   1      34.300  30.178  27.688  1.00  0.00    -0.458 OA
BRANCH  26  27
ATOM     27  C   UNL A   1      35.169  30.650  28.612  1.00  0.00     0.338 C 
ATOM     28  O   UNL A   1      34.976  31.559  29.402  1.00  0.00    -0.246 OA
BRANCH  27  29
ATOM     29  C   UNL A   1      36.444  29.907  28.517  1.00  0.00     0.060 A 
ATOM     30  C   UNL A   1      36.997  29.294  29.639  1.00  0.00     0.016 A 
ATOM     31  C   UNL A   1      37.154  29.922  27.317  1.00  0.00     0.016 A 
ATOM     32  C   UNL A   1      38.308  28.823  29.600  1.00  0.00     0.010 A 
ATOM     33  C   UNL A   1      38.424  29.338  27.250  1.00  0.00     0.010 A 
ATOM     34  C   UNL A   1      39.043  28.827  28.404  1.00  0.00    -0.014 A 
BRANCH  34  35
ATOM     35  C   UNL A   1      40.461  28.360  28.373  1.00  0.00     0.031 A 
ATOM     36  C   UNL A   1      41.585  29.291  28.763  1.00  0.00     0.074 A 
ATOM     37  C   UNL A   1      40.764  27.088  28.040  1.00  0.00     0.049 A 
ATOM     38  N   UNL A   1      42.877  29.136  28.606  1.00  0.00    -0.248 NA
ATOM     39  C   UNL A   1      41.211  30.567  29.393  1.00  0.00     0.031 C 
ATOM     40  C   UNL A   1      39.798  26.039  27.710  1.00  0.00     0.029 A 
ATOM     41  N   UNL A   1      41.978  26.449  27.966  1.00  0.00    -0.354 N 
ATOM     42  C   UNL A   1      43.457  30.330  29.021  1.00  0.00     0.074 A 
ATOM     43  C   UNL A   1      42.380  31.188  29.463  1.00  0.00     0.031 C 
ATOM     44  C   UNL A   1      40.444  24.873  27.568  1.00  0.00     0.029 A 
ATOM     45  C   UNL A   1      41.879  25.111  27.671  1.00  0.00     0.049 A 
ATOM     46  H   UNL A   1      42.837  26.907  28.111  1.00  0.00     0.167 HD
ATOM     47  C   UNL A   1      44.766  30.685  29.014  1.00  0.00     0.031 A 
ATOM     48  C   UNL A   1      42.830  24.180  27.466  1.00  0.00     0.031 A 
ATOM     49  C   UNL A   1      45.846  29.805  28.653  1.00  0.00     0.049 A 
ATOM     50  C   UNL A   1      44.272  24.590  27.462  1.00  0.00     0.074 A 
ATOM     51  C   UNL A   1      47.205  30.075  28.616  1.00  0.00     0.029 A 
ATOM     52  N   UNL A   1      45.696  28.474  28.303  1.00  0.00    -0.354 N 
ATOM     53  N   UNL A   1      44.797  25.759  27.736  1.00  0.00    -0.248 NA
ATOM     54  C   UNL A   1      45.249  23.561  27.078  1.00  0.00     0.031 C 
ATOM     55  C   UNL A   1      47.872  28.914  28.206  1.00  0.00     0.029 A 
ATOM     56  C   UNL A   1      46.932  27.912  28.034  1.00  0.00     0.049 A 
ATOM     57  H   UNL A   1      44.836  27.997  28.253  1.00  0.00     0.167 HD
ATOM     58  C   UNL A   1      46.165  25.610  27.546  1.00  0.00     0.074 A 
ATOM     59  C   UNL A   1      46.391  24.228  27.172  1.00  0.00     0.031 C 
ATOM     60  C   UNL A   1      47.143  26.541  27.653  1.00  0.00     0.031 A 
BRANCH  47  61
ATOM     61  C   UNL A   1      45.101  32.114  29.344  1.00  0.00    -0.014 A 
ATOM     62  C   UNL A   1      45.258  32.559  30.664  1.00  0.00     0.009 A 
ATOM     63  C   UNL A   1      45.300  33.024  28.291  1.00  0.00     0.009 A 
ATOM     64  C   UNL A   1      45.575  33.895  30.923  1.00  0.00     0.001 A 
ATOM     65  C   UNL A   1      45.643  34.351  28.553  1.00  0.00     0.001 A 
ATOM     66  C   UNL A   1      45.772  34.788  29.869  1.00  0.00     0.000 A 
ENDBRANCH  47  61
BRANCH  48  67
ATOM     67  C   UNL A   1      42.441  22.772  27.193  1.00  0.00    -0.014 A 
ATOM     68  C   UNL A   1      42.192  21.889  28.254  1.00  0.00     0.009 A 
ATOM     69  C   UNL A   1      42.299  22.308  25.875  1.00  0.00     0.009 A 
ATOM     70  C   UNL A   1      41.810  20.570  28.001  1.00  0.00     0.001 A 
ATOM     71  C   UNL A   1      41.885  20.998  25.626  1.00  0.00     0.001 A 
ATOM     72  C   UNL A   1      41.647  20.130  26.688  1.00  0.00     0.000 A 
ENDBRANCH  48  67
BRANCH  60  73
ATOM     73  C   UNL A   1      48.545  26.090  27.367  1.00  0.00    -0.014 A 
ATOM     74  C   UNL A   1      49.075  26.159  26.069  1.00  0.00     0.009 A 
ATOM     75  C   UNL A   1      49.355  25.615  28.410  1.00  0.00     0.009 A 
ATOM     76  C   UNL A   1      50.379  25.730  25.815  1.00  0.00     0.001 A 
ATOM     77  C   UNL A   1      50.665  25.208  28.158  1.00  0.00     0.001 A 
ATOM     78  C   UNL A   1      51.173  25.259  26.859  1.00  0.00     0.000 A 
ENDBRANCH  60  73
ENDBRANCH  34  35
ENDBRANCH  27  29
ENDBRANCH  26  27
ENDBRANCH  25  26
ENDBRANCH   1  25
TORSDOF 13
ENDMDL
MODEL 2
REMARK VINA RESULT:     -10.9      4.452      9.256
REMARK SMILES CC1=C(C(=O)OCCOC(=O)c2ccc(-c3c4nc(c(-c5ccccc5)c5ccc([nH]5)c(-c5ccccc5)c5nc(c(-c6ccccc6)c6ccc3[nH]6)C=C5)C=C4)cc2)N2C(=O)[C@@H](NC(=O)c3ccn(C)n3)[C@H]2SC1
REMARK SMILES IDX 7 1 6 2 4 3 5 4 3 5 1 6 2 7 75 8 60 9 74 10 61 11 73 12
REMARK SMILES IDX 62 13 63 14 64 15 65 16 66 18 67 19 68 20 72 21 69 22 70 23
REMARK SMILES IDX 71 24 8 25 9 26 10 27 11 28 12 29 13 30 59 31 14 32 58 33
REMARK SMILES IDX 15 34 16 35 17 36 52 37 18 38 57 39 51 40 53 41 19 42 56 43
REMARK SMILES IDX 50 44 49 45 20 47 42 48 27 49 41 50 28 51 31 52 40 53 54 54
REMARK SMILES IDX 29 55 30 56 39 58 55 59 32 60 21 61 22 62 26 63 23 64 25 65
REMARK SMILES IDX 24 66 43 67 44 68 48 69 45 70 47 71 46 72 33 73 34 74 38 75
REMARK SMILES IDX 35 76 37 77 36 78
REMARK H PARENT 64 17 53 46 31 57
REMARK Flexibility Score: inf
ROOT
ATOM      1  C   UNL A   1      36.977  21.601  24.838  1.00  0.00     0.275 C 
ENDROOT
BRANCH   1   2
ATOM      2  O   UNL A   1      36.032  22.693  24.895  1.00  0.00    -0.457 OA
BRANCH   2   3
ATOM      3  C   UNL A   1      35.389  22.958  23.732  1.00  0.00     0.355 C 
ATOM      4  O   UNL A   1      35.896  22.971  22.615  1.00  0.00    -0.244 OA
BRANCH   3   5
ATOM      5  C   UNL A   1      33.941  23.291  23.925  1.00  0.00     0.131 C 
ATOM      6  C   UNL A   1      33.295  20.924  24.512  1.00  0.00     0.043 C 
ATOM      7  C   UNL A   1      33.008  22.392  24.308  1.00  0.00    -0.032 C 
ATOM      8  C   UNL A   1      31.564  22.746  24.609  1.00  0.00     0.105 C 
ATOM      9  N   UNL A   1      33.671  24.625  23.946  1.00  0.00    -0.289 N 
ATOM     10  S   UNL A   1      31.040  24.432  24.187  1.00  0.00    -0.129 SA
ATOM     11  C   UNL A   1      33.659  25.552  22.954  1.00  0.00     0.253 C 
ATOM     12  C   UNL A   1      32.592  25.232  24.702  1.00  0.00     0.181 C 
ATOM     13  O   UNL A   1      33.962  25.509  21.788  1.00  0.00    -0.272 OA
ATOM     14  C   UNL A   1      32.983  26.553  23.947  1.00  0.00     0.206 C 
BRANCH  14  15
ATOM     15  N   UNL A   1      31.893  27.403  23.433  1.00  0.00    -0.336 N 
ATOM     16  C   UNL A   1      31.196  28.386  24.110  1.00  0.00     0.272 C 
ATOM     17  H   UNL A   1      31.631  27.254  22.495  1.00  0.00     0.164 HD
ATOM     18  O   UNL A   1      30.216  28.894  23.569  1.00  0.00    -0.267 OA
BRANCH  16  19
ATOM     19  C   UNL A   1      31.663  28.778  25.448  1.00  0.00     0.150 A 
ATOM     20  C   UNL A   1      31.463  28.087  26.675  1.00  0.00     0.056 A 
ATOM     21  N   UNL A   1      32.381  29.900  25.653  1.00  0.00    -0.168 NA
ATOM     22  C   UNL A   1      32.105  28.834  27.633  1.00  0.00     0.109 A 
ATOM     23  N   UNL A   1      32.690  29.865  26.962  1.00  0.00    -0.275 N 
ATOM     24  C   UNL A   1      33.576  30.857  27.523  1.00  0.00     0.173 C 
ENDBRANCH  16  19
ENDBRANCH  14  15
ENDBRANCH   3   5
ENDBRANCH   2   3
ENDBRANCH   1   2
BRANCH   1  25
ATOM     25  C   UNL A   1      38.141  21.832  25.795  1.00  0.00     0.275 C 
BRANCH  25  26
ATOM     26  O   UNL A   1      38.470  23.228  25.799  1.00  0.00    -0.458 OA
BRANCH  26  27
ATOM     27  C   UNL A   1      39.669  23.555  26.335  1.00  0.00     0.338 C 
ATOM     28  O   UNL A   1      40.708  22.921  26.248  1.00  0.00    -0.246 OA
BRANCH  27  29
ATOM     29  C   UNL A   1      39.545  24.819  27.092  1.00  0.00     0.060 A 
ATOM     30  C   UNL A   1      40.129  25.993  26.621  1.00  0.00     0.016 A 
ATOM     31  C   UNL A   1      38.936  24.804  28.347  1.00  0.00     0.016 A 
ATOM     32  C   UNL A   1      40.227  27.105  27.455  1.00  0.00     0.010 A 
ATOM     33  C   UNL A   1      38.931  25.963  29.133  1.00  0.00     0.010 A 
ATOM     34  C   UNL A   1      39.623  27.115  28.722  1.00  0.00    -0.014 A 
BRANCH  34  35
ATOM     35  C   UNL A   1      39.763  28.293  29.630  1.00  0.00     0.031 A 
ATOM     36  C   UNL A   1      40.958  28.417  30.547  1.00  0.00     0.074 A 
ATOM     37  C   UNL A   1      38.853  29.288  29.619  1.00  0.00     0.049 A 
ATOM     38  N   UNL A   1      41.152  29.249  31.540  1.00  0.00    -0.248 NA
ATOM     39  C   UNL A   1      42.068  27.475  30.332  1.00  0.00     0.031 C 
ATOM     40  C   UNL A   1      37.681  29.364  28.744  1.00  0.00     0.029 A 
ATOM     41  N   UNL A   1      38.796  30.454  30.344  1.00  0.00    -0.354 N 
ATOM     42  C   UNL A   1      42.352  28.865  32.129  1.00  0.00     0.074 A 
ATOM     43  C   UNL A   1      42.855  27.744  31.365  1.00  0.00     0.031 C 
ATOM     44  C   UNL A   1      37.083  30.552  28.912  1.00  0.00     0.029 A 
ATOM     45  C   UNL A   1      37.748  31.271  29.992  1.00  0.00     0.049 A 
ATOM     46  H   UNL A   1      39.444  30.682  31.048  1.00  0.00     0.167 HD
ATOM     47  C   UNL A   1      42.967  29.385  33.219  1.00  0.00     0.031 A 
ATOM     48  C   UNL A   1      37.338  32.448  30.500  1.00  0.00     0.031 A 
ATOM     49  C   UNL A   1      42.512  30.551  33.932  1.00  0.00     0.049 A 
ATOM     50  C   UNL A   1      38.030  33.010  31.706  1.00  0.00     0.074 A 
ATOM     51  C   UNL A   1      43.070  31.154  35.049  1.00  0.00     0.029 A 
ATOM     52  N   UNL A   1      41.413  31.313  33.576  1.00  0.00    -0.354 N 
ATOM     53  N   UNL A   1      39.094  32.564  32.328  1.00  0.00    -0.248 NA
ATOM     54  C   UNL A   1      37.437  34.214  32.304  1.00  0.00     0.031 C 
ATOM     55  C   UNL A   1      42.283  32.260  35.389  1.00  0.00     0.029 A 
ATOM     56  C   UNL A   1      41.264  32.371  34.457  1.00  0.00     0.049 A 
ATOM     57  H   UNL A   1      40.823  31.130  32.809  1.00  0.00     0.167 HD
ATOM     58  C   UNL A   1      39.291  33.426  33.399  1.00  0.00     0.074 A 
ATOM     59  C   UNL A   1      38.261  34.442  33.319  1.00  0.00     0.031 C 
ATOM     60  C   UNL A   1      40.230  33.367  34.373  1.00  0.00     0.031 A 
BRANCH  47  61
ATOM     61  C   UNL A   1      44.168  28.656  33.756  1.00  0.00    -0.014 A 
ATOM     62  C   UNL A   1      44.050  27.534  34.588  1.00  0.00     0.009 A 
ATOM     63  C   UNL A   1      45.451  29.092  33.381  1.00  0.00     0.009 A 
ATOM     64  C   UNL A   1      45.194  26.883  35.060  1.00  0.00     0.001 A 
ATOM     65  C   UNL A   1      46.590  28.423  33.831  1.00  0.00     0.001 A 
ATOM     66  C   UNL A   1      46.460  27.325  34.678  1.00  0.00     0.000 A 
ENDBRANCH  47  61
BRANCH  48  67
ATOM     67  C   UNL A   1      36.175  33.149  29.898  1.00  0.00    -0.014 A 
ATOM     68  C   UNL A   1      35.036  33.422  30.671  1.00  0.00     0.009 A 
ATOM     69  C   UNL A   1      36.201  33.565  28.557  1.00  0.00     0.009 A 
ATOM     70  C   UNL A   1      33.948  34.095  30.112  1.00  0.00     0.001 A 
ATOM     71  C   UNL A   1      35.125  34.267  28.011  1.00  0.00     0.001 A 
ATOM     72  C   UNL A   1      33.998  34.526  28.788  1.00  0.00     0.000 A 
ENDBRANCH  48  67
BRANCH  60  73
ATOM     73  C   UNL A   1      40.188  34.438  35.423  1.00  0.00    -0.014 A 
ATOM     74  C   UNL A   1      39.449  34.261  36.604  1.00  0.00     0.009 A 
ATOM     75  C   UNL A   1      40.914  35.625  35.244  1.00  0.00     0.009 A 
ATOM     76  C   UNL A   1      39.412  35.267  37.571  1.00  0.00     0.001 A 
ATOM     77  C   UNL A   1      40.893  36.620  36.222  1.00  0.00     0.001 A 
ATOM     78  C   UNL A   1      40.136  36.443  37.381  1.00  0.00     0.000 A 
ENDBRANCH  60  73
ENDBRANCH  34  35
ENDBRANCH  27  29
ENDBRANCH  26  27
ENDBRANCH  25  26
ENDBRANCH   1  25
TORSDOF 13
ENDMDL
MODEL 3
REMARK VINA RESULT:     -10.8      2.754      7.182
REMARK SMILES CC1=C(C(=O)OCCOC(=O)c2ccc(-c3c4nc(c(-c5ccccc5)c5ccc([nH]5)c(-c5ccccc5)c5nc(c(-c6ccccc6)c6ccc3[nH]6)C=C5)C=C4)cc2)N2C(=O)[C@@H](NC(=O)c3ccn(C)n3)[C@H]2SC1
REMARK SMILES IDX 7 1 6 2 4 3 5 4 3 5 1 6 2 7 75 8 60 9 74 10 61 11 73 12
REMARK SMILES IDX 62 13 63 14 64 15 65 16 66 18 67 19 68 20 72 21 69 22 70 23
REMARK SMILES IDX 71 24 8 25 9 26 10 27 11 28 12 29 13 30 59 31 14 32 58 33
REMARK SMILES IDX 15 34 16 35 17 36 52 37 18 38 57 39 51 40 53 41 19 42 56 43
REMARK SMILES IDX 50 44 49 45 20 47 42 48 27 49 41 50 28 51 31 52 40 53 54 54
REMARK SMILES IDX 29 55 30 56 39 58 55 59 32 60 21 61 22 62 26 63 23 64 25 65
REMARK SMILES IDX 24 66 43 67 44 68 48 69 45 70 47 71 46 72 33 73 34 74 38 75
REMARK SMILES IDX 35 76 37 77 36 78
REMARK H PARENT 64 17 53 46 31 57
REMARK Flexibility Score: inf
ROOT
ATOM      1  C   UNL A   1      35.193  20.911  24.673  1.00  0.00     0.275 C 
ENDROOT
BRANCH   1   2
ATOM      2  O   UNL A   1      35.104  22.352  24.626  1.00  0.00    -0.457 OA
BRANCH   2   3
ATOM      3  C   UNL A   1      34.746  22.868  23.425  1.00  0.00     0.355 C 
ATOM      4  O   UNL A   1      35.475  22.986  22.445  1.00  0.00    -0.244 OA
BRANCH   3   5
ATOM      5  C   UNL A   1      33.327  23.345  23.391  1.00  0.00     0.131 C 
ATOM      6  C   UNL A   1      32.363  21.017  23.269  1.00  0.00     0.043 C 
ATOM      7  C   UNL A   1      32.257  22.520  23.357  1.00  0.00    -0.032 C 
ATOM      8  C   UNL A   1      30.818  22.995  23.431  1.00  0.00     0.105 C 
ATOM      9  N   UNL A   1      33.174  24.669  23.665  1.00  0.00    -0.289 N 
ATOM     10  S   UNL A   1      30.551  24.786  23.314  1.00  0.00    -0.129 SA
ATOM     11  C   UNL A   1      33.469  25.775  22.934  1.00  0.00     0.253 C 
ATOM     12  C   UNL A   1      32.008  25.246  24.306  1.00  0.00     0.181 C 
ATOM     13  O   UNL A   1      34.025  25.934  21.877  1.00  0.00    -0.272 OA
ATOM     14  C   UNL A   1      32.672  26.630  23.972  1.00  0.00     0.206 C 
BRANCH  14  15
ATOM     15  N   UNL A   1      31.806  27.708  23.459  1.00  0.00    -0.336 N 
ATOM     16  C   UNL A   1      31.390  28.846  24.121  1.00  0.00     0.272 C 
ATOM     17  H   UNL A   1      31.486  27.603  22.533  1.00  0.00     0.164 HD
ATOM     18  O   UNL A   1      30.546  29.565  23.589  1.00  0.00    -0.267 OA
BRANCH  16  19
ATOM     19  C   UNL A   1      31.979  29.146  25.435  1.00  0.00     0.150 A 
ATOM     20  C   UNL A   1      31.534  28.697  26.710  1.00  0.00     0.056 A 
ATOM     21  N   UNL A   1      33.077  29.917  25.566  1.00  0.00    -0.168 NA
ATOM     22  C   UNL A   1      32.421  29.221  27.619  1.00  0.00     0.109 A 
ATOM     23  N   UNL A   1      33.355  29.882  26.882  1.00  0.00    -0.275 N 
ATOM     24  C   UNL A   1      34.559  30.501  27.383  1.00  0.00     0.173 C 
ENDBRANCH  16  19
ENDBRANCH  14  15
ENDBRANCH   3   5
ENDBRANCH   2   3
ENDBRANCH   1   2
BRANCH   1  25
ATOM     25  C   UNL A   1      36.613  20.458  24.994  1.00  0.00     0.275 C 
BRANCH  25  26
ATOM     26  O   UNL A   1      37.278  21.499  25.725  1.00  0.00    -0.458 OA
BRANCH  26  27
ATOM     27  C   UNL A   1      38.604  21.324  25.934  1.00  0.00     0.338 C 
ATOM     28  O   UNL A   1      39.253  20.313  25.723  1.00  0.00    -0.246 OA
BRANCH  27  29
ATOM     29  C   UNL A   1      39.182  22.561  26.502  1.00  0.00     0.060 A 
ATOM     30  C   UNL A   1      38.632  23.806  26.204  1.00  0.00     0.016 A 
ATOM     31  C   UNL A   1      40.358  22.485  27.248  1.00  0.00     0.016 A 
ATOM     32  C   UNL A   1      39.327  24.970  26.529  1.00  0.00     0.010 A 
ATOM     33  C   UNL A   1      40.989  23.658  27.677  1.00  0.00     0.010 A 
ATOM     34  C   UNL A   1      40.513  24.919  27.279  1.00  0.00    -0.014 A 
BRANCH  34  35
ATOM     35  C   UNL A   1      41.277  26.164  27.591  1.00  0.00     0.031 A 
ATOM     36  C   UNL A   1      40.750  27.155  28.601  1.00  0.00     0.074 A 
ATOM     37  C   UNL A   1      42.472  26.406  27.013  1.00  0.00     0.049 A 
ATOM     38  N   UNL A   1      41.160  28.374  28.853  1.00  0.00    -0.248 NA
ATOM     39  C   UNL A   1      39.604  26.731  29.422  1.00  0.00     0.031 C 
ATOM     40  C   UNL A   1      43.161  25.520  26.073  1.00  0.00     0.029 A 
ATOM     41  N   UNL A   1      43.340  27.460  27.166  1.00  0.00    -0.354 N 
ATOM     42  C   UNL A   1      40.263  28.894  29.781  1.00  0.00     0.074 A 
ATOM     43  C   UNL A   1      39.305  27.850  30.069  1.00  0.00     0.031 C 
ATOM     44  C   UNL A   1      44.379  26.015  25.814  1.00  0.00     0.029 A 
ATOM     45  C   UNL A   1      44.513  27.313  26.465  1.00  0.00     0.049 A 
ATOM     46  H   UNL A   1      43.141  28.245  27.725  1.00  0.00     0.167 HD
ATOM     47  C   UNL A   1      40.231  30.135  30.326  1.00  0.00     0.031 A 
ATOM     48  C   UNL A   1      45.565  28.140  26.324  1.00  0.00     0.031 A 
ATOM     49  C   UNL A   1      41.230  31.148  30.106  1.00  0.00     0.049 A 
ATOM     50  C   UNL A   1      45.513  29.509  26.934  1.00  0.00     0.074 A 
ATOM     51  C   UNL A   1      41.282  32.436  30.615  1.00  0.00     0.029 A 
ATOM     52  N   UNL A   1      42.371  30.976  29.340  1.00  0.00    -0.354 N 
ATOM     53  N   UNL A   1      44.594  30.031  27.709  1.00  0.00    -0.248 NA
ATOM     54  C   UNL A   1      46.623  30.417  26.612  1.00  0.00     0.031 C 
ATOM     55  C   UNL A   1      42.439  33.054  30.126  1.00  0.00     0.029 A 
ATOM     56  C   UNL A   1      43.127  32.136  29.351  1.00  0.00     0.049 A 
ATOM     57  H   UNL A   1      42.609  30.151  28.859  1.00  0.00     0.167 HD
ATOM     58  C   UNL A   1      45.009  31.332  27.959  1.00  0.00     0.074 A 
ATOM     59  C   UNL A   1      46.280  31.507  27.285  1.00  0.00     0.031 C 
ATOM     60  C   UNL A   1      44.382  32.301  28.668  1.00  0.00     0.031 A 
BRANCH  47  61
ATOM     61  C   UNL A   1      39.036  30.495  31.166  1.00  0.00    -0.014 A 
ATOM     62  C   UNL A   1      37.921  31.158  30.633  1.00  0.00     0.009 A 
ATOM     63  C   UNL A   1      39.021  30.121  32.521  1.00  0.00     0.009 A 
ATOM     64  C   UNL A   1      36.830  31.468  31.450  1.00  0.00     0.001 A 
ATOM     65  C   UNL A   1      37.919  30.408  33.327  1.00  0.00     0.001 A 
ATOM     66  C   UNL A   1      36.827  31.090  32.792  1.00  0.00     0.000 A 
ENDBRANCH  47  61
BRANCH  48  67
ATOM     67  C   UNL A   1      46.741  27.712  25.523  1.00  0.00    -0.014 A 
ATOM     68  C   UNL A   1      47.814  27.052  26.140  1.00  0.00     0.009 A 
ATOM     69  C   UNL A   1      46.792  27.942  24.138  1.00  0.00     0.009 A 
ATOM     70  C   UNL A   1      48.913  26.633  25.387  1.00  0.00     0.001 A 
ATOM     71  C   UNL A   1      47.876  27.493  23.384  1.00  0.00     0.001 A 
ATOM     72  C   UNL A   1      48.938  26.844  24.010  1.00  0.00     0.000 A 
ENDBRANCH  48  67
BRANCH  60  73
ATOM     73  C   UNL A   1      45.068  33.633  28.753  1.00  0.00    -0.014 A 
ATOM     74  C   UNL A   1      45.974  33.912  29.788  1.00  0.00     0.009 A 
ATOM     75  C   UNL A   1      44.827  34.610  27.775  1.00  0.00     0.009 A 
ATOM     76  C   UNL A   1      46.602  35.157  29.861  1.00  0.00     0.001 A 
ATOM     77  C   UNL A   1      45.473  35.845  27.837  1.00  0.00     0.001 A 
ATOM     78  C   UNL A   1      46.353  36.120  28.884  1.00  0.00     0.000 A 
ENDBRANCH  60  73
ENDBRANCH  34  35
ENDBRANCH  27  29
ENDBRANCH  26  27
ENDBRANCH  25  26
ENDBRANCH   1  25
TORSDOF 13
ENDMDL
