MODEL 1
REMARK VINA RESULT:     -11.5      0.000      0.000
REMARK SMILES O=C(Cc1ccn[nH]1)Nc1sc2c(c1C(=O)OCCOC(=O)c1ccc(-c3c4nc(c(-c5ccccc5)c5ccc([nH]5)c(-c5ccccc5)c5nc(c(-c6ccccc6)c6ccc3[nH]6)C=C5)C=C4)cc1)CCC2
REMARK SMILES IDX 18 1 17 2 15 3 16 4 14 5 10 6 11 7 12 8 13 9 73 10 71 11
REMARK SMILES IDX 72 12 9 13 1 14 2 15 3 17 4 18 5 19 8 20 6 21 7 22 19 24
REMARK SMILES IDX 20 25 21 26 22 27 23 28 24 29 70 30 25 31 69 32 26 33 27 34
REMARK SMILES IDX 28 35 63 36 29 37 68 38 62 39 64 40 30 41 67 42 61 43 60 44
REMARK SMILES IDX 31 46 53 47 38 48 52 49 39 50 42 51 51 52 65 53 40 54 41 55
REMARK SMILES IDX 50 57 66 58 43 59 32 60 33 61 37 62 34 63 36 64 35 65 54 66
REMARK SMILES IDX 55 67 59 68 56 69 58 70 57 71 44 72 45 73 49 74 46 75 48 76
REMARK SMILES IDX 47 77
REMARK H PARENT 9 16 8 23 64 45 42 56
REMARK Flexibility Score: inf
ROOT
ATOM      1  C   UNL A   1      37.143  34.209  31.193  1.00  0.00     0.275 C 
ENDROOT
BRANCH   1   2
ATOM      2  O   UNL A   1      35.729  34.006  31.371  1.00  0.00    -0.458 OA
BRANCH   2   3
ATOM      3  C   UNL A   1      35.271  32.713  31.363  1.00  0.00     0.341 C 
ATOM      4  O   UNL A   1      35.108  32.047  32.380  1.00  0.00    -0.246 OA
BRANCH   3   5
ATOM      5  C   UNL A   1      35.097  32.185  30.007  1.00  0.00     0.098 A 
ATOM      6  C   UNL A   1      34.172  32.662  29.080  1.00  0.00     0.110 A 
ATOM      7  S   UNL A   1      33.993  31.674  27.691  1.00  0.00    -0.122 S 
ATOM      8  C   UNL A   1      35.290  30.745  28.183  1.00  0.00     0.011 A 
ATOM      9  C   UNL A   1      35.770  31.069  29.422  1.00  0.00    -0.017 A 
ATOM     10  C   UNL A   1      35.976  29.604  27.538  1.00  0.00     0.047 C 
ATOM     11  C   UNL A   1      36.855  30.136  29.829  1.00  0.00     0.038 C 
ATOM     12  C   UNL A   1      37.190  29.400  28.494  1.00  0.00     0.010 C 
BRANCH   6  13
ATOM     13  N   UNL A   1      33.363  33.779  29.069  1.00  0.00    -0.317 N 
ATOM     14  O   UNL A   1      35.047  35.133  28.253  1.00  0.00    -0.274 OA
ATOM     15  C   UNL A   1      33.932  35.000  28.751  1.00  0.00     0.230 C 
ATOM     16  H   UNL A   1      32.405  33.710  29.281  1.00  0.00     0.170 HD
BRANCH  15  17
ATOM     17  C   UNL A   1      33.032  36.195  29.008  1.00  0.00     0.155 C 
BRANCH  17  18
ATOM     18  C   UNL A   1      33.009  36.565  30.451  1.00  0.00     0.044 A 
ATOM     19  C   UNL A   1      32.663  35.860  31.585  1.00  0.00     0.045 A 
ATOM     20  N   UNL A   1      33.395  37.804  30.896  1.00  0.00    -0.282 N 
ATOM     21  C   UNL A   1      32.925  36.738  32.653  1.00  0.00     0.135 A 
ATOM     22  N   UNL A   1      33.401  37.912  32.236  1.00  0.00    -0.184 NA
ATOM     23  H   UNL A   1      33.642  38.543  30.294  1.00  0.00     0.190 HD
ENDBRANCH  17  18
ENDBRANCH  15  17
ENDBRANCH   6  13
ENDBRANCH   3   5
ENDBRANCH   2   3
ENDBRANCH   1   2
BRANCH   1  24
ATOM     24  C   UNL A   1      37.907  34.268  32.515  1.00  0.00     0.275 C 
BRANCH  24  25
ATOM     25  O   UNL A   1      38.825  33.181  32.644  1.00  0.00    -0.458 OA
BRANCH  25  26
ATOM     26  C   UNL A   1      39.992  33.373  31.985  1.00  0.00     0.338 C 
ATOM     27  O   UNL A   1      40.641  34.404  31.946  1.00  0.00    -0.246 OA
BRANCH  26  28
ATOM     28  C   UNL A   1      40.355  32.166  31.233  1.00  0.00     0.060 A 
ATOM     29  C   UNL A   1      39.686  30.990  31.578  1.00  0.00     0.016 A 
ATOM     30  C   UNL A   1      41.431  32.150  30.336  1.00  0.00     0.016 A 
ATOM     31  C   UNL A   1      40.133  29.779  31.096  1.00  0.00     0.010 A 
ATOM     32  C   UNL A   1      41.905  30.934  29.876  1.00  0.00     0.010 A 
ATOM     33  C   UNL A   1      41.282  29.759  30.310  1.00  0.00    -0.014 A 
BRANCH  33  34
ATOM     34  C   UNL A   1      41.866  28.455  30.055  1.00  0.00     0.031 A 
ATOM     35  C   UNL A   1      42.725  27.879  31.118  1.00  0.00     0.074 A 
ATOM     36  C   UNL A   1      41.567  27.794  28.921  1.00  0.00     0.049 A 
ATOM     37  N   UNL A   1      43.933  27.431  31.013  1.00  0.00    -0.248 NA
ATOM     38  C   UNL A   1      42.182  27.842  32.484  1.00  0.00     0.031 C 
ATOM     39  C   UNL A   1      40.531  28.130  27.941  1.00  0.00     0.029 A 
ATOM     40  N   UNL A   1      42.037  26.594  28.484  1.00  0.00    -0.354 N 
ATOM     41  C   UNL A   1      44.259  26.910  32.262  1.00  0.00     0.074 A 
ATOM     42  C   UNL A   1      43.188  27.279  33.154  1.00  0.00     0.031 C 
ATOM     43  C   UNL A   1      40.273  27.040  27.189  1.00  0.00     0.029 A 
ATOM     44  C   UNL A   1      41.201  25.984  27.563  1.00  0.00     0.049 A 
ATOM     45  H   UNL A   1      42.884  26.199  28.792  1.00  0.00     0.167 HD
ATOM     46  C   UNL A   1      45.286  26.037  32.446  1.00  0.00     0.031 A 
ATOM     47  C   UNL A   1      41.193  24.672  27.231  1.00  0.00     0.031 A 
ATOM     48  C   UNL A   1      46.255  26.086  31.388  1.00  0.00     0.049 A 
ATOM     49  C   UNL A   1      42.487  24.082  27.648  1.00  0.00     0.074 A 
ATOM     50  C   UNL A   1      47.064  27.075  30.863  1.00  0.00     0.029 A 
ATOM     51  N   UNL A   1      46.277  25.065  30.470  1.00  0.00    -0.354 N 
ATOM     52  N   UNL A   1      43.626  24.358  27.080  1.00  0.00    -0.248 NA
ATOM     53  C   UNL A   1      42.581  23.500  28.978  1.00  0.00     0.031 C 
ATOM     54  C   UNL A   1      47.115  26.806  29.464  1.00  0.00     0.029 A 
ATOM     55  C   UNL A   1      46.361  25.654  29.235  1.00  0.00     0.049 A 
ATOM     56  H   UNL A   1      46.240  24.100  30.663  1.00  0.00     0.167 HD
ATOM     57  C   UNL A   1      44.545  24.387  28.118  1.00  0.00     0.074 A 
ATOM     58  C   UNL A   1      43.869  23.745  29.242  1.00  0.00     0.031 C 
ATOM     59  C   UNL A   1      45.658  25.180  28.065  1.00  0.00     0.031 A 
BRANCH  46  60
ATOM     60  C   UNL A   1      45.213  24.895  33.424  1.00  0.00    -0.014 A 
ATOM     61  C   UNL A   1      46.255  24.709  34.348  1.00  0.00     0.009 A 
ATOM     62  C   UNL A   1      44.290  23.839  33.286  1.00  0.00     0.009 A 
ATOM     63  C   UNL A   1      46.391  23.509  35.056  1.00  0.00     0.001 A 
ATOM     64  C   UNL A   1      44.397  22.658  34.023  1.00  0.00     0.001 A 
ATOM     65  C   UNL A   1      45.465  22.483  34.891  1.00  0.00     0.000 A 
ENDBRANCH  46  60
BRANCH  47  66
ATOM     66  C   UNL A   1      40.006  23.856  26.894  1.00  0.00    -0.014 A 
ATOM     67  C   UNL A   1      38.756  24.452  26.687  1.00  0.00     0.009 A 
ATOM     68  C   UNL A   1      40.147  22.497  26.546  1.00  0.00     0.009 A 
ATOM     69  C   UNL A   1      37.694  23.721  26.136  1.00  0.00     0.001 A 
ATOM     70  C   UNL A   1      39.087  21.763  26.008  1.00  0.00     0.001 A 
ATOM     71  C   UNL A   1      37.863  22.381  25.791  1.00  0.00     0.000 A 
ENDBRANCH  47  66
BRANCH  59  72
ATOM     72  C   UNL A   1      45.985  25.865  26.761  1.00  0.00    -0.014 A 
ATOM     73  C   UNL A   1      45.400  27.088  26.384  1.00  0.00     0.009 A 
ATOM     74  C   UNL A   1      47.029  25.361  25.972  1.00  0.00     0.009 A 
ATOM     75  C   UNL A   1      45.819  27.763  25.235  1.00  0.00     0.001 A 
ATOM     76  C   UNL A   1      47.463  26.046  24.834  1.00  0.00     0.001 A 
ATOM     77  C   UNL A   1      46.854  27.243  24.462  1.00  0.00     0.000 A 
ENDBRANCH  59  72
ENDBRANCH  33  34
ENDBRANCH  26  28
ENDBRANCH  25  26
ENDBRANCH  24  25
ENDBRANCH   1  24
TORSDOF 14
ENDMDL
MODEL 2
REMARK VINA RESULT:     -11.1      4.694      6.599
REMARK SMILES O=C(Cc1ccn[nH]1)Nc1sc2c(c1C(=O)OCCOC(=O)c1ccc(-c3c4nc(c(-c5ccccc5)c5ccc([nH]5)c(-c5ccccc5)c5nc(c(-c6ccccc6)c6ccc3[nH]6)C=C5)C=C4)cc1)CCC2
REMARK SMILES IDX 18 1 17 2 15 3 16 4 14 5 10 6 11 7 12 8 13 9 73 10 71 11
REMARK SMILES IDX 72 12 9 13 1 14 2 15 3 17 4 18 5 19 8 20 6 21 7 22 19 24
REMARK SMILES IDX 20 25 21 26 22 27 23 28 24 29 70 30 25 31 69 32 26 33 27 34
REMARK SMILES IDX 28 35 63 36 29 37 68 38 62 39 64 40 30 41 67 42 61 43 60 44
REMARK SMILES IDX 31 46 53 47 38 48 52 49 39 50 42 51 51 52 65 53 40 54 41 55
REMARK SMILES IDX 50 57 66 58 43 59 32 60 33 61 37 62 34 63 36 64 35 65 54 66
REMARK SMILES IDX 55 67 59 68 56 69 58 70 57 71 44 72 45 73 49 74 46 75 48 76
REMARK SMILES IDX 47 77
REMARK H PARENT 9 16 8 23 64 45 42 56
REMARK Flexibility Score: inf
ROOT
ATOM      1  C   UNL A   1      32.030  29.515  27.192  1.00  0.00     0.275 C 
ENDROOT
BRANCH   1   2
ATOM      2  O   UNL A   1      31.897  28.653  26.046  1.00  0.00    -0.458 OA
BRANCH   2   3
ATOM      3  C   UNL A   1      31.359  27.408  26.253  1.00  0.00     0.341 C 
ATOM      4  O   UNL A   1      30.851  27.058  27.312  1.00  0.00    -0.246 OA
BRANCH   3   5
ATOM      5  C   UNL A   1      31.550  26.514  25.107  1.00  0.00     0.098 A 
ATOM      6  C   UNL A   1      30.570  26.207  24.165  1.00  0.00     0.110 A 
ATOM      7  S   UNL A   1      30.984  24.920  23.112  1.00  0.00    -0.122 S 
ATOM      8  C   UNL A   1      32.536  24.914  23.726  1.00  0.00     0.011 A 
ATOM      9  C   UNL A   1      32.718  25.755  24.790  1.00  0.00    -0.017 A 
ATOM     10  C   UNL A   1      33.730  24.124  23.356  1.00  0.00     0.047 C 
ATOM     11  C   UNL A   1      34.093  25.619  25.341  1.00  0.00     0.038 C 
ATOM     12  C   UNL A   1      34.828  24.806  24.229  1.00  0.00     0.010 C 
BRANCH   6  13
ATOM     13  N   UNL A   1      29.320  26.738  23.921  1.00  0.00    -0.317 N 
ATOM     14  O   UNL A   1      30.160  28.376  22.527  1.00  0.00    -0.274 OA
ATOM     15  C   UNL A   1      29.234  27.904  23.181  1.00  0.00     0.230 C 
ATOM     16  H   UNL A   1      28.510  26.299  24.266  1.00  0.00     0.170 HD
BRANCH  15  17
ATOM     17  C   UNL A   1      27.858  28.543  23.178  1.00  0.00     0.155 C 
BRANCH  17  18
ATOM     18  C   UNL A   1      27.889  29.912  22.591  1.00  0.00     0.044 A 
ATOM     19  C   UNL A   1      27.877  31.168  23.163  1.00  0.00     0.045 A 
ATOM     20  N   UNL A   1      27.962  30.128  21.238  1.00  0.00    -0.282 N 
ATOM     21  C   UNL A   1      27.998  32.060  22.081  1.00  0.00     0.135 A 
ATOM     22  N   UNL A   1      28.083  31.426  20.911  1.00  0.00    -0.184 NA
ATOM     23  H   UNL A   1      27.929  29.404  20.572  1.00  0.00     0.190 HD
ENDBRANCH  17  18
ENDBRANCH  15  17
ENDBRANCH   6  13
ENDBRANCH   3   5
ENDBRANCH   2   3
ENDBRANCH   1   2
BRANCH   1  24
ATOM     24  C   UNL A   1      32.751  30.823  26.873  1.00  0.00     0.275 C 
BRANCH  24  25
ATOM     25  O   UNL A   1      34.170  30.654  26.859  1.00  0.00    -0.458 OA
BRANCH  25  26
ATOM     26  C   UNL A   1      34.834  31.575  27.595  1.00  0.00     0.338 C 
ATOM     27  O   UNL A   1      34.613  32.773  27.628  1.00  0.00    -0.246 OA
BRANCH  26  28
ATOM     28  C   UNL A   1      35.946  30.943  28.317  1.00  0.00     0.060 A 
ATOM     29  C   UNL A   1      36.996  31.779  28.702  1.00  0.00     0.016 A 
ATOM     30  C   UNL A   1      36.036  29.553  28.463  1.00  0.00     0.016 A 
ATOM     31  C   UNL A   1      38.174  31.233  29.162  1.00  0.00     0.010 A 
ATOM     32  C   UNL A   1      37.229  28.998  28.893  1.00  0.00     0.010 A 
ATOM     33  C   UNL A   1      38.302  29.847  29.182  1.00  0.00    -0.014 A 
BRANCH  33  34
ATOM     34  C   UNL A   1      39.638  29.326  29.411  1.00  0.00     0.031 A 
ATOM     35  C   UNL A   1      40.065  29.158  30.821  1.00  0.00     0.074 A 
ATOM     36  C   UNL A   1      40.405  28.960  28.368  1.00  0.00     0.049 A 
ATOM     37  N   UNL A   1      41.131  29.614  31.393  1.00  0.00    -0.248 NA
ATOM     38  C   UNL A   1      39.163  28.424  31.722  1.00  0.00     0.031 C 
ATOM     39  C   UNL A   1      39.996  28.819  26.967  1.00  0.00     0.029 A 
ATOM     40  N   UNL A   1      41.683  28.492  28.371  1.00  0.00    -0.354 N 
ATOM     41  C   UNL A   1      41.123  29.103  32.687  1.00  0.00     0.074 A 
ATOM     42  C   UNL A   1      39.843  28.462  32.868  1.00  0.00     0.031 C 
ATOM     43  C   UNL A   1      40.907  28.062  26.322  1.00  0.00     0.029 A 
ATOM     44  C   UNL A   1      42.002  27.770  27.233  1.00  0.00     0.049 A 
ATOM     45  H   UNL A   1      42.316  28.652  29.107  1.00  0.00     0.167 HD
ATOM     46  C   UNL A   1      42.238  29.058  33.464  1.00  0.00     0.031 A 
ATOM     47  C   UNL A   1      43.024  26.893  27.099  1.00  0.00     0.031 A 
ATOM     48  C   UNL A   1      43.249  29.984  33.040  1.00  0.00     0.049 A 
ATOM     49  C   UNL A   1      44.006  27.161  28.176  1.00  0.00     0.074 A 
ATOM     50  C   UNL A   1      43.299  31.355  32.882  1.00  0.00     0.029 A 
ATOM     51  N   UNL A   1      44.354  29.497  32.386  1.00  0.00    -0.354 N 
ATOM     52  N   UNL A   1      44.750  28.228  28.231  1.00  0.00    -0.248 NA
ATOM     53  C   UNL A   1      43.865  26.437  29.431  1.00  0.00     0.031 C 
ATOM     54  C   UNL A   1      44.128  31.565  31.742  1.00  0.00     0.029 A 
ATOM     55  C   UNL A   1      44.554  30.312  31.302  1.00  0.00     0.049 A 
ATOM     56  H   UNL A   1      44.894  28.716  32.645  1.00  0.00     0.167 HD
ATOM     57  C   UNL A   1      44.818  28.547  29.580  1.00  0.00     0.074 A 
ATOM     58  C   UNL A   1      44.350  27.352  30.276  1.00  0.00     0.031 C 
ATOM     59  C   UNL A   1      44.972  29.839  30.002  1.00  0.00     0.031 A 
BRANCH  46  60
ATOM     60  C   UNL A   1      42.529  27.913  34.398  1.00  0.00    -0.014 A 
ATOM     61  C   UNL A   1      43.060  26.719  33.882  1.00  0.00     0.009 A 
ATOM     62  C   UNL A   1      42.045  27.876  35.721  1.00  0.00     0.009 A 
ATOM     63  C   UNL A   1      43.057  25.539  34.636  1.00  0.00     0.001 A 
ATOM     64  C   UNL A   1      42.080  26.711  36.491  1.00  0.00     0.001 A 
ATOM     65  C   UNL A   1      42.564  25.534  35.938  1.00  0.00     0.000 A 
ENDBRANCH  46  60
BRANCH  47  66
ATOM     66  C   UNL A   1      43.015  25.643  26.309  1.00  0.00    -0.014 A 
ATOM     67  C   UNL A   1      43.998  25.394  25.342  1.00  0.00     0.009 A 
ATOM     68  C   UNL A   1      42.165  24.577  26.665  1.00  0.00     0.009 A 
ATOM     69  C   UNL A   1      44.135  24.123  24.768  1.00  0.00     0.001 A 
ATOM     70  C   UNL A   1      42.292  23.312  26.086  1.00  0.00     0.001 A 
ATOM     71  C   UNL A   1      43.287  23.082  25.146  1.00  0.00     0.000 A 
ENDBRANCH  47  66
BRANCH  59  72
ATOM     72  C   UNL A   1      45.282  30.895  28.970  1.00  0.00    -0.014 A 
ATOM     73  C   UNL A   1      46.600  31.238  28.615  1.00  0.00     0.009 A 
ATOM     74  C   UNL A   1      44.232  31.436  28.215  1.00  0.00     0.009 A 
ATOM     75  C   UNL A   1      46.855  32.123  27.565  1.00  0.00     0.001 A 
ATOM     76  C   UNL A   1      44.488  32.305  27.151  1.00  0.00     0.001 A 
ATOM     77  C   UNL A   1      45.798  32.654  26.830  1.00  0.00     0.000 A 
ENDBRANCH  59  72
ENDBRANCH  33  34
ENDBRANCH  26  28
ENDBRANCH  25  26
ENDBRANCH  24  25
ENDBRANCH   1  24
TORSDOF 14
ENDMDL
MODEL 3
REMARK VINA RESULT:     -10.9      5.575     10.945
REMARK SMILES O=C(Cc1ccn[nH]1)Nc1sc2c(c1C(=O)OCCOC(=O)c1ccc(-c3c4nc(c(-c5ccccc5)c5ccc([nH]5)c(-c5ccccc5)c5nc(c(-c6ccccc6)c6ccc3[nH]6)C=C5)C=C4)cc1)CCC2
REMARK SMILES IDX 18 1 17 2 15 3 16 4 14 5 10 6 11 7 12 8 13 9 73 10 71 11
REMARK SMILES IDX 72 12 9 13 1 14 2 15 3 17 4 18 5 19 8 20 6 21 7 22 19 24
REMARK SMILES IDX 20 25 21 26 22 27 23 28 24 29 70 30 25 31 69 32 26 33 27 34
REMARK SMILES IDX 28 35 63 36 29 37 68 38 62 39 64 40 30 41 67 42 61 43 60 44
REMARK SMILES IDX 31 46 53 47 38 48 52 49 39 50 42 51 51 52 65 53 40 54 41 55
REMARK SMILES IDX 50 57 66 58 43 59 32 60 33 61 37 62 34 63 36 64 35 65 54 66
REMARK SMILES IDX 55 67 59 68 56 69 58 70 57 71 44 72 45 73 49 74 46 75 48 76
REMARK SMILES IDX 47 77
REMARK H PARENT 9 16 8 23 64 45 42 56
REMARK Flexibility Score: inf
ROOT
ATOM      1  C   UNL A   1      37.294  21.416  24.641  1.00  0.00     0.275 C 
ENDROOT
BRANCH   1   2
ATOM      2  O   UNL A   1      35.883  21.703  24.661  1.00  0.00    -0.458 OA
BRANCH   2   3
ATOM      3  C   UNL A   1      35.401  22.562  23.706  1.00  0.00     0.341 C 
ATOM      4  O   UNL A   1      36.066  22.959  22.756  1.00  0.00    -0.246 OA
BRANCH   3   5
ATOM      5  C   UNL A   1      34.045  23.031  24.003  1.00  0.00     0.098 A 
ATOM      6  C   UNL A   1      32.875  22.398  23.584  1.00  0.00     0.110 A 
ATOM      7  S   UNL A   1      31.451  23.320  23.827  1.00  0.00    -0.122 S 
ATOM      8  C   UNL A   1      32.326  24.447  24.694  1.00  0.00     0.011 A 
ATOM      9  C   UNL A   1      33.676  24.226  24.694  1.00  0.00    -0.017 A 
ATOM     10  C   UNL A   1      31.904  25.668  25.415  1.00  0.00     0.047 C 
ATOM     11  C   UNL A   1      34.391  25.323  25.398  1.00  0.00     0.038 C 
ATOM     12  C   UNL A   1      33.232  26.076  26.124  1.00  0.00     0.010 C 
BRANCH   6  13
ATOM     13  N   UNL A   1      32.643  21.170  23.002  1.00  0.00    -0.317 N 
ATOM     14  O   UNL A   1      32.191  20.163  25.031  1.00  0.00    -0.274 OA
ATOM     15  C   UNL A   1      32.425  20.081  23.827  1.00  0.00     0.230 C 
ATOM     16  H   UNL A   1      32.633  21.070  22.023  1.00  0.00     0.170 HD
BRANCH  15  17
ATOM     17  C   UNL A   1      32.431  18.743  23.112  1.00  0.00     0.155 C 
BRANCH  17  18
ATOM     18  C   UNL A   1      32.930  17.651  23.995  1.00  0.00     0.044 A 
ATOM     19  C   UNL A   1      34.138  16.987  24.057  1.00  0.00     0.045 A 
ATOM     20  N   UNL A   1      32.165  17.109  24.996  1.00  0.00    -0.282 N 
ATOM     21  C   UNL A   1      34.016  16.113  25.153  1.00  0.00     0.135 A 
ATOM     22  N   UNL A   1      32.825  16.210  25.745  1.00  0.00    -0.184 NA
ATOM     23  H   UNL A   1      31.223  17.354  25.151  1.00  0.00     0.190 HD
ENDBRANCH  17  18
ENDBRANCH  15  17
ENDBRANCH   6  13
ENDBRANCH   3   5
ENDBRANCH   2   3
ENDBRANCH   1   2
BRANCH   1  24
ATOM     24  C   UNL A   1      37.996  21.785  25.946  1.00  0.00     0.275 C 
BRANCH  24  25
ATOM     25  O   UNL A   1      39.332  22.234  25.719  1.00  0.00    -0.458 OA
BRANCH  25  26
ATOM     26  C   UNL A   1      40.070  22.342  26.848  1.00  0.00     0.338 C 
ATOM     27  O   UNL A   1      40.335  21.445  27.630  1.00  0.00    -0.246 OA
BRANCH  26  28
ATOM     28  C   UNL A   1      40.464  23.740  27.067  1.00  0.00     0.060 A 
ATOM     29  C   UNL A   1      41.486  23.964  27.991  1.00  0.00     0.016 A 
ATOM     30  C   UNL A   1      39.743  24.806  26.512  1.00  0.00     0.016 A 
ATOM     31  C   UNL A   1      41.747  25.243  28.430  1.00  0.00     0.010 A 
ATOM     32  C   UNL A   1      39.978  26.089  26.974  1.00  0.00     0.010 A 
ATOM     33  C   UNL A   1      40.940  26.282  27.971  1.00  0.00    -0.014 A 
BRANCH  33  34
ATOM     34  C   UNL A   1      41.072  27.553  28.659  1.00  0.00     0.031 A 
ATOM     35  C   UNL A   1      42.209  28.419  28.268  1.00  0.00     0.074 A 
ATOM     36  C   UNL A   1      40.146  27.928  29.562  1.00  0.00     0.049 A 
ATOM     37  N   UNL A   1      43.110  28.949  29.029  1.00  0.00    -0.248 NA
ATOM     38  C   UNL A   1      42.394  28.691  26.834  1.00  0.00     0.031 C 
ATOM     39  C   UNL A   1      38.851  27.295  29.826  1.00  0.00     0.029 A 
ATOM     40  N   UNL A   1      40.112  29.048  30.333  1.00  0.00    -0.354 N 
ATOM     41  C   UNL A   1      43.891  29.750  28.202  1.00  0.00     0.074 A 
ATOM     42  C   UNL A   1      43.471  29.476  26.849  1.00  0.00     0.031 C 
ATOM     43  C   UNL A   1      38.063  28.173  30.482  1.00  0.00     0.029 A 
ATOM     44  C   UNL A   1      38.839  29.367  30.776  1.00  0.00     0.049 A 
ATOM     45  H   UNL A   1      40.912  29.578  30.554  1.00  0.00     0.167 HD
ATOM     46  C   UNL A   1      44.694  30.736  28.683  1.00  0.00     0.031 A 
ATOM     47  C   UNL A   1      38.425  30.573  31.230  1.00  0.00     0.031 A 
ATOM     48  C   UNL A   1      45.025  30.558  30.068  1.00  0.00     0.049 A 
ATOM     49  C   UNL A   1      39.623  31.358  31.611  1.00  0.00     0.074 A 
ATOM     50  C   UNL A   1      45.652  29.563  30.793  1.00  0.00     0.029 A 
ATOM     51  N   UNL A   1      44.410  31.361  30.999  1.00  0.00    -0.354 N 
ATOM     52  N   UNL A   1      40.377  31.080  32.635  1.00  0.00    -0.248 NA
ATOM     53  C   UNL A   1      40.234  32.214  30.605  1.00  0.00     0.031 C 
ATOM     54  C   UNL A   1      44.972  29.535  32.046  1.00  0.00     0.029 A 
ATOM     55  C   UNL A   1      44.000  30.535  32.013  1.00  0.00     0.049 A 
ATOM     56  H   UNL A   1      44.289  32.336  30.946  1.00  0.00     0.167 HD
ATOM     57  C   UNL A   1      41.669  31.358  32.214  1.00  0.00     0.074 A 
ATOM     58  C   UNL A   1      41.509  32.155  31.000  1.00  0.00     0.031 C 
ATOM     59  C   UNL A   1      42.746  30.682  32.717  1.00  0.00     0.031 A 
BRANCH  46  60
ATOM     60  C   UNL A   1      44.886  32.046  27.967  1.00  0.00    -0.014 A 
ATOM     61  C   UNL A   1      46.188  32.493  27.682  1.00  0.00     0.009 A 
ATOM     62  C   UNL A   1      43.844  32.981  27.809  1.00  0.00     0.009 A 
ATOM     63  C   UNL A   1      46.433  33.820  27.308  1.00  0.00     0.001 A 
ATOM     64  C   UNL A   1      44.080  34.293  27.393  1.00  0.00     0.001 A 
ATOM     65  C   UNL A   1      45.381  34.720  27.167  1.00  0.00     0.000 A 
ENDBRANCH  46  60
BRANCH  47  66
ATOM     66  C   UNL A   1      37.093  31.182  31.025  1.00  0.00    -0.014 A 
ATOM     67  C   UNL A   1      36.291  31.544  32.115  1.00  0.00     0.009 A 
ATOM     68  C   UNL A   1      36.698  31.625  29.747  1.00  0.00     0.009 A 
ATOM     69  C   UNL A   1      35.147  32.334  31.932  1.00  0.00     0.001 A 
ATOM     70  C   UNL A   1      35.552  32.403  29.562  1.00  0.00     0.001 A 
ATOM     71  C   UNL A   1      34.784  32.769  30.659  1.00  0.00     0.000 A 
ENDBRANCH  47  66
BRANCH  59  72
ATOM     72  C   UNL A   1      42.529  29.772  33.900  1.00  0.00    -0.014 A 
ATOM     73  C   UNL A   1      42.027  28.464  33.764  1.00  0.00     0.009 A 
ATOM     74  C   UNL A   1      42.997  30.173  35.160  1.00  0.00     0.009 A 
ATOM     75  C   UNL A   1      41.960  27.601  34.861  1.00  0.00     0.001 A 
ATOM     76  C   UNL A   1      42.950  29.303  36.253  1.00  0.00     0.001 A 
ATOM     77  C   UNL A   1      42.426  28.020  36.105  1.00  0.00     0.000 A 
ENDBRANCH  59  72
ENDBRANCH  33  34
ENDBRANCH  26  28
ENDBRANCH  25  26
ENDBRANCH  24  25
ENDBRANCH   1  24
TORSDOF 14
ENDMDL
