MODEL 1
REMARK VINA RESULT:      -9.3      0.000      0.000
REMARK SMILES CN(CC1CCC1)C(=O)N(CC(=O)OCCOC(=O)c1ccc(-c2c3nc(c(-c4ccccc4)c4ccc([nH]4)c(-c4ccccc4)c4nc(c(-c5ccccc5)c5ccc2[nH]5)C=C4)C=C3)cc1)C(C)(C)C
REMARK SMILES IDX 14 1 12 2 13 3 11 4 10 5 8 6 9 7 2 8 1 9 3 10 4 11 5 12 7 13
REMARK SMILES IDX 6 14 68 15 69 16 70 17 71 18 15 19 16 20 17 21 18 22 19 23
REMARK SMILES IDX 20 24 21 25 67 26 22 27 66 28 23 29 24 30 25 31 60 32 26 33
REMARK SMILES IDX 65 34 59 35 61 36 27 37 64 38 58 39 57 40 28 42 50 43 35 44
REMARK SMILES IDX 49 45 36 46 39 47 48 48 62 49 37 50 38 51 47 53 63 54 40 55
REMARK SMILES IDX 29 56 30 57 34 58 31 59 33 60 32 61 51 62 52 63 56 64 53 65
REMARK SMILES IDX 55 66 54 67 41 68 42 69 46 70 43 71 45 72 44 73
REMARK H PARENT 61 41 39 52
REMARK Flexibility Score: inf
ROOT
ATOM      1  O   UNL A   1      33.033  28.232  26.128  1.00  0.00    -0.461 OA
ENDROOT
BRANCH   1   2
ATOM      2  C   UNL A   1      32.439  27.035  26.377  1.00  0.00     0.325 C 
ATOM      3  O   UNL A   1      31.435  26.892  27.073  1.00  0.00    -0.250 OA
BRANCH   2   4
ATOM      4  C   UNL A   1      33.095  25.842  25.688  1.00  0.00     0.244 C 
BRANCH   4   5
ATOM      5  N   UNL A   1      32.265  24.694  25.326  1.00  0.00    -0.309 N 
BRANCH   5   6
ATOM      6  C   UNL A   1      32.127  23.533  26.078  1.00  0.00     0.320 C 
ATOM      7  O   UNL A   1      31.078  23.365  26.718  1.00  0.00    -0.248 OA
BRANCH   6   8
ATOM      8  N   UNL A   1      33.094  22.542  26.204  1.00  0.00    -0.327 N 
ATOM      9  C   UNL A   1      33.411  22.254  27.610  1.00  0.00     0.148 C 
BRANCH   8  10
ATOM     10  C   UNL A   1      33.878  21.719  25.267  1.00  0.00     0.124 C 
BRANCH  10  11
ATOM     11  C   UNL A   1      35.021  22.547  24.716  1.00  0.00     0.008 C 
ATOM     12  C   UNL A   1      36.356  21.832  24.373  1.00  0.00     0.005 C 
ATOM     13  C   UNL A   1      35.042  23.066  23.254  1.00  0.00     0.005 C 
ATOM     14  C   UNL A   1      36.583  22.967  23.346  1.00  0.00     0.001 C 
ENDBRANCH  10  11
ENDBRANCH   8  10
ENDBRANCH   6   8
ENDBRANCH   5   6
BRANCH   5  15
ATOM     15  C   UNL A   1      31.504  24.769  23.996  1.00  0.00     0.037 C 
ATOM     16  C   UNL A   1      32.273  25.604  22.945  1.00  0.00     0.034 C 
ATOM     17  C   UNL A   1      31.223  23.345  23.450  1.00  0.00     0.034 C 
ATOM     18  C   UNL A   1      30.101  25.430  24.092  1.00  0.00     0.034 C 
ENDBRANCH   5  15
ENDBRANCH   4   5
ENDBRANCH   2   4
ENDBRANCH   1   2
BRANCH   1  19
ATOM     19  C   UNL A   1      32.358  29.056  25.155  1.00  0.00     0.274 C 
BRANCH  19  20
ATOM     20  C   UNL A   1      31.804  30.334  25.785  1.00  0.00     0.275 C 
BRANCH  20  21
ATOM     21  O   UNL A   1      32.348  30.507  27.104  1.00  0.00    -0.458 OA
BRANCH  21  22
ATOM     22  C   UNL A   1      33.024  31.659  27.326  1.00  0.00     0.338 C 
ATOM     23  O   UNL A   1      32.636  32.793  27.109  1.00  0.00    -0.246 OA
BRANCH  22  24
ATOM     24  C   UNL A   1      34.345  31.364  27.924  1.00  0.00     0.060 A 
ATOM     25  C   UNL A   1      35.313  32.360  28.065  1.00  0.00     0.016 A 
ATOM     26  C   UNL A   1      34.656  30.053  28.280  1.00  0.00     0.016 A 
ATOM     27  C   UNL A   1      36.592  32.060  28.513  1.00  0.00     0.010 A 
ATOM     28  C   UNL A   1      35.905  29.768  28.839  1.00  0.00     0.010 A 
ATOM     29  C   UNL A   1      36.879  30.773  28.970  1.00  0.00    -0.014 A 
BRANCH  29  30
ATOM     30  C   UNL A   1      38.155  30.496  29.671  1.00  0.00     0.031 A 
ATOM     31  C   UNL A   1      39.193  29.619  29.042  1.00  0.00     0.074 A 
ATOM     32  C   UNL A   1      38.342  30.985  30.914  1.00  0.00     0.049 A 
ATOM     33  N   UNL A   1      40.227  29.042  29.596  1.00  0.00    -0.248 NA
ATOM     34  C   UNL A   1      39.045  29.344  27.604  1.00  0.00     0.031 C 
ATOM     35  C   UNL A   1      37.429  31.891  31.620  1.00  0.00     0.029 A 
ATOM     36  N   UNL A   1      39.353  30.770  31.816  1.00  0.00    -0.354 N 
ATOM     37  C   UNL A   1      40.823  28.292  28.591  1.00  0.00     0.074 A 
ATOM     38  C   UNL A   1      40.043  28.497  27.389  1.00  0.00     0.031 C 
ATOM     39  C   UNL A   1      37.924  32.159  32.836  1.00  0.00     0.029 A 
ATOM     40  C   UNL A   1      39.129  31.365  33.034  1.00  0.00     0.049 A 
ATOM     41  H   UNL A   1      40.158  30.242  31.610  1.00  0.00     0.167 HD
ATOM     42  C   UNL A   1      41.913  27.495  28.678  1.00  0.00     0.031 A 
ATOM     43  C   UNL A   1      39.771  31.233  34.208  1.00  0.00     0.031 A 
ATOM     44  C   UNL A   1      42.688  27.316  29.878  1.00  0.00     0.049 A 
ATOM     45  C   UNL A   1      40.923  30.280  34.298  1.00  0.00     0.074 A 
ATOM     46  C   UNL A   1      43.830  26.557  30.061  1.00  0.00     0.029 A 
ATOM     47  N   UNL A   1      42.398  27.906  31.098  1.00  0.00    -0.354 N 
ATOM     48  N   UNL A   1      41.458  29.545  33.354  1.00  0.00    -0.248 NA
ATOM     49  C   UNL A   1      41.538  30.113  35.621  1.00  0.00     0.031 C 
ATOM     50  C   UNL A   1      44.204  26.650  31.406  1.00  0.00     0.029 A 
ATOM     51  C   UNL A   1      43.319  27.501  32.049  1.00  0.00     0.049 A 
ATOM     52  H   UNL A   1      41.648  28.523  31.263  1.00  0.00     0.167 HD
ATOM     53  C   UNL A   1      42.470  28.825  33.968  1.00  0.00     0.074 A 
ATOM     54  C   UNL A   1      42.491  29.231  35.360  1.00  0.00     0.031 C 
ATOM     55  C   UNL A   1      43.305  27.903  33.430  1.00  0.00     0.031 A 
BRANCH  42  56
ATOM     56  C   UNL A   1      42.302  26.713  27.458  1.00  0.00    -0.014 A 
ATOM     57  C   UNL A   1      41.780  25.437  27.203  1.00  0.00     0.009 A 
ATOM     58  C   UNL A   1      43.174  27.292  26.520  1.00  0.00     0.009 A 
ATOM     59  C   UNL A   1      42.139  24.747  26.042  1.00  0.00     0.001 A 
ATOM     60  C   UNL A   1      43.516  26.608  25.353  1.00  0.00     0.001 A 
ATOM     61  C   UNL A   1      43.002  25.334  25.117  1.00  0.00     0.000 A 
ENDBRANCH  42  56
BRANCH  43  62
ATOM     62  C   UNL A   1      39.268  31.951  35.406  1.00  0.00    -0.014 A 
ATOM     63  C   UNL A   1      38.322  31.355  36.250  1.00  0.00     0.009 A 
ATOM     64  C   UNL A   1      39.760  33.228  35.726  1.00  0.00     0.009 A 
ATOM     65  C   UNL A   1      37.872  32.028  37.390  1.00  0.00     0.001 A 
ATOM     66  C   UNL A   1      39.331  33.884  36.881  1.00  0.00     0.001 A 
ATOM     67  C   UNL A   1      38.383  33.286  37.709  1.00  0.00     0.000 A 
ENDBRANCH  43  62
BRANCH  55  68
ATOM     68  C   UNL A   1      44.305  27.280  34.356  1.00  0.00    -0.014 A 
ATOM     69  C   UNL A   1      45.532  27.910  34.615  1.00  0.00     0.009 A 
ATOM     70  C   UNL A   1      44.009  26.066  34.990  1.00  0.00     0.009 A 
ATOM     71  C   UNL A   1      46.457  27.320  35.477  1.00  0.00     0.001 A 
ATOM     72  C   UNL A   1      44.927  25.489  35.868  1.00  0.00     0.001 A 
ATOM     73  C   UNL A   1      46.152  26.112  36.105  1.00  0.00     0.000 A 
ENDBRANCH  55  68
ENDBRANCH  29  30
ENDBRANCH  22  24
ENDBRANCH  21  22
ENDBRANCH  20  21
ENDBRANCH  19  20
ENDBRANCH   1  19
TORSDOF 17
ENDMDL
MODEL 2
REMARK VINA RESULT:      -9.1      3.807      7.323
REMARK SMILES CN(CC1CCC1)C(=O)N(CC(=O)OCCOC(=O)c1ccc(-c2c3nc(c(-c4ccccc4)c4ccc([nH]4)c(-c4ccccc4)c4nc(c(-c5ccccc5)c5ccc2[nH]5)C=C4)C=C3)cc1)C(C)(C)C
REMARK SMILES IDX 14 1 12 2 13 3 11 4 10 5 8 6 9 7 2 8 1 9 3 10 4 11 5 12 7 13
REMARK SMILES IDX 6 14 68 15 69 16 70 17 71 18 15 19 16 20 17 21 18 22 19 23
REMARK SMILES IDX 20 24 21 25 67 26 22 27 66 28 23 29 24 30 25 31 60 32 26 33
REMARK SMILES IDX 65 34 59 35 61 36 27 37 64 38 58 39 57 40 28 42 50 43 35 44
REMARK SMILES IDX 49 45 36 46 39 47 48 48 62 49 37 50 38 51 47 53 63 54 40 55
REMARK SMILES IDX 29 56 30 57 34 58 31 59 33 60 32 61 51 62 52 63 56 64 53 65
REMARK SMILES IDX 55 66 54 67 41 68 42 69 46 70 43 71 45 72 44 73
REMARK H PARENT 61 41 39 52
REMARK Flexibility Score: inf
ROOT
ATOM      1  O   UNL A   1      32.696  27.471  26.863  1.00  0.00    -0.461 OA
ENDROOT
BRANCH   1   2
ATOM      2  C   UNL A   1      31.805  26.478  26.608  1.00  0.00     0.325 C 
ATOM      3  O   UNL A   1      30.583  26.612  26.666  1.00  0.00    -0.250 OA
BRANCH   2   4
ATOM      4  C   UNL A   1      32.432  25.148  26.199  1.00  0.00     0.244 C 
BRANCH   4   5
ATOM      5  N   UNL A   1      33.044  25.036  24.876  1.00  0.00    -0.309 N 
BRANCH   5   6
ATOM      6  C   UNL A   1      32.837  25.914  23.817  1.00  0.00     0.320 C 
ATOM      7  O   UNL A   1      33.726  26.735  23.548  1.00  0.00    -0.248 OA
BRANCH   6   8
ATOM      8  N   UNL A   1      31.683  25.974  23.043  1.00  0.00    -0.327 N 
ATOM      9  C   UNL A   1      30.828  24.795  23.232  1.00  0.00     0.148 C 
BRANCH   8  10
ATOM     10  C   UNL A   1      31.120  26.932  22.076  1.00  0.00     0.124 C 
BRANCH  10  11
ATOM     11  C   UNL A   1      30.491  28.086  22.830  1.00  0.00     0.008 C 
ATOM     12  C   UNL A   1      30.303  29.439  22.092  1.00  0.00     0.005 C 
ATOM     13  C   UNL A   1      28.970  28.154  23.129  1.00  0.00     0.005 C 
ATOM     14  C   UNL A   1      29.127  29.691  23.066  1.00  0.00     0.001 C 
ENDBRANCH  10  11
ENDBRANCH   8  10
ENDBRANCH   6   8
ENDBRANCH   5   6
BRANCH   5  15
ATOM     15  C   UNL A   1      33.972  23.840  24.630  1.00  0.00     0.037 C 
ATOM     16  C   UNL A   1      35.381  24.079  25.223  1.00  0.00     0.034 C 
ATOM     17  C   UNL A   1      33.354  22.544  25.217  1.00  0.00     0.034 C 
ATOM     18  C   UNL A   1      34.213  23.508  23.131  1.00  0.00     0.034 C 
ENDBRANCH   5  15
ENDBRANCH   4   5
ENDBRANCH   2   4
ENDBRANCH   1   2
BRANCH   1  19
ATOM     19  C   UNL A   1      32.334  28.764  26.334  1.00  0.00     0.274 C 
BRANCH  19  20
ATOM     20  C   UNL A   1      32.791  29.898  27.251  1.00  0.00     0.275 C 
BRANCH  20  21
ATOM     21  O   UNL A   1      34.198  30.131  27.081  1.00  0.00    -0.458 OA
BRANCH  21  22
ATOM     22  C   UNL A   1      34.835  30.729  28.115  1.00  0.00     0.338 C 
ATOM     23  O   UNL A   1      34.401  31.611  28.835  1.00  0.00    -0.246 OA
BRANCH  22  24
ATOM     24  C   UNL A   1      36.177  30.132  28.298  1.00  0.00     0.060 A 
ATOM     25  C   UNL A   1      37.094  30.079  27.247  1.00  0.00     0.016 A 
ATOM     26  C   UNL A   1      36.501  29.543  29.519  1.00  0.00     0.016 A 
ATOM     27  C   UNL A   1      38.304  29.413  27.383  1.00  0.00     0.010 A 
ATOM     28  C   UNL A   1      37.765  28.972  29.695  1.00  0.00     0.010 A 
ATOM     29  C   UNL A   1      38.680  28.913  28.630  1.00  0.00    -0.014 A 
BRANCH  29  30
ATOM     30  C   UNL A   1      40.059  28.417  28.853  1.00  0.00     0.031 A 
ATOM     31  C   UNL A   1      41.155  29.364  29.235  1.00  0.00     0.074 A 
ATOM     32  C   UNL A   1      40.332  27.113  28.638  1.00  0.00     0.049 A 
ATOM     33  N   UNL A   1      42.449  29.180  29.201  1.00  0.00    -0.248 NA
ATOM     34  C   UNL A   1      40.744  30.696  29.706  1.00  0.00     0.031 C 
ATOM     35  C   UNL A   1      39.346  26.079  28.309  1.00  0.00     0.029 A 
ATOM     36  N   UNL A   1      41.526  26.439  28.642  1.00  0.00    -0.354 N 
ATOM     37  C   UNL A   1      43.010  30.387  29.593  1.00  0.00     0.074 A 
ATOM     38  C   UNL A   1      41.917  31.294  29.872  1.00  0.00     0.031 C 
ATOM     39  C   UNL A   1      39.972  24.905  28.151  1.00  0.00     0.029 A 
ATOM     40  C   UNL A   1      41.407  25.123  28.264  1.00  0.00     0.049 A 
ATOM     41  H   UNL A   1      42.383  26.856  28.889  1.00  0.00     0.167 HD
ATOM     42  C   UNL A   1      44.322  30.706  29.691  1.00  0.00     0.031 A 
ATOM     43  C   UNL A   1      42.344  24.207  27.963  1.00  0.00     0.031 A 
ATOM     44  C   UNL A   1      45.397  29.786  29.427  1.00  0.00     0.049 A 
ATOM     45  C   UNL A   1      43.786  24.609  27.998  1.00  0.00     0.074 A 
ATOM     46  C   UNL A   1      46.760  30.001  29.532  1.00  0.00     0.029 A 
ATOM     47  N   UNL A   1      45.228  28.476  29.006  1.00  0.00    -0.354 N 
ATOM     48  N   UNL A   1      44.309  25.763  28.333  1.00  0.00    -0.248 NA
ATOM     49  C   UNL A   1      44.764  23.594  27.584  1.00  0.00     0.031 C 
ATOM     50  C   UNL A   1      47.417  28.834  29.126  1.00  0.00     0.029 A 
ATOM     51  C   UNL A   1      46.462  27.880  28.812  1.00  0.00     0.049 A 
ATOM     52  H   UNL A   1      44.358  28.036  28.867  1.00  0.00     0.167 HD
ATOM     53  C   UNL A   1      45.677  25.616  28.166  1.00  0.00     0.074 A 
ATOM     54  C   UNL A   1      45.904  24.254  27.726  1.00  0.00     0.031 C 
ATOM     55  C   UNL A   1      46.660  26.531  28.354  1.00  0.00     0.031 A 
BRANCH  42  56
ATOM     56  C   UNL A   1      44.669  32.120  30.051  1.00  0.00    -0.014 A 
ATOM     57  C   UNL A   1      45.088  32.469  31.343  1.00  0.00     0.009 A 
ATOM     58  C   UNL A   1      44.622  33.114  29.059  1.00  0.00     0.009 A 
ATOM     59  C   UNL A   1      45.433  33.790  31.640  1.00  0.00     0.001 A 
ATOM     60  C   UNL A   1      44.986  34.428  29.354  1.00  0.00     0.001 A 
ATOM     61  C   UNL A   1      45.386  34.767  30.645  1.00  0.00     0.000 A 
ENDBRANCH  42  56
BRANCH  43  62
ATOM     62  C   UNL A   1      41.931  22.855  27.508  1.00  0.00    -0.014 A 
ATOM     63  C   UNL A   1      41.671  21.838  28.436  1.00  0.00     0.009 A 
ATOM     64  C   UNL A   1      41.765  22.587  26.138  1.00  0.00     0.009 A 
ATOM     65  C   UNL A   1      41.257  20.577  28.001  1.00  0.00     0.001 A 
ATOM     66  C   UNL A   1      41.324  21.335  25.710  1.00  0.00     0.001 A 
ATOM     67  C   UNL A   1      41.076  20.328  26.641  1.00  0.00     0.000 A 
ENDBRANCH  43  62
BRANCH  55  68
ATOM     68  C   UNL A   1      48.062  26.077  28.082  1.00  0.00    -0.014 A 
ATOM     69  C   UNL A   1      48.869  25.584  29.119  1.00  0.00     0.009 A 
ATOM     70  C   UNL A   1      48.571  26.121  26.777  1.00  0.00     0.009 A 
ATOM     71  C   UNL A   1      50.174  25.166  28.855  1.00  0.00     0.001 A 
ATOM     72  C   UNL A   1      49.868  25.681  26.513  1.00  0.00     0.001 A 
ATOM     73  C   UNL A   1      50.671  25.212  27.553  1.00  0.00     0.000 A 
ENDBRANCH  55  68
ENDBRANCH  29  30
ENDBRANCH  22  24
ENDBRANCH  21  22
ENDBRANCH  20  21
ENDBRANCH  19  20
ENDBRANCH   1  19
TORSDOF 17
ENDMDL
MODEL 3
REMARK VINA RESULT:      -9.1      3.678      6.854
REMARK SMILES CN(CC1CCC1)C(=O)N(CC(=O)OCCOC(=O)c1ccc(-c2c3nc(c(-c4ccccc4)c4ccc([nH]4)c(-c4ccccc4)c4nc(c(-c5ccccc5)c5ccc2[nH]5)C=C4)C=C3)cc1)C(C)(C)C
REMARK SMILES IDX 14 1 12 2 13 3 11 4 10 5 8 6 9 7 2 8 1 9 3 10 4 11 5 12 7 13
REMARK SMILES IDX 6 14 68 15 69 16 70 17 71 18 15 19 16 20 17 21 18 22 19 23
REMARK SMILES IDX 20 24 21 25 67 26 22 27 66 28 23 29 24 30 25 31 60 32 26 33
REMARK SMILES IDX 65 34 59 35 61 36 27 37 64 38 58 39 57 40 28 42 50 43 35 44
REMARK SMILES IDX 49 45 36 46 39 47 48 48 62 49 37 50 38 51 47 53 63 54 40 55
REMARK SMILES IDX 29 56 30 57 34 58 31 59 33 60 32 61 51 62 52 63 56 64 53 65
REMARK SMILES IDX 55 66 54 67 41 68 42 69 46 70 43 71 45 72 44 73
REMARK H PARENT 61 41 39 52
REMARK Flexibility Score: inf
ROOT
ATOM      1  O   UNL A   1      31.871  28.962  26.672  1.00  0.00    -0.461 OA
ENDROOT
BRANCH   1   2
ATOM      2  C   UNL A   1      31.422  28.561  25.454  1.00  0.00     0.325 C 
ATOM      3  O   UNL A   1      31.354  29.291  24.466  1.00  0.00    -0.250 OA
BRANCH   2   4
ATOM      4  C   UNL A   1      31.025  27.089  25.373  1.00  0.00     0.244 C 
BRANCH   4   5
ATOM      5  N   UNL A   1      32.005  26.122  24.881  1.00  0.00    -0.309 N 
BRANCH   5   6
ATOM      6  C   UNL A   1      33.109  25.663  25.593  1.00  0.00     0.320 C 
ATOM      7  O   UNL A   1      34.109  26.393  25.667  1.00  0.00    -0.248 OA
BRANCH   6   8
ATOM      8  N   UNL A   1      33.202  24.420  26.210  1.00  0.00    -0.327 N 
ATOM      9  C   UNL A   1      31.923  23.995  26.792  1.00  0.00     0.148 C 
BRANCH   8  10
ATOM     10  C   UNL A   1      34.277  23.436  26.422  1.00  0.00     0.124 C 
BRANCH  10  11
ATOM     11  C   UNL A   1      35.212  23.455  25.231  1.00  0.00     0.008 C 
ATOM     12  C   UNL A   1      36.742  23.488  25.490  1.00  0.00     0.005 C 
ATOM     13  C   UNL A   1      35.488  22.196  24.368  1.00  0.00     0.005 C 
ATOM     14  C   UNL A   1      36.888  22.799  24.112  1.00  0.00     0.001 C 
ENDBRANCH  10  11
ENDBRANCH   8  10
ENDBRANCH   6   8
ENDBRANCH   5   6
BRANCH   5  15
ATOM     15  C   UNL A   1      31.813  25.591  23.455  1.00  0.00     0.037 C 
ATOM     16  C   UNL A   1      33.166  25.237  22.791  1.00  0.00     0.034 C 
ATOM     17  C   UNL A   1      30.877  24.355  23.458  1.00  0.00     0.034 C 
ATOM     18  C   UNL A   1      31.131  26.590  22.480  1.00  0.00     0.034 C 
ENDBRANCH   5  15
ENDBRANCH   4   5
ENDBRANCH   2   4
ENDBRANCH   1   2
BRANCH   1  19
ATOM     19  C   UNL A   1      33.198  29.527  26.675  1.00  0.00     0.274 C 
BRANCH  19  20
ATOM     20  C   UNL A   1      33.225  30.903  27.341  1.00  0.00     0.275 C 
BRANCH  20  21
ATOM     21  O   UNL A   1      34.581  31.361  27.469  1.00  0.00    -0.458 OA
BRANCH  21  22
ATOM     22  C   UNL A   1      35.061  31.463  28.730  1.00  0.00     0.338 C 
ATOM     23  O   UNL A   1      34.520  31.999  29.682  1.00  0.00    -0.246 OA
BRANCH  22  24
ATOM     24  C   UNL A   1      36.373  30.785  28.831  1.00  0.00     0.060 A 
ATOM     25  C   UNL A   1      37.149  30.541  27.697  1.00  0.00     0.016 A 
ATOM     26  C   UNL A   1      36.804  30.314  30.069  1.00  0.00     0.016 A 
ATOM     27  C   UNL A   1      38.321  29.800  27.775  1.00  0.00     0.010 A 
ATOM     28  C   UNL A   1      38.040  29.667  30.169  1.00  0.00     0.010 A 
ATOM     29  C   UNL A   1      38.812  29.415  29.023  1.00  0.00    -0.014 A 
BRANCH  29  30
ATOM     30  C   UNL A   1      40.173  28.839  29.145  1.00  0.00     0.031 A 
ATOM     31  C   UNL A   1      41.341  29.714  29.478  1.00  0.00     0.074 A 
ATOM     32  C   UNL A   1      40.357  27.529  28.885  1.00  0.00     0.049 A 
ATOM     33  N   UNL A   1      42.618  29.461  29.358  1.00  0.00    -0.248 NA
ATOM     34  C   UNL A   1      41.036  31.055  30.004  1.00  0.00     0.031 C 
ATOM     35  C   UNL A   1      39.296  26.558  28.596  1.00  0.00     0.029 A 
ATOM     36  N   UNL A   1      41.510  26.790  28.797  1.00  0.00    -0.354 N 
ATOM     37  C   UNL A   1      43.270  30.626  29.739  1.00  0.00     0.074 A 
ATOM     38  C   UNL A   1      42.249  31.583  30.108  1.00  0.00     0.031 C 
ATOM     39  C   UNL A   1      39.844  25.356  28.373  1.00  0.00     0.029 A 
ATOM     40  C   UNL A   1      41.293  25.493  28.399  1.00  0.00     0.049 A 
ATOM     41  H   UNL A   1      42.402  27.153  28.999  1.00  0.00     0.167 HD
ATOM     42  C   UNL A   1      44.601  30.869  29.761  1.00  0.00     0.031 A 
ATOM     43  C   UNL A   1      42.157  24.535  28.018  1.00  0.00     0.031 A 
ATOM     44  C   UNL A   1      45.605  29.899  29.409  1.00  0.00     0.049 A 
ATOM     45  C   UNL A   1      43.618  24.857  27.971  1.00  0.00     0.074 A 
ATOM     46  C   UNL A   1      46.981  30.036  29.431  1.00  0.00     0.029 A 
ATOM     47  N   UNL A   1      45.336  28.612  28.970  1.00  0.00    -0.354 N 
ATOM     48  N   UNL A   1      44.226  25.971  28.297  1.00  0.00    -0.248 NA
ATOM     49  C   UNL A   1      44.510  23.801  27.473  1.00  0.00     0.031 C 
ATOM     50  C   UNL A   1      47.545  28.845  28.959  1.00  0.00     0.029 A 
ATOM     51  C   UNL A   1      46.520  27.954  28.685  1.00  0.00     0.049 A 
ATOM     52  H   UNL A   1      44.436  28.223  28.877  1.00  0.00     0.167 HD
ATOM     53  C   UNL A   1      45.570  25.754  28.040  1.00  0.00     0.074 A 
ATOM     54  C   UNL A   1      45.692  24.393  27.556  1.00  0.00     0.031 C 
ATOM     55  C   UNL A   1      46.612  26.608  28.185  1.00  0.00     0.031 A 
BRANCH  42  56
ATOM     56  C   UNL A   1      45.049  32.253  30.130  1.00  0.00    -0.014 A 
ATOM     57  C   UNL A   1      45.303  32.614  31.461  1.00  0.00     0.009 A 
ATOM     58  C   UNL A   1      45.269  33.198  29.113  1.00  0.00     0.009 A 
ATOM     59  C   UNL A   1      45.748  33.902  31.769  1.00  0.00     0.001 A 
ATOM     60  C   UNL A   1      45.732  34.477  29.423  1.00  0.00     0.001 A 
ATOM     61  C   UNL A   1      45.966  34.830  30.751  1.00  0.00     0.000 A 
ENDBRANCH  42  56
BRANCH  43  62
ATOM     62  C   UNL A   1      41.641  23.220  27.561  1.00  0.00    -0.014 A 
ATOM     63  C   UNL A   1      41.674  22.105  28.410  1.00  0.00     0.009 A 
ATOM     64  C   UNL A   1      41.082  23.084  26.278  1.00  0.00     0.009 A 
ATOM     65  C   UNL A   1      41.163  20.878  27.981  1.00  0.00     0.001 A 
ATOM     66  C   UNL A   1      40.546  21.864  25.864  1.00  0.00     0.001 A 
ATOM     67  C   UNL A   1      40.592  20.760  26.714  1.00  0.00     0.000 A 
ENDBRANCH  43  62
BRANCH  55  68
ATOM     68  C   UNL A   1      47.967  26.085  27.815  1.00  0.00    -0.014 A 
ATOM     69  C   UNL A   1      48.442  26.195  26.499  1.00  0.00     0.009 A 
ATOM     70  C   UNL A   1      48.782  25.499  28.793  1.00  0.00     0.009 A 
ATOM     71  C   UNL A   1      49.704  25.702  26.164  1.00  0.00     0.001 A 
ATOM     72  C   UNL A   1      50.052  25.027  28.460  1.00  0.00     0.001 A 
ATOM     73  C   UNL A   1      50.508  25.122  27.145  1.00  0.00     0.000 A 
ENDBRANCH  55  68
ENDBRANCH  29  30
ENDBRANCH  22  24
ENDBRANCH  21  22
ENDBRANCH  20  21
ENDBRANCH  19  20
ENDBRANCH   1  19
TORSDOF 17
ENDMDL
