MODEL 1
REMARK VINA RESULT:     -10.5      0.000      0.000
REMARK SMILES O=C(OCCOC(=O)c1cc(-c2ccn(C(F)F)c(=O)c2)ccc1O)c1ccc(-c2c3nc(c(-c4ccccc4)c4ccc([nH]4)c(-c4ccccc4)c4nc(c(-c5ccccc5)c5ccc2[nH]5)C=C4)C=C3)cc1
REMARK SMILES IDX 4 1 3 2 2 3 1 4 26 5 27 6 73 7 28 8 72 9 29 10 30 11 31 12
REMARK SMILES IDX 66 13 32 14 71 15 65 16 67 17 33 18 70 19 64 20 63 21 34 23
REMARK SMILES IDX 56 24 41 25 55 26 42 27 45 28 54 29 68 30 43 31 44 32 53 34
REMARK SMILES IDX 69 35 46 36 35 37 36 38 40 39 37 40 39 41 38 42 57 43 58 44
REMARK SMILES IDX 62 45 59 46 61 47 60 48 47 49 48 50 52 51 49 52 51 53 50 54
REMARK SMILES IDX 5 55 6 56 7 57 8 58 9 59 10 60 24 61 11 62 23 63 22 64 25 65
REMARK SMILES IDX 12 67 13 68 21 69 14 70 19 71 15 72 20 73 16 74 17 75 18 76
REMARK H PARENT 67 22 45 33 25 66
REMARK Flexibility Score: inf
ROOT
ATOM      1  C   UNL A   1      40.419  21.012  26.818  1.00  0.00     0.275 C 
ENDROOT
BRANCH   1   2
ATOM      2  O   UNL A   1      39.468  21.660  25.961  1.00  0.00    -0.458 OA
BRANCH   2   3
ATOM      3  C   UNL A   1      38.743  22.781  26.169  1.00  0.00     0.338 C 
ATOM      4  O   UNL A   1      37.559  22.778  25.832  1.00  0.00    -0.246 OA
BRANCH   3   5
ATOM      5  C   UNL A   1      39.319  24.078  26.657  1.00  0.00     0.060 A 
ATOM      6  C   UNL A   1      39.146  24.324  28.025  1.00  0.00     0.016 A 
ATOM      7  C   UNL A   1      39.978  25.058  25.913  1.00  0.00     0.016 A 
ATOM      8  C   UNL A   1      39.474  25.556  28.595  1.00  0.00     0.010 A 
ATOM      9  C   UNL A   1      40.349  26.285  26.489  1.00  0.00     0.010 A 
ATOM     10  C   UNL A   1      40.072  26.561  27.827  1.00  0.00    -0.014 A 
BRANCH  10  11
ATOM     11  C   UNL A   1      40.551  27.802  28.483  1.00  0.00     0.031 A 
ATOM     12  C   UNL A   1      41.976  27.996  28.915  1.00  0.00     0.074 A 
ATOM     13  C   UNL A   1      39.653  28.787  28.672  1.00  0.00     0.049 A 
ATOM     14  N   UNL A   1      42.582  29.108  29.254  1.00  0.00    -0.248 NA
ATOM     15  C   UNL A   1      42.848  26.814  28.956  1.00  0.00     0.031 C 
ATOM     16  C   UNL A   1      38.235  28.703  28.313  1.00  0.00     0.029 A 
ATOM     17  N   UNL A   1      39.791  30.042  29.200  1.00  0.00    -0.354 N 
ATOM     18  C   UNL A   1      43.915  28.774  29.456  1.00  0.00     0.074 A 
ATOM     19  C   UNL A   1      44.027  27.346  29.263  1.00  0.00     0.031 C 
ATOM     20  C   UNL A   1      37.641  29.866  28.604  1.00  0.00     0.029 A 
ATOM     21  C   UNL A   1      38.618  30.753  29.221  1.00  0.00     0.049 A 
ATOM     22  H   UNL A   1      40.647  30.399  29.531  1.00  0.00     0.167 HD
ATOM     23  C   UNL A   1      44.945  29.590  29.780  1.00  0.00     0.031 A 
ATOM     24  C   UNL A   1      38.346  31.982  29.698  1.00  0.00     0.031 A 
ATOM     25  C   UNL A   1      44.779  30.965  30.175  1.00  0.00     0.049 A 
ATOM     26  C   UNL A   1      39.472  32.802  30.248  1.00  0.00     0.074 A 
ATOM     27  C   UNL A   1      45.747  31.862  30.589  1.00  0.00     0.029 A 
ATOM     28  N   UNL A   1      43.558  31.614  30.282  1.00  0.00    -0.354 N 
ATOM     29  N   UNL A   1      40.752  32.514  30.292  1.00  0.00    -0.248 NA
ATOM     30  C   UNL A   1      39.128  34.116  30.799  1.00  0.00     0.031 C 
ATOM     31  C   UNL A   1      45.100  33.007  31.063  1.00  0.00     0.029 A 
ATOM     32  C   UNL A   1      43.739  32.870  30.837  1.00  0.00     0.049 A 
ATOM     33  H   UNL A   1      42.691  31.238  30.006  1.00  0.00     0.167 HD
ATOM     34  C   UNL A   1      41.370  33.620  30.855  1.00  0.00     0.074 A 
ATOM     35  C   UNL A   1      40.326  34.590  31.121  1.00  0.00     0.031 C 
ATOM     36  C   UNL A   1      42.686  33.815  31.120  1.00  0.00     0.031 A 
BRANCH  23  37
ATOM     37  C   UNL A   1      46.342  29.028  29.770  1.00  0.00    -0.014 A 
ATOM     38  C   UNL A   1      47.150  29.149  28.628  1.00  0.00     0.009 A 
ATOM     39  C   UNL A   1      46.803  28.245  30.842  1.00  0.00     0.009 A 
ATOM     40  C   UNL A   1      48.374  28.480  28.548  1.00  0.00     0.001 A 
ATOM     41  C   UNL A   1      48.038  27.592  30.767  1.00  0.00     0.001 A 
ATOM     42  C   UNL A   1      48.816  27.701  29.615  1.00  0.00     0.000 A 
ENDBRANCH  23  37
BRANCH  24  43
ATOM     43  C   UNL A   1      36.945  32.474  29.639  1.00  0.00    -0.014 A 
ATOM     44  C   UNL A   1      36.523  33.286  28.570  1.00  0.00     0.009 A 
ATOM     45  C   UNL A   1      36.061  32.245  30.702  1.00  0.00     0.009 A 
ATOM     46  C   UNL A   1      35.271  33.901  28.592  1.00  0.00     0.001 A 
ATOM     47  C   UNL A   1      34.792  32.833  30.703  1.00  0.00     0.001 A 
ATOM     48  C   UNL A   1      34.406  33.674  29.660  1.00  0.00     0.000 A 
ENDBRANCH  24  43
BRANCH  36  49
ATOM     49  C   UNL A   1      43.086  35.125  31.739  1.00  0.00    -0.014 A 
ATOM     50  C   UNL A   1      42.895  35.332  33.115  1.00  0.00     0.009 A 
ATOM     51  C   UNL A   1      43.558  36.187  30.953  1.00  0.00     0.009 A 
ATOM     52  C   UNL A   1      43.149  36.577  33.689  1.00  0.00     0.001 A 
ATOM     53  C   UNL A   1      43.851  37.421  31.536  1.00  0.00     0.001 A 
ATOM     54  C   UNL A   1      43.635  37.618  32.900  1.00  0.00     0.000 A 
ENDBRANCH  36  49
ENDBRANCH  10  11
ENDBRANCH   3   5
ENDBRANCH   2   3
ENDBRANCH   1   2
BRANCH   1  55
ATOM     55  C   UNL A   1      40.797  19.591  26.393  1.00  0.00     0.275 C 
BRANCH  55  56
ATOM     56  O   UNL A   1      41.815  19.546  25.382  1.00  0.00    -0.458 OA
BRANCH  56  57
ATOM     57  C   UNL A   1      43.003  18.994  25.748  1.00  0.00     0.342 C 
ATOM     58  O   UNL A   1      43.174  17.876  26.208  1.00  0.00    -0.246 OA
BRANCH  57  59
ATOM     59  C   UNL A   1      44.117  19.896  25.382  1.00  0.00     0.102 A 
ATOM     60  C   UNL A   1      43.922  21.289  25.499  1.00  0.00     0.028 A 
ATOM     61  C   UNL A   1      45.341  19.403  24.923  1.00  0.00     0.130 A 
ATOM     62  C   UNL A   1      44.977  22.178  25.232  1.00  0.00    -0.017 A 
ATOM     63  C   UNL A   1      46.384  20.282  24.634  1.00  0.00     0.048 A 
ATOM     64  C   UNL A   1      46.210  21.655  24.814  1.00  0.00     0.012 A 
BRANCH  61  65
ATOM     65  O   UNL A   1      45.527  18.061  24.740  1.00  0.00    -0.507 OA
ATOM     66  H   UNL A   1      45.290  17.458  25.417  1.00  0.00     0.293 HD
ENDBRANCH  61  65
BRANCH  62  67
ATOM     67  C   UNL A   1      44.854  23.648  25.356  1.00  0.00    -0.011 A 
ATOM     68  C   UNL A   1      43.601  24.278  25.730  1.00  0.00     0.027 A 
ATOM     69  C   UNL A   1      45.885  24.441  25.020  1.00  0.00     0.080 A 
ATOM     70  C   UNL A   1      43.471  25.610  25.724  1.00  0.00     0.095 A 
ATOM     71  C   UNL A   1      45.762  25.926  25.004  1.00  0.00     0.255 A 
ATOM     72  N   UNL A   1      44.528  26.429  25.372  1.00  0.00    -0.258 N 
ATOM     73  O   UNL A   1      46.732  26.590  24.652  1.00  0.00    -0.269 OA
BRANCH  72  74
ATOM     74  C   UNL A   1      44.374  27.861  25.348  1.00  0.00     0.451 C 
ATOM     75  F   UNL A   1      43.133  28.229  25.747  1.00  0.00    -0.185 F 
ATOM     76  F   UNL A   1      45.275  28.459  26.166  1.00  0.00    -0.185 F 
ENDBRANCH  72  74
ENDBRANCH  62  67
ENDBRANCH  57  59
ENDBRANCH  56  57
ENDBRANCH  55  56
ENDBRANCH   1  55
TORSDOF 14
ENDMDL
MODEL 2
REMARK VINA RESULT:     -10.3      4.206     10.519
REMARK SMILES O=C(OCCOC(=O)c1cc(-c2ccn(C(F)F)c(=O)c2)ccc1O)c1ccc(-c2c3nc(c(-c4ccccc4)c4ccc([nH]4)c(-c4ccccc4)c4nc(c(-c5ccccc5)c5ccc2[nH]5)C=C4)C=C3)cc1
REMARK SMILES IDX 4 1 3 2 2 3 1 4 26 5 27 6 73 7 28 8 72 9 29 10 30 11 31 12
REMARK SMILES IDX 66 13 32 14 71 15 65 16 67 17 33 18 70 19 64 20 63 21 34 23
REMARK SMILES IDX 56 24 41 25 55 26 42 27 45 28 54 29 68 30 43 31 44 32 53 34
REMARK SMILES IDX 69 35 46 36 35 37 36 38 40 39 37 40 39 41 38 42 57 43 58 44
REMARK SMILES IDX 62 45 59 46 61 47 60 48 47 49 48 50 52 51 49 52 51 53 50 54
REMARK SMILES IDX 5 55 6 56 7 57 8 58 9 59 10 60 24 61 11 62 23 63 22 64 25 65
REMARK SMILES IDX 12 67 13 68 21 69 14 70 19 71 15 72 20 73 16 74 17 75 18 76
REMARK H PARENT 67 22 45 33 25 66
REMARK Flexibility Score: inf
ROOT
ATOM      1  C   UNL A   1      34.336  33.144  28.088  1.00  0.00     0.275 C 
ENDROOT
BRANCH   1   2
ATOM      2  O   UNL A   1      33.777  31.824  28.139  1.00  0.00    -0.458 OA
BRANCH   2   3
ATOM      3  C   UNL A   1      34.356  30.631  27.876  1.00  0.00     0.338 C 
ATOM      4  O   UNL A   1      33.681  29.768  27.314  1.00  0.00    -0.246 OA
BRANCH   3   5
ATOM      5  C   UNL A   1      35.726  30.238  28.348  1.00  0.00     0.060 A 
ATOM      6  C   UNL A   1      36.730  30.315  27.375  1.00  0.00     0.016 A 
ATOM      7  C   UNL A   1      36.101  29.794  29.617  1.00  0.00     0.016 A 
ATOM      8  C   UNL A   1      38.017  29.824  27.610  1.00  0.00     0.010 A 
ATOM      9  C   UNL A   1      37.405  29.336  29.873  1.00  0.00     0.010 A 
ATOM     10  C   UNL A   1      38.368  29.315  28.865  1.00  0.00    -0.014 A 
BRANCH  10  11
ATOM     11  C   UNL A   1      39.777  28.942  29.139  1.00  0.00     0.031 A 
ATOM     12  C   UNL A   1      40.747  29.866  29.818  1.00  0.00     0.074 A 
ATOM     13  C   UNL A   1      40.173  27.709  28.769  1.00  0.00     0.049 A 
ATOM     14  N   UNL A   1      41.911  29.582  30.348  1.00  0.00    -0.248 NA
ATOM     15  C   UNL A   1      40.371  31.281  29.945  1.00  0.00     0.031 C 
ATOM     16  C   UNL A   1      39.324  26.732  28.082  1.00  0.00     0.029 A 
ATOM     17  N   UNL A   1      41.371  27.066  28.919  1.00  0.00    -0.354 N 
ATOM     18  C   UNL A   1      42.358  30.753  30.947  1.00  0.00     0.074 A 
ATOM     19  C   UNL A   1      41.374  31.773  30.667  1.00  0.00     0.031 C 
ATOM     20  C   UNL A   1      40.018  25.604  27.897  1.00  0.00     0.029 A 
ATOM     21  C   UNL A   1      41.373  25.797  28.396  1.00  0.00     0.049 A 
ATOM     22  H   UNL A   1      42.153  27.472  29.359  1.00  0.00     0.167 HD
ATOM     23  C   UNL A   1      43.492  30.951  31.659  1.00  0.00     0.031 A 
ATOM     24  C   UNL A   1      42.360  24.886  28.311  1.00  0.00     0.031 A 
ATOM     25  C   UNL A   1      44.558  29.986  31.746  1.00  0.00     0.049 A 
ATOM     26  C   UNL A   1      43.686  25.207  28.929  1.00  0.00     0.074 A 
ATOM     27  C   UNL A   1      45.779  30.111  32.384  1.00  0.00     0.029 A 
ATOM     28  N   UNL A   1      44.561  28.752  31.113  1.00  0.00    -0.354 N 
ATOM     29  N   UNL A   1      44.035  26.267  29.619  1.00  0.00    -0.248 NA
ATOM     30  C   UNL A   1      44.749  24.209  28.774  1.00  0.00     0.031 C 
ATOM     31  C   UNL A   1      46.564  29.010  32.032  1.00  0.00     0.029 A 
ATOM     32  C   UNL A   1      45.794  28.144  31.272  1.00  0.00     0.049 A 
ATOM     33  H   UNL A   1      43.799  28.367  30.621  1.00  0.00     0.167 HD
ATOM     34  C   UNL A   1      45.351  26.055  30.000  1.00  0.00     0.074 A 
ATOM     35  C   UNL A   1      45.731  24.757  29.478  1.00  0.00     0.031 C 
ATOM     36  C   UNL A   1      46.167  26.862  30.724  1.00  0.00     0.031 A 
BRANCH  23  37
ATOM     37  C   UNL A   1      43.678  32.267  32.368  1.00  0.00    -0.014 A 
ATOM     38  C   UNL A   1      44.297  33.345  31.716  1.00  0.00     0.009 A 
ATOM     39  C   UNL A   1      43.375  32.389  33.735  1.00  0.00     0.009 A 
ATOM     40  C   UNL A   1      44.632  34.505  32.419  1.00  0.00     0.001 A 
ATOM     41  C   UNL A   1      43.694  33.559  34.432  1.00  0.00     0.001 A 
ATOM     42  C   UNL A   1      44.332  34.610  33.776  1.00  0.00     0.000 A 
ENDBRANCH  23  37
BRANCH  24  43
ATOM     43  C   UNL A   1      42.082  23.598  27.623  1.00  0.00    -0.014 A 
ATOM     44  C   UNL A   1      41.593  22.498  28.350  1.00  0.00     0.009 A 
ATOM     45  C   UNL A   1      42.419  23.420  26.274  1.00  0.00     0.009 A 
ATOM     46  C   UNL A   1      41.499  21.237  27.759  1.00  0.00     0.001 A 
ATOM     47  C   UNL A   1      42.288  22.164  25.675  1.00  0.00     0.001 A 
ATOM     48  C   UNL A   1      41.847  21.072  26.421  1.00  0.00     0.000 A 
ENDBRANCH  24  43
BRANCH  36  49
ATOM     49  C   UNL A   1      47.563  26.377  30.997  1.00  0.00    -0.014 A 
ATOM     50  C   UNL A   1      47.843  25.706  32.199  1.00  0.00     0.009 A 
ATOM     51  C   UNL A   1      48.619  26.664  30.118  1.00  0.00     0.009 A 
ATOM     52  C   UNL A   1      49.152  25.350  32.525  1.00  0.00     0.001 A 
ATOM     53  C   UNL A   1      49.922  26.271  30.428  1.00  0.00     0.001 A 
ATOM     54  C   UNL A   1      50.189  25.626  31.635  1.00  0.00     0.000 A 
ENDBRANCH  36  49
ENDBRANCH  10  11
ENDBRANCH   3   5
ENDBRANCH   2   3
ENDBRANCH   1   2
BRANCH   1  55
ATOM     55  C   UNL A   1      34.122  33.976  29.354  1.00  0.00     0.275 C 
BRANCH  55  56
ATOM     56  O   UNL A   1      35.229  33.929  30.267  1.00  0.00    -0.458 OA
BRANCH  56  57
ATOM     57  C   UNL A   1      35.058  33.168  31.381  1.00  0.00     0.342 C 
ATOM     58  O   UNL A   1      34.117  32.426  31.618  1.00  0.00    -0.246 OA
BRANCH  57  59
ATOM     59  C   UNL A   1      36.259  33.251  32.243  1.00  0.00     0.102 A 
ATOM     60  C   UNL A   1      36.994  32.072  32.488  1.00  0.00     0.028 A 
ATOM     61  C   UNL A   1      36.669  34.457  32.816  1.00  0.00     0.130 A 
ATOM     62  C   UNL A   1      38.180  32.119  33.241  1.00  0.00    -0.017 A 
ATOM     63  C   UNL A   1      37.832  34.505  33.583  1.00  0.00     0.048 A 
ATOM     64  C   UNL A   1      38.594  33.350  33.769  1.00  0.00     0.012 A 
BRANCH  61  65
ATOM     65  O   UNL A   1      35.933  35.596  32.644  1.00  0.00    -0.507 OA
ATOM     66  H   UNL A   1      35.640  35.841  31.789  1.00  0.00     0.293 HD
ENDBRANCH  61  65
BRANCH  62  67
ATOM     67  C   UNL A   1      39.016  30.929  33.518  1.00  0.00    -0.011 A 
ATOM     68  C   UNL A   1      40.185  31.004  34.375  1.00  0.00     0.027 A 
ATOM     69  C   UNL A   1      38.764  29.767  32.892  1.00  0.00     0.080 A 
ATOM     70  C   UNL A   1      40.998  29.951  34.523  1.00  0.00     0.095 A 
ATOM     71  C   UNL A   1      39.657  28.584  33.040  1.00  0.00     0.255 A 
ATOM     72  N   UNL A   1      40.746  28.756  33.874  1.00  0.00    -0.258 N 
ATOM     73  O   UNL A   1      39.388  27.565  32.411  1.00  0.00    -0.269 OA
BRANCH  72  74
ATOM     74  C   UNL A   1      41.637  27.635  34.023  1.00  0.00     0.451 C 
ATOM     75  F   UNL A   1      42.880  27.931  33.573  1.00  0.00    -0.185 F 
ATOM     76  F   UNL A   1      41.737  27.264  35.323  1.00  0.00    -0.185 F 
ENDBRANCH  72  74
ENDBRANCH  62  67
ENDBRANCH  57  59
ENDBRANCH  56  57
ENDBRANCH  55  56
ENDBRANCH   1  55
TORSDOF 14
ENDMDL
MODEL 3
REMARK VINA RESULT:     -10.2      4.711      7.535
REMARK SMILES O=C(OCCOC(=O)c1cc(-c2ccn(C(F)F)c(=O)c2)ccc1O)c1ccc(-c2c3nc(c(-c4ccccc4)c4ccc([nH]4)c(-c4ccccc4)c4nc(c(-c5ccccc5)c5ccc2[nH]5)C=C4)C=C3)cc1
REMARK SMILES IDX 4 1 3 2 2 3 1 4 26 5 27 6 73 7 28 8 72 9 29 10 30 11 31 12
REMARK SMILES IDX 66 13 32 14 71 15 65 16 67 17 33 18 70 19 64 20 63 21 34 23
REMARK SMILES IDX 56 24 41 25 55 26 42 27 45 28 54 29 68 30 43 31 44 32 53 34
REMARK SMILES IDX 69 35 46 36 35 37 36 38 40 39 37 40 39 41 38 42 57 43 58 44
REMARK SMILES IDX 62 45 59 46 61 47 60 48 47 49 48 50 52 51 49 52 51 53 50 54
REMARK SMILES IDX 5 55 6 56 7 57 8 58 9 59 10 60 24 61 11 62 23 63 22 64 25 65
REMARK SMILES IDX 12 67 13 68 21 69 14 70 19 71 15 72 20 73 16 74 17 75 18 76
REMARK H PARENT 67 22 45 33 25 66
REMARK Flexibility Score: inf
ROOT
ATOM      1  C   UNL A   1      39.058  19.638  25.342  1.00  0.00     0.275 C 
ENDROOT
BRANCH   1   2
ATOM      2  O   UNL A   1      40.199  19.036  25.970  1.00  0.00    -0.458 OA
BRANCH   2   3
ATOM      3  C   UNL A   1      41.489  19.437  25.981  1.00  0.00     0.338 C 
ATOM      4  O   UNL A   1      42.363  18.590  25.791  1.00  0.00    -0.246 OA
BRANCH   3   5
ATOM      5  C   UNL A   1      41.938  20.823  26.347  1.00  0.00     0.060 A 
ATOM      6  C   UNL A   1      41.854  21.130  27.711  1.00  0.00     0.016 A 
ATOM      7  C   UNL A   1      42.401  21.827  25.495  1.00  0.00     0.016 A 
ATOM      8  C   UNL A   1      42.072  22.426  28.184  1.00  0.00     0.010 A 
ATOM      9  C   UNL A   1      42.663  23.123  25.971  1.00  0.00     0.010 A 
ATOM     10  C   UNL A   1      42.470  23.446  27.314  1.00  0.00    -0.014 A 
BRANCH  10  11
ATOM     11  C   UNL A   1      42.844  24.773  27.859  1.00  0.00     0.031 A 
ATOM     12  C   UNL A   1      44.265  25.162  28.152  1.00  0.00     0.074 A 
ATOM     13  C   UNL A   1      41.850  25.655  28.074  1.00  0.00     0.049 A 
ATOM     14  N   UNL A   1      44.755  26.356  28.377  1.00  0.00    -0.248 NA
ATOM     15  C   UNL A   1      45.276  24.096  28.178  1.00  0.00     0.031 C 
ATOM     16  C   UNL A   1      40.429  25.382  27.846  1.00  0.00     0.029 A 
ATOM     17  N   UNL A   1      41.875  26.949  28.520  1.00  0.00    -0.354 N 
ATOM     18  C   UNL A   1      46.131  26.196  28.478  1.00  0.00     0.074 A 
ATOM     19  C   UNL A   1      46.402  24.782  28.352  1.00  0.00     0.031 C 
ATOM     20  C   UNL A   1      39.722  26.482  28.126  1.00  0.00     0.029 A 
ATOM     21  C   UNL A   1      40.629  27.516  28.606  1.00  0.00     0.049 A 
ATOM     22  H   UNL A   1      42.705  27.425  28.755  1.00  0.00     0.167 HD
ATOM     23  C   UNL A   1      47.075  27.147  28.666  1.00  0.00     0.031 A 
ATOM     24  C   UNL A   1      40.247  28.731  29.039  1.00  0.00     0.031 A 
ATOM     25  C   UNL A   1      46.774  28.515  29.001  1.00  0.00     0.049 A 
ATOM     26  C   UNL A   1      41.305  29.712  29.444  1.00  0.00     0.074 A 
ATOM     27  C   UNL A   1      47.655  29.545  29.280  1.00  0.00     0.029 A 
ATOM     28  N   UNL A   1      45.495  29.021  29.181  1.00  0.00    -0.354 N 
ATOM     29  N   UNL A   1      42.609  29.581  29.390  1.00  0.00    -0.248 NA
ATOM     30  C   UNL A   1      40.847  31.008  29.953  1.00  0.00     0.031 C 
ATOM     31  C   UNL A   1      46.912  30.633  29.747  1.00  0.00     0.029 A 
ATOM     32  C   UNL A   1      45.564  30.322  29.650  1.00  0.00     0.049 A 
ATOM     33  H   UNL A   1      44.661  28.528  29.002  1.00  0.00     0.167 HD
ATOM     34  C   UNL A   1      43.130  30.786  29.837  1.00  0.00     0.074 A 
ATOM     35  C   UNL A   1      41.999  31.640  30.142  1.00  0.00     0.031 C 
ATOM     36  C   UNL A   1      44.429  31.151  29.974  1.00  0.00     0.031 A 
BRANCH  23  37
ATOM     37  C   UNL A   1      48.526  26.755  28.562  1.00  0.00    -0.014 A 
ATOM     38  C   UNL A   1      49.180  26.768  27.320  1.00  0.00     0.009 A 
ATOM     39  C   UNL A   1      49.202  26.227  29.675  1.00  0.00     0.009 A 
ATOM     40  C   UNL A   1      50.466  26.239  27.187  1.00  0.00     0.001 A 
ATOM     41  C   UNL A   1      50.498  25.716  29.543  1.00  0.00     0.001 A 
ATOM     42  C   UNL A   1      51.123  25.712  28.297  1.00  0.00     0.000 A 
ENDBRANCH  23  37
BRANCH  24  43
ATOM     43  C   UNL A   1      38.796  29.050  29.079  1.00  0.00    -0.014 A 
ATOM     44  C   UNL A   1      38.167  29.628  27.961  1.00  0.00     0.009 A 
ATOM     45  C   UNL A   1      38.062  28.898  30.263  1.00  0.00     0.009 A 
ATOM     46  C   UNL A   1      36.855  30.096  28.043  1.00  0.00     0.001 A 
ATOM     47  C   UNL A   1      36.735  29.334  30.331  1.00  0.00     0.001 A 
ATOM     48  C   UNL A   1      36.140  29.949  29.229  1.00  0.00     0.000 A 
ENDBRANCH  24  43
BRANCH  36  49
ATOM     49  C   UNL A   1      44.713  32.536  30.485  1.00  0.00    -0.014 A 
ATOM     50  C   UNL A   1      44.875  33.594  29.574  1.00  0.00     0.009 A 
ATOM     51  C   UNL A   1      44.916  32.781  31.852  1.00  0.00     0.009 A 
ATOM     52  C   UNL A   1      45.253  34.861  30.017  1.00  0.00     0.001 A 
ATOM     53  C   UNL A   1      45.254  34.060  32.297  1.00  0.00     0.001 A 
ATOM     54  C   UNL A   1      45.434  35.095  31.379  1.00  0.00     0.000 A 
ENDBRANCH  36  49
ENDBRANCH  10  11
ENDBRANCH   3   5
ENDBRANCH   2   3
ENDBRANCH   1   2
BRANCH   1  55
ATOM     55  C   UNL A   1      38.775  21.078  25.778  1.00  0.00     0.275 C 
BRANCH  55  56
ATOM     56  O   UNL A   1      38.026  21.833  24.815  1.00  0.00    -0.458 OA
BRANCH  56  57
ATOM     57  C   UNL A   1      37.064  22.656  25.312  1.00  0.00     0.342 C 
ATOM     58  O   UNL A   1      37.243  23.666  25.975  1.00  0.00    -0.246 OA
BRANCH  57  59
ATOM     59  C   UNL A   1      35.732  22.237  24.820  1.00  0.00     0.102 A 
ATOM     60  C   UNL A   1      35.353  20.887  24.972  1.00  0.00     0.028 A 
ATOM     61  C   UNL A   1      34.857  23.140  24.211  1.00  0.00     0.130 A 
ATOM     62  C   UNL A   1      34.071  20.462  24.585  1.00  0.00    -0.017 A 
ATOM     63  C   UNL A   1      33.592  22.719  23.804  1.00  0.00     0.048 A 
ATOM     64  C   UNL A   1      33.194  21.398  24.015  1.00  0.00     0.012 A 
BRANCH  61  65
ATOM     65  O   UNL A   1      35.232  24.437  23.996  1.00  0.00    -0.507 OA
ATOM     66  H   UNL A   1      34.756  24.969  23.390  1.00  0.00     0.293 HD
ENDBRANCH  61  65
BRANCH  62  67
ATOM     67  C   UNL A   1      33.594  19.069  24.735  1.00  0.00    -0.011 A 
ATOM     68  C   UNL A   1      32.806  18.653  25.880  1.00  0.00     0.027 A 
ATOM     69  C   UNL A   1      33.976  18.127  23.855  1.00  0.00     0.080 A 
ATOM     70  C   UNL A   1      32.483  17.368  26.064  1.00  0.00     0.095 A 
ATOM     71  C   UNL A   1      33.630  16.690  24.041  1.00  0.00     0.255 A 
ATOM     72  N   UNL A   1      32.880  16.396  25.164  1.00  0.00    -0.258 N 
ATOM     73  O   UNL A   1      34.041  15.878  23.218  1.00  0.00    -0.269 OA
BRANCH  72  74
ATOM     74  C   UNL A   1      32.545  15.011  25.379  1.00  0.00     0.451 C 
ATOM     75  F   UNL A   1      33.657  14.239  25.434  1.00  0.00    -0.185 F 
ATOM     76  F   UNL A   1      31.864  14.852  26.541  1.00  0.00    -0.185 F 
ENDBRANCH  72  74
ENDBRANCH  62  67
ENDBRANCH  57  59
ENDBRANCH  56  57
ENDBRANCH  55  56
ENDBRANCH   1  55
TORSDOF 14
ENDMDL
