MODEL 1
REMARK VINA RESULT:      -9.6      0.000      0.000
REMARK SMILES Cc1nc(C(F)(F)F)c(C(=O)OCCOC(=O)c2ccc(-c3c4nc(c(-c5ccccc5)c5ccc([nH]5)c(-c5ccccc5)c5nc(c(-c6ccccc6)c6ccc3[nH]6)C=C5)C=C4)cc2)s1
REMARK SMILES IDX 14 1 13 2 12 3 10 4 11 5 9 6 1 7 2 8 3 9 66 10 4 11 5 12
REMARK SMILES IDX 6 13 7 14 8 15 15 16 16 17 17 18 18 19 19 20 65 21 20 22
REMARK SMILES IDX 64 23 21 24 22 25 23 26 58 27 24 28 63 29 57 30 59 31 25 32
REMARK SMILES IDX 62 33 56 34 55 35 26 37 48 38 33 39 47 40 34 41 37 42 46 43
REMARK SMILES IDX 60 44 35 45 36 46 45 48 61 49 38 50 27 51 28 52 32 53 29 54
REMARK SMILES IDX 31 55 30 56 49 57 50 58 54 59 51 60 53 61 52 62 39 63 40 64
REMARK SMILES IDX 44 65 41 66 43 67 42 68
REMARK H PARENT 59 36 37 47
REMARK Flexibility Score: inf
ROOT
ATOM      1  C   UNL A   1      43.825  21.437  25.371  1.00  0.00     0.275 C 
ENDROOT
BRANCH   1   2
ATOM      2  C   UNL A   1      42.639  20.597  25.861  1.00  0.00     0.275 C 
BRANCH   2   3
ATOM      3  O   UNL A   1      41.379  21.249  25.599  1.00  0.00    -0.458 OA
BRANCH   3   4
ATOM      4  C   UNL A   1      40.477  21.282  26.622  1.00  0.00     0.350 C 
ATOM      5  O   UNL A   1      40.763  21.092  27.793  1.00  0.00    -0.245 OA
BRANCH   4   6
ATOM      6  C   UNL A   1      39.173  21.676  26.126  1.00  0.00     0.145 A 
ATOM      7  C   UNL A   1      35.531  21.089  24.928  1.00  0.00     0.079 C 
ATOM      8  C   UNL A   1      36.879  21.576  25.329  1.00  0.00     0.091 A 
ATOM      9  N   UNL A   1      37.140  22.784  25.775  1.00  0.00    -0.236 NA
ATOM     10  S   UNL A   1      38.231  20.534  25.243  1.00  0.00    -0.111 S 
ATOM     11  C   UNL A   1      38.475  22.873  26.212  1.00  0.00     0.170 A 
BRANCH  11  12
ATOM     12  C   UNL A   1      39.018  24.179  26.713  1.00  0.00     0.435 C 
ATOM     13  F   UNL A   1      40.100  24.604  26.011  1.00  0.00    -0.164 F 
ATOM     14  F   UNL A   1      38.084  25.167  26.641  1.00  0.00    -0.164 F 
ATOM     15  F   UNL A   1      39.397  24.120  28.018  1.00  0.00    -0.164 F 
ENDBRANCH  11  12
ENDBRANCH   4   6
ENDBRANCH   3   4
ENDBRANCH   2   3
ENDBRANCH   1   2
BRANCH   1  16
ATOM     16  O   UNL A   1      43.395  22.684  24.788  1.00  0.00    -0.458 OA
BRANCH  16  17
ATOM     17  C   UNL A   1      44.142  23.758  25.131  1.00  0.00     0.338 C 
ATOM     18  O   UNL A   1      45.155  24.158  24.584  1.00  0.00    -0.246 OA
BRANCH  17  19
ATOM     19  C   UNL A   1      43.460  24.531  26.181  1.00  0.00     0.060 A 
ATOM     20  C   UNL A   1      43.472  25.916  26.040  1.00  0.00     0.016 A 
ATOM     21  C   UNL A   1      42.925  23.946  27.326  1.00  0.00     0.016 A 
ATOM     22  C   UNL A   1      42.980  26.737  27.045  1.00  0.00     0.010 A 
ATOM     23  C   UNL A   1      42.402  24.772  28.333  1.00  0.00     0.010 A 
ATOM     24  C   UNL A   1      42.440  26.175  28.206  1.00  0.00    -0.014 A 
BRANCH  24  25
ATOM     25  C   UNL A   1      41.964  27.071  29.290  1.00  0.00     0.031 A 
ATOM     26  C   UNL A   1      42.731  27.171  30.580  1.00  0.00     0.074 A 
ATOM     27  C   UNL A   1      40.874  27.840  29.097  1.00  0.00     0.049 A 
ATOM     28  N   UNL A   1      42.439  27.842  31.665  1.00  0.00    -0.248 NA
ATOM     29  C   UNL A   1      43.993  26.418  30.659  1.00  0.00     0.031 C 
ATOM     30  C   UNL A   1      40.080  27.889  27.868  1.00  0.00     0.029 A 
ATOM     31  N   UNL A   1      40.253  28.736  29.930  1.00  0.00    -0.354 N 
ATOM     32  C   UNL A   1      43.459  27.566  32.567  1.00  0.00     0.074 A 
ATOM     33  C   UNL A   1      44.372  26.657  31.907  1.00  0.00     0.031 C 
ATOM     34  C   UNL A   1      39.090  28.783  28.021  1.00  0.00     0.029 A 
ATOM     35  C   UNL A   1      39.138  29.319  29.377  1.00  0.00     0.049 A 
ATOM     36  H   UNL A   1      40.575  28.942  30.837  1.00  0.00     0.167 HD
ATOM     37  C   UNL A   1      43.620  28.027  33.831  1.00  0.00     0.031 A 
ATOM     38  C   UNL A   1      38.236  30.164  29.910  1.00  0.00     0.031 A 
ATOM     39  C   UNL A   1      42.717  28.941  34.481  1.00  0.00     0.049 A 
ATOM     40  C   UNL A   1      38.399  30.602  31.339  1.00  0.00     0.074 A 
ATOM     41  C   UNL A   1      42.797  29.469  35.760  1.00  0.00     0.029 A 
ATOM     42  N   UNL A   1      41.572  29.465  33.904  1.00  0.00    -0.354 N 
ATOM     43  N   UNL A   1      39.355  30.316  32.187  1.00  0.00    -0.248 NA
ATOM     44  C   UNL A   1      37.351  31.476  31.885  1.00  0.00     0.031 C 
ATOM     45  C   UNL A   1      41.672  30.271  35.972  1.00  0.00     0.029 A 
ATOM     46  C   UNL A   1      40.923  30.292  34.807  1.00  0.00     0.049 A 
ATOM     47  H   UNL A   1      41.265  29.279  32.987  1.00  0.00     0.167 HD
ATOM     48  C   UNL A   1      39.039  30.991  33.357  1.00  0.00     0.074 A 
ATOM     49  C   UNL A   1      37.811  31.718  33.104  1.00  0.00     0.031 C 
ATOM     50  C   UNL A   1      39.704  31.009  34.538  1.00  0.00     0.031 A 
BRANCH  37  51
ATOM     51  C   UNL A   1      44.795  27.512  34.615  1.00  0.00    -0.014 A 
ATOM     52  C   UNL A   1      46.026  28.186  34.625  1.00  0.00     0.009 A 
ATOM     53  C   UNL A   1      44.652  26.350  35.390  1.00  0.00     0.009 A 
ATOM     54  C   UNL A   1      47.098  27.687  35.369  1.00  0.00     0.001 A 
ATOM     55  C   UNL A   1      45.715  25.869  36.155  1.00  0.00     0.001 A 
ATOM     56  C   UNL A   1      46.941  26.534  36.138  1.00  0.00     0.000 A 
ENDBRANCH  37  51
BRANCH  38  57
ATOM     57  C   UNL A   1      37.070  30.615  29.105  1.00  0.00    -0.014 A 
ATOM     58  C   UNL A   1      36.941  31.957  28.716  1.00  0.00     0.009 A 
ATOM     59  C   UNL A   1      36.067  29.704  28.736  1.00  0.00     0.009 A 
ATOM     60  C   UNL A   1      35.822  32.380  27.994  1.00  0.00     0.001 A 
ATOM     61  C   UNL A   1      34.966  30.122  27.987  1.00  0.00     0.001 A 
ATOM     62  C   UNL A   1      34.839  31.462  27.625  1.00  0.00     0.000 A 
ENDBRANCH  38  57
BRANCH  50  63
ATOM     63  C   UNL A   1      39.140  31.874  35.631  1.00  0.00    -0.014 A 
ATOM     64  C   UNL A   1      39.472  33.234  35.730  1.00  0.00     0.009 A 
ATOM     65  C   UNL A   1      38.237  31.323  36.553  1.00  0.00     0.009 A 
ATOM     66  C   UNL A   1      38.934  34.017  36.754  1.00  0.00     0.001 A 
ATOM     67  C   UNL A   1      37.679  32.115  37.558  1.00  0.00     0.001 A 
ATOM     68  C   UNL A   1      38.035  33.458  37.663  1.00  0.00     0.000 A 
ENDBRANCH  50  63
ENDBRANCH  24  25
ENDBRANCH  17  19
ENDBRANCH  16  17
ENDBRANCH   1  16
TORSDOF 12
ENDMDL
MODEL 2
REMARK VINA RESULT:      -9.6      4.918      7.213
REMARK SMILES Cc1nc(C(F)(F)F)c(C(=O)OCCOC(=O)c2ccc(-c3c4nc(c(-c5ccccc5)c5ccc([nH]5)c(-c5ccccc5)c5nc(c(-c6ccccc6)c6ccc3[nH]6)C=C5)C=C4)cc2)s1
REMARK SMILES IDX 14 1 13 2 12 3 10 4 11 5 9 6 1 7 2 8 3 9 66 10 4 11 5 12
REMARK SMILES IDX 6 13 7 14 8 15 15 16 16 17 17 18 18 19 19 20 65 21 20 22
REMARK SMILES IDX 64 23 21 24 22 25 23 26 58 27 24 28 63 29 57 30 59 31 25 32
REMARK SMILES IDX 62 33 56 34 55 35 26 37 48 38 33 39 47 40 34 41 37 42 46 43
REMARK SMILES IDX 60 44 35 45 36 46 45 48 61 49 38 50 27 51 28 52 32 53 29 54
REMARK SMILES IDX 31 55 30 56 49 57 50 58 54 59 51 60 53 61 52 62 39 63 40 64
REMARK SMILES IDX 44 65 41 66 43 67 42 68
REMARK H PARENT 59 36 37 47
REMARK Flexibility Score: inf
ROOT
ATOM      1  C   UNL A   1      43.254  18.695  25.744  1.00  0.00     0.275 C 
ENDROOT
BRANCH   1   2
ATOM      2  C   UNL A   1      42.350  19.583  26.608  1.00  0.00     0.275 C 
BRANCH   2   3
ATOM      3  O   UNL A   1      41.529  20.454  25.803  1.00  0.00    -0.458 OA
BRANCH   3   4
ATOM      4  C   UNL A   1      40.185  20.227  25.821  1.00  0.00     0.350 C 
ATOM      5  O   UNL A   1      39.674  19.126  25.691  1.00  0.00    -0.245 OA
BRANCH   4   6
ATOM      6  C   UNL A   1      39.474  21.455  26.118  1.00  0.00     0.145 A 
ATOM      7  C   UNL A   1      39.138  25.152  27.243  1.00  0.00     0.079 C 
ATOM      8  C   UNL A   1      38.995  23.741  26.791  1.00  0.00     0.091 A 
ATOM      9  N   UNL A   1      38.020  23.289  26.035  1.00  0.00    -0.236 NA
ATOM     10  S   UNL A   1      40.160  22.572  27.237  1.00  0.00    -0.111 S 
ATOM     11  C   UNL A   1      38.262  21.954  25.660  1.00  0.00     0.170 A 
BRANCH  11  12
ATOM     12  C   UNL A   1      37.251  21.207  24.840  1.00  0.00     0.435 C 
ATOM     13  F   UNL A   1      37.820  20.388  23.919  1.00  0.00    -0.164 F 
ATOM     14  F   UNL A   1      36.451  20.431  25.622  1.00  0.00    -0.164 F 
ATOM     15  F   UNL A   1      36.414  22.038  24.161  1.00  0.00    -0.164 F 
ENDBRANCH  11  12
ENDBRANCH   4   6
ENDBRANCH   3   4
ENDBRANCH   2   3
ENDBRANCH   1   2
BRANCH   1  16
ATOM     16  O   UNL A   1      43.537  19.300  24.467  1.00  0.00    -0.458 OA
BRANCH  16  17
ATOM     17  C   UNL A   1      44.841  19.593  24.255  1.00  0.00     0.338 C 
ATOM     18  O   UNL A   1      45.686  18.874  23.750  1.00  0.00    -0.246 OA
BRANCH  17  19
ATOM     19  C   UNL A   1      45.094  21.010  24.553  1.00  0.00     0.060 A 
ATOM     20  C   UNL A   1      45.666  21.294  25.791  1.00  0.00     0.016 A 
ATOM     21  C   UNL A   1      44.689  22.045  23.713  1.00  0.00     0.016 A 
ATOM     22  C   UNL A   1      45.815  22.605  26.222  1.00  0.00     0.010 A 
ATOM     23  C   UNL A   1      44.863  23.373  24.134  1.00  0.00     0.010 A 
ATOM     24  C   UNL A   1      45.413  23.662  25.398  1.00  0.00    -0.014 A 
BRANCH  24  25
ATOM     25  C   UNL A   1      45.536  25.055  25.898  1.00  0.00     0.031 A 
ATOM     26  C   UNL A   1      46.854  25.774  25.814  1.00  0.00     0.074 A 
ATOM     27  C   UNL A   1      44.452  25.695  26.376  1.00  0.00     0.049 A 
ATOM     28  N   UNL A   1      47.177  26.962  26.258  1.00  0.00    -0.248 NA
ATOM     29  C   UNL A   1      47.954  25.065  25.140  1.00  0.00     0.031 C 
ATOM     30  C   UNL A   1      43.101  25.135  26.450  1.00  0.00     0.029 A 
ATOM     31  N   UNL A   1      44.313  26.964  26.883  1.00  0.00    -0.354 N 
ATOM     32  C   UNL A   1      48.521  27.130  25.951  1.00  0.00     0.074 A 
ATOM     33  C   UNL A   1      48.958  25.916  25.292  1.00  0.00     0.031 C 
ATOM     34  C   UNL A   1      42.269  26.061  26.951  1.00  0.00     0.029 A 
ATOM     35  C   UNL A   1      43.036  27.253  27.296  1.00  0.00     0.049 A 
ATOM     36  H   UNL A   1      45.058  27.605  26.943  1.00  0.00     0.167 HD
ATOM     37  C   UNL A   1      49.320  28.197  26.196  1.00  0.00     0.031 A 
ATOM     38  C   UNL A   1      42.542  28.342  27.916  1.00  0.00     0.031 A 
ATOM     39  C   UNL A   1      48.880  29.407  26.839  1.00  0.00     0.049 A 
ATOM     40  C   UNL A   1      43.466  29.482  28.241  1.00  0.00     0.074 A 
ATOM     41  C   UNL A   1      49.614  30.546  27.129  1.00  0.00     0.029 A 
ATOM     42  N   UNL A   1      47.590  29.639  27.291  1.00  0.00    -0.354 N 
ATOM     43  N   UNL A   1      44.739  29.617  27.965  1.00  0.00    -0.248 NA
ATOM     44  C   UNL A   1      42.883  30.617  28.971  1.00  0.00     0.031 C 
ATOM     45  C   UNL A   1      48.781  31.444  27.802  1.00  0.00     0.029 A 
ATOM     46  C   UNL A   1      47.513  30.891  27.878  1.00  0.00     0.049 A 
ATOM     47  H   UNL A   1      46.841  29.007  27.206  1.00  0.00     0.167 HD
ATOM     48  C   UNL A   1      45.106  30.859  28.465  1.00  0.00     0.074 A 
ATOM     49  C   UNL A   1      43.914  31.446  29.044  1.00  0.00     0.031 C 
ATOM     50  C   UNL A   1      46.320  31.461  28.447  1.00  0.00     0.031 A 
BRANCH  37  51
ATOM     51  C   UNL A   1      50.768  28.084  25.809  1.00  0.00    -0.014 A 
ATOM     52  C   UNL A   1      51.229  28.510  24.553  1.00  0.00     0.009 A 
ATOM     53  C   UNL A   1      51.694  27.579  26.735  1.00  0.00     0.009 A 
ATOM     54  C   UNL A   1      52.584  28.401  24.224  1.00  0.00     0.001 A 
ATOM     55  C   UNL A   1      53.050  27.497  26.415  1.00  0.00     0.001 A 
ATOM     56  C   UNL A   1      53.492  27.901  25.156  1.00  0.00     0.000 A 
ENDBRANCH  37  51
BRANCH  38  57
ATOM     57  C   UNL A   1      41.109  28.389  28.312  1.00  0.00    -0.014 A 
ATOM     58  C   UNL A   1      40.144  28.944  27.458  1.00  0.00     0.009 A 
ATOM     59  C   UNL A   1      40.702  27.892  29.561  1.00  0.00     0.009 A 
ATOM     60  C   UNL A   1      38.807  29.021  27.856  1.00  0.00     0.001 A 
ATOM     61  C   UNL A   1      39.360  27.939  29.943  1.00  0.00     0.001 A 
ATOM     62  C   UNL A   1      38.415  28.513  29.094  1.00  0.00     0.000 A 
ENDBRANCH  38  57
BRANCH  50  63
ATOM     63  C   UNL A   1      46.410  32.842  29.035  1.00  0.00    -0.014 A 
ATOM     64  C   UNL A   1      46.726  33.041  30.388  1.00  0.00     0.009 A 
ATOM     65  C   UNL A   1      46.209  33.960  28.210  1.00  0.00     0.009 A 
ATOM     66  C   UNL A   1      46.806  34.333  30.910  1.00  0.00     0.001 A 
ATOM     67  C   UNL A   1      46.319  35.251  28.729  1.00  0.00     0.001 A 
ATOM     68  C   UNL A   1      46.607  35.436  30.079  1.00  0.00     0.000 A 
ENDBRANCH  50  63
ENDBRANCH  24  25
ENDBRANCH  17  19
ENDBRANCH  16  17
ENDBRANCH   1  16
TORSDOF 12
ENDMDL
MODEL 3
REMARK VINA RESULT:      -9.4      5.952     10.729
REMARK SMILES Cc1nc(C(F)(F)F)c(C(=O)OCCOC(=O)c2ccc(-c3c4nc(c(-c5ccccc5)c5ccc([nH]5)c(-c5ccccc5)c5nc(c(-c6ccccc6)c6ccc3[nH]6)C=C5)C=C4)cc2)s1
REMARK SMILES IDX 14 1 13 2 12 3 10 4 11 5 9 6 1 7 2 8 3 9 66 10 4 11 5 12
REMARK SMILES IDX 6 13 7 14 8 15 15 16 16 17 17 18 18 19 19 20 65 21 20 22
REMARK SMILES IDX 64 23 21 24 22 25 23 26 58 27 24 28 63 29 57 30 59 31 25 32
REMARK SMILES IDX 62 33 56 34 55 35 26 37 48 38 33 39 47 40 34 41 37 42 46 43
REMARK SMILES IDX 60 44 35 45 36 46 45 48 61 49 38 50 27 51 28 52 32 53 29 54
REMARK SMILES IDX 31 55 30 56 49 57 50 58 54 59 51 60 53 61 52 62 39 63 40 64
REMARK SMILES IDX 44 65 41 66 43 67 42 68
REMARK H PARENT 59 36 37 47
REMARK Flexibility Score: inf
ROOT
ATOM      1  C   UNL A   1      34.233  32.786  27.714  1.00  0.00     0.275 C 
ENDROOT
BRANCH   1   2
ATOM      2  C   UNL A   1      33.271  33.891  28.167  1.00  0.00     0.275 C 
BRANCH   2   3
ATOM      3  O   UNL A   1      33.201  33.982  29.605  1.00  0.00    -0.458 OA
BRANCH   3   4
ATOM      4  C   UNL A   1      33.415  35.211  30.157  1.00  0.00     0.350 C 
ATOM      5  O   UNL A   1      32.835  36.227  29.812  1.00  0.00    -0.245 OA
BRANCH   4   6
ATOM      6  C   UNL A   1      34.342  35.106  31.267  1.00  0.00     0.145 A 
ATOM      7  C   UNL A   1      37.693  34.182  32.988  1.00  0.00     0.079 C 
ATOM      8  C   UNL A   1      36.329  34.614  32.578  1.00  0.00     0.091 A 
ATOM      9  N   UNL A   1      35.623  35.545  33.178  1.00  0.00    -0.236 NA
ATOM     10  S   UNL A   1      35.572  33.899  31.222  1.00  0.00    -0.111 S 
ATOM     11  C   UNL A   1      34.450  35.823  32.451  1.00  0.00     0.170 A 
BRANCH  11  12
ATOM     12  C   UNL A   1      33.456  36.817  32.976  1.00  0.00     0.435 C 
ATOM     13  F   UNL A   1      33.700  37.179  34.261  1.00  0.00    -0.164 F 
ATOM     14  F   UNL A   1      33.455  37.959  32.234  1.00  0.00    -0.164 F 
ATOM     15  F   UNL A   1      32.180  36.348  32.937  1.00  0.00    -0.164 F 
ENDBRANCH  11  12
ENDBRANCH   4   6
ENDBRANCH   3   4
ENDBRANCH   2   3
ENDBRANCH   1   2
BRANCH   1  16
ATOM     16  O   UNL A   1      34.168  31.632  28.577  1.00  0.00    -0.458 OA
BRANCH  16  17
ATOM     17  C   UNL A   1      34.568  30.474  28.005  1.00  0.00     0.338 C 
ATOM     18  O   UNL A   1      33.986  29.836  27.144  1.00  0.00    -0.246 OA
BRANCH  17  19
ATOM     19  C   UNL A   1      35.938  30.148  28.430  1.00  0.00     0.060 A 
ATOM     20  C   UNL A   1      36.930  30.241  27.457  1.00  0.00     0.016 A 
ATOM     21  C   UNL A   1      36.241  29.656  29.697  1.00  0.00     0.016 A 
ATOM     22  C   UNL A   1      38.227  29.821  27.721  1.00  0.00     0.010 A 
ATOM     23  C   UNL A   1      37.557  29.255  29.976  1.00  0.00     0.010 A 
ATOM     24  C   UNL A   1      38.556  29.321  28.985  1.00  0.00    -0.014 A 
BRANCH  24  25
ATOM     25  C   UNL A   1      39.936  28.832  29.231  1.00  0.00     0.031 A 
ATOM     26  C   UNL A   1      40.925  29.696  29.963  1.00  0.00     0.074 A 
ATOM     27  C   UNL A   1      40.287  27.588  28.847  1.00  0.00     0.049 A 
ATOM     28  N   UNL A   1      42.191  29.475  30.213  1.00  0.00    -0.248 NA
ATOM     29  C   UNL A   1      40.425  30.978  30.485  1.00  0.00     0.031 C 
ATOM     30  C   UNL A   1      39.404  26.625  28.189  1.00  0.00     0.029 A 
ATOM     31  N   UNL A   1      41.480  26.919  28.966  1.00  0.00    -0.354 N 
ATOM     32  C   UNL A   1      42.647  30.600  30.888  1.00  0.00     0.074 A 
ATOM     33  C   UNL A   1      41.525  31.509  30.999  1.00  0.00     0.031 C 
ATOM     34  C   UNL A   1      40.078  25.483  27.981  1.00  0.00     0.029 A 
ATOM     35  C   UNL A   1      41.456  25.656  28.427  1.00  0.00     0.049 A 
ATOM     36  H   UNL A   1      42.276  27.307  29.395  1.00  0.00     0.167 HD
ATOM     37  C   UNL A   1      43.888  30.854  31.370  1.00  0.00     0.031 A 
ATOM     38  C   UNL A   1      42.440  24.749  28.277  1.00  0.00     0.031 A 
ATOM     39  C   UNL A   1      44.998  29.943  31.269  1.00  0.00     0.049 A 
ATOM     40  C   UNL A   1      43.825  25.086  28.756  1.00  0.00     0.074 A 
ATOM     41  C   UNL A   1      46.294  30.109  31.730  1.00  0.00     0.029 A 
ATOM     42  N   UNL A   1      44.945  28.695  30.669  1.00  0.00    -0.354 N 
ATOM     43  N   UNL A   1      44.246  26.162  29.372  1.00  0.00    -0.248 NA
ATOM     44  C   UNL A   1      44.870  24.082  28.512  1.00  0.00     0.031 C 
ATOM     45  C   UNL A   1      47.036  28.983  31.362  1.00  0.00     0.029 A 
ATOM     46  C   UNL A   1      46.189  28.089  30.726  1.00  0.00     0.049 A 
ATOM     47  H   UNL A   1      44.141  28.298  30.262  1.00  0.00     0.167 HD
ATOM     48  C   UNL A   1      45.599  25.958  29.610  1.00  0.00     0.074 A 
ATOM     49  C   UNL A   1      45.922  24.645  29.088  1.00  0.00     0.031 C 
ATOM     50  C   UNL A   1      46.494  26.782  30.205  1.00  0.00     0.031 A 
BRANCH  37  51
ATOM     51  C   UNL A   1      44.124  32.193  32.010  1.00  0.00    -0.014 A 
ATOM     52  C   UNL A   1      44.004  32.378  33.396  1.00  0.00     0.009 A 
ATOM     53  C   UNL A   1      44.514  33.281  31.212  1.00  0.00     0.009 A 
ATOM     54  C   UNL A   1      44.237  33.634  33.964  1.00  0.00     0.001 A 
ATOM     55  C   UNL A   1      44.774  34.527  31.785  1.00  0.00     0.001 A 
ATOM     56  C   UNL A   1      44.627  34.704  33.161  1.00  0.00     0.000 A 
ENDBRANCH  37  51
BRANCH  38  57
ATOM     57  C   UNL A   1      42.164  23.452  27.603  1.00  0.00    -0.014 A 
ATOM     58  C   UNL A   1      41.634  22.369  28.318  1.00  0.00     0.009 A 
ATOM     59  C   UNL A   1      42.448  23.288  26.238  1.00  0.00     0.009 A 
ATOM     60  C   UNL A   1      41.416  21.142  27.686  1.00  0.00     0.001 A 
ATOM     61  C   UNL A   1      42.198  22.072  25.600  1.00  0.00     0.001 A 
ATOM     62  C   UNL A   1      41.692  20.996  26.327  1.00  0.00     0.000 A 
ENDBRANCH  38  57
BRANCH  50  63
ATOM     63  C   UNL A   1      47.899  26.271  30.363  1.00  0.00    -0.014 A 
ATOM     64  C   UNL A   1      48.827  26.348  29.313  1.00  0.00     0.009 A 
ATOM     65  C   UNL A   1      48.307  25.736  31.595  1.00  0.00     0.009 A 
ATOM     66  C   UNL A   1      50.126  25.868  29.485  1.00  0.00     0.001 A 
ATOM     67  C   UNL A   1      49.615  25.284  31.772  1.00  0.00     0.001 A 
ATOM     68  C   UNL A   1      50.521  25.341  30.715  1.00  0.00     0.000 A 
ENDBRANCH  50  63
ENDBRANCH  24  25
ENDBRANCH  17  19
ENDBRANCH  16  17
ENDBRANCH   1  16
TORSDOF 12
ENDMDL
