MODEL 1
REMARK VINA RESULT:     -11.8      0.000      0.000
REMARK SMILES C[C@@H]1CC[C@H](C)[N@H+]1Cc1cc2c(cc1Cl)C=C(C(=O)OCCOC(=O)c1ccc(-c3c4nc(c(-c5ccccc5)c5ccc([nH]5)c(-c5ccccc5)c5nc(c(-c6ccccc6)c6ccc3[nH]6)C=C5)C=C4)cc1)[C@@H](C(F)(F)F)O2
REMARK SMILES IDX 21 1 20 2 18 3 19 4 17 5 9 6 10 7 14 8 11 9 13 10 15 11
REMARK SMILES IDX 12 12 79 13 16 14 74 15 8 16 7 17 6 18 5 19 4 20 3 21 2 22
REMARK SMILES IDX 1 24 75 25 76 26 77 27 78 28 22 29 23 30 24 31 25 32 26 33
REMARK SMILES IDX 27 34 73 35 28 36 72 37 29 38 30 39 31 40 66 41 32 42 71 43
REMARK SMILES IDX 65 44 67 45 33 46 70 47 64 48 63 49 34 51 56 52 41 53 55 54
REMARK SMILES IDX 42 55 45 56 54 57 68 58 43 59 44 60 53 62 69 63 46 64 35 65
REMARK SMILES IDX 36 66 40 67 37 68 39 69 38 70 57 71 58 72 62 73 59 74 61 75
REMARK SMILES IDX 60 76 47 77 48 78 52 79 49 80 51 81 50 82
REMARK H PARENT 7 23 67 50 45 61
REMARK Flexibility Score: inf
ROOT
ATOM      1  C   UNL A   1      35.867  20.263  24.971  1.00  0.00     0.275 C 
ENDROOT
BRANCH   1   2
ATOM      2  O   UNL A   1      35.572  21.522  24.325  1.00  0.00    -0.459 OA
BRANCH   2   3
ATOM      3  C   UNL A   1      35.061  22.465  25.145  1.00  0.00     0.338 C 
ATOM      4  O   UNL A   1      35.191  22.510  26.361  1.00  0.00    -0.246 OA
BRANCH   3   5
ATOM      5  C   UNL A   1      34.349  23.517  24.399  1.00  0.00     0.087 C 
ATOM      6  C   UNL A   1      31.856  27.778  23.411  1.00  0.00     0.029 A 
ATOM      7  C   UNL A   1      32.098  26.588  22.672  1.00  0.00     0.058 A 
ATOM      8  C   UNL A   1      32.303  27.831  24.739  1.00  0.00     0.050 A 
ATOM      9  C   UNL A   1      32.847  25.544  23.212  1.00  0.00     0.128 A 
ATOM     10  C   UNL A   1      33.143  26.842  25.232  1.00  0.00     0.033 A 
ATOM     11  Cl  UNL A   1      31.786  29.021  25.879  1.00  0.00    -0.084 Cl
ATOM     12  C   UNL A   1      33.429  25.719  24.459  1.00  0.00     0.019 A 
ATOM     13  O   UNL A   1      33.020  24.397  22.479  1.00  0.00    -0.475 OA
ATOM     14  C   UNL A   1      34.309  24.712  24.993  1.00  0.00     0.027 C 
ATOM     15  C   UNL A   1      33.515  23.208  23.190  1.00  0.00     0.316 C 
BRANCH   6  16
ATOM     16  C   UNL A   1      31.180  28.955  22.730  1.00  0.00     0.301 C 
BRANCH  16  17
ATOM     17  N   UNL A   1      29.799  29.252  23.147  1.00  0.00    -0.327 N 
ATOM     18  C   UNL A   1      28.688  27.168  23.884  1.00  0.00     0.075 C 
ATOM     19  C   UNL A   1      28.781  28.245  22.815  1.00  0.00     0.181 C 
ATOM     20  C   UNL A   1      27.480  29.036  22.695  1.00  0.00     0.071 C 
ATOM     21  C   UNL A   1      27.950  30.352  22.113  1.00  0.00     0.071 C 
ATOM     22  C   UNL A   1      29.286  30.586  22.810  1.00  0.00     0.181 C 
ATOM     23  H   UNL A   1      29.941  29.220  24.156  1.00  0.00     0.348 HD
ATOM     24  C   UNL A   1      29.127  31.405  24.091  1.00  0.00     0.075 C 
ENDBRANCH  16  17
ENDBRANCH   6  16
BRANCH  15  25
ATOM     25  C   UNL A   1      32.346  22.284  23.576  1.00  0.00     0.430 C 
ATOM     26  F   UNL A   1      31.350  22.325  22.662  1.00  0.00    -0.167 F 
ATOM     27  F   UNL A   1      32.751  20.991  23.652  1.00  0.00    -0.167 F 
ATOM     28  F   UNL A   1      31.812  22.606  24.776  1.00  0.00    -0.167 F 
ENDBRANCH  15  25
ENDBRANCH   3   5
ENDBRANCH   2   3
ENDBRANCH   1   2
BRANCH   1  29
ATOM     29  C   UNL A   1      37.364  19.943  24.945  1.00  0.00     0.275 C 
BRANCH  29  30
ATOM     30  O   UNL A   1      38.151  21.105  25.264  1.00  0.00    -0.458 OA
BRANCH  30  31
ATOM     31  C   UNL A   1      39.256  20.870  26.008  1.00  0.00     0.338 C 
ATOM     32  O   UNL A   1      39.844  19.813  26.150  1.00  0.00    -0.246 OA
BRANCH  31  33
ATOM     33  C   UNL A   1      39.736  22.122  26.616  1.00  0.00     0.060 A 
ATOM     34  C   UNL A   1      40.879  22.145  27.407  1.00  0.00     0.016 A 
ATOM     35  C   UNL A   1      39.139  23.316  26.232  1.00  0.00     0.016 A 
ATOM     36  C   UNL A   1      41.406  23.378  27.811  1.00  0.00     0.010 A 
ATOM     37  C   UNL A   1      39.766  24.534  26.485  1.00  0.00     0.010 A 
ATOM     38  C   UNL A   1      40.890  24.594  27.316  1.00  0.00    -0.014 A 
BRANCH  38  39
ATOM     39  C   UNL A   1      41.499  25.911  27.680  1.00  0.00     0.031 A 
ATOM     40  C   UNL A   1      42.822  26.352  27.088  1.00  0.00     0.074 A 
ATOM     41  C   UNL A   1      40.877  26.721  28.565  1.00  0.00     0.049 A 
ATOM     42  N   UNL A   1      43.475  27.475  27.273  1.00  0.00    -0.248 NA
ATOM     43  C   UNL A   1      43.528  25.403  26.210  1.00  0.00     0.031 C 
ATOM     44  C   UNL A   1      39.647  26.399  29.292  1.00  0.00     0.029 A 
ATOM     45  N   UNL A   1      41.177  27.997  28.983  1.00  0.00    -0.354 N 
ATOM     46  C   UNL A   1      44.666  27.345  26.568  1.00  0.00     0.074 A 
ATOM     47  C   UNL A   1      44.686  26.014  26.012  1.00  0.00     0.031 C 
ATOM     48  C   UNL A   1      39.247  27.476  29.984  1.00  0.00     0.029 A 
ATOM     49  C   UNL A   1      40.214  28.552  29.793  1.00  0.00     0.049 A 
ATOM     50  H   UNL A   1      42.003  28.468  28.725  1.00  0.00     0.167 HD
ATOM     51  C   UNL A   1      45.639  28.262  26.353  1.00  0.00     0.031 A 
ATOM     52  C   UNL A   1      40.101  29.794  30.306  1.00  0.00     0.031 A 
ATOM     53  C   UNL A   1      45.596  29.613  26.839  1.00  0.00     0.049 A 
ATOM     54  C   UNL A   1      41.157  30.819  30.002  1.00  0.00     0.074 A 
ATOM     55  C   UNL A   1      46.494  30.640  26.602  1.00  0.00     0.029 A 
ATOM     56  N   UNL A   1      44.592  30.132  27.639  1.00  0.00    -0.354 N 
ATOM     57  N   UNL A   1      42.235  30.697  29.268  1.00  0.00    -0.248 NA
ATOM     58  C   UNL A   1      40.975  32.158  30.585  1.00  0.00     0.031 C 
ATOM     59  C   UNL A   1      46.052  31.772  27.289  1.00  0.00     0.029 A 
ATOM     60  C   UNL A   1      44.852  31.463  27.910  1.00  0.00     0.049 A 
ATOM     61  H   UNL A   1      43.811  29.629  27.965  1.00  0.00     0.167 HD
ATOM     62  C   UNL A   1      42.851  31.942  29.286  1.00  0.00     0.074 A 
ATOM     63  C   UNL A   1      42.014  32.813  30.084  1.00  0.00     0.031 C 
ATOM     64  C   UNL A   1      44.008  32.323  28.696  1.00  0.00     0.031 A 
BRANCH  51  65
ATOM     65  C   UNL A   1      46.821  27.859  25.511  1.00  0.00    -0.014 A 
ATOM     66  C   UNL A   1      47.997  27.399  26.124  1.00  0.00     0.009 A 
ATOM     67  C   UNL A   1      46.800  28.018  24.116  1.00  0.00     0.009 A 
ATOM     68  C   UNL A   1      49.130  27.115  25.357  1.00  0.00     0.001 A 
ATOM     69  C   UNL A   1      47.922  27.701  23.349  1.00  0.00     0.001 A 
ATOM     70  C   UNL A   1      49.090  27.259  23.971  1.00  0.00     0.000 A 
ENDBRANCH  51  65
BRANCH  52  71
ATOM     71  C   UNL A   1      38.895  30.155  31.101  1.00  0.00    -0.014 A 
ATOM     72  C   UNL A   1      37.721  30.600  30.473  1.00  0.00     0.009 A 
ATOM     73  C   UNL A   1      38.931  30.094  32.503  1.00  0.00     0.009 A 
ATOM     74  C   UNL A   1      36.616  30.991  31.233  1.00  0.00     0.001 A 
ATOM     75  C   UNL A   1      37.814  30.459  33.259  1.00  0.00     0.001 A 
ATOM     76  C   UNL A   1      36.661  30.916  32.624  1.00  0.00     0.000 A 
ENDBRANCH  52  71
BRANCH  64  77
ATOM     77  C   UNL A   1      44.453  33.747  28.865  1.00  0.00    -0.014 A 
ATOM     78  C   UNL A   1      44.084  34.709  27.911  1.00  0.00     0.009 A 
ATOM     79  C   UNL A   1      45.334  34.109  29.895  1.00  0.00     0.009 A 
ATOM     80  C   UNL A   1      44.603  36.003  27.973  1.00  0.00     0.001 A 
ATOM     81  C   UNL A   1      45.830  35.412  29.970  1.00  0.00     0.001 A 
ATOM     82  C   UNL A   1      45.474  36.353  29.004  1.00  0.00     0.000 A 
ENDBRANCH  64  77
ENDBRANCH  38  39
ENDBRANCH  31  33
ENDBRANCH  30  31
ENDBRANCH  29  30
ENDBRANCH   1  29
TORSDOF 14
ENDMDL
MODEL 2
REMARK VINA RESULT:     -11.8      2.203      2.781
REMARK SMILES C[C@@H]1CC[C@H](C)[N@H+]1Cc1cc2c(cc1Cl)C=C(C(=O)OCCOC(=O)c1ccc(-c3c4nc(c(-c5ccccc5)c5ccc([nH]5)c(-c5ccccc5)c5nc(c(-c6ccccc6)c6ccc3[nH]6)C=C5)C=C4)cc1)[C@@H](C(F)(F)F)O2
REMARK SMILES IDX 21 1 20 2 18 3 19 4 17 5 9 6 10 7 14 8 11 9 13 10 15 11
REMARK SMILES IDX 12 12 79 13 16 14 74 15 8 16 7 17 6 18 5 19 4 20 3 21 2 22
REMARK SMILES IDX 1 24 75 25 76 26 77 27 78 28 22 29 23 30 24 31 25 32 26 33
REMARK SMILES IDX 27 34 73 35 28 36 72 37 29 38 30 39 31 40 66 41 32 42 71 43
REMARK SMILES IDX 65 44 67 45 33 46 70 47 64 48 63 49 34 51 56 52 41 53 55 54
REMARK SMILES IDX 42 55 45 56 54 57 68 58 43 59 44 60 53 62 69 63 46 64 35 65
REMARK SMILES IDX 36 66 40 67 37 68 39 69 38 70 57 71 58 72 62 73 59 74 61 75
REMARK SMILES IDX 60 76 47 77 48 78 52 79 49 80 51 81 50 82
REMARK H PARENT 7 23 67 50 45 61
REMARK Flexibility Score: inf
ROOT
ATOM      1  C   UNL A   1      37.649  20.709  24.965  1.00  0.00     0.275 C 
ENDROOT
BRANCH   1   2
ATOM      2  O   UNL A   1      37.006  21.886  24.425  1.00  0.00    -0.459 OA
BRANCH   2   3
ATOM      3  C   UNL A   1      35.954  22.330  25.147  1.00  0.00     0.338 C 
ATOM      4  O   UNL A   1      35.680  22.007  26.295  1.00  0.00    -0.246 OA
BRANCH   3   5
ATOM      5  C   UNL A   1      35.162  23.329  24.410  1.00  0.00     0.087 C 
ATOM      6  C   UNL A   1      32.387  27.418  23.450  1.00  0.00     0.029 A 
ATOM      7  C   UNL A   1      32.689  26.243  22.712  1.00  0.00     0.058 A 
ATOM      8  C   UNL A   1      32.854  27.508  24.769  1.00  0.00     0.050 A 
ATOM      9  C   UNL A   1      33.514  25.250  23.243  1.00  0.00     0.128 A 
ATOM     10  C   UNL A   1      33.764  26.577  25.251  1.00  0.00     0.033 A 
ATOM     11  Cl  UNL A   1      32.284  28.669  25.914  1.00  0.00    -0.084 Cl
ATOM     12  C   UNL A   1      34.106  25.469  24.478  1.00  0.00     0.019 A 
ATOM     13  O   UNL A   1      33.745  24.113  22.511  1.00  0.00    -0.475 OA
ATOM     14  C   UNL A   1      35.058  24.523  24.999  1.00  0.00     0.027 C 
ATOM     15  C   UNL A   1      34.327  22.961  23.218  1.00  0.00     0.316 C 
BRANCH   6  16
ATOM     16  C   UNL A   1      31.625  28.547  22.777  1.00  0.00     0.301 C 
BRANCH  16  17
ATOM     17  N   UNL A   1      30.251  28.788  23.252  1.00  0.00    -0.327 N 
ATOM     18  C   UNL A   1      29.341  26.715  24.249  1.00  0.00     0.075 C 
ATOM     19  C   UNL A   1      29.293  27.687  23.080  1.00  0.00     0.181 C 
ATOM     20  C   UNL A   1      27.933  28.373  22.970  1.00  0.00     0.071 C 
ATOM     21  C   UNL A   1      28.271  29.655  22.240  1.00  0.00     0.071 C 
ATOM     22  C   UNL A   1      29.623  30.046  22.825  1.00  0.00     0.181 C 
ATOM     23  H   UNL A   1      30.452  28.864  24.248  1.00  0.00     0.348 HD
ATOM     24  C   UNL A   1      29.477  30.972  24.033  1.00  0.00     0.075 C 
ENDBRANCH  16  17
ENDBRANCH   6  16
BRANCH  15  25
ATOM     25  C   UNL A   1      33.227  21.968  23.631  1.00  0.00     0.430 C 
ATOM     26  F   UNL A   1      32.528  22.410  24.701  1.00  0.00    -0.167 F 
ATOM     27  F   UNL A   1      32.331  21.789  22.628  1.00  0.00    -0.167 F 
ATOM     28  F   UNL A   1      33.725  20.750  23.944  1.00  0.00    -0.167 F 
ENDBRANCH  15  25
ENDBRANCH   3   5
ENDBRANCH   2   3
ENDBRANCH   1   2
BRANCH   1  29
ATOM     29  C   UNL A   1      39.033  21.024  25.536  1.00  0.00     0.275 C 
BRANCH  29  30
ATOM     30  O   UNL A   1      39.687  19.830  26.006  1.00  0.00    -0.458 OA
BRANCH  30  31
ATOM     31  C   UNL A   1      41.035  19.825  25.895  1.00  0.00     0.338 C 
ATOM     32  O   UNL A   1      41.732  18.990  25.347  1.00  0.00    -0.246 OA
BRANCH  31  33
ATOM     33  C   UNL A   1      41.599  21.047  26.492  1.00  0.00     0.060 A 
ATOM     34  C   UNL A   1      41.989  22.120  25.700  1.00  0.00     0.016 A 
ATOM     35  C   UNL A   1      41.558  21.188  27.874  1.00  0.00     0.016 A 
ATOM     36  C   UNL A   1      42.343  23.329  26.313  1.00  0.00     0.010 A 
ATOM     37  C   UNL A   1      41.739  22.437  28.463  1.00  0.00     0.010 A 
ATOM     38  C   UNL A   1      42.176  23.525  27.700  1.00  0.00    -0.014 A 
BRANCH  38  39
ATOM     39  C   UNL A   1      42.477  24.839  28.348  1.00  0.00     0.031 A 
ATOM     40  C   UNL A   1      43.887  25.199  28.770  1.00  0.00     0.074 A 
ATOM     41  C   UNL A   1      41.480  25.719  28.584  1.00  0.00     0.049 A 
ATOM     42  N   UNL A   1      44.326  26.308  29.318  1.00  0.00    -0.248 NA
ATOM     43  C   UNL A   1      44.934  24.178  28.598  1.00  0.00     0.031 C 
ATOM     44  C   UNL A   1      40.058  25.483  28.322  1.00  0.00     0.029 A 
ATOM     45  N   UNL A   1      41.511  27.007  29.069  1.00  0.00    -0.354 N 
ATOM     46  C   UNL A   1      45.675  26.097  29.580  1.00  0.00     0.074 A 
ATOM     47  C   UNL A   1      45.971  24.736  29.204  1.00  0.00     0.031 C 
ATOM     48  C   UNL A   1      39.371  26.611  28.554  1.00  0.00     0.029 A 
ATOM     49  C   UNL A   1      40.290  27.641  29.028  1.00  0.00     0.049 A 
ATOM     50  H   UNL A   1      42.329  27.433  29.413  1.00  0.00     0.167 HD
ATOM     51  C   UNL A   1      46.604  26.966  30.044  1.00  0.00     0.031 A 
ATOM     52  C   UNL A   1      39.947  28.913  29.313  1.00  0.00     0.031 A 
ATOM     53  C   UNL A   1      46.338  28.343  30.351  1.00  0.00     0.049 A 
ATOM     54  C   UNL A   1      41.004  29.882  29.762  1.00  0.00     0.074 A 
ATOM     55  C   UNL A   1      47.233  29.323  30.746  1.00  0.00     0.029 A 
ATOM     56  N   UNL A   1      45.092  28.941  30.276  1.00  0.00    -0.354 N 
ATOM     57  N   UNL A   1      42.288  29.680  29.928  1.00  0.00    -0.248 NA
ATOM     58  C   UNL A   1      40.570  31.257  30.051  1.00  0.00     0.031 C 
ATOM     59  C   UNL A   1      46.521  30.507  30.946  1.00  0.00     0.029 A 
ATOM     60  C   UNL A   1      45.193  30.276  30.624  1.00  0.00     0.049 A 
ATOM     61  H   UNL A   1      44.259  28.486  30.015  1.00  0.00     0.167 HD
ATOM     62  C   UNL A   1      42.818  30.903  30.322  1.00  0.00     0.074 A 
ATOM     63  C   UNL A   1      41.720  31.847  30.350  1.00  0.00     0.031 C 
ATOM     64  C   UNL A   1      44.097  31.209  30.637  1.00  0.00     0.031 A 
BRANCH  51  65
ATOM     65  C   UNL A   1      48.019  26.474  30.202  1.00  0.00    -0.014 A 
ATOM     66  C   UNL A   1      48.911  26.535  29.120  1.00  0.00     0.009 A 
ATOM     67  C   UNL A   1      48.442  25.870  31.397  1.00  0.00     0.009 A 
ATOM     68  C   UNL A   1      50.194  25.994  29.228  1.00  0.00     0.001 A 
ATOM     69  C   UNL A   1      49.737  25.360  31.514  1.00  0.00     0.001 A 
ATOM     70  C   UNL A   1      50.608  25.413  30.426  1.00  0.00     0.000 A 
ENDBRANCH  51  65
BRANCH  52  71
ATOM     71  C   UNL A   1      38.543  29.361  29.104  1.00  0.00    -0.014 A 
ATOM     72  C   UNL A   1      37.611  29.334  30.154  1.00  0.00     0.009 A 
ATOM     73  C   UNL A   1      38.118  29.782  27.834  1.00  0.00     0.009 A 
ATOM     74  C   UNL A   1      36.282  29.702  29.932  1.00  0.00     0.001 A 
ATOM     75  C   UNL A   1      36.795  30.177  27.622  1.00  0.00     0.001 A 
ATOM     76  C   UNL A   1      35.876  30.128  28.668  1.00  0.00     0.000 A 
ENDBRANCH  52  71
BRANCH  64  77
ATOM     77  C   UNL A   1      44.410  32.624  31.029  1.00  0.00    -0.014 A 
ATOM     78  C   UNL A   1      44.829  33.540  30.051  1.00  0.00     0.009 A 
ATOM     79  C   UNL A   1      44.411  33.016  32.376  1.00  0.00     0.009 A 
ATOM     80  C   UNL A   1      45.260  34.817  30.415  1.00  0.00     0.001 A 
ATOM     81  C   UNL A   1      44.817  34.303  32.735  1.00  0.00     0.001 A 
ATOM     82  C   UNL A   1      45.251  35.197  31.757  1.00  0.00     0.000 A 
ENDBRANCH  64  77
ENDBRANCH  38  39
ENDBRANCH  31  33
ENDBRANCH  30  31
ENDBRANCH  29  30
ENDBRANCH   1  29
TORSDOF 14
ENDMDL
MODEL 3
REMARK VINA RESULT:     -11.7      3.873      6.813
REMARK SMILES C[C@@H]1CC[C@H](C)[N@H+]1Cc1cc2c(cc1Cl)C=C(C(=O)OCCOC(=O)c1ccc(-c3c4nc(c(-c5ccccc5)c5ccc([nH]5)c(-c5ccccc5)c5nc(c(-c6ccccc6)c6ccc3[nH]6)C=C5)C=C4)cc1)[C@@H](C(F)(F)F)O2
REMARK SMILES IDX 21 1 20 2 18 3 19 4 17 5 9 6 10 7 14 8 11 9 13 10 15 11
REMARK SMILES IDX 12 12 79 13 16 14 74 15 8 16 7 17 6 18 5 19 4 20 3 21 2 22
REMARK SMILES IDX 1 24 75 25 76 26 77 27 78 28 22 29 23 30 24 31 25 32 26 33
REMARK SMILES IDX 27 34 73 35 28 36 72 37 29 38 30 39 31 40 66 41 32 42 71 43
REMARK SMILES IDX 65 44 67 45 33 46 70 47 64 48 63 49 34 51 56 52 41 53 55 54
REMARK SMILES IDX 42 55 45 56 54 57 68 58 43 59 44 60 53 62 69 63 46 64 35 65
REMARK SMILES IDX 36 66 40 67 37 68 39 69 38 70 57 71 58 72 62 73 59 74 61 75
REMARK SMILES IDX 60 76 47 77 48 78 52 79 49 80 51 81 50 82
REMARK H PARENT 7 23 67 50 45 61
REMARK Flexibility Score: inf
ROOT
ATOM      1  C   UNL A   1      37.608  21.402  25.287  1.00  0.00     0.275 C 
ENDROOT
BRANCH   1   2
ATOM      2  O   UNL A   1      36.887  22.513  24.709  1.00  0.00    -0.459 OA
BRANCH   2   3
ATOM      3  C   UNL A   1      35.668  22.731  25.250  1.00  0.00     0.338 C 
ATOM      4  O   UNL A   1      35.234  22.224  26.275  1.00  0.00    -0.246 OA
BRANCH   3   5
ATOM      5  C   UNL A   1      34.897  23.726  24.486  1.00  0.00     0.087 C 
ATOM      6  C   UNL A   1      32.134  27.801  23.432  1.00  0.00     0.029 A 
ATOM      7  C   UNL A   1      32.467  26.626  22.705  1.00  0.00     0.058 A 
ATOM      8  C   UNL A   1      32.557  27.893  24.765  1.00  0.00     0.050 A 
ATOM      9  C   UNL A   1      33.278  25.638  23.263  1.00  0.00     0.128 A 
ATOM     10  C   UNL A   1      33.455  26.967  25.278  1.00  0.00     0.033 A 
ATOM     11  Cl  UNL A   1      31.943  29.052  25.890  1.00  0.00    -0.084 Cl
ATOM     12  C   UNL A   1      33.828  25.861  24.517  1.00  0.00     0.019 A 
ATOM     13  O   UNL A   1      33.540  24.502  22.541  1.00  0.00    -0.475 OA
ATOM     14  C   UNL A   1      34.767  24.920  25.071  1.00  0.00     0.027 C 
ATOM     15  C   UNL A   1      34.104  23.353  23.267  1.00  0.00     0.316 C 
BRANCH   6  16
ATOM     16  C   UNL A   1      31.389  28.925  22.733  1.00  0.00     0.301 C 
BRANCH  16  17
ATOM     17  N   UNL A   1      30.009  29.177  23.180  1.00  0.00    -0.327 N 
ATOM     18  C   UNL A   1      28.958  27.048  23.876  1.00  0.00     0.075 C 
ATOM     19  C   UNL A   1      29.008  28.157  22.836  1.00  0.00     0.181 C 
ATOM     20  C   UNL A   1      27.688  28.920  22.760  1.00  0.00     0.071 C 
ATOM     21  C   UNL A   1      28.118  30.263  22.209  1.00  0.00     0.071 C 
ATOM     22  C   UNL A   1      29.460  30.508  22.890  1.00  0.00     0.181 C 
ATOM     23  H   UNL A   1      30.168  29.120  24.186  1.00  0.00     0.348 HD
ATOM     24  C   UNL A   1      29.304  31.286  24.197  1.00  0.00     0.075 C 
ENDBRANCH  16  17
ENDBRANCH   6  16
BRANCH  15  25
ATOM     25  C   UNL A   1      32.995  22.355  23.644  1.00  0.00     0.430 C 
ATOM     26  F   UNL A   1      32.538  22.563  24.900  1.00  0.00    -0.167 F 
ATOM     27  F   UNL A   1      31.927  22.478  22.816  1.00  0.00    -0.167 F 
ATOM     28  F   UNL A   1      33.413  21.071  23.570  1.00  0.00    -0.167 F 
ENDBRANCH  15  25
ENDBRANCH   3   5
ENDBRANCH   2   3
ENDBRANCH   1   2
BRANCH   1  29
ATOM     29  C   UNL A   1      38.879  21.856  26.009  1.00  0.00     0.275 C 
BRANCH  29  30
ATOM     30  O   UNL A   1      38.943  23.293  26.097  1.00  0.00    -0.458 OA
BRANCH  30  31
ATOM     31  C   UNL A   1      40.135  23.796  26.491  1.00  0.00     0.338 C 
ATOM     32  O   UNL A   1      41.246  23.382  26.209  1.00  0.00    -0.246 OA
BRANCH  31  33
ATOM     33  C   UNL A   1      39.933  25.011  27.296  1.00  0.00     0.060 A 
ATOM     34  C   UNL A   1      39.142  24.994  28.439  1.00  0.00     0.016 A 
ATOM     35  C   UNL A   1      40.699  26.133  27.005  1.00  0.00     0.016 A 
ATOM     36  C   UNL A   1      39.126  26.117  29.277  1.00  0.00     0.010 A 
ATOM     37  C   UNL A   1      40.817  27.169  27.928  1.00  0.00     0.010 A 
ATOM     38  C   UNL A   1      40.001  27.203  29.064  1.00  0.00    -0.014 A 
BRANCH  38  39
ATOM     39  C   UNL A   1      40.046  28.369  30.001  1.00  0.00     0.031 A 
ATOM     40  C   UNL A   1      39.020  29.480  29.917  1.00  0.00     0.074 A 
ATOM     41  C   UNL A   1      41.024  28.452  30.928  1.00  0.00     0.049 A 
ATOM     42  N   UNL A   1      38.896  30.547  30.670  1.00  0.00    -0.248 NA
ATOM     43  C   UNL A   1      38.029  29.415  28.828  1.00  0.00     0.031 C 
ATOM     44  C   UNL A   1      42.139  27.513  31.074  1.00  0.00     0.029 A 
ATOM     45  N   UNL A   1      41.225  29.355  31.947  1.00  0.00    -0.354 N 
ATOM     46  C   UNL A   1      37.849  31.281  30.125  1.00  0.00     0.074 A 
ATOM     47  C   UNL A   1      37.416  30.584  28.938  1.00  0.00     0.031 C 
ATOM     48  C   UNL A   1      42.843  27.829  32.171  1.00  0.00     0.029 A 
ATOM     49  C   UNL A   1      42.265  29.021  32.783  1.00  0.00     0.049 A 
ATOM     50  H   UNL A   1      40.676  30.164  32.065  1.00  0.00     0.167 HD
ATOM     51  C   UNL A   1      37.258  32.407  30.590  1.00  0.00     0.031 A 
ATOM     52  C   UNL A   1      42.695  29.589  33.928  1.00  0.00     0.031 A 
ATOM     53  C   UNL A   1      37.630  33.069  31.809  1.00  0.00     0.049 A 
ATOM     54  C   UNL A   1      41.985  30.799  34.465  1.00  0.00     0.074 A 
ATOM     55  C   UNL A   1      37.036  34.167  32.406  1.00  0.00     0.029 A 
ATOM     56  N   UNL A   1      38.677  32.681  32.629  1.00  0.00    -0.354 N 
ATOM     57  N   UNL A   1      40.947  31.430  33.973  1.00  0.00    -0.248 NA
ATOM     58  C   UNL A   1      42.495  31.370  35.721  1.00  0.00     0.031 C 
ATOM     59  C   UNL A   1      37.746  34.468  33.570  1.00  0.00     0.029 A 
ATOM     60  C   UNL A   1      38.749  33.524  33.723  1.00  0.00     0.049 A 
ATOM     61  H   UNL A   1      39.279  31.921  32.459  1.00  0.00     0.167 HD
ATOM     62  C   UNL A   1      40.669  32.459  34.865  1.00  0.00     0.074 A 
ATOM     63  C   UNL A   1      41.633  32.354  35.940  1.00  0.00     0.031 C 
ATOM     64  C   UNL A   1      39.704  33.404  34.793  1.00  0.00     0.031 A 
BRANCH  51  65
ATOM     65  C   UNL A   1      36.105  32.979  29.808  1.00  0.00    -0.014 A 
ATOM     66  C   UNL A   1      34.808  32.477  29.998  1.00  0.00     0.009 A 
ATOM     67  C   UNL A   1      36.317  33.954  28.820  1.00  0.00     0.009 A 
ATOM     68  C   UNL A   1      33.749  32.933  29.209  1.00  0.00     0.001 A 
ATOM     69  C   UNL A   1      35.251  34.432  28.055  1.00  0.00     0.001 A 
ATOM     70  C   UNL A   1      33.970  33.914  28.244  1.00  0.00     0.000 A 
ENDBRANCH  51  65
BRANCH  52  71
ATOM     71  C   UNL A   1      43.815  28.964  34.684  1.00  0.00    -0.014 A 
ATOM     72  C   UNL A   1      43.575  27.955  35.630  1.00  0.00     0.009 A 
ATOM     73  C   UNL A   1      45.132  29.410  34.489  1.00  0.00     0.009 A 
ATOM     74  C   UNL A   1      44.627  27.418  36.375  1.00  0.00     0.001 A 
ATOM     75  C   UNL A   1      46.186  28.849  35.215  1.00  0.00     0.001 A 
ATOM     76  C   UNL A   1      45.932  27.862  36.164  1.00  0.00     0.000 A 
ENDBRANCH  52  71
BRANCH  64  77
ATOM     77  C   UNL A   1      39.612  34.408  35.906  1.00  0.00    -0.014 A 
ATOM     78  C   UNL A   1      40.367  35.590  35.840  1.00  0.00     0.009 A 
ATOM     79  C   UNL A   1      38.881  34.130  37.069  1.00  0.00     0.009 A 
ATOM     80  C   UNL A   1      40.405  36.467  36.924  1.00  0.00     0.001 A 
ATOM     81  C   UNL A   1      38.899  35.022  38.143  1.00  0.00     0.001 A 
ATOM     82  C   UNL A   1      39.670  36.183  38.074  1.00  0.00     0.000 A 
ENDBRANCH  64  77
ENDBRANCH  38  39
ENDBRANCH  31  33
ENDBRANCH  30  31
ENDBRANCH  29  30
ENDBRANCH   1  29
TORSDOF 14
ENDMDL
