MODEL 1
REMARK VINA RESULT:     -13.1      0.000      0.000
REMARK SMILES Cc1ccccc1[C@@H]1[NH2+][C@H](C(=O)OCCOC(=O)c2ccc(-c3c4nc(c(-c5ccccc5)c5ccc([nH]5)c(-c5ccccc5)c5nc(c(-c6ccccc6)c6ccc3[nH]6)C=C5)C=C4)cc2)CC2=c3ccccc3=N[C@@H]21
REMARK SMILES IDX 15 1 14 2 13 3 11 4 12 5 10 6 8 7 9 8 76 9 68 12 75 13 67 14
REMARK SMILES IDX 69 15 74 16 70 17 73 18 71 19 72 20 7 21 1 22 2 23 3 24 4 25
REMARK SMILES IDX 6 26 5 27 16 28 17 29 18 30 19 31 20 32 66 33 21 34 65 35
REMARK SMILES IDX 22 36 23 37 24 38 59 39 25 40 64 41 58 42 60 43 26 44 63 45
REMARK SMILES IDX 57 46 56 47 27 49 49 50 34 51 48 52 35 53 38 54 47 55 61 56
REMARK SMILES IDX 36 57 37 58 46 60 62 61 39 62 28 63 29 64 33 65 30 66 32 67
REMARK SMILES IDX 31 68 50 69 51 70 55 71 52 72 54 73 53 74 40 75 41 76 45 77
REMARK SMILES IDX 42 78 44 79 43 80
REMARK H PARENT 9 10 9 11 60 48 38 59
REMARK Flexibility Score: inf
ROOT
ATOM      1  C   UNL A   1      33.236  31.387  27.537  1.00  0.00     0.275 C 
ENDROOT
BRANCH   1   2
ATOM      2  C   UNL A   1      34.361  30.356  27.297  1.00  0.00     0.274 C 
BRANCH   2   3
ATOM      3  O   UNL A   1      34.059  29.068  26.693  1.00  0.00    -0.458 OA
BRANCH   3   4
ATOM      4  C   UNL A   1      33.319  28.703  25.606  1.00  0.00     0.365 C 
ATOM      5  O   UNL A   1      33.870  28.577  24.513  1.00  0.00    -0.245 OA
BRANCH   4   6
ATOM      6  C   UNL A   1      31.830  28.404  25.821  1.00  0.00     0.298 C 
ATOM      7  C   UNL A   1      30.012  27.719  24.275  1.00  0.00     0.243 C 
ATOM      8  N   UNL A   1      31.248  28.447  24.492  1.00  0.00    -0.326 N 
ATOM      9  C   UNL A   1      30.423  26.189  24.384  1.00  0.00     0.196 C 
ATOM     10  H   UNL A   1      31.068  29.427  24.270  1.00  0.00     0.347 HD
ATOM     11  H   UNL A   1      31.932  27.983  23.894  1.00  0.00     0.347 HD
ATOM     12  C   UNL A   1      31.430  26.011  25.533  1.00  0.00    -0.024 C 
ATOM     13  N   UNL A   1      31.190  25.655  23.216  1.00  0.00    -0.270 NA
ATOM     14  C   UNL A   1      31.533  27.089  26.572  1.00  0.00     0.111 C 
ATOM     15  C   UNL A   1      32.481  25.272  25.184  1.00  0.00     0.002 A 
ATOM     16  C   UNL A   1      32.273  25.151  23.732  1.00  0.00     0.066 A 
ATOM     17  C   UNL A   1      33.758  25.042  25.788  1.00  0.00     0.010 A 
ATOM     18  C   UNL A   1      33.409  24.575  22.973  1.00  0.00     0.028 A 
ATOM     19  C   UNL A   1      34.764  24.593  25.024  1.00  0.00     0.001 A 
ATOM     20  C   UNL A   1      34.569  24.330  23.609  1.00  0.00     0.002 A 
BRANCH   7  21
ATOM     21  C   UNL A   1      29.479  28.464  23.035  1.00  0.00     0.015 A 
ATOM     22  C   UNL A   1      26.983  28.058  23.683  1.00  0.00     0.045 C 
ATOM     23  C   UNL A   1      28.081  28.728  22.890  1.00  0.00    -0.042 A 
ATOM     24  C   UNL A   1      27.647  29.785  22.054  1.00  0.00     0.004 A 
ATOM     25  C   UNL A   1      28.555  30.612  21.403  1.00  0.00     0.000 A 
ATOM     26  C   UNL A   1      30.367  29.276  22.291  1.00  0.00     0.010 A 
ATOM     27  C   UNL A   1      29.913  30.350  21.514  1.00  0.00     0.001 A 
ENDBRANCH   7  21
ENDBRANCH   4   6
ENDBRANCH   3   4
ENDBRANCH   2   3
ENDBRANCH   1   2
BRANCH   1  28
ATOM     28  O   UNL A   1      33.529  32.821  27.642  1.00  0.00    -0.458 OA
BRANCH  28  29
ATOM     29  C   UNL A   1      33.585  33.659  28.721  1.00  0.00     0.338 C 
ATOM     30  O   UNL A   1      32.675  34.425  29.018  1.00  0.00    -0.246 OA
BRANCH  29  31
ATOM     31  C   UNL A   1      34.754  33.499  29.590  1.00  0.00     0.060 A 
ATOM     32  C   UNL A   1      34.827  32.444  30.518  1.00  0.00     0.016 A 
ATOM     33  C   UNL A   1      35.876  34.089  29.082  1.00  0.00     0.016 A 
ATOM     34  C   UNL A   1      36.054  31.787  30.708  1.00  0.00     0.010 A 
ATOM     35  C   UNL A   1      36.947  33.247  29.021  1.00  0.00     0.010 A 
ATOM     36  C   UNL A   1      37.106  32.123  29.858  1.00  0.00    -0.014 A 
BRANCH  36  37
ATOM     37  C   UNL A   1      38.418  31.462  29.731  1.00  0.00     0.031 A 
ATOM     38  C   UNL A   1      38.675  30.161  29.063  1.00  0.00     0.074 A 
ATOM     39  C   UNL A   1      39.426  32.144  30.333  1.00  0.00     0.049 A 
ATOM     40  N   UNL A   1      39.406  29.228  29.585  1.00  0.00    -0.248 NA
ATOM     41  C   UNL A   1      38.202  29.802  27.723  1.00  0.00     0.031 C 
ATOM     42  C   UNL A   1      40.844  31.881  30.448  1.00  0.00     0.029 A 
ATOM     43  N   UNL A   1      39.243  33.239  31.189  1.00  0.00    -0.354 N 
ATOM     44  C   UNL A   1      39.742  28.352  28.569  1.00  0.00     0.074 A 
ATOM     45  C   UNL A   1      38.850  28.653  27.480  1.00  0.00     0.031 C 
ATOM     46  C   UNL A   1      41.298  32.529  31.547  1.00  0.00     0.029 A 
ATOM     47  C   UNL A   1      40.150  33.143  32.216  1.00  0.00     0.049 A 
ATOM     48  H   UNL A   1      38.578  33.955  31.074  1.00  0.00     0.167 HD
ATOM     49  C   UNL A   1      40.900  27.633  28.629  1.00  0.00     0.031 A 
ATOM     50  C   UNL A   1      39.644  32.915  33.461  1.00  0.00     0.031 A 
ATOM     51  C   UNL A   1      41.701  28.062  29.766  1.00  0.00     0.049 A 
ATOM     52  C   UNL A   1      40.180  31.617  33.970  1.00  0.00     0.074 A 
ATOM     53  C   UNL A   1      42.774  28.936  29.835  1.00  0.00     0.029 A 
ATOM     54  N   UNL A   1      41.236  27.889  31.059  1.00  0.00    -0.354 N 
ATOM     55  N   UNL A   1      40.447  30.598  33.203  1.00  0.00    -0.248 NA
ATOM     56  C   UNL A   1      40.538  31.406  35.362  1.00  0.00     0.031 C 
ATOM     57  C   UNL A   1      42.930  29.325  31.185  1.00  0.00     0.029 A 
ATOM     58  C   UNL A   1      41.964  28.672  31.930  1.00  0.00     0.049 A 
ATOM     59  H   UNL A   1      40.495  27.294  31.319  1.00  0.00     0.167 HD
ATOM     60  C   UNL A   1      41.139  29.676  33.936  1.00  0.00     0.074 A 
ATOM     61  C   UNL A   1      41.124  30.199  35.292  1.00  0.00     0.031 C 
ATOM     62  C   UNL A   1      41.732  28.593  33.361  1.00  0.00     0.031 A 
BRANCH  49  63
ATOM     63  C   UNL A   1      41.495  26.825  27.494  1.00  0.00    -0.014 A 
ATOM     64  C   UNL A   1      42.154  27.492  26.438  1.00  0.00     0.009 A 
ATOM     65  C   UNL A   1      41.471  25.422  27.414  1.00  0.00     0.009 A 
ATOM     66  C   UNL A   1      42.680  26.818  25.329  1.00  0.00     0.001 A 
ATOM     67  C   UNL A   1      41.989  24.740  26.296  1.00  0.00     0.001 A 
ATOM     68  C   UNL A   1      42.582  25.438  25.249  1.00  0.00     0.000 A 
ENDBRANCH  49  63
BRANCH  50  69
ATOM     69  C   UNL A   1      38.237  33.416  33.688  1.00  0.00    -0.014 A 
ATOM     70  C   UNL A   1      37.818  34.610  33.054  1.00  0.00     0.009 A 
ATOM     71  C   UNL A   1      37.240  32.602  34.248  1.00  0.00     0.009 A 
ATOM     72  C   UNL A   1      36.460  34.939  32.929  1.00  0.00     0.001 A 
ATOM     73  C   UNL A   1      35.879  32.941  34.134  1.00  0.00     0.001 A 
ATOM     74  C   UNL A   1      35.488  34.097  33.459  1.00  0.00     0.000 A 
ENDBRANCH  50  69
BRANCH  62  75
ATOM     75  C   UNL A   1      42.273  27.389  34.077  1.00  0.00    -0.014 A 
ATOM     76  C   UNL A   1      41.516  26.579  34.926  1.00  0.00     0.009 A 
ATOM     77  C   UNL A   1      43.579  26.943  33.764  1.00  0.00     0.009 A 
ATOM     78  C   UNL A   1      42.048  25.405  35.468  1.00  0.00     0.001 A 
ATOM     79  C   UNL A   1      44.093  25.746  34.256  1.00  0.00     0.001 A 
ATOM     80  C   UNL A   1      43.328  24.981  35.121  1.00  0.00     0.000 A 
ENDBRANCH  62  75
ENDBRANCH  36  37
ENDBRANCH  29  31
ENDBRANCH  28  29
ENDBRANCH   1  28
TORSDOF 12
ENDMDL
MODEL 2
REMARK VINA RESULT:     -12.9      1.138      3.492
REMARK SMILES Cc1ccccc1[C@@H]1[NH2+][C@H](C(=O)OCCOC(=O)c2ccc(-c3c4nc(c(-c5ccccc5)c5ccc([nH]5)c(-c5ccccc5)c5nc(c(-c6ccccc6)c6ccc3[nH]6)C=C5)C=C4)cc2)CC2=c3ccccc3=N[C@@H]21
REMARK SMILES IDX 15 1 14 2 13 3 11 4 12 5 10 6 8 7 9 8 76 9 68 12 75 13 67 14
REMARK SMILES IDX 69 15 74 16 70 17 73 18 71 19 72 20 7 21 1 22 2 23 3 24 4 25
REMARK SMILES IDX 6 26 5 27 16 28 17 29 18 30 19 31 20 32 66 33 21 34 65 35
REMARK SMILES IDX 22 36 23 37 24 38 59 39 25 40 64 41 58 42 60 43 26 44 63 45
REMARK SMILES IDX 57 46 56 47 27 49 49 50 34 51 48 52 35 53 38 54 47 55 61 56
REMARK SMILES IDX 36 57 37 58 46 60 62 61 39 62 28 63 29 64 33 65 30 66 32 67
REMARK SMILES IDX 31 68 50 69 51 70 55 71 52 72 54 73 53 74 40 75 41 76 45 77
REMARK SMILES IDX 42 78 44 79 43 80
REMARK H PARENT 9 10 9 11 60 48 38 59
REMARK Flexibility Score: inf
ROOT
ATOM      1  C   UNL A   1      33.792  31.624  27.607  1.00  0.00     0.275 C 
ENDROOT
BRANCH   1   2
ATOM      2  C   UNL A   1      32.686  30.656  27.133  1.00  0.00     0.274 C 
BRANCH   2   3
ATOM      3  O   UNL A   1      32.632  29.295  27.643  1.00  0.00    -0.458 OA
BRANCH   3   4
ATOM      4  C   UNL A   1      32.466  28.084  27.038  1.00  0.00     0.365 C 
ATOM      5  O   UNL A   1      31.364  27.539  27.068  1.00  0.00    -0.245 OA
BRANCH   4   6
ATOM      6  C   UNL A   1      33.664  27.487  26.289  1.00  0.00     0.298 C 
ATOM      7  C   UNL A   1      33.996  25.339  25.087  1.00  0.00     0.243 C 
ATOM      8  N   UNL A   1      33.355  26.074  26.162  1.00  0.00    -0.326 N 
ATOM      9  C   UNL A   1      33.346  25.919  23.760  1.00  0.00     0.196 C 
ATOM     10  H   UNL A   1      33.619  25.625  27.039  1.00  0.00     0.347 HD
ATOM     11  H   UNL A   1      32.360  26.045  25.939  1.00  0.00     0.347 HD
ATOM     12  C   UNL A   1      33.187  27.444  23.893  1.00  0.00    -0.024 C 
ATOM     13  N   UNL A   1      31.938  25.484  23.503  1.00  0.00    -0.270 NA
ATOM     14  C   UNL A   1      33.988  28.162  24.939  1.00  0.00     0.111 C 
ATOM     15  C   UNL A   1      31.981  27.868  23.521  1.00  0.00     0.002 A 
ATOM     16  C   UNL A   1      31.270  26.590  23.356  1.00  0.00     0.066 A 
ATOM     17  C   UNL A   1      31.285  29.106  23.694  1.00  0.00     0.010 A 
ATOM     18  C   UNL A   1      29.802  26.700  23.170  1.00  0.00     0.028 A 
ATOM     19  C   UNL A   1      29.948  29.117  23.588  1.00  0.00     0.001 A 
ATOM     20  C   UNL A   1      29.211  27.902  23.291  1.00  0.00     0.002 A 
BRANCH   7  21
ATOM     21  C   UNL A   1      33.882  23.905  25.642  1.00  0.00     0.015 A 
ATOM     22  C   UNL A   1      36.266  23.238  24.809  1.00  0.00     0.045 C 
ATOM     23  C   UNL A   1      35.012  23.028  25.627  1.00  0.00    -0.042 A 
ATOM     24  C   UNL A   1      35.071  21.939  26.530  1.00  0.00     0.004 A 
ATOM     25  C   UNL A   1      34.072  21.728  27.474  1.00  0.00     0.000 A 
ATOM     26  C   UNL A   1      32.851  23.607  26.563  1.00  0.00     0.010 A 
ATOM     27  C   UNL A   1      32.959  22.556  27.482  1.00  0.00     0.001 A 
ENDBRANCH   7  21
ENDBRANCH   4   6
ENDBRANCH   3   4
ENDBRANCH   2   3
ENDBRANCH   1   2
BRANCH   1  28
ATOM     28  O   UNL A   1      33.519  33.052  27.805  1.00  0.00    -0.458 OA
BRANCH  28  29
ATOM     29  C   UNL A   1      33.591  33.844  28.918  1.00  0.00     0.338 C 
ATOM     30  O   UNL A   1      32.700  34.623  29.240  1.00  0.00    -0.246 OA
BRANCH  29  31
ATOM     31  C   UNL A   1      34.749  33.617  29.785  1.00  0.00     0.060 A 
ATOM     32  C   UNL A   1      34.798  32.509  30.652  1.00  0.00     0.016 A 
ATOM     33  C   UNL A   1      35.884  34.219  29.322  1.00  0.00     0.016 A 
ATOM     34  C   UNL A   1      36.014  31.825  30.813  1.00  0.00     0.010 A 
ATOM     35  C   UNL A   1      36.943  33.367  29.221  1.00  0.00     0.010 A 
ATOM     36  C   UNL A   1      37.078  32.194  29.993  1.00  0.00    -0.014 A 
BRANCH  36  37
ATOM     37  C   UNL A   1      38.382  31.522  29.838  1.00  0.00     0.031 A 
ATOM     38  C   UNL A   1      38.617  30.225  29.154  1.00  0.00     0.074 A 
ATOM     39  C   UNL A   1      39.406  32.189  30.432  1.00  0.00     0.049 A 
ATOM     40  N   UNL A   1      39.348  29.281  29.656  1.00  0.00    -0.248 NA
ATOM     41  C   UNL A   1      38.120  29.884  27.818  1.00  0.00     0.031 C 
ATOM     42  C   UNL A   1      40.823  31.912  30.522  1.00  0.00     0.029 A 
ATOM     43  N   UNL A   1      39.246  33.277  31.302  1.00  0.00    -0.354 N 
ATOM     44  C   UNL A   1      39.660  28.412  28.626  1.00  0.00     0.074 A 
ATOM     45  C   UNL A   1      38.754  28.732  27.554  1.00  0.00     0.031 C 
ATOM     46  C   UNL A   1      41.300  32.545  31.620  1.00  0.00     0.029 A 
ATOM     47  C   UNL A   1      40.168  33.163  32.313  1.00  0.00     0.049 A 
ATOM     48  H   UNL A   1      38.586  34.000  31.203  1.00  0.00     0.167 HD
ATOM     49  C   UNL A   1      40.812  27.682  28.660  1.00  0.00     0.031 A 
ATOM     50  C   UNL A   1      39.680  32.927  33.564  1.00  0.00     0.031 A 
ATOM     51  C   UNL A   1      41.634  28.092  29.789  1.00  0.00     0.049 A 
ATOM     52  C   UNL A   1      40.212  31.619  34.051  1.00  0.00     0.074 A 
ATOM     53  C   UNL A   1      42.716  28.956  29.850  1.00  0.00     0.029 A 
ATOM     54  N   UNL A   1      41.188  27.910  31.088  1.00  0.00    -0.354 N 
ATOM     55  N   UNL A   1      40.457  30.606  33.270  1.00  0.00    -0.248 NA
ATOM     56  C   UNL A   1      40.590  31.391  35.435  1.00  0.00     0.031 C 
ATOM     57  C   UNL A   1      42.897  29.330  31.201  1.00  0.00     0.029 A 
ATOM     58  C   UNL A   1      41.936  28.678  31.955  1.00  0.00     0.049 A 
ATOM     59  H   UNL A   1      40.445  27.320  31.353  1.00  0.00     0.167 HD
ATOM     60  C   UNL A   1      41.152  29.670  33.983  1.00  0.00     0.074 A 
ATOM     61  C   UNL A   1      41.163  30.179  35.345  1.00  0.00     0.031 C 
ATOM     62  C   UNL A   1      41.726  28.587  33.389  1.00  0.00     0.031 A 
BRANCH  49  63
ATOM     63  C   UNL A   1      41.381  26.880  27.509  1.00  0.00    -0.014 A 
ATOM     64  C   UNL A   1      42.132  27.537  26.509  1.00  0.00     0.009 A 
ATOM     65  C   UNL A   1      41.247  25.489  27.360  1.00  0.00     0.009 A 
ATOM     66  C   UNL A   1      42.643  26.873  25.387  1.00  0.00     0.001 A 
ATOM     67  C   UNL A   1      41.750  24.818  26.229  1.00  0.00     0.001 A 
ATOM     68  C   UNL A   1      42.436  25.512  25.237  1.00  0.00     0.000 A 
ENDBRANCH  49  63
BRANCH  50  69
ATOM     69  C   UNL A   1      38.281  33.438  33.817  1.00  0.00    -0.014 A 
ATOM     70  C   UNL A   1      37.861  34.639  33.197  1.00  0.00     0.009 A 
ATOM     71  C   UNL A   1      37.287  32.629  34.391  1.00  0.00     0.009 A 
ATOM     72  C   UNL A   1      36.504  34.980  33.096  1.00  0.00     0.001 A 
ATOM     73  C   UNL A   1      35.927  32.980  34.302  1.00  0.00     0.001 A 
ATOM     74  C   UNL A   1      35.535  34.143  33.639  1.00  0.00     0.000 A 
ENDBRANCH  50  69
BRANCH  62  75
ATOM     75  C   UNL A   1      42.267  27.371  34.084  1.00  0.00    -0.014 A 
ATOM     76  C   UNL A   1      41.524  26.577  34.961  1.00  0.00     0.009 A 
ATOM     77  C   UNL A   1      43.550  26.897  33.723  1.00  0.00     0.009 A 
ATOM     78  C   UNL A   1      42.051  25.391  35.483  1.00  0.00     0.001 A 
ATOM     79  C   UNL A   1      44.056  25.689  34.196  1.00  0.00     0.001 A 
ATOM     80  C   UNL A   1      43.307  24.940  35.088  1.00  0.00     0.000 A 
ENDBRANCH  62  75
ENDBRANCH  36  37
ENDBRANCH  29  31
ENDBRANCH  28  29
ENDBRANCH   1  28
TORSDOF 12
ENDMDL
MODEL 3
REMARK VINA RESULT:     -12.8      4.097      9.566
REMARK SMILES Cc1ccccc1[C@@H]1[NH2+][C@H](C(=O)OCCOC(=O)c2ccc(-c3c4nc(c(-c5ccccc5)c5ccc([nH]5)c(-c5ccccc5)c5nc(c(-c6ccccc6)c6ccc3[nH]6)C=C5)C=C4)cc2)CC2=c3ccccc3=N[C@@H]21
REMARK SMILES IDX 15 1 14 2 13 3 11 4 12 5 10 6 8 7 9 8 76 9 68 12 75 13 67 14
REMARK SMILES IDX 69 15 74 16 70 17 73 18 71 19 72 20 7 21 1 22 2 23 3 24 4 25
REMARK SMILES IDX 6 26 5 27 16 28 17 29 18 30 19 31 20 32 66 33 21 34 65 35
REMARK SMILES IDX 22 36 23 37 24 38 59 39 25 40 64 41 58 42 60 43 26 44 63 45
REMARK SMILES IDX 57 46 56 47 27 49 49 50 34 51 48 52 35 53 38 54 47 55 61 56
REMARK SMILES IDX 36 57 37 58 46 60 62 61 39 62 28 63 29 64 33 65 30 66 32 67
REMARK SMILES IDX 31 68 50 69 51 70 55 71 52 72 54 73 53 74 40 75 41 76 45 77
REMARK SMILES IDX 42 78 44 79 43 80
REMARK H PARENT 9 10 9 11 60 48 38 59
REMARK Flexibility Score: inf
ROOT
ATOM      1  C   UNL A   1      38.908  21.251  25.735  1.00  0.00     0.275 C 
ENDROOT
BRANCH   1   2
ATOM      2  C   UNL A   1      38.497  22.687  26.125  1.00  0.00     0.274 C 
BRANCH   2   3
ATOM      3  O   UNL A   1      37.269  23.267  25.605  1.00  0.00    -0.458 OA
BRANCH   3   4
ATOM      4  C   UNL A   1      35.977  22.827  25.570  1.00  0.00     0.365 C 
ATOM      5  O   UNL A   1      35.269  22.952  26.569  1.00  0.00    -0.245 OA
BRANCH   4   6
ATOM      6  C   UNL A   1      35.452  22.251  24.249  1.00  0.00     0.298 C 
ATOM      7  C   UNL A   1      33.322  21.134  23.632  1.00  0.00     0.243 C 
ATOM      8  N   UNL A   1      34.337  21.404  24.633  1.00  0.00    -0.326 N 
ATOM      9  C   UNL A   1      32.593  22.527  23.412  1.00  0.00     0.196 C 
ATOM     10  H   UNL A   1      34.723  20.506  24.926  1.00  0.00     0.347 HD
ATOM     11  H   UNL A   1      33.850  21.929  25.361  1.00  0.00     0.347 HD
ATOM     12  C   UNL A   1      33.638  23.656  23.412  1.00  0.00    -0.024 C 
ATOM     13  N   UNL A   1      31.685  22.948  24.524  1.00  0.00    -0.270 NA
ATOM     14  C   UNL A   1      35.078  23.303  23.184  1.00  0.00     0.111 C 
ATOM     15  C   UNL A   1      33.281  24.684  24.179  1.00  0.00     0.002 A 
ATOM     16  C   UNL A   1      32.102  24.132  24.864  1.00  0.00     0.066 A 
ATOM     17  C   UNL A   1      33.994  25.815  24.691  1.00  0.00     0.010 A 
ATOM     18  C   UNL A   1      31.582  24.945  25.990  1.00  0.00     0.028 A 
ATOM     19  C   UNL A   1      33.507  26.457  25.761  1.00  0.00     0.001 A 
ATOM     20  C   UNL A   1      32.270  26.029  26.392  1.00  0.00     0.002 A 
BRANCH   7  21
ATOM     21  C   UNL A   1      32.720  19.837  24.208  1.00  0.00     0.015 A 
ATOM     22  C   UNL A   1      32.363  18.782  21.846  1.00  0.00     0.045 C 
ATOM     23  C   UNL A   1      32.440  18.723  23.355  1.00  0.00    -0.042 A 
ATOM     24  C   UNL A   1      32.356  17.420  23.901  1.00  0.00     0.004 A 
ATOM     25  C   UNL A   1      32.591  17.186  25.251  1.00  0.00     0.000 A 
ATOM     26  C   UNL A   1      32.871  19.566  25.587  1.00  0.00     0.010 A 
ATOM     27  C   UNL A   1      32.838  18.260  26.094  1.00  0.00     0.001 A 
ENDBRANCH   7  21
ENDBRANCH   4   6
ENDBRANCH   3   4
ENDBRANCH   2   3
ENDBRANCH   1   2
BRANCH   1  28
ATOM     28  O   UNL A   1      40.015  20.566  26.411  1.00  0.00    -0.458 OA
BRANCH  28  29
ATOM     29  C   UNL A   1      41.331  20.416  26.072  1.00  0.00     0.338 C 
ATOM     30  O   UNL A   1      41.750  19.455  25.435  1.00  0.00    -0.246 OA
BRANCH  29  31
ATOM     31  C   UNL A   1      42.207  21.542  26.405  1.00  0.00     0.060 A 
ATOM     32  C   UNL A   1      42.336  22.640  25.534  1.00  0.00     0.016 A 
ATOM     33  C   UNL A   1      42.434  21.658  27.746  1.00  0.00     0.016 A 
ATOM     34  C   UNL A   1      42.411  23.934  26.076  1.00  0.00     0.010 A 
ATOM     35  C   UNL A   1      42.168  22.904  28.233  1.00  0.00     0.010 A 
ATOM     36  C   UNL A   1      42.209  24.074  27.447  1.00  0.00    -0.014 A 
BRANCH  36  37
ATOM     37  C   UNL A   1      42.057  25.320  28.220  1.00  0.00     0.031 A 
ATOM     38  C   UNL A   1      40.862  26.202  28.224  1.00  0.00     0.074 A 
ATOM     39  C   UNL A   1      43.161  25.647  28.940  1.00  0.00     0.049 A 
ATOM     40  N   UNL A   1      40.930  27.490  28.113  1.00  0.00    -0.248 NA
ATOM     41  C   UNL A   1      39.484  25.740  28.421  1.00  0.00     0.031 C 
ATOM     42  C   UNL A   1      43.450  26.750  29.831  1.00  0.00     0.029 A 
ATOM     43  N   UNL A   1      44.408  25.020  28.809  1.00  0.00    -0.354 N 
ATOM     44  C   UNL A   1      39.716  28.004  28.532  1.00  0.00     0.074 A 
ATOM     45  C   UNL A   1      38.806  26.890  28.558  1.00  0.00     0.031 C 
ATOM     46  C   UNL A   1      44.793  26.915  29.863  1.00  0.00     0.029 A 
ATOM     47  C   UNL A   1      45.388  25.976  28.911  1.00  0.00     0.049 A 
ATOM     48  H   UNL A   1      44.556  24.057  28.668  1.00  0.00     0.167 HD
ATOM     49  C   UNL A   1      39.642  29.256  29.069  1.00  0.00     0.031 A 
ATOM     50  C   UNL A   1      46.123  26.223  27.789  1.00  0.00     0.031 A 
ATOM     51  C   UNL A   1      40.978  29.806  29.251  1.00  0.00     0.049 A 
ATOM     52  C   UNL A   1      45.928  27.649  27.389  1.00  0.00     0.074 A 
ATOM     53  C   UNL A   1      41.783  29.864  30.376  1.00  0.00     0.029 A 
ATOM     54  N   UNL A   1      41.791  30.054  28.157  1.00  0.00    -0.354 N 
ATOM     55  N   UNL A   1      44.815  28.302  27.568  1.00  0.00    -0.248 NA
ATOM     56  C   UNL A   1      46.999  28.465  26.843  1.00  0.00     0.031 C 
ATOM     57  C   UNL A   1      43.107  30.111  29.949  1.00  0.00     0.029 A 
ATOM     58  C   UNL A   1      43.097  30.219  28.570  1.00  0.00     0.049 A 
ATOM     59  H   UNL A   1      41.483  30.104  27.223  1.00  0.00     0.167 HD
ATOM     60  C   UNL A   1      45.047  29.626  27.322  1.00  0.00     0.074 A 
ATOM     61  C   UNL A   1      46.410  29.672  26.819  1.00  0.00     0.031 C 
ATOM     62  C   UNL A   1      44.129  30.587  27.618  1.00  0.00     0.031 A 
BRANCH  49  63
ATOM     63  C   UNL A   1      38.436  29.843  29.772  1.00  0.00    -0.014 A 
ATOM     64  C   UNL A   1      37.731  30.908  29.169  1.00  0.00     0.009 A 
ATOM     65  C   UNL A   1      37.924  29.385  30.997  1.00  0.00     0.009 A 
ATOM     66  C   UNL A   1      36.642  31.538  29.782  1.00  0.00     0.001 A 
ATOM     67  C   UNL A   1      36.834  30.021  31.623  1.00  0.00     0.001 A 
ATOM     68  C   UNL A   1      36.201  31.104  31.022  1.00  0.00     0.000 A 
ENDBRANCH  49  63
BRANCH  50  69
ATOM     69  C   UNL A   1      46.241  25.065  26.827  1.00  0.00    -0.014 A 
ATOM     70  C   UNL A   1      46.158  23.742  27.325  1.00  0.00     0.009 A 
ATOM     71  C   UNL A   1      46.125  25.238  25.439  1.00  0.00     0.009 A 
ATOM     72  C   UNL A   1      45.904  22.652  26.478  1.00  0.00     0.001 A 
ATOM     73  C   UNL A   1      45.886  24.141  24.590  1.00  0.00     0.001 A 
ATOM     74  C   UNL A   1      45.756  22.854  25.110  1.00  0.00     0.000 A 
ENDBRANCH  50  69
BRANCH  62  75
ATOM     75  C   UNL A   1      44.152  32.014  27.151  1.00  0.00    -0.014 A 
ATOM     76  C   UNL A   1      44.104  32.399  25.809  1.00  0.00     0.009 A 
ATOM     77  C   UNL A   1      44.059  33.046  28.115  1.00  0.00     0.009 A 
ATOM     78  C   UNL A   1      44.009  33.747  25.448  1.00  0.00     0.001 A 
ATOM     79  C   UNL A   1      43.908  34.384  27.761  1.00  0.00     0.001 A 
ATOM     80  C   UNL A   1      43.895  34.735  26.421  1.00  0.00     0.000 A 
ENDBRANCH  62  75
ENDBRANCH  36  37
ENDBRANCH  29  31
ENDBRANCH  28  29
ENDBRANCH   1  28
TORSDOF 12
ENDMDL
