MODEL 1
REMARK VINA RESULT:     -10.0      0.000      0.000
REMARK SMILES CC[C@H](C)CN(CC)C(=O)Nc1ccc(C(=O)OCCOC(=O)c2ccc(-c3c4nc(c(-c5ccccc5)c5ccc([nH]5)c(-c5ccccc5)c5nc(c(-c6ccccc6)c6ccc3[nH]6)C=C5)C=C4)cc2)cc1Cl
REMARK SMILES IDX 18 1 16 2 17 3 15 4 12 5 13 6 73 7 14 8 72 9 74 10 11 11
REMARK SMILES IDX 9 12 10 13 6 15 5 16 3 17 4 18 2 19 1 20 7 21 8 22 19 23
REMARK SMILES IDX 20 24 21 25 22 26 23 27 24 28 25 29 71 30 26 31 70 32 27 33
REMARK SMILES IDX 28 34 29 35 64 36 30 37 69 38 63 39 65 40 31 41 68 42 62 43
REMARK SMILES IDX 61 44 32 46 54 47 39 48 53 49 40 50 43 51 52 52 66 53 41 54
REMARK SMILES IDX 42 55 51 57 67 58 44 59 33 60 34 61 38 62 35 63 37 64 36 65
REMARK SMILES IDX 55 66 56 67 60 68 57 69 59 70 58 71 45 72 46 73 50 74 47 75
REMARK SMILES IDX 49 76 48 77
REMARK H PARENT 11 14 65 45 43 56
REMARK Flexibility Score: inf
ROOT
ATOM      1  O   UNL A   1      37.196  22.104  24.608  1.00  0.00    -0.458 OA
ENDROOT
BRANCH   1   2
ATOM      2  C   UNL A   1      36.546  22.785  23.639  1.00  0.00     0.338 C 
ATOM      3  O   UNL A   1      36.936  22.970  22.496  1.00  0.00    -0.246 OA
BRANCH   2   4
ATOM      4  C   UNL A   1      35.224  23.270  24.109  1.00  0.00     0.061 A 
ATOM      5  C   UNL A   1      32.783  23.908  25.254  1.00  0.00     0.061 A 
ATOM      6  C   UNL A   1      33.953  24.223  25.943  1.00  0.00     0.028 A 
ATOM      7  C   UNL A   1      32.829  23.469  23.924  1.00  0.00     0.065 A 
ATOM      8  C   UNL A   1      35.174  23.873  25.379  1.00  0.00     0.018 A 
ATOM      9  C   UNL A   1      34.055  23.134  23.352  1.00  0.00     0.038 A 
ATOM     10  Cl  UNL A   1      31.387  23.218  23.007  1.00  0.00    -0.082 Cl
BRANCH   5  11
ATOM     11  N   UNL A   1      31.587  23.933  25.964  1.00  0.00    -0.306 N 
ATOM     12  C   UNL A   1      30.683  24.933  26.125  1.00  0.00     0.321 C 
ATOM     13  O   UNL A   1      29.758  24.667  26.903  1.00  0.00    -0.248 OA
ATOM     14  H   UNL A   1      31.360  23.092  26.422  1.00  0.00     0.171 HD
BRANCH  12  15
ATOM     15  N   UNL A   1      30.767  26.163  25.497  1.00  0.00    -0.325 N 
BRANCH  15  16
ATOM     16  C   UNL A   1      29.883  26.362  24.344  1.00  0.00     0.124 C 
BRANCH  16  17
ATOM     17  C   UNL A   1      30.326  27.533  23.440  1.00  0.00     0.005 C 
ATOM     18  C   UNL A   1      31.074  27.051  22.195  1.00  0.00     0.009 C 
BRANCH  17  19
ATOM     19  C   UNL A   1      29.126  28.427  23.074  1.00  0.00     0.002 C 
ATOM     20  C   UNL A   1      29.390  29.924  23.164  1.00  0.00     0.004 C 
ENDBRANCH  17  19
ENDBRANCH  16  17
ENDBRANCH  15  16
BRANCH  15  21
ATOM     21  C   UNL A   1      31.572  27.346  25.826  1.00  0.00     0.118 C 
ATOM     22  C   UNL A   1      31.419  27.788  27.274  1.00  0.00     0.027 C 
ENDBRANCH  15  21
ENDBRANCH  12  15
ENDBRANCH   5  11
ENDBRANCH   2   4
ENDBRANCH   1   2
BRANCH   1  23
ATOM     23  C   UNL A   1      36.902  20.698  24.675  1.00  0.00     0.275 C 
BRANCH  23  24
ATOM     24  C   UNL A   1      38.182  19.898  24.917  1.00  0.00     0.275 C 
BRANCH  24  25
ATOM     25  O   UNL A   1      38.931  20.441  26.024  1.00  0.00    -0.458 OA
BRANCH  25  26
ATOM     26  C   UNL A   1      40.239  20.098  26.057  1.00  0.00     0.338 C 
ATOM     27  O   UNL A   1      40.749  19.063  25.662  1.00  0.00    -0.246 OA
BRANCH  26  28
ATOM     28  C   UNL A   1      41.048  21.219  26.564  1.00  0.00     0.060 A 
ATOM     29  C   UNL A   1      41.112  21.409  27.941  1.00  0.00     0.016 A 
ATOM     30  C   UNL A   1      41.572  22.179  25.703  1.00  0.00     0.016 A 
ATOM     31  C   UNL A   1      41.620  22.586  28.474  1.00  0.00     0.010 A 
ATOM     32  C   UNL A   1      42.155  23.336  26.242  1.00  0.00     0.010 A 
ATOM     33  C   UNL A   1      42.146  23.571  27.631  1.00  0.00    -0.014 A 
BRANCH  33  34
ATOM     34  C   UNL A   1      42.594  24.868  28.208  1.00  0.00     0.031 A 
ATOM     35  C   UNL A   1      41.584  25.945  28.511  1.00  0.00     0.074 A 
ATOM     36  C   UNL A   1      43.889  25.072  28.523  1.00  0.00     0.049 A 
ATOM     37  N   UNL A   1      41.781  27.181  28.899  1.00  0.00    -0.248 NA
ATOM     38  C   UNL A   1      40.165  25.589  28.346  1.00  0.00     0.031 C 
ATOM     39  C   UNL A   1      44.970  24.100  28.351  1.00  0.00     0.029 A 
ATOM     40  N   UNL A   1      44.512  26.166  29.073  1.00  0.00    -0.354 N 
ATOM     41  C   UNL A   1      40.521  27.763  28.964  1.00  0.00     0.074 A 
ATOM     42  C   UNL A   1      39.566  26.749  28.574  1.00  0.00     0.031 C 
ATOM     43  C   UNL A   1      46.111  24.623  28.827  1.00  0.00     0.029 A 
ATOM     44  C   UNL A   1      45.861  25.993  29.262  1.00  0.00     0.049 A 
ATOM     45  H   UNL A   1      44.036  26.994  29.309  1.00  0.00     0.167 HD
ATOM     46  C   UNL A   1      40.188  29.029  29.312  1.00  0.00     0.031 A 
ATOM     47  C   UNL A   1      46.802  26.847  29.707  1.00  0.00     0.031 A 
ATOM     48  C   UNL A   1      41.127  30.028  29.748  1.00  0.00     0.049 A 
ATOM     49  C   UNL A   1      46.411  28.252  30.067  1.00  0.00     0.074 A 
ATOM     50  C   UNL A   1      40.883  31.339  30.121  1.00  0.00     0.029 A 
ATOM     51  N   UNL A   1      42.489  29.820  29.892  1.00  0.00    -0.354 N 
ATOM     52  N   UNL A   1      45.224  28.808  30.056  1.00  0.00    -0.248 NA
ATOM     53  C   UNL A   1      47.495  29.151  30.490  1.00  0.00     0.031 C 
ATOM     54  C   UNL A   1      42.104  31.933  30.459  1.00  0.00     0.029 A 
ATOM     55  C   UNL A   1      43.099  30.978  30.342  1.00  0.00     0.049 A 
ATOM     56  H   UNL A   1      42.954  28.972  29.702  1.00  0.00     0.167 HD
ATOM     57  C   UNL A   1      45.416  30.116  30.482  1.00  0.00     0.074 A 
ATOM     58  C   UNL A   1      46.830  30.263  30.767  1.00  0.00     0.031 C 
ATOM     59  C   UNL A   1      44.504  31.109  30.620  1.00  0.00     0.031 A 
BRANCH  46  60
ATOM     60  C   UNL A   1      38.741  29.419  29.188  1.00  0.00    -0.014 A 
ATOM     61  C   UNL A   1      38.178  29.789  27.958  1.00  0.00     0.009 A 
ATOM     62  C   UNL A   1      37.923  29.391  30.329  1.00  0.00     0.009 A 
ATOM     63  C   UNL A   1      36.833  30.157  27.880  1.00  0.00     0.001 A 
ATOM     64  C   UNL A   1      36.573  29.733  30.243  1.00  0.00     0.001 A 
ATOM     65  C   UNL A   1      36.031  30.126  29.020  1.00  0.00     0.000 A 
ENDBRANCH  46  60
BRANCH  47  66
ATOM     66  C   UNL A   1      48.220  26.413  29.796  1.00  0.00    -0.014 A 
ATOM     67  C   UNL A   1      48.711  25.811  30.965  1.00  0.00     0.009 A 
ATOM     68  C   UNL A   1      49.092  26.604  28.713  1.00  0.00     0.009 A 
ATOM     69  C   UNL A   1      50.053  25.429  31.053  1.00  0.00     0.001 A 
ATOM     70  C   UNL A   1      50.424  26.194  28.793  1.00  0.00     0.001 A 
ATOM     71  C   UNL A   1      50.906  25.616  29.966  1.00  0.00     0.000 A 
ENDBRANCH  47  66
BRANCH  59  72
ATOM     72  C   UNL A   1      45.007  32.428  31.133  1.00  0.00    -0.014 A 
ATOM     73  C   UNL A   1      45.052  32.706  32.507  1.00  0.00     0.009 A 
ATOM     74  C   UNL A   1      45.460  33.398  30.225  1.00  0.00     0.009 A 
ATOM     75  C   UNL A   1      45.504  33.946  32.962  1.00  0.00     0.001 A 
ATOM     76  C   UNL A   1      45.936  34.627  30.684  1.00  0.00     0.001 A 
ATOM     77  C   UNL A   1      45.947  34.904  32.050  1.00  0.00     0.000 A 
ENDBRANCH  59  72
ENDBRANCH  33  34
ENDBRANCH  26  28
ENDBRANCH  25  26
ENDBRANCH  24  25
ENDBRANCH  23  24
ENDBRANCH   1  23
TORSDOF 17
ENDMDL
MODEL 2
REMARK VINA RESULT:      -9.9      2.444      6.083
REMARK SMILES CC[C@H](C)CN(CC)C(=O)Nc1ccc(C(=O)OCCOC(=O)c2ccc(-c3c4nc(c(-c5ccccc5)c5ccc([nH]5)c(-c5ccccc5)c5nc(c(-c6ccccc6)c6ccc3[nH]6)C=C5)C=C4)cc2)cc1Cl
REMARK SMILES IDX 18 1 16 2 17 3 15 4 12 5 13 6 73 7 14 8 72 9 74 10 11 11
REMARK SMILES IDX 9 12 10 13 6 15 5 16 3 17 4 18 2 19 1 20 7 21 8 22 19 23
REMARK SMILES IDX 20 24 21 25 22 26 23 27 24 28 25 29 71 30 26 31 70 32 27 33
REMARK SMILES IDX 28 34 29 35 64 36 30 37 69 38 63 39 65 40 31 41 68 42 62 43
REMARK SMILES IDX 61 44 32 46 54 47 39 48 53 49 40 50 43 51 52 52 66 53 41 54
REMARK SMILES IDX 42 55 51 57 67 58 44 59 33 60 34 61 38 62 35 63 37 64 36 65
REMARK SMILES IDX 55 66 56 67 60 68 57 69 59 70 58 71 45 72 46 73 50 74 47 75
REMARK SMILES IDX 49 76 48 77
REMARK H PARENT 11 14 65 45 43 56
REMARK Flexibility Score: inf
ROOT
ATOM      1  O   UNL A   1      35.453  20.650  25.271  1.00  0.00    -0.458 OA
ENDROOT
BRANCH   1   2
ATOM      2  C   UNL A   1      34.158  20.528  24.903  1.00  0.00     0.338 C 
ATOM      3  O   UNL A   1      33.635  19.540  24.408  1.00  0.00    -0.246 OA
BRANCH   2   4
ATOM      4  C   UNL A   1      33.386  21.756  25.218  1.00  0.00     0.061 A 
ATOM      5  C   UNL A   1      32.190  24.098  26.089  1.00  0.00     0.061 A 
ATOM      6  C   UNL A   1      33.433  24.169  25.461  1.00  0.00     0.028 A 
ATOM      7  C   UNL A   1      31.458  22.903  26.100  1.00  0.00     0.065 A 
ATOM      8  C   UNL A   1      34.042  22.989  25.054  1.00  0.00     0.018 A 
ATOM      9  C   UNL A   1      32.064  21.721  25.675  1.00  0.00     0.038 A 
ATOM     10  Cl  UNL A   1      29.855  22.833  26.739  1.00  0.00    -0.082 Cl
BRANCH   5  11
ATOM     11  N   UNL A   1      31.759  25.213  26.800  1.00  0.00    -0.306 N 
ATOM     12  C   UNL A   1      31.165  26.355  26.364  1.00  0.00     0.321 C 
ATOM     13  O   UNL A   1      30.988  27.207  27.244  1.00  0.00    -0.248 OA
ATOM     14  H   UNL A   1      31.908  25.168  27.771  1.00  0.00     0.171 HD
BRANCH  12  15
ATOM     15  N   UNL A   1      30.790  26.582  25.052  1.00  0.00    -0.325 N 
BRANCH  15  16
ATOM     16  C   UNL A   1      31.437  27.716  24.383  1.00  0.00     0.124 C 
BRANCH  16  17
ATOM     17  C   UNL A   1      32.940  27.481  24.117  1.00  0.00     0.005 C 
ATOM     18  C   UNL A   1      33.273  27.504  22.624  1.00  0.00     0.009 C 
BRANCH  17  19
ATOM     19  C   UNL A   1      33.800  28.484  24.909  1.00  0.00     0.002 C 
ATOM     20  C   UNL A   1      33.028  29.636  25.536  1.00  0.00     0.004 C 
ENDBRANCH  17  19
ENDBRANCH  16  17
ENDBRANCH  15  16
BRANCH  15  21
ATOM     21  C   UNL A   1      29.873  25.837  24.182  1.00  0.00     0.118 C 
ATOM     22  C   UNL A   1      28.631  26.633  23.803  1.00  0.00     0.027 C 
ENDBRANCH  15  21
ENDBRANCH  12  15
ENDBRANCH   5  11
ENDBRANCH   2   4
ENDBRANCH   1   2
BRANCH   1  23
ATOM     23  C   UNL A   1      36.292  19.527  24.949  1.00  0.00     0.275 C 
BRANCH  23  24
ATOM     24  C   UNL A   1      37.719  19.995  24.662  1.00  0.00     0.275 C 
BRANCH  24  25
ATOM     25  O   UNL A   1      38.088  21.091  25.525  1.00  0.00    -0.458 OA
BRANCH  25  26
ATOM     26  C   UNL A   1      39.275  20.950  26.158  1.00  0.00     0.338 C 
ATOM     27  O   UNL A   1      39.988  19.961  26.194  1.00  0.00    -0.246 OA
BRANCH  26  28
ATOM     28  C   UNL A   1      39.688  22.229  26.758  1.00  0.00     0.060 A 
ATOM     29  C   UNL A   1      39.052  23.389  26.326  1.00  0.00     0.016 A 
ATOM     30  C   UNL A   1      40.808  22.314  27.580  1.00  0.00     0.016 A 
ATOM     31  C   UNL A   1      39.566  24.640  26.638  1.00  0.00     0.010 A 
ATOM     32  C   UNL A   1      41.286  23.577  27.958  1.00  0.00     0.010 A 
ATOM     33  C   UNL A   1      40.696  24.754  27.456  1.00  0.00    -0.014 A 
BRANCH  33  34
ATOM     34  C   UNL A   1      41.295  26.094  27.698  1.00  0.00     0.031 A 
ATOM     35  C   UNL A   1      42.581  26.478  27.013  1.00  0.00     0.074 A 
ATOM     36  C   UNL A   1      40.668  27.000  28.477  1.00  0.00     0.049 A 
ATOM     37  N   UNL A   1      43.325  27.543  27.183  1.00  0.00    -0.248 NA
ATOM     38  C   UNL A   1      43.106  25.535  26.013  1.00  0.00     0.031 C 
ATOM     39  C   UNL A   1      39.384  26.798  29.151  1.00  0.00     0.029 A 
ATOM     40  N   UNL A   1      41.023  28.282  28.817  1.00  0.00    -0.354 N 
ATOM     41  C   UNL A   1      44.431  27.368  26.360  1.00  0.00     0.074 A 
ATOM     42  C   UNL A   1      44.264  26.095  25.694  1.00  0.00     0.031 C 
ATOM     43  C   UNL A   1      39.039  27.930  29.785  1.00  0.00     0.029 A 
ATOM     44  C   UNL A   1      40.111  28.908  29.632  1.00  0.00     0.049 A 
ATOM     45  H   UNL A   1      41.852  28.712  28.506  1.00  0.00     0.167 HD
ATOM     46  C   UNL A   1      45.494  28.188  26.179  1.00  0.00     0.031 A 
ATOM     47  C   UNL A   1      40.142  30.119  30.216  1.00  0.00     0.031 A 
ATOM     48  C   UNL A   1      45.642  29.478  26.801  1.00  0.00     0.049 A 
ATOM     49  C   UNL A   1      41.341  31.004  30.017  1.00  0.00     0.074 A 
ATOM     50  C   UNL A   1      46.684  30.381  26.678  1.00  0.00     0.029 A 
ATOM     51  N   UNL A   1      44.710  30.057  27.646  1.00  0.00    -0.354 N 
ATOM     52  N   UNL A   1      42.411  30.793  29.291  1.00  0.00    -0.248 NA
ATOM     53  C   UNL A   1      41.338  32.290  30.730  1.00  0.00     0.031 C 
ATOM     54  C   UNL A   1      46.396  31.494  27.476  1.00  0.00     0.029 A 
ATOM     55  C   UNL A   1      45.154  31.302  28.057  1.00  0.00     0.049 A 
ATOM     56  H   UNL A   1      43.857  29.643  27.915  1.00  0.00     0.167 HD
ATOM     57  C   UNL A   1      43.202  31.924  29.448  1.00  0.00     0.074 A 
ATOM     58  C   UNL A   1      42.477  32.827  30.319  1.00  0.00     0.031 C 
ATOM     59  C   UNL A   1      44.424  32.188  28.923  1.00  0.00     0.031 A 
BRANCH  46  60
ATOM     60  C   UNL A   1      46.607  27.690  25.301  1.00  0.00    -0.014 A 
ATOM     61  C   UNL A   1      46.733  28.099  23.965  1.00  0.00     0.009 A 
ATOM     62  C   UNL A   1      47.562  26.810  25.836  1.00  0.00     0.009 A 
ATOM     63  C   UNL A   1      47.774  27.608  23.172  1.00  0.00     0.001 A 
ATOM     64  C   UNL A   1      48.616  26.342  25.049  1.00  0.00     0.001 A 
ATOM     65  C   UNL A   1      48.715  26.734  23.715  1.00  0.00     0.000 A 
ENDBRANCH  46  60
BRANCH  47  66
ATOM     66  C   UNL A   1      39.020  30.556  31.087  1.00  0.00    -0.014 A 
ATOM     67  C   UNL A   1      37.880  31.160  30.534  1.00  0.00     0.009 A 
ATOM     68  C   UNL A   1      39.086  30.377  32.477  1.00  0.00     0.009 A 
ATOM     69  C   UNL A   1      36.839  31.593  31.360  1.00  0.00     0.001 A 
ATOM     70  C   UNL A   1      38.033  30.783  33.297  1.00  0.00     0.001 A 
ATOM     71  C   UNL A   1      36.914  31.399  32.739  1.00  0.00     0.000 A 
ENDBRANCH  47  66
BRANCH  59  72
ATOM     72  C   UNL A   1      45.031  33.522  29.252  1.00  0.00    -0.014 A 
ATOM     73  C   UNL A   1      44.709  34.670  28.514  1.00  0.00     0.009 A 
ATOM     74  C   UNL A   1      45.925  33.630  30.328  1.00  0.00     0.009 A 
ATOM     75  C   UNL A   1      45.300  35.897  28.824  1.00  0.00     0.001 A 
ATOM     76  C   UNL A   1      46.496  34.862  30.651  1.00  0.00     0.001 A 
ATOM     77  C   UNL A   1      46.191  35.992  29.893  1.00  0.00     0.000 A 
ENDBRANCH  59  72
ENDBRANCH  33  34
ENDBRANCH  26  28
ENDBRANCH  25  26
ENDBRANCH  24  25
ENDBRANCH  23  24
ENDBRANCH   1  23
TORSDOF 17
ENDMDL
MODEL 3
REMARK VINA RESULT:      -9.8      2.834      7.915
REMARK SMILES CC[C@H](C)CN(CC)C(=O)Nc1ccc(C(=O)OCCOC(=O)c2ccc(-c3c4nc(c(-c5ccccc5)c5ccc([nH]5)c(-c5ccccc5)c5nc(c(-c6ccccc6)c6ccc3[nH]6)C=C5)C=C4)cc2)cc1Cl
REMARK SMILES IDX 18 1 16 2 17 3 15 4 12 5 13 6 73 7 14 8 72 9 74 10 11 11
REMARK SMILES IDX 9 12 10 13 6 15 5 16 3 17 4 18 2 19 1 20 7 21 8 22 19 23
REMARK SMILES IDX 20 24 21 25 22 26 23 27 24 28 25 29 71 30 26 31 70 32 27 33
REMARK SMILES IDX 28 34 29 35 64 36 30 37 69 38 63 39 65 40 31 41 68 42 62 43
REMARK SMILES IDX 61 44 32 46 54 47 39 48 53 49 40 50 43 51 52 52 66 53 41 54
REMARK SMILES IDX 42 55 51 57 67 58 44 59 33 60 34 61 38 62 35 63 37 64 36 65
REMARK SMILES IDX 55 66 56 67 60 68 57 69 59 70 58 71 45 72 46 73 50 74 47 75
REMARK SMILES IDX 49 76 48 77
REMARK H PARENT 11 14 65 45 43 56
REMARK Flexibility Score: inf
ROOT
ATOM      1  O   UNL A   1      33.253  31.306  27.467  1.00  0.00    -0.458 OA
ENDROOT
BRANCH   1   2
ATOM      2  C   UNL A   1      32.144  31.217  26.700  1.00  0.00     0.338 C 
ATOM      3  O   UNL A   1      31.166  31.949  26.751  1.00  0.00    -0.246 OA
BRANCH   2   4
ATOM      4  C   UNL A   1      32.255  30.117  25.710  1.00  0.00     0.061 A 
ATOM      5  C   UNL A   1      32.737  28.269  23.702  1.00  0.00     0.061 A 
ATOM      6  C   UNL A   1      33.682  28.426  24.716  1.00  0.00     0.028 A 
ATOM      7  C   UNL A   1      31.476  28.874  23.797  1.00  0.00     0.065 A 
ATOM      8  C   UNL A   1      33.450  29.375  25.703  1.00  0.00     0.018 A 
ATOM      9  C   UNL A   1      31.237  29.815  24.798  1.00  0.00     0.038 A 
ATOM     10  Cl  UNL A   1      30.241  28.571  22.629  1.00  0.00    -0.082 Cl
BRANCH   5  11
ATOM     11  N   UNL A   1      33.128  27.595  22.551  1.00  0.00    -0.306 N 
ATOM     12  C   UNL A   1      33.086  26.270  22.253  1.00  0.00     0.321 C 
ATOM     13  O   UNL A   1      33.602  25.973  21.169  1.00  0.00    -0.248 OA
ATOM     14  H   UNL A   1      33.493  28.168  21.839  1.00  0.00     0.171 HD
BRANCH  12  15
ATOM     15  N   UNL A   1      32.532  25.307  23.077  1.00  0.00    -0.325 N 
BRANCH  15  16
ATOM     16  C   UNL A   1      33.464  24.326  23.642  1.00  0.00     0.124 C 
BRANCH  16  17
ATOM     17  C   UNL A   1      34.312  24.898  24.799  1.00  0.00     0.005 C 
ATOM     18  C   UNL A   1      33.541  24.929  26.121  1.00  0.00     0.009 C 
BRANCH  17  19
ATOM     19  C   UNL A   1      35.643  24.132  24.933  1.00  0.00     0.002 C 
ATOM     20  C   UNL A   1      35.706  23.155  26.099  1.00  0.00     0.004 C 
ENDBRANCH  17  19
ENDBRANCH  16  17
ENDBRANCH  15  16
BRANCH  15  21
ATOM     21  C   UNL A   1      31.148  25.126  23.532  1.00  0.00     0.118 C 
ATOM     22  C   UNL A   1      30.649  23.697  23.370  1.00  0.00     0.027 C 
ENDBRANCH  15  21
ENDBRANCH  12  15
ENDBRANCH   5  11
ENDBRANCH   2   4
ENDBRANCH   1   2
BRANCH   1  23
ATOM     23  C   UNL A   1      33.620  32.639  27.864  1.00  0.00     0.275 C 
BRANCH  23  24
ATOM     24  C   UNL A   1      34.637  32.592  29.004  1.00  0.00     0.275 C 
BRANCH  24  25
ATOM     25  O   UNL A   1      35.152  31.257  29.186  1.00  0.00    -0.458 OA
BRANCH  25  26
ATOM     26  C   UNL A   1      36.011  31.107  30.220  1.00  0.00     0.338 C 
ATOM     27  O   UNL A   1      35.860  31.473  31.373  1.00  0.00    -0.246 OA
BRANCH  26  28
ATOM     28  C   UNL A   1      37.181  30.319  29.800  1.00  0.00     0.060 A 
ATOM     29  C   UNL A   1      37.953  29.717  30.789  1.00  0.00     0.016 A 
ATOM     30  C   UNL A   1      37.624  30.330  28.481  1.00  0.00     0.016 A 
ATOM     31  C   UNL A   1      39.206  29.196  30.495  1.00  0.00     0.010 A 
ATOM     32  C   UNL A   1      38.857  29.737  28.168  1.00  0.00     0.010 A 
ATOM     33  C   UNL A   1      39.680  29.202  29.178  1.00  0.00    -0.014 A 
BRANCH  33  34
ATOM     34  C   UNL A   1      41.064  28.733  28.894  1.00  0.00     0.031 A 
ATOM     35  C   UNL A   1      42.228  29.673  29.075  1.00  0.00     0.074 A 
ATOM     36  C   UNL A   1      41.298  27.455  28.534  1.00  0.00     0.049 A 
ATOM     37  N   UNL A   1      43.490  29.498  28.768  1.00  0.00    -0.248 NA
ATOM     38  C   UNL A   1      41.934  30.986  29.672  1.00  0.00     0.031 C 
ATOM     39  C   UNL A   1      40.281  26.413  28.384  1.00  0.00     0.029 A 
ATOM     40  N   UNL A   1      42.477  26.811  28.246  1.00  0.00    -0.354 N 
ATOM     41  C   UNL A   1      44.123  30.696  29.075  1.00  0.00     0.074 A 
ATOM     42  C   UNL A   1      43.110  31.590  29.590  1.00  0.00     0.031 C 
ATOM     43  C   UNL A   1      40.883  25.253  28.077  1.00  0.00     0.029 A 
ATOM     44  C   UNL A   1      42.315  25.485  27.929  1.00  0.00     0.049 A 
ATOM     45  H   UNL A   1      43.353  27.258  28.267  1.00  0.00     0.167 HD
ATOM     46  C   UNL A   1      45.430  31.025  28.935  1.00  0.00     0.031 A 
ATOM     47  C   UNL A   1      43.212  24.562  27.533  1.00  0.00     0.031 A 
ATOM     48  C   UNL A   1      46.452  30.125  28.470  1.00  0.00     0.049 A 
ATOM     49  C   UNL A   1      44.652  24.956  27.366  1.00  0.00     0.074 A 
ATOM     50  C   UNL A   1      47.804  30.368  28.295  1.00  0.00     0.029 A 
ATOM     51  N   UNL A   1      46.237  28.800  28.126  1.00  0.00    -0.354 N 
ATOM     52  N   UNL A   1      45.223  26.113  27.594  1.00  0.00    -0.248 NA
ATOM     53  C   UNL A   1      45.568  23.916  26.874  1.00  0.00     0.031 C 
ATOM     54  C   UNL A   1      48.401  29.198  27.814  1.00  0.00     0.029 A 
ATOM     55  C   UNL A   1      47.429  28.215  27.735  1.00  0.00     0.049 A 
ATOM     56  H   UNL A   1      45.366  28.343  28.155  1.00  0.00     0.167 HD
ATOM     57  C   UNL A   1      46.566  25.937  27.287  1.00  0.00     0.074 A 
ATOM     58  C   UNL A   1      46.728  24.556  26.880  1.00  0.00     0.031 C 
ATOM     59  C   UNL A   1      47.575  26.842  27.332  1.00  0.00     0.031 A 
BRANCH  46  60
ATOM     60  C   UNL A   1      45.821  32.442  29.251  1.00  0.00    -0.014 A 
ATOM     61  C   UNL A   1      45.769  33.455  28.282  1.00  0.00     0.009 A 
ATOM     62  C   UNL A   1      46.226  32.768  30.556  1.00  0.00     0.009 A 
ATOM     63  C   UNL A   1      46.150  34.760  28.605  1.00  0.00     0.001 A 
ATOM     64  C   UNL A   1      46.581  34.078  30.882  1.00  0.00     0.001 A 
ATOM     65  C   UNL A   1      46.552  35.071  29.904  1.00  0.00     0.000 A 
ENDBRANCH  46  60
BRANCH  47  66
ATOM     66  C   UNL A   1      42.768  23.178  27.221  1.00  0.00    -0.014 A 
ATOM     67  C   UNL A   1      42.595  22.235  28.245  1.00  0.00     0.009 A 
ATOM     68  C   UNL A   1      42.521  22.792  25.894  1.00  0.00     0.009 A 
ATOM     69  C   UNL A   1      42.204  20.927  27.943  1.00  0.00     0.001 A 
ATOM     70  C   UNL A   1      42.101  21.495  25.598  1.00  0.00     0.001 A 
ATOM     71  C   UNL A   1      41.952  20.560  26.622  1.00  0.00     0.000 A 
ENDBRANCH  47  66
BRANCH  59  72
ATOM     72  C   UNL A   1      48.946  26.350  26.965  1.00  0.00    -0.014 A 
ATOM     73  C   UNL A   1      49.785  25.753  27.917  1.00  0.00     0.009 A 
ATOM     74  C   UNL A   1      49.394  26.472  25.640  1.00  0.00     0.009 A 
ATOM     75  C   UNL A   1      51.064  25.321  27.559  1.00  0.00     0.001 A 
ATOM     76  C   UNL A   1      50.663  26.017  25.279  1.00  0.00     0.001 A 
ATOM     77  C   UNL A   1      51.500  25.451  26.241  1.00  0.00     0.000 A 
ENDBRANCH  59  72
ENDBRANCH  33  34
ENDBRANCH  26  28
ENDBRANCH  25  26
ENDBRANCH  24  25
ENDBRANCH  23  24
ENDBRANCH   1  23
TORSDOF 17
ENDMDL
