MODEL 1
REMARK VINA RESULT:     -10.9      0.000      0.000
REMARK SMILES CCc1cc(Nc2ccc(C(=O)OCCOC(=O)c3ccc(-c4c5nc(c(-c6ccccc6)c6ccc([nH]6)c(-c6ccccc6)c6nc(c(-c7ccccc7)c7ccc4[nH]7)C=C6)C=C5)cc3)cc2)nc(C(C)C)n1
REMARK SMILES IDX 14 1 13 2 11 3 12 4 10 5 7 6 8 7 68 8 9 9 67 10 6 11 5 13
REMARK SMILES IDX 3 14 4 15 74 16 70 17 69 18 2 19 1 20 71 21 72 22 73 23
REMARK SMILES IDX 15 24 16 25 17 26 18 27 19 28 20 29 66 30 21 31 65 32 22 33
REMARK SMILES IDX 23 34 24 35 59 36 25 37 64 38 58 39 60 40 26 41 63 42 57 43
REMARK SMILES IDX 56 44 27 46 49 47 34 48 48 49 35 50 38 51 47 52 61 53 36 54
REMARK SMILES IDX 37 55 46 57 62 58 39 59 28 60 29 61 33 62 30 63 32 64 31 65
REMARK SMILES IDX 50 66 51 67 55 68 52 69 54 70 53 71 40 72 41 73 45 74 42 75
REMARK SMILES IDX 44 76 43 77
REMARK H PARENT 6 12 60 45 38 56
REMARK Flexibility Score: inf
ROOT
ATOM      1  C   UNL A   1      34.209  34.075  29.979  1.00  0.00     0.275 C 
ENDROOT
BRANCH   1   2
ATOM      2  O   UNL A   1      33.896  32.837  29.310  1.00  0.00    -0.458 OA
BRANCH   2   3
ATOM      3  C   UNL A   1      34.534  32.645  28.129  1.00  0.00     0.338 C 
ATOM      4  O   UNL A   1      35.324  33.404  27.594  1.00  0.00    -0.246 OA
BRANCH   3   5
ATOM      5  C   UNL A   1      34.204  31.318  27.568  1.00  0.00     0.060 A 
ATOM      6  C   UNL A   1      33.419  28.744  26.772  1.00  0.00     0.040 A 
ATOM      7  C   UNL A   1      32.486  29.783  26.809  1.00  0.00     0.027 A 
ATOM      8  C   UNL A   1      34.756  29.018  27.103  1.00  0.00     0.027 A 
ATOM      9  C   UNL A   1      32.871  31.053  27.230  1.00  0.00     0.018 A 
ATOM     10  C   UNL A   1      35.157  30.303  27.479  1.00  0.00     0.018 A 
BRANCH   6  11
ATOM     11  N   UNL A   1      32.959  27.419  26.620  1.00  0.00    -0.340 N 
ATOM     12  H   UNL A   1      32.292  27.081  27.260  1.00  0.00     0.168 HD
BRANCH  11  13
ATOM     13  C   UNL A   1      33.407  26.552  25.600  1.00  0.00     0.134 A 
ATOM     14  C   UNL A   1      33.543  25.950  23.324  1.00  0.00     0.046 A 
ATOM     15  C   UNL A   1      33.115  26.850  24.285  1.00  0.00     0.071 A 
ATOM     16  N   UNL A   1      34.252  24.849  23.642  1.00  0.00    -0.238 NA
ATOM     17  C   UNL A   1      34.512  24.643  24.944  1.00  0.00     0.133 A 
ATOM     18  N   UNL A   1      34.118  25.461  25.928  1.00  0.00    -0.216 NA
BRANCH  14  19
ATOM     19  C   UNL A   1      33.240  26.220  21.869  1.00  0.00     0.053 C 
ATOM     20  C   UNL A   1      31.801  25.932  21.464  1.00  0.00     0.011 C 
ENDBRANCH  14  19
BRANCH  17  21
ATOM     21  C   UNL A   1      35.334  23.442  25.349  1.00  0.00     0.051 C 
ATOM     22  C   UNL A   1      36.696  23.851  25.906  1.00  0.00     0.016 C 
ATOM     23  C   UNL A   1      34.560  22.581  26.344  1.00  0.00     0.016 C 
ENDBRANCH  17  21
ENDBRANCH  11  13
ENDBRANCH   6  11
ENDBRANCH   3   5
ENDBRANCH   2   3
ENDBRANCH   1   2
BRANCH   1  24
ATOM     24  C   UNL A   1      34.545  33.827  31.449  1.00  0.00     0.275 C 
BRANCH  24  25
ATOM     25  O   UNL A   1      34.694  32.415  31.683  1.00  0.00    -0.458 OA
BRANCH  25  26
ATOM     26  C   UNL A   1      35.699  32.061  32.515  1.00  0.00     0.338 C 
ATOM     27  O   UNL A   1      35.812  32.349  33.695  1.00  0.00    -0.246 OA
BRANCH  26  28
ATOM     28  C   UNL A   1      36.700  31.240  31.800  1.00  0.00     0.060 A 
ATOM     29  C   UNL A   1      37.545  30.377  32.494  1.00  0.00     0.016 A 
ATOM     30  C   UNL A   1      36.893  31.444  30.434  1.00  0.00     0.016 A 
ATOM     31  C   UNL A   1      38.659  29.819  31.860  1.00  0.00     0.010 A 
ATOM     32  C   UNL A   1      37.951  30.807  29.777  1.00  0.00     0.010 A 
ATOM     33  C   UNL A   1      38.888  30.039  30.494  1.00  0.00    -0.014 A 
BRANCH  33  34
ATOM     34  C   UNL A   1      40.145  29.572  29.834  1.00  0.00     0.031 A 
ATOM     35  C   UNL A   1      41.317  30.519  29.702  1.00  0.00     0.074 A 
ATOM     36  C   UNL A   1      40.278  28.314  29.373  1.00  0.00     0.049 A 
ATOM     37  N   UNL A   1      42.415  30.387  28.998  1.00  0.00    -0.248 NA
ATOM     38  C   UNL A   1      41.232  31.789  30.443  1.00  0.00     0.031 C 
ATOM     39  C   UNL A   1      39.273  27.256  29.464  1.00  0.00     0.029 A 
ATOM     40  N   UNL A   1      41.339  27.706  28.742  1.00  0.00    -0.354 N 
ATOM     41  C   UNL A   1      43.102  31.587  29.142  1.00  0.00     0.074 A 
ATOM     42  C   UNL A   1      42.309  32.428  30.011  1.00  0.00     0.031 C 
ATOM     43  C   UNL A   1      39.782  26.118  28.964  1.00  0.00     0.029 A 
ATOM     44  C   UNL A   1      41.121  26.383  28.445  1.00  0.00     0.049 A 
ATOM     45  H   UNL A   1      42.177  28.176  28.525  1.00  0.00     0.167 HD
ATOM     46  C   UNL A   1      44.282  31.963  28.593  1.00  0.00     0.031 A 
ATOM     47  C   UNL A   1      41.894  25.486  27.804  1.00  0.00     0.031 A 
ATOM     48  C   UNL A   1      45.122  31.111  27.795  1.00  0.00     0.049 A 
ATOM     49  C   UNL A   1      43.223  25.907  27.247  1.00  0.00     0.074 A 
ATOM     50  C   UNL A   1      46.330  31.412  27.186  1.00  0.00     0.029 A 
ATOM     51  N   UNL A   1      44.860  29.779  27.529  1.00  0.00    -0.354 N 
ATOM     52  N   UNL A   1      43.807  27.079  27.300  1.00  0.00    -0.248 NA
ATOM     53  C   UNL A   1      43.992  24.881  26.524  1.00  0.00     0.031 C 
ATOM     54  C   UNL A   1      46.796  30.257  26.546  1.00  0.00     0.029 A 
ATOM     55  C   UNL A   1      45.892  29.237  26.782  1.00  0.00     0.049 A 
ATOM     56  H   UNL A   1      44.060  29.290  27.827  1.00  0.00     0.167 HD
ATOM     57  C   UNL A   1      45.010  26.932  26.620  1.00  0.00     0.074 A 
ATOM     58  C   UNL A   1      45.086  25.552  26.187  1.00  0.00     0.031 C 
ATOM     59  C   UNL A   1      45.960  27.863  26.365  1.00  0.00     0.031 A 
BRANCH  46  60
ATOM     60  C   UNL A   1      44.720  33.384  28.809  1.00  0.00    -0.014 A 
ATOM     61  C   UNL A   1      45.560  33.741  29.875  1.00  0.00     0.009 A 
ATOM     62  C   UNL A   1      44.299  34.377  27.910  1.00  0.00     0.009 A 
ATOM     63  C   UNL A   1      45.945  35.073  30.051  1.00  0.00     0.001 A 
ATOM     64  C   UNL A   1      44.704  35.701  28.075  1.00  0.00     0.001 A 
ATOM     65  C   UNL A   1      45.520  36.049  29.151  1.00  0.00     0.000 A 
ENDBRANCH  46  60
BRANCH  47  66
ATOM     66  C   UNL A   1      41.419  24.091  27.630  1.00  0.00    -0.014 A 
ATOM     67  C   UNL A   1      40.465  23.785  26.647  1.00  0.00     0.009 A 
ATOM     68  C   UNL A   1      41.912  23.061  28.445  1.00  0.00     0.009 A 
ATOM     69  C   UNL A   1      40.005  22.476  26.493  1.00  0.00     0.001 A 
ATOM     70  C   UNL A   1      41.468  21.749  28.272  1.00  0.00     0.001 A 
ATOM     71  C   UNL A   1      40.511  21.459  27.301  1.00  0.00     0.000 A 
ENDBRANCH  47  66
BRANCH  59  72
ATOM     72  C   UNL A   1      47.174  27.409  25.611  1.00  0.00    -0.014 A 
ATOM     73  C   UNL A   1      48.256  26.813  26.277  1.00  0.00     0.009 A 
ATOM     74  C   UNL A   1      47.228  27.562  24.218  1.00  0.00     0.009 A 
ATOM     75  C   UNL A   1      49.384  26.406  25.562  1.00  0.00     0.001 A 
ATOM     76  C   UNL A   1      48.350  27.140  23.505  1.00  0.00     0.001 A 
ATOM     77  C   UNL A   1      49.431  26.569  24.178  1.00  0.00     0.000 A 
ENDBRANCH  59  72
ENDBRANCH  33  34
ENDBRANCH  26  28
ENDBRANCH  25  26
ENDBRANCH  24  25
ENDBRANCH   1  24
TORSDOF 15
ENDMDL
MODEL 2
REMARK VINA RESULT:     -10.9      4.693      9.687
REMARK SMILES CCc1cc(Nc2ccc(C(=O)OCCOC(=O)c3ccc(-c4c5nc(c(-c6ccccc6)c6ccc([nH]6)c(-c6ccccc6)c6nc(c(-c7ccccc7)c7ccc4[nH]7)C=C6)C=C5)cc3)cc2)nc(C(C)C)n1
REMARK SMILES IDX 14 1 13 2 11 3 12 4 10 5 7 6 8 7 68 8 9 9 67 10 6 11 5 13
REMARK SMILES IDX 3 14 4 15 74 16 70 17 69 18 2 19 1 20 71 21 72 22 73 23
REMARK SMILES IDX 15 24 16 25 17 26 18 27 19 28 20 29 66 30 21 31 65 32 22 33
REMARK SMILES IDX 23 34 24 35 59 36 25 37 64 38 58 39 60 40 26 41 63 42 57 43
REMARK SMILES IDX 56 44 27 46 49 47 34 48 48 49 35 50 38 51 47 52 61 53 36 54
REMARK SMILES IDX 37 55 46 57 62 58 39 59 28 60 29 61 33 62 30 63 32 64 31 65
REMARK SMILES IDX 50 66 51 67 55 68 52 69 54 70 53 71 40 72 41 73 45 74 42 75
REMARK SMILES IDX 44 76 43 77
REMARK H PARENT 6 12 60 45 38 56
REMARK Flexibility Score: inf
ROOT
ATOM      1  C   UNL A   1      42.732  20.947  26.082  1.00  0.00     0.275 C 
ENDROOT
BRANCH   1   2
ATOM      2  O   UNL A   1      41.367  21.280  25.751  1.00  0.00    -0.458 OA
BRANCH   2   3
ATOM      3  C   UNL A   1      40.528  21.377  26.812  1.00  0.00     0.338 C 
ATOM      4  O   UNL A   1      40.763  21.050  27.962  1.00  0.00    -0.246 OA
BRANCH   3   5
ATOM      5  C   UNL A   1      39.258  22.021  26.413  1.00  0.00     0.060 A 
ATOM      6  C   UNL A   1      36.981  23.286  25.372  1.00  0.00     0.040 A 
ATOM      7  C   UNL A   1      37.307  21.989  24.973  1.00  0.00     0.027 A 
ATOM      8  C   UNL A   1      37.787  23.928  26.326  1.00  0.00     0.027 A 
ATOM      9  C   UNL A   1      38.452  21.371  25.469  1.00  0.00     0.018 A 
ATOM     10  C   UNL A   1      38.910  23.294  26.864  1.00  0.00     0.018 A 
BRANCH   6  11
ATOM     11  N   UNL A   1      35.991  23.992  24.655  1.00  0.00    -0.340 N 
ATOM     12  H   UNL A   1      36.181  24.241  23.722  1.00  0.00     0.168 HD
BRANCH  11  13
ATOM     13  C   UNL A   1      34.745  24.361  25.206  1.00  0.00     0.134 A 
ATOM     14  C   UNL A   1      33.245  26.007  25.983  1.00  0.00     0.046 A 
ATOM     15  C   UNL A   1      34.464  25.697  25.405  1.00  0.00     0.071 A 
ATOM     16  N   UNL A   1      32.345  25.057  26.302  1.00  0.00    -0.238 NA
ATOM     17  C   UNL A   1      32.688  23.781  26.057  1.00  0.00     0.133 A 
ATOM     18  N   UNL A   1      33.853  23.406  25.515  1.00  0.00    -0.216 NA
BRANCH  14  19
ATOM     19  C   UNL A   1      32.891  27.453  26.235  1.00  0.00     0.053 C 
ATOM     20  C   UNL A   1      33.822  28.453  25.562  1.00  0.00     0.011 C 
ENDBRANCH  14  19
BRANCH  17  21
ATOM     21  C   UNL A   1      31.698  22.681  26.364  1.00  0.00     0.051 C 
ATOM     22  C   UNL A   1      30.281  23.227  26.532  1.00  0.00     0.016 C 
ATOM     23  C   UNL A   1      31.755  21.600  25.288  1.00  0.00     0.016 C 
ENDBRANCH  17  21
ENDBRANCH  11  13
ENDBRANCH   6  11
ENDBRANCH   3   5
ENDBRANCH   2   3
ENDBRANCH   1   2
BRANCH   1  24
ATOM     24  C   UNL A   1      43.705  21.670  25.152  1.00  0.00     0.275 C 
BRANCH  24  25
ATOM     25  O   UNL A   1      43.116  22.898  24.688  1.00  0.00    -0.458 OA
BRANCH  25  26
ATOM     26  C   UNL A   1      43.846  24.016  24.897  1.00  0.00     0.338 C 
ATOM     27  O   UNL A   1      44.963  24.255  24.468  1.00  0.00    -0.246 OA
BRANCH  26  28
ATOM     28  C   UNL A   1      43.104  24.969  25.749  1.00  0.00     0.060 A 
ATOM     29  C   UNL A   1      43.334  26.341  25.657  1.00  0.00     0.016 A 
ATOM     30  C   UNL A   1      42.273  24.475  26.754  1.00  0.00     0.016 A 
ATOM     31  C   UNL A   1      42.843  27.205  26.639  1.00  0.00     0.010 A 
ATOM     32  C   UNL A   1      41.701  25.354  27.681  1.00  0.00     0.010 A 
ATOM     33  C   UNL A   1      42.032  26.722  27.677  1.00  0.00    -0.014 A 
BRANCH  33  34
ATOM     34  C   UNL A   1      41.619  27.603  28.811  1.00  0.00     0.031 A 
ATOM     35  C   UNL A   1      42.458  27.645  30.069  1.00  0.00     0.074 A 
ATOM     36  C   UNL A   1      40.527  28.388  28.738  1.00  0.00     0.049 A 
ATOM     37  N   UNL A   1      42.181  28.178  31.233  1.00  0.00    -0.248 NA
ATOM     38  C   UNL A   1      43.772  26.982  30.014  1.00  0.00     0.031 C 
ATOM     39  C   UNL A   1      39.636  28.513  27.585  1.00  0.00     0.029 A 
ATOM     40  N   UNL A   1      39.990  29.251  29.665  1.00  0.00    -0.354 N 
ATOM     41  C   UNL A   1      43.241  27.839  32.067  1.00  0.00     0.074 A 
ATOM     42  C   UNL A   1      44.173  27.069  31.273  1.00  0.00     0.031 C 
ATOM     43  C   UNL A   1      38.700  29.439  27.850  1.00  0.00     0.029 A 
ATOM     44  C   UNL A   1      38.875  29.918  29.217  1.00  0.00     0.049 A 
ATOM     45  H   UNL A   1      40.371  29.381  30.564  1.00  0.00     0.167 HD
ATOM     46  C   UNL A   1      43.420  28.130  33.378  1.00  0.00     0.031 A 
ATOM     47  C   UNL A   1      38.066  30.795  29.841  1.00  0.00     0.031 A 
ATOM     48  C   UNL A   1      42.545  28.962  34.159  1.00  0.00     0.049 A 
ATOM     49  C   UNL A   1      38.310  31.147  31.280  1.00  0.00     0.074 A 
ATOM     50  C   UNL A   1      42.641  29.302  35.498  1.00  0.00     0.029 A 
ATOM     51  N   UNL A   1      41.434  29.618  33.658  1.00  0.00    -0.354 N 
ATOM     52  N   UNL A   1      39.257  30.729  32.083  1.00  0.00    -0.248 NA
ATOM     53  C   UNL A   1      37.359  32.081  31.903  1.00  0.00     0.031 C 
ATOM     54  C   UNL A   1      41.582  30.163  35.809  1.00  0.00     0.029 A 
ATOM     55  C   UNL A   1      40.847  30.377  34.656  1.00  0.00     0.049 A 
ATOM     56  H   UNL A   1      41.110  29.555  32.731  1.00  0.00     0.167 HD
ATOM     57  C   UNL A   1      39.018  31.348  33.303  1.00  0.00     0.074 A 
ATOM     58  C   UNL A   1      37.853  32.190  33.129  1.00  0.00     0.031 C 
ATOM     59  C   UNL A   1      39.695  31.216  34.468  1.00  0.00     0.031 A 
BRANCH  46  60
ATOM     60  C   UNL A   1      44.601  27.507  34.066  1.00  0.00    -0.014 A 
ATOM     61  C   UNL A   1      44.523  26.236  34.654  1.00  0.00     0.009 A 
ATOM     62  C   UNL A   1      45.821  28.202  34.102  1.00  0.00     0.009 A 
ATOM     63  C   UNL A   1      45.639  25.686  35.291  1.00  0.00     0.001 A 
ATOM     64  C   UNL A   1      46.939  27.641  34.718  1.00  0.00     0.001 A 
ATOM     65  C   UNL A   1      46.845  26.386  35.319  1.00  0.00     0.000 A 
ENDBRANCH  46  60
BRANCH  47  66
ATOM     66  C   UNL A   1      36.920  31.392  29.109  1.00  0.00    -0.014 A 
ATOM     67  C   UNL A   1      36.987  32.715  28.647  1.00  0.00     0.009 A 
ATOM     68  C   UNL A   1      35.756  30.645  28.874  1.00  0.00     0.009 A 
ATOM     69  C   UNL A   1      35.903  33.282  27.973  1.00  0.00     0.001 A 
ATOM     70  C   UNL A   1      34.684  31.207  28.179  1.00  0.00     0.001 A 
ATOM     71  C   UNL A   1      34.756  32.527  27.735  1.00  0.00     0.000 A 
ENDBRANCH  47  66
BRANCH  59  72
ATOM     72  C   UNL A   1      39.210  32.027  35.633  1.00  0.00    -0.014 A 
ATOM     73  C   UNL A   1      39.666  33.338  35.839  1.00  0.00     0.009 A 
ATOM     74  C   UNL A   1      38.274  31.480  36.523  1.00  0.00     0.009 A 
ATOM     75  C   UNL A   1      39.214  34.076  36.934  1.00  0.00     0.001 A 
ATOM     76  C   UNL A   1      37.813  32.226  37.608  1.00  0.00     0.001 A 
ATOM     77  C   UNL A   1      38.288  33.521  37.817  1.00  0.00     0.000 A 
ENDBRANCH  59  72
ENDBRANCH  33  34
ENDBRANCH  26  28
ENDBRANCH  25  26
ENDBRANCH  24  25
ENDBRANCH   1  24
TORSDOF 15
ENDMDL
MODEL 3
REMARK VINA RESULT:     -10.6      0.942      2.030
REMARK SMILES CCc1cc(Nc2ccc(C(=O)OCCOC(=O)c3ccc(-c4c5nc(c(-c6ccccc6)c6ccc([nH]6)c(-c6ccccc6)c6nc(c(-c7ccccc7)c7ccc4[nH]7)C=C6)C=C5)cc3)cc2)nc(C(C)C)n1
REMARK SMILES IDX 14 1 13 2 11 3 12 4 10 5 7 6 8 7 68 8 9 9 67 10 6 11 5 13
REMARK SMILES IDX 3 14 4 15 74 16 70 17 69 18 2 19 1 20 71 21 72 22 73 23
REMARK SMILES IDX 15 24 16 25 17 26 18 27 19 28 20 29 66 30 21 31 65 32 22 33
REMARK SMILES IDX 23 34 24 35 59 36 25 37 64 38 58 39 60 40 26 41 63 42 57 43
REMARK SMILES IDX 56 44 27 46 49 47 34 48 48 49 35 50 38 51 47 52 61 53 36 54
REMARK SMILES IDX 37 55 46 57 62 58 39 59 28 60 29 61 33 62 30 63 32 64 31 65
REMARK SMILES IDX 50 66 51 67 55 68 52 69 54 70 53 71 40 72 41 73 45 74 42 75
REMARK SMILES IDX 44 76 43 77
REMARK H PARENT 6 12 60 45 38 56
REMARK Flexibility Score: inf
ROOT
ATOM      1  C   UNL A   1      34.404  34.155  30.065  1.00  0.00     0.275 C 
ENDROOT
BRANCH   1   2
ATOM      2  O   UNL A   1      33.980  32.954  29.388  1.00  0.00    -0.458 OA
BRANCH   2   3
ATOM      3  C   UNL A   1      34.543  32.752  28.171  1.00  0.00     0.338 C 
ATOM      4  O   UNL A   1      35.284  33.514  27.573  1.00  0.00    -0.246 OA
BRANCH   3   5
ATOM      5  C   UNL A   1      34.198  31.411  27.654  1.00  0.00     0.060 A 
ATOM      6  C   UNL A   1      33.388  28.821  26.943  1.00  0.00     0.040 A 
ATOM      7  C   UNL A   1      32.464  29.868  26.951  1.00  0.00     0.027 A 
ATOM      8  C   UNL A   1      34.729  29.093  27.258  1.00  0.00     0.027 A 
ATOM      9  C   UNL A   1      32.862  31.148  27.330  1.00  0.00     0.018 A 
ATOM     10  C   UNL A   1      35.142  30.386  27.592  1.00  0.00     0.018 A 
BRANCH   6  11
ATOM     11  N   UNL A   1      32.916  27.496  26.834  1.00  0.00    -0.340 N 
ATOM     12  H   UNL A   1      32.819  26.967  27.658  1.00  0.00     0.168 HD
BRANCH  11  13
ATOM     13  C   UNL A   1      32.577  26.889  25.606  1.00  0.00     0.134 A 
ATOM     14  C   UNL A   1      32.862  25.176  24.010  1.00  0.00     0.046 A 
ATOM     15  C   UNL A   1      33.199  25.712  25.240  1.00  0.00     0.071 A 
ATOM     16  N   UNL A   1      31.936  25.744  23.213  1.00  0.00    -0.238 NA
ATOM     17  C   UNL A   1      31.362  26.876  23.652  1.00  0.00     0.133 A 
ATOM     18  N   UNL A   1      31.649  27.460  24.822  1.00  0.00    -0.216 NA
BRANCH  14  19
ATOM     19  C   UNL A   1      33.522  23.896  23.554  1.00  0.00     0.053 C 
ATOM     20  C   UNL A   1      33.299  23.563  22.085  1.00  0.00     0.011 C 
ENDBRANCH  14  19
BRANCH  17  21
ATOM     21  C   UNL A   1      30.292  27.533  22.810  1.00  0.00     0.051 C 
ATOM     22  C   UNL A   1      28.919  27.446  23.474  1.00  0.00     0.016 C 
ATOM     23  C   UNL A   1      30.672  28.979  22.503  1.00  0.00     0.016 C 
ENDBRANCH  17  21
ENDBRANCH  11  13
ENDBRANCH   6  11
ENDBRANCH   3   5
ENDBRANCH   2   3
ENDBRANCH   1   2
BRANCH   1  24
ATOM     24  C   UNL A   1      34.424  33.945  31.579  1.00  0.00     0.275 C 
BRANCH  24  25
ATOM     25  O   UNL A   1      34.646  32.554  31.875  1.00  0.00    -0.458 OA
BRANCH  25  26
ATOM     26  C   UNL A   1      35.681  32.288  32.702  1.00  0.00     0.338 C 
ATOM     27  O   UNL A   1      35.817  32.666  33.854  1.00  0.00    -0.246 OA
BRANCH  26  28
ATOM     28  C   UNL A   1      36.686  31.443  32.021  1.00  0.00     0.060 A 
ATOM     29  C   UNL A   1      37.661  30.765  32.749  1.00  0.00     0.016 A 
ATOM     30  C   UNL A   1      36.742  31.446  30.628  1.00  0.00     0.016 A 
ATOM     31  C   UNL A   1      38.761  30.200  32.098  1.00  0.00     0.010 A 
ATOM     32  C   UNL A   1      37.792  30.795  29.972  1.00  0.00     0.010 A 
ATOM     33  C   UNL A   1      38.852  30.221  30.698  1.00  0.00    -0.014 A 
BRANCH  33  34
ATOM     34  C   UNL A   1      40.084  29.752  29.994  1.00  0.00     0.031 A 
ATOM     35  C   UNL A   1      41.263  30.687  29.849  1.00  0.00     0.074 A 
ATOM     36  C   UNL A   1      40.188  28.502  29.504  1.00  0.00     0.049 A 
ATOM     37  N   UNL A   1      42.339  30.556  29.112  1.00  0.00    -0.248 NA
ATOM     38  C   UNL A   1      41.216  31.942  30.618  1.00  0.00     0.031 C 
ATOM     39  C   UNL A   1      39.171  27.455  29.602  1.00  0.00     0.029 A 
ATOM     40  N   UNL A   1      41.223  27.895  28.832  1.00  0.00    -0.354 N 
ATOM     41  C   UNL A   1      43.046  31.745  29.260  1.00  0.00     0.074 A 
ATOM     42  C   UNL A   1      42.288  32.577  30.168  1.00  0.00     0.031 C 
ATOM     43  C   UNL A   1      39.652  26.322  29.065  1.00  0.00     0.029 A 
ATOM     44  C   UNL A   1      40.979  26.580  28.514  1.00  0.00     0.049 A 
ATOM     45  H   UNL A   1      42.060  28.358  28.601  1.00  0.00     0.167 HD
ATOM     46  C   UNL A   1      44.215  32.117  28.686  1.00  0.00     0.031 A 
ATOM     47  C   UNL A   1      41.723  25.688  27.834  1.00  0.00     0.031 A 
ATOM     48  C   UNL A   1      45.021  31.272  27.848  1.00  0.00     0.049 A 
ATOM     49  C   UNL A   1      43.041  26.104  27.248  1.00  0.00     0.074 A 
ATOM     50  C   UNL A   1      46.215  31.570  27.212  1.00  0.00     0.029 A 
ATOM     51  N   UNL A   1      44.735  29.949  27.562  1.00  0.00    -0.354 N 
ATOM     52  N   UNL A   1      43.642  27.267  27.308  1.00  0.00    -0.248 NA
ATOM     53  C   UNL A   1      43.777  25.083  26.484  1.00  0.00     0.031 C 
ATOM     54  C   UNL A   1      46.649  30.423  26.536  1.00  0.00     0.029 A 
ATOM     55  C   UNL A   1      45.739  29.409  26.776  1.00  0.00     0.049 A 
ATOM     56  H   UNL A   1      43.937  29.463  27.873  1.00  0.00     0.167 HD
ATOM     57  C   UNL A   1      44.823  27.119  26.593  1.00  0.00     0.074 A 
ATOM     58  C   UNL A   1      44.869  25.748  26.130  1.00  0.00     0.031 C 
ATOM     59  C   UNL A   1      45.777  28.043  26.329  1.00  0.00     0.031 A 
BRANCH  46  60
ATOM     60  C   UNL A   1      44.677  33.528  28.919  1.00  0.00    -0.014 A 
ATOM     61  C   UNL A   1      45.544  33.854  29.973  1.00  0.00     0.009 A 
ATOM     62  C   UNL A   1      44.251  34.543  28.047  1.00  0.00     0.009 A 
ATOM     63  C   UNL A   1      45.951  35.177  30.165  1.00  0.00     0.001 A 
ATOM     64  C   UNL A   1      44.678  35.858  28.228  1.00  0.00     0.001 A 
ATOM     65  C   UNL A   1      45.521  36.175  29.291  1.00  0.00     0.000 A 
ENDBRANCH  46  60
BRANCH  47  66
ATOM     66  C   UNL A   1      41.225  24.302  27.644  1.00  0.00    -0.014 A 
ATOM     67  C   UNL A   1      41.796  23.240  28.362  1.00  0.00     0.009 A 
ATOM     68  C   UNL A   1      40.181  24.035  26.745  1.00  0.00     0.009 A 
ATOM     69  C   UNL A   1      41.338  21.934  28.172  1.00  0.00     0.001 A 
ATOM     70  C   UNL A   1      39.710  22.732  26.576  1.00  0.00     0.001 A 
ATOM     71  C   UNL A   1      40.293  21.682  27.284  1.00  0.00     0.000 A 
ENDBRANCH  47  66
BRANCH  59  72
ATOM     72  C   UNL A   1      46.964  27.590  25.533  1.00  0.00    -0.014 A 
ATOM     73  C   UNL A   1      47.014  27.775  24.143  1.00  0.00     0.009 A 
ATOM     74  C   UNL A   1      48.052  26.989  26.183  1.00  0.00     0.009 A 
ATOM     75  C   UNL A   1      48.121  27.338  23.414  1.00  0.00     0.001 A 
ATOM     76  C   UNL A   1      49.164  26.568  25.454  1.00  0.00     0.001 A 
ATOM     77  C   UNL A   1      49.195  26.735  24.069  1.00  0.00     0.000 A 
ENDBRANCH  59  72
ENDBRANCH  33  34
ENDBRANCH  26  28
ENDBRANCH  25  26
ENDBRANCH  24  25
ENDBRANCH   1  24
TORSDOF 15
ENDMDL
