MODEL 1
REMARK VINA RESULT:     -11.5      0.000      0.000
REMARK SMILES CCOC(=O)c1c(NC(=O)c2ncccc2C(=O)OCCOC(=O)c2ccc(-c3c4nc(c(-c5ccccc5)c5ccc([nH]5)c(-c5ccccc5)c5nc(c(-c6ccccc6)c6ccc3[nH]6)C=C5)C=C4)cc2)sc2c1CC[C@H](C)C2
REMARK SMILES IDX 19 1 17 2 18 3 16 4 11 5 12 6 13 7 15 8 14 9 9 10 8 11 10 13
REMARK SMILES IDX 7 14 6 15 75 16 73 17 74 18 76 19 80 20 77 21 78 22 79 23
REMARK SMILES IDX 4 24 5 25 3 26 2 27 1 28 20 29 21 30 22 31 23 32 24 33 25 34
REMARK SMILES IDX 26 35 72 36 27 37 71 38 28 39 29 40 30 41 65 42 31 43 70 44
REMARK SMILES IDX 64 45 66 46 32 47 69 48 63 49 62 50 33 52 55 53 40 54 54 55
REMARK SMILES IDX 41 56 44 57 53 58 67 59 42 60 43 61 52 63 68 64 45 65 34 66
REMARK SMILES IDX 35 67 39 68 36 69 38 70 37 71 56 72 57 73 61 74 58 75 60 76
REMARK SMILES IDX 59 77 46 78 47 79 51 80 48 81 50 82 49 83
REMARK H PARENT 8 12 66 51 44 62
REMARK Flexibility Score: inf
ROOT
ATOM      1  O   UNL A   1      35.670  21.646  24.318  1.00  0.00    -0.458 OA
ENDROOT
BRANCH   1   2
ATOM      2  C   UNL A   1      35.001  22.631  24.972  1.00  0.00     0.340 C 
ATOM      3  O   UNL A   1      35.442  23.359  25.848  1.00  0.00    -0.246 OA
BRANCH   2   4
ATOM      4  C   UNL A   1      33.574  22.593  24.646  1.00  0.00     0.091 A 
ATOM      5  C   UNL A   1      32.897  23.556  23.907  1.00  0.00     0.142 A 
ATOM      6  N   UNL A   1      31.565  23.810  24.111  1.00  0.00    -0.250 NA
ATOM      7  C   UNL A   1      30.909  23.069  25.025  1.00  0.00     0.112 A 
ATOM      8  C   UNL A   1      32.825  21.740  25.467  1.00  0.00     0.020 A 
ATOM      9  C   UNL A   1      31.472  21.980  25.659  1.00  0.00     0.021 A 
BRANCH   5  10
ATOM     10  C   UNL A   1      33.454  24.471  22.877  1.00  0.00     0.275 C 
ATOM     11  N   UNL A   1      33.693  25.823  23.073  1.00  0.00    -0.311 N 
ATOM     12  H   UNL A   1      34.458  26.182  22.567  1.00  0.00     0.171 HD
ATOM     13  O   UNL A   1      33.878  23.972  21.827  1.00  0.00    -0.267 OA
BRANCH  11  14
ATOM     14  C   UNL A   1      33.044  26.747  23.857  1.00  0.00     0.110 A 
ATOM     15  C   UNL A   1      31.970  27.619  23.816  1.00  0.00     0.098 A 
ATOM     16  C   UNL A   1      32.186  28.691  24.783  1.00  0.00    -0.017 A 
ATOM     17  S   UNL A   1      33.760  26.842  25.405  1.00  0.00    -0.122 S 
ATOM     18  C   UNL A   1      33.379  28.486  25.444  1.00  0.00     0.011 A 
ATOM     19  C   UNL A   1      31.333  29.873  25.157  1.00  0.00     0.038 C 
ATOM     20  C   UNL A   1      34.075  29.498  26.266  1.00  0.00     0.050 C 
ATOM     21  C   UNL A   1      32.023  30.864  26.153  1.00  0.00     0.008 C 
ATOM     22  C   UNL A   1      33.033  30.204  27.128  1.00  0.00    -0.009 C 
ATOM     23  C   UNL A   1      33.709  31.211  28.057  1.00  0.00     0.008 C 
BRANCH  15  24
ATOM     24  C   UNL A   1      30.831  27.398  22.956  1.00  0.00     0.341 C 
ATOM     25  O   UNL A   1      30.914  26.976  21.805  1.00  0.00    -0.246 OA
BRANCH  24  26
ATOM     26  O   UNL A   1      29.687  27.734  23.604  1.00  0.00    -0.462 OA
BRANCH  26  27
ATOM     27  C   UNL A   1      28.620  28.378  22.908  1.00  0.00     0.230 C 
ATOM     28  C   UNL A   1      28.934  29.782  22.452  1.00  0.00     0.049 C 
ENDBRANCH  26  27
ENDBRANCH  24  26
ENDBRANCH  15  24
ENDBRANCH  11  14
ENDBRANCH   5  10
ENDBRANCH   2   4
ENDBRANCH   1   2
BRANCH   1  29
ATOM     29  C   UNL A   1      36.327  20.672  25.162  1.00  0.00     0.275 C 
BRANCH  29  30
ATOM     30  C   UNL A   1      37.781  20.456  24.742  1.00  0.00     0.275 C 
BRANCH  30  31
ATOM     31  O   UNL A   1      38.779  20.953  25.654  1.00  0.00    -0.458 OA
BRANCH  31  32
ATOM     32  C   UNL A   1      39.874  20.172  25.744  1.00  0.00     0.338 C 
ATOM     33  O   UNL A   1      39.901  18.960  25.641  1.00  0.00    -0.246 OA
BRANCH  32  34
ATOM     34  C   UNL A   1      41.015  20.820  26.395  1.00  0.00     0.060 A 
ATOM     35  C   UNL A   1      40.862  20.998  27.775  1.00  0.00     0.016 A 
ATOM     36  C   UNL A   1      41.831  21.658  25.636  1.00  0.00     0.016 A 
ATOM     37  C   UNL A   1      41.259  22.197  28.327  1.00  0.00     0.010 A 
ATOM     38  C   UNL A   1      42.295  22.822  26.216  1.00  0.00     0.010 A 
ATOM     39  C   UNL A   1      41.903  23.147  27.518  1.00  0.00    -0.014 A 
BRANCH  39  40
ATOM     40  C   UNL A   1      42.401  24.369  28.154  1.00  0.00     0.031 A 
ATOM     41  C   UNL A   1      41.475  25.519  27.928  1.00  0.00     0.074 A 
ATOM     42  C   UNL A   1      43.446  24.363  29.012  1.00  0.00     0.049 A 
ATOM     43  N   UNL A   1      41.784  26.735  27.616  1.00  0.00    -0.248 NA
ATOM     44  C   UNL A   1      40.022  25.230  27.833  1.00  0.00     0.031 C 
ATOM     45  C   UNL A   1      44.369  23.281  29.319  1.00  0.00     0.029 A 
ATOM     46  N   UNL A   1      43.813  25.270  29.949  1.00  0.00    -0.354 N 
ATOM     47  C   UNL A   1      40.566  27.393  27.469  1.00  0.00     0.074 A 
ATOM     48  C   UNL A   1      39.545  26.388  27.391  1.00  0.00     0.031 C 
ATOM     49  C   UNL A   1      44.867  23.407  30.565  1.00  0.00     0.029 A 
ATOM     50  C   UNL A   1      44.464  24.708  31.047  1.00  0.00     0.049 A 
ATOM     51  H   UNL A   1      43.636  26.235  29.863  1.00  0.00     0.167 HD
ATOM     52  C   UNL A   1      40.435  28.716  27.738  1.00  0.00     0.031 A 
ATOM     53  C   UNL A   1      44.660  25.248  32.275  1.00  0.00     0.031 A 
ATOM     54  C   UNL A   1      41.686  29.410  27.624  1.00  0.00     0.049 A 
ATOM     55  C   UNL A   1      44.411  26.698  32.135  1.00  0.00     0.074 A 
ATOM     56  C   UNL A   1      42.547  29.659  26.575  1.00  0.00     0.029 A 
ATOM     57  N   UNL A   1      42.413  29.599  28.773  1.00  0.00    -0.354 N 
ATOM     58  N   UNL A   1      45.184  27.476  31.429  1.00  0.00    -0.248 NA
ATOM     59  C   UNL A   1      43.041  27.157  32.305  1.00  0.00     0.031 C 
ATOM     60  C   UNL A   1      43.851  29.528  27.131  1.00  0.00     0.029 A 
ATOM     61  C   UNL A   1      43.724  29.294  28.501  1.00  0.00     0.049 A 
ATOM     62  H   UNL A   1      42.058  29.902  29.640  1.00  0.00     0.167 HD
ATOM     63  C   UNL A   1      44.311  28.274  30.704  1.00  0.00     0.074 A 
ATOM     64  C   UNL A   1      43.003  28.078  31.335  1.00  0.00     0.031 C 
ATOM     65  C   UNL A   1      44.654  28.765  29.476  1.00  0.00     0.031 A 
BRANCH  52  66
ATOM     66  C   UNL A   1      39.258  29.236  28.521  1.00  0.00    -0.014 A 
ATOM     67  C   UNL A   1      39.127  28.884  29.871  1.00  0.00     0.009 A 
ATOM     68  C   UNL A   1      38.136  29.841  27.912  1.00  0.00     0.009 A 
ATOM     69  C   UNL A   1      37.921  29.079  30.554  1.00  0.00     0.001 A 
ATOM     70  C   UNL A   1      36.944  30.073  28.599  1.00  0.00     0.001 A 
ATOM     71  C   UNL A   1      36.829  29.667  29.917  1.00  0.00     0.000 A 
ENDBRANCH  52  66
BRANCH  53  72
ATOM     72  C   UNL A   1      44.686  24.536  33.577  1.00  0.00    -0.014 A 
ATOM     73  C   UNL A   1      43.625  23.711  33.977  1.00  0.00     0.009 A 
ATOM     74  C   UNL A   1      45.877  24.473  34.330  1.00  0.00     0.009 A 
ATOM     75  C   UNL A   1      43.762  22.836  35.067  1.00  0.00     0.001 A 
ATOM     76  C   UNL A   1      46.015  23.601  35.416  1.00  0.00     0.001 A 
ATOM     77  C   UNL A   1      44.960  22.771  35.777  1.00  0.00     0.000 A 
ENDBRANCH  53  72
BRANCH  65  78
ATOM     78  C   UNL A   1      46.072  28.542  28.993  1.00  0.00    -0.014 A 
ATOM     79  C   UNL A   1      47.149  29.388  29.322  1.00  0.00     0.009 A 
ATOM     80  C   UNL A   1      46.358  27.338  28.335  1.00  0.00     0.009 A 
ATOM     81  C   UNL A   1      48.466  29.044  28.982  1.00  0.00     0.001 A 
ATOM     82  C   UNL A   1      47.671  26.987  28.013  1.00  0.00     0.001 A 
ATOM     83  C   UNL A   1      48.724  27.839  28.332  1.00  0.00     0.000 A 
ENDBRANCH  65  78
ENDBRANCH  39  40
ENDBRANCH  32  34
ENDBRANCH  31  32
ENDBRANCH  30  31
ENDBRANCH  29  30
ENDBRANCH   1  29
TORSDOF 16
ENDMDL
MODEL 2
REMARK VINA RESULT:     -11.3      3.867      8.006
REMARK SMILES CCOC(=O)c1c(NC(=O)c2ncccc2C(=O)OCCOC(=O)c2ccc(-c3c4nc(c(-c5ccccc5)c5ccc([nH]5)c(-c5ccccc5)c5nc(c(-c6ccccc6)c6ccc3[nH]6)C=C5)C=C4)cc2)sc2c1CC[C@H](C)C2
REMARK SMILES IDX 19 1 17 2 18 3 16 4 11 5 12 6 13 7 15 8 14 9 9 10 8 11 10 13
REMARK SMILES IDX 7 14 6 15 75 16 73 17 74 18 76 19 80 20 77 21 78 22 79 23
REMARK SMILES IDX 4 24 5 25 3 26 2 27 1 28 20 29 21 30 22 31 23 32 24 33 25 34
REMARK SMILES IDX 26 35 72 36 27 37 71 38 28 39 29 40 30 41 65 42 31 43 70 44
REMARK SMILES IDX 64 45 66 46 32 47 69 48 63 49 62 50 33 52 55 53 40 54 54 55
REMARK SMILES IDX 41 56 44 57 53 58 67 59 42 60 43 61 52 63 68 64 45 65 34 66
REMARK SMILES IDX 35 67 39 68 36 69 38 70 37 71 56 72 57 73 61 74 58 75 60 76
REMARK SMILES IDX 59 77 46 78 47 79 51 80 48 81 50 82 49 83
REMARK H PARENT 8 12 66 51 44 62
REMARK Flexibility Score: inf
ROOT
ATOM      1  O   UNL A   1      36.491  22.687  25.655  1.00  0.00    -0.458 OA
ENDROOT
BRANCH   1   2
ATOM      2  C   UNL A   1      36.100  22.708  24.354  1.00  0.00     0.340 C 
ATOM      3  O   UNL A   1      36.528  23.436  23.472  1.00  0.00    -0.246 OA
BRANCH   2   4
ATOM      4  C   UNL A   1      34.916  21.868  24.156  1.00  0.00     0.091 A 
ATOM      5  C   UNL A   1      33.716  22.296  23.603  1.00  0.00     0.142 A 
ATOM      6  N   UNL A   1      32.520  21.725  23.956  1.00  0.00    -0.250 NA
ATOM      7  C   UNL A   1      32.539  20.699  24.831  1.00  0.00     0.112 A 
ATOM      8  C   UNL A   1      34.910  20.702  24.933  1.00  0.00     0.020 A 
ATOM      9  C   UNL A   1      33.704  20.107  25.275  1.00  0.00     0.021 A 
BRANCH   5  10
ATOM     10  C   UNL A   1      33.501  23.412  22.646  1.00  0.00     0.275 C 
ATOM     11  N   UNL A   1      33.504  24.755  22.989  1.00  0.00    -0.311 N 
ATOM     12  H   UNL A   1      33.837  25.357  22.285  1.00  0.00     0.171 HD
ATOM     13  O   UNL A   1      33.471  23.141  21.438  1.00  0.00    -0.267 OA
BRANCH  11  14
ATOM     14  C   UNL A   1      33.123  25.388  24.148  1.00  0.00     0.110 A 
ATOM     15  C   UNL A   1      31.993  25.646  24.905  1.00  0.00     0.098 A 
ATOM     16  C   UNL A   1      32.222  26.838  25.717  1.00  0.00    -0.017 A 
ATOM     17  S   UNL A   1      34.477  26.053  24.951  1.00  0.00    -0.122 S 
ATOM     18  C   UNL A   1      33.495  27.316  25.489  1.00  0.00     0.011 A 
ATOM     19  C   UNL A   1      31.344  27.535  26.720  1.00  0.00     0.038 C 
ATOM     20  C   UNL A   1      33.980  28.654  25.890  1.00  0.00     0.050 C 
ATOM     21  C   UNL A   1      31.939  28.879  27.258  1.00  0.00     0.008 C 
ATOM     22  C   UNL A   1      33.488  28.928  27.308  1.00  0.00    -0.009 C 
ATOM     23  C   UNL A   1      34.025  30.269  27.805  1.00  0.00     0.008 C 
BRANCH  15  24
ATOM     24  C   UNL A   1      30.832  24.788  24.873  1.00  0.00     0.341 C 
ATOM     25  O   UNL A   1      30.321  24.367  23.837  1.00  0.00    -0.246 OA
BRANCH  24  26
ATOM     26  O   UNL A   1      30.403  24.538  26.136  1.00  0.00    -0.462 OA
BRANCH  26  27
ATOM     27  C   UNL A   1      30.621  23.262  26.738  1.00  0.00     0.230 C 
ATOM     28  C   UNL A   1      31.991  23.085  27.342  1.00  0.00     0.049 C 
ENDBRANCH  26  27
ENDBRANCH  24  26
ENDBRANCH  15  24
ENDBRANCH  11  14
ENDBRANCH   5  10
ENDBRANCH   2   4
ENDBRANCH   1   2
BRANCH   1  29
ATOM     29  C   UNL A   1      37.259  23.831  26.094  1.00  0.00     0.275 C 
BRANCH  29  30
ATOM     30  C   UNL A   1      38.730  23.473  26.304  1.00  0.00     0.275 C 
BRANCH  30  31
ATOM     31  O   UNL A   1      39.314  23.916  27.543  1.00  0.00    -0.458 OA
BRANCH  31  32
ATOM     32  C   UNL A   1      39.852  25.151  27.484  1.00  0.00     0.338 C 
ATOM     33  O   UNL A   1      40.996  25.420  27.166  1.00  0.00    -0.246 OA
BRANCH  32  34
ATOM     34  C   UNL A   1      39.102  26.163  28.230  1.00  0.00     0.060 A 
ATOM     35  C   UNL A   1      38.957  27.382  27.556  1.00  0.00     0.016 A 
ATOM     36  C   UNL A   1      39.085  26.092  29.622  1.00  0.00     0.016 A 
ATOM     37  C   UNL A   1      39.124  28.548  28.271  1.00  0.00     0.010 A 
ATOM     38  C   UNL A   1      39.172  27.269  30.340  1.00  0.00     0.010 A 
ATOM     39  C   UNL A   1      39.318  28.482  29.659  1.00  0.00    -0.014 A 
BRANCH  39  40
ATOM     40  C   UNL A   1      39.394  29.740  30.405  1.00  0.00     0.031 A 
ATOM     41  C   UNL A   1      40.761  30.338  30.331  1.00  0.00     0.074 A 
ATOM     42  C   UNL A   1      38.295  30.358  30.893  1.00  0.00     0.049 A 
ATOM     43  N   UNL A   1      41.444  30.875  31.289  1.00  0.00    -0.248 NA
ATOM     44  C   UNL A   1      41.543  30.124  29.088  1.00  0.00     0.031 C 
ATOM     45  C   UNL A   1      36.928  29.867  30.967  1.00  0.00     0.029 A 
ATOM     46  N   UNL A   1      38.112  31.648  31.267  1.00  0.00    -0.354 N 
ATOM     47  C   UNL A   1      42.662  31.225  30.715  1.00  0.00     0.074 A 
ATOM     48  C   UNL A   1      42.748  30.548  29.452  1.00  0.00     0.031 C 
ATOM     49  C   UNL A   1      36.044  30.884  30.943  1.00  0.00     0.029 A 
ATOM     50  C   UNL A   1      36.806  32.103  31.080  1.00  0.00     0.049 A 
ATOM     51  H   UNL A   1      38.832  32.210  31.634  1.00  0.00     0.167 HD
ATOM     52  C   UNL A   1      43.380  32.288  31.158  1.00  0.00     0.031 A 
ATOM     53  C   UNL A   1      36.362  33.383  31.029  1.00  0.00     0.031 A 
ATOM     54  C   UNL A   1      43.068  32.609  32.521  1.00  0.00     0.049 A 
ATOM     55  C   UNL A   1      37.440  34.220  31.599  1.00  0.00     0.074 A 
ATOM     56  C   UNL A   1      43.225  31.942  33.719  1.00  0.00     0.029 A 
ATOM     57  N   UNL A   1      42.129  33.586  32.744  1.00  0.00    -0.354 N 
ATOM     58  N   UNL A   1      37.782  34.158  32.856  1.00  0.00    -0.248 NA
ATOM     59  C   UNL A   1      38.471  34.688  30.686  1.00  0.00     0.031 C 
ATOM     60  C   UNL A   1      42.049  32.242  34.463  1.00  0.00     0.029 A 
ATOM     61  C   UNL A   1      41.278  33.140  33.725  1.00  0.00     0.049 A 
ATOM     62  H   UNL A   1      42.076  34.454  32.282  1.00  0.00     0.167 HD
ATOM     63  C   UNL A   1      39.169  34.147  32.841  1.00  0.00     0.074 A 
ATOM     64  C   UNL A   1      39.539  34.542  31.479  1.00  0.00     0.031 C 
ATOM     65  C   UNL A   1      39.883  33.515  33.821  1.00  0.00     0.031 A 
BRANCH  52  66
ATOM     66  C   UNL A   1      44.008  33.257  30.192  1.00  0.00    -0.014 A 
ATOM     67  C   UNL A   1      45.328  33.673  30.404  1.00  0.00     0.009 A 
ATOM     68  C   UNL A   1      43.262  33.978  29.233  1.00  0.00     0.009 A 
ATOM     69  C   UNL A   1      45.852  34.784  29.731  1.00  0.00     0.001 A 
ATOM     70  C   UNL A   1      43.792  35.061  28.530  1.00  0.00     0.001 A 
ATOM     71  C   UNL A   1      45.083  35.480  28.800  1.00  0.00     0.000 A 
ENDBRANCH  52  66
BRANCH  53  72
ATOM     72  C   UNL A   1      35.252  33.918  30.203  1.00  0.00    -0.014 A 
ATOM     73  C   UNL A   1      34.195  34.637  30.781  1.00  0.00     0.009 A 
ATOM     74  C   UNL A   1      35.354  33.933  28.796  1.00  0.00     0.009 A 
ATOM     75  C   UNL A   1      33.297  35.366  29.984  1.00  0.00     0.001 A 
ATOM     76  C   UNL A   1      34.460  34.660  28.001  1.00  0.00     0.001 A 
ATOM     77  C   UNL A   1      33.438  35.390  28.597  1.00  0.00     0.000 A 
ENDBRANCH  53  72
BRANCH  65  78
ATOM     78  C   UNL A   1      39.123  32.958  35.006  1.00  0.00    -0.014 A 
ATOM     79  C   UNL A   1      38.687  31.622  35.093  1.00  0.00     0.009 A 
ATOM     80  C   UNL A   1      39.004  33.765  36.147  1.00  0.00     0.009 A 
ATOM     81  C   UNL A   1      38.132  31.120  36.280  1.00  0.00     0.001 A 
ATOM     82  C   UNL A   1      38.470  33.260  37.334  1.00  0.00     0.001 A 
ATOM     83  C   UNL A   1      38.030  31.941  37.401  1.00  0.00     0.000 A 
ENDBRANCH  65  78
ENDBRANCH  39  40
ENDBRANCH  32  34
ENDBRANCH  31  32
ENDBRANCH  30  31
ENDBRANCH  29  30
ENDBRANCH   1  29
TORSDOF 16
ENDMDL
MODEL 3
REMARK VINA RESULT:     -11.2      3.724      9.036
REMARK SMILES CCOC(=O)c1c(NC(=O)c2ncccc2C(=O)OCCOC(=O)c2ccc(-c3c4nc(c(-c5ccccc5)c5ccc([nH]5)c(-c5ccccc5)c5nc(c(-c6ccccc6)c6ccc3[nH]6)C=C5)C=C4)cc2)sc2c1CC[C@H](C)C2
REMARK SMILES IDX 19 1 17 2 18 3 16 4 11 5 12 6 13 7 15 8 14 9 9 10 8 11 10 13
REMARK SMILES IDX 7 14 6 15 75 16 73 17 74 18 76 19 80 20 77 21 78 22 79 23
REMARK SMILES IDX 4 24 5 25 3 26 2 27 1 28 20 29 21 30 22 31 23 32 24 33 25 34
REMARK SMILES IDX 26 35 72 36 27 37 71 38 28 39 29 40 30 41 65 42 31 43 70 44
REMARK SMILES IDX 64 45 66 46 32 47 69 48 63 49 62 50 33 52 55 53 40 54 54 55
REMARK SMILES IDX 41 56 44 57 53 58 67 59 42 60 43 61 52 63 68 64 45 65 34 66
REMARK SMILES IDX 35 67 39 68 36 69 38 70 37 71 56 72 57 73 61 74 58 75 60 76
REMARK SMILES IDX 59 77 46 78 47 79 51 80 48 81 50 82 49 83
REMARK H PARENT 8 12 66 51 44 62
REMARK Flexibility Score: inf
ROOT
ATOM      1  O   UNL A   1      31.443  29.004  25.833  1.00  0.00    -0.458 OA
ENDROOT
BRANCH   1   2
ATOM      2  C   UNL A   1      32.055  27.798  25.711  1.00  0.00     0.340 C 
ATOM      3  O   UNL A   1      33.063  27.425  26.292  1.00  0.00    -0.246 OA
BRANCH   2   4
ATOM      4  C   UNL A   1      31.471  27.030  24.609  1.00  0.00     0.091 A 
ATOM      5  C   UNL A   1      31.270  25.655  24.612  1.00  0.00     0.142 A 
ATOM      6  N   UNL A   1      31.295  24.925  23.450  1.00  0.00    -0.250 NA
ATOM      7  C   UNL A   1      31.480  25.584  22.289  1.00  0.00     0.112 A 
ATOM      8  C   UNL A   1      31.500  27.694  23.376  1.00  0.00     0.020 A 
ATOM      9  C   UNL A   1      31.503  26.961  22.197  1.00  0.00     0.021 A 
BRANCH   5  10
ATOM     10  C   UNL A   1      31.069  24.766  25.785  1.00  0.00     0.275 C 
ATOM     11  N   UNL A   1      32.041  23.934  26.317  1.00  0.00    -0.311 N 
ATOM     12  H   UNL A   1      31.977  23.798  27.291  1.00  0.00     0.171 HD
ATOM     13  O   UNL A   1      30.017  24.885  26.428  1.00  0.00    -0.267 OA
BRANCH  11  14
ATOM     14  C   UNL A   1      33.082  23.267  25.716  1.00  0.00     0.110 A 
ATOM     15  C   UNL A   1      33.360  22.071  25.077  1.00  0.00     0.098 A 
ATOM     16  C   UNL A   1      34.788  21.789  25.187  1.00  0.00    -0.017 A 
ATOM     17  S   UNL A   1      34.498  24.222  25.717  1.00  0.00    -0.122 S 
ATOM     18  C   UNL A   1      35.410  22.811  25.873  1.00  0.00     0.011 A 
ATOM     19  C   UNL A   1      35.615  20.648  24.660  1.00  0.00     0.038 C 
ATOM     20  C   UNL A   1      36.776  22.743  26.437  1.00  0.00     0.050 C 
ATOM     21  C   UNL A   1      37.105  20.670  25.140  1.00  0.00     0.008 C 
ATOM     22  C   UNL A   1      37.681  22.085  25.400  1.00  0.00    -0.009 C 
ATOM     23  C   UNL A   1      39.125  22.058  25.900  1.00  0.00     0.008 C 
BRANCH  15  24
ATOM     24  C   UNL A   1      32.342  21.310  24.390  1.00  0.00     0.341 C 
ATOM     25  O   UNL A   1      31.853  21.639  23.312  1.00  0.00    -0.246 OA
BRANCH  24  26
ATOM     26  O   UNL A   1      32.015  20.210  25.115  1.00  0.00    -0.462 OA
BRANCH  26  27
ATOM     27  C   UNL A   1      32.401  18.909  24.674  1.00  0.00     0.230 C 
ATOM     28  C   UNL A   1      32.716  17.942  25.788  1.00  0.00     0.049 C 
ENDBRANCH  26  27
ENDBRANCH  24  26
ENDBRANCH  15  24
ENDBRANCH  11  14
ENDBRANCH   5  10
ENDBRANCH   2   4
ENDBRANCH   1   2
BRANCH   1  29
ATOM     29  C   UNL A   1      31.772  29.753  27.026  1.00  0.00     0.275 C 
BRANCH  29  30
ATOM     30  C   UNL A   1      31.922  31.244  26.729  1.00  0.00     0.275 C 
BRANCH  30  31
ATOM     31  O   UNL A   1      33.156  31.850  27.158  1.00  0.00    -0.458 OA
BRANCH  31  32
ATOM     32  C   UNL A   1      32.993  32.998  27.845  1.00  0.00     0.338 C 
ATOM     33  O   UNL A   1      32.153  33.851  27.625  1.00  0.00    -0.246 OA
BRANCH  32  34
ATOM     34  C   UNL A   1      34.159  33.387  28.640  1.00  0.00     0.060 A 
ATOM     35  C   UNL A   1      35.262  33.794  27.879  1.00  0.00     0.016 A 
ATOM     36  C   UNL A   1      34.312  32.843  29.914  1.00  0.00     0.016 A 
ATOM     37  C   UNL A   1      36.513  33.355  28.256  1.00  0.00     0.010 A 
ATOM     38  C   UNL A   1      35.579  32.476  30.323  1.00  0.00     0.010 A 
ATOM     39  C   UNL A   1      36.656  32.619  29.442  1.00  0.00    -0.014 A 
BRANCH  39  40
ATOM     40  C   UNL A   1      38.009  32.252  29.867  1.00  0.00     0.031 A 
ATOM     41  C   UNL A   1      38.275  30.798  29.650  1.00  0.00     0.074 A 
ATOM     42  C   UNL A   1      38.938  33.177  30.196  1.00  0.00     0.049 A 
ATOM     43  N   UNL A   1      38.865  29.973  30.451  1.00  0.00    -0.248 NA
ATOM     44  C   UNL A   1      37.619  30.141  28.492  1.00  0.00     0.031 C 
ATOM     45  C   UNL A   1      38.774  34.610  30.388  1.00  0.00     0.029 A 
ATOM     46  N   UNL A   1      40.289  33.077  30.252  1.00  0.00    -0.354 N 
ATOM     47  C   UNL A   1      38.810  28.740  29.808  1.00  0.00     0.074 A 
ATOM     48  C   UNL A   1      37.855  28.858  28.742  1.00  0.00     0.031 C 
ATOM     49  C   UNL A   1      39.919  35.270  30.124  1.00  0.00     0.029 A 
ATOM     50  C   UNL A   1      40.950  34.272  29.966  1.00  0.00     0.049 A 
ATOM     51  H   UNL A   1      40.758  32.240  30.474  1.00  0.00     0.167 HD
ATOM     52  C   UNL A   1      39.773  27.801  29.984  1.00  0.00     0.031 A 
ATOM     53  C   UNL A   1      42.246  34.450  29.612  1.00  0.00     0.031 A 
ATOM     54  C   UNL A   1      40.460  27.970  31.232  1.00  0.00     0.049 A 
ATOM     55  C   UNL A   1      42.949  33.198  29.965  1.00  0.00     0.074 A 
ATOM     56  C   UNL A   1      40.072  27.891  32.554  1.00  0.00     0.029 A 
ATOM     57  N   UNL A   1      41.636  28.680  31.218  1.00  0.00    -0.354 N 
ATOM     58  N   UNL A   1      43.112  32.811  31.199  1.00  0.00    -0.248 NA
ATOM     59  C   UNL A   1      42.967  32.141  28.965  1.00  0.00     0.031 C 
ATOM     60  C   UNL A   1      40.774  28.941  33.208  1.00  0.00     0.029 A 
ATOM     61  C   UNL A   1      41.618  29.552  32.279  1.00  0.00     0.049 A 
ATOM     62  H   UNL A   1      42.364  28.580  30.563  1.00  0.00     0.167 HD
ATOM     63  C   UNL A   1      42.808  31.457  31.185  1.00  0.00     0.074 A 
ATOM     64  C   UNL A   1      42.790  31.086  29.767  1.00  0.00     0.031 C 
ATOM     65  C   UNL A   1      42.287  30.836  32.285  1.00  0.00     0.031 A 
BRANCH  52  66
ATOM     66  C   UNL A   1      40.339  27.041  28.814  1.00  0.00    -0.014 A 
ATOM     67  C   UNL A   1      41.072  27.732  27.841  1.00  0.00     0.009 A 
ATOM     68  C   UNL A   1      39.953  25.719  28.497  1.00  0.00     0.009 A 
ATOM     69  C   UNL A   1      41.355  27.148  26.600  1.00  0.00     0.001 A 
ATOM     70  C   UNL A   1      40.266  25.119  27.277  1.00  0.00     0.001 A 
ATOM     71  C   UNL A   1      40.946  25.846  26.317  1.00  0.00     0.000 A 
ENDBRANCH  52  66
BRANCH  53  72
ATOM     72  C   UNL A   1      42.794  35.471  28.685  1.00  0.00    -0.014 A 
ATOM     73  C   UNL A   1      42.237  35.672  27.413  1.00  0.00     0.009 A 
ATOM     74  C   UNL A   1      43.720  36.428  29.146  1.00  0.00     0.009 A 
ATOM     75  C   UNL A   1      42.572  36.802  26.649  1.00  0.00     0.001 A 
ATOM     76  C   UNL A   1      44.055  37.555  28.385  1.00  0.00     0.001 A 
ATOM     77  C   UNL A   1      43.468  37.749  27.140  1.00  0.00     0.000 A 
ENDBRANCH  53  72
BRANCH  65  78
ATOM     78  C   UNL A   1      42.192  31.631  33.571  1.00  0.00    -0.014 A 
ATOM     79  C   UNL A   1      41.057  32.380  33.941  1.00  0.00     0.009 A 
ATOM     80  C   UNL A   1      43.211  31.469  34.519  1.00  0.00     0.009 A 
ATOM     81  C   UNL A   1      40.961  32.962  35.213  1.00  0.00     0.001 A 
ATOM     82  C   UNL A   1      43.108  32.032  35.792  1.00  0.00     0.001 A 
ATOM     83  C   UNL A   1      41.987  32.782  36.139  1.00  0.00     0.000 A 
ENDBRANCH  65  78
ENDBRANCH  39  40
ENDBRANCH  32  34
ENDBRANCH  31  32
ENDBRANCH  30  31
ENDBRANCH  29  30
ENDBRANCH   1  29
TORSDOF 16
ENDMDL
