MODEL 1
REMARK VINA RESULT:     -10.2      0.000      0.000
REMARK SMILES [NH3+][C@]1(C(=O)OCCOC(=O)c2ccc(-c3c4nc(c(-c5ccccc5)c5ccc([nH]5)c(-c5ccccc5)c5nc(c(-c6ccccc6)c6ccc3[nH]6)C=C5)C=C4)cc2)CCC[C@@H](OC2CCC2)C1
REMARK SMILES IDX 6 1 5 2 3 3 4 4 2 5 59 6 68 7 60 8 62 9 61 10 1 11 63 15
REMARK SMILES IDX 64 16 65 17 67 18 66 19 7 20 8 21 9 22 10 23 11 24 12 25
REMARK SMILES IDX 58 26 13 27 57 28 14 29 15 30 16 31 51 32 17 33 56 34 50 35
REMARK SMILES IDX 52 36 18 37 55 38 49 39 48 40 19 42 41 43 26 44 40 45 27 46
REMARK SMILES IDX 30 47 39 48 53 49 28 50 29 51 38 53 54 54 31 55 20 56 21 57
REMARK SMILES IDX 25 58 22 59 24 60 23 61 42 62 43 63 47 64 44 65 46 66 45 67
REMARK SMILES IDX 32 68 33 69 37 70 34 71 36 72 35 73
REMARK H PARENT 1 12 1 13 1 14 52 41 30 52
REMARK Flexibility Score: inf
ROOT
ATOM      1  C   UNL A   1      40.165  20.665  26.402  1.00  0.00     0.274 C 
ENDROOT
BRANCH   1   2
ATOM      2  O   UNL A   1      39.285  21.686  25.830  1.00  0.00    -0.457 OA
BRANCH   2   3
ATOM      3  C   UNL A   1      38.047  21.287  25.400  1.00  0.00     0.368 C 
ATOM      4  O   UNL A   1      37.838  20.153  24.974  1.00  0.00    -0.245 OA
BRANCH   3   5
ATOM      5  C   UNL A   1      36.912  22.438  25.418  1.00  0.00     0.195 C 
ATOM      6  C   UNL A   1      37.016  23.285  24.117  1.00  0.00     0.081 C 
ATOM      7  C   UNL A   1      35.444  22.039  25.771  1.00  0.00     0.113 C 
ATOM      8  C   UNL A   1      36.065  22.953  22.972  1.00  0.00     0.010 C 
ATOM      9  C   UNL A   1      34.353  22.011  24.666  1.00  0.00     0.125 C 
ATOM     10  C   UNL A   1      34.612  22.756  23.361  1.00  0.00     0.032 C 
BRANCH   5  11
ATOM     11  N   UNL A   1      37.371  23.356  26.517  1.00  0.00    -0.343 N 
ATOM     12  H   UNL A   1      38.301  23.712  26.298  1.00  0.00     0.345 HD
ATOM     13  H   UNL A   1      37.403  22.844  27.398  1.00  0.00     0.345 HD
ATOM     14  H   UNL A   1      36.720  24.138  26.603  1.00  0.00     0.345 HD
ENDBRANCH   5  11
BRANCH   9  15
ATOM     15  O   UNL A   1      33.562  20.818  24.513  1.00  0.00    -0.375 OA
BRANCH  15  16
ATOM     16  C   UNL A   1      33.793  19.536  25.142  1.00  0.00     0.118 C 
ATOM     17  C   UNL A   1      32.673  18.464  25.199  1.00  0.00     0.032 C 
ATOM     18  C   UNL A   1      34.618  18.512  24.350  1.00  0.00     0.032 C 
ATOM     19  C   UNL A   1      33.262  17.985  23.885  1.00  0.00     0.005 C 
ENDBRANCH  15  16
ENDBRANCH   9  15
ENDBRANCH   3   5
ENDBRANCH   2   3
ENDBRANCH   1   2
BRANCH   1  20
ATOM     20  C   UNL A   1      41.673  20.816  26.071  1.00  0.00     0.275 C 
BRANCH  20  21
ATOM     21  O   UNL A   1      41.927  22.057  25.376  1.00  0.00    -0.458 OA
BRANCH  21  22
ATOM     22  C   UNL A   1      43.093  22.712  25.671  1.00  0.00     0.338 C 
ATOM     23  O   UNL A   1      44.157  22.565  25.100  1.00  0.00    -0.246 OA
BRANCH  22  24
ATOM     24  C   UNL A   1      42.801  23.846  26.623  1.00  0.00     0.060 A 
ATOM     25  C   UNL A   1      41.859  23.673  27.642  1.00  0.00     0.016 A 
ATOM     26  C   UNL A   1      43.284  25.141  26.381  1.00  0.00     0.016 A 
ATOM     27  C   UNL A   1      41.383  24.766  28.366  1.00  0.00     0.010 A 
ATOM     28  C   UNL A   1      42.905  26.217  27.216  1.00  0.00     0.010 A 
ATOM     29  C   UNL A   1      41.972  26.035  28.250  1.00  0.00    -0.014 A 
BRANCH  29  30
ATOM     30  C   UNL A   1      41.727  27.057  29.325  1.00  0.00     0.031 A 
ATOM     31  C   UNL A   1      42.543  27.161  30.593  1.00  0.00     0.074 A 
ATOM     32  C   UNL A   1      40.697  27.920  29.164  1.00  0.00     0.049 A 
ATOM     33  N   UNL A   1      42.304  27.881  31.666  1.00  0.00    -0.248 NA
ATOM     34  C   UNL A   1      43.778  26.369  30.673  1.00  0.00     0.031 C 
ATOM     35  C   UNL A   1      39.811  27.978  27.997  1.00  0.00     0.029 A 
ATOM     36  N   UNL A   1      40.221  28.926  29.974  1.00  0.00    -0.354 N 
ATOM     37  C   UNL A   1      43.322  27.592  32.569  1.00  0.00     0.074 A 
ATOM     38  C   UNL A   1      44.194  26.640  31.907  1.00  0.00     0.031 C 
ATOM     39  C   UNL A   1      38.963  29.002  28.127  1.00  0.00     0.029 A 
ATOM     40  C   UNL A   1      39.127  29.575  29.452  1.00  0.00     0.049 A 
ATOM     41  H   UNL A   1      40.624  29.157  30.842  1.00  0.00     0.167 HD
ATOM     42  C   UNL A   1      43.504  28.064  33.831  1.00  0.00     0.031 A 
ATOM     43  C   UNL A   1      38.276  30.471  29.979  1.00  0.00     0.031 A 
ATOM     44  C   UNL A   1      42.648  29.029  34.490  1.00  0.00     0.049 A 
ATOM     45  C   UNL A   1      38.453  30.913  31.395  1.00  0.00     0.074 A 
ATOM     46  C   UNL A   1      42.778  29.568  35.763  1.00  0.00     0.029 A 
ATOM     47  N   UNL A   1      41.511  29.600  33.942  1.00  0.00    -0.354 N 
ATOM     48  N   UNL A   1      39.385  30.579  32.250  1.00  0.00    -0.248 NA
ATOM     49  C   UNL A   1      37.445  31.842  31.920  1.00  0.00     0.031 C 
ATOM     50  C   UNL A   1      41.688  30.411  36.006  1.00  0.00     0.029 A 
ATOM     51  C   UNL A   1      40.916  30.459  34.859  1.00  0.00     0.049 A 
ATOM     52  H   UNL A   1      41.174  29.423  33.034  1.00  0.00     0.167 HD
ATOM     53  C   UNL A   1      39.080  31.262  33.417  1.00  0.00     0.074 A 
ATOM     54  C   UNL A   1      37.899  32.056  33.146  1.00  0.00     0.031 C 
ATOM     55  C   UNL A   1      39.723  31.226  34.609  1.00  0.00     0.031 A 
BRANCH  42  56
ATOM     56  C   UNL A   1      44.654  27.511  34.639  1.00  0.00    -0.014 A 
ATOM     57  C   UNL A   1      44.533  26.338  35.399  1.00  0.00     0.009 A 
ATOM     58  C   UNL A   1      45.915  28.127  34.549  1.00  0.00     0.009 A 
ATOM     59  C   UNL A   1      45.643  25.811  36.071  1.00  0.00     0.001 A 
ATOM     60  C   UNL A   1      47.028  27.583  35.195  1.00  0.00     0.001 A 
ATOM     61  C   UNL A   1      46.889  26.428  35.962  1.00  0.00     0.000 A 
ENDBRANCH  42  56
BRANCH  43  62
ATOM     62  C   UNL A   1      37.115  30.936  29.174  1.00  0.00    -0.014 A 
ATOM     63  C   UNL A   1      36.032  30.084  28.919  1.00  0.00     0.009 A 
ATOM     64  C   UNL A   1      37.073  32.256  28.690  1.00  0.00     0.009 A 
ATOM     65  C   UNL A   1      34.933  30.543  28.190  1.00  0.00     0.001 A 
ATOM     66  C   UNL A   1      35.955  32.724  28.001  1.00  0.00     0.001 A 
ATOM     67  C   UNL A   1      34.890  31.864  27.744  1.00  0.00     0.000 A 
ENDBRANCH  43  62
BRANCH  55  68
ATOM     68  C   UNL A   1      39.164  32.103  35.696  1.00  0.00    -0.014 A 
ATOM     69  C   UNL A   1      38.198  31.626  36.597  1.00  0.00     0.009 A 
ATOM     70  C   UNL A   1      39.570  33.443  35.785  1.00  0.00     0.009 A 
ATOM     71  C   UNL A   1      37.604  32.489  37.522  1.00  0.00     0.001 A 
ATOM     72  C   UNL A   1      38.999  34.296  36.734  1.00  0.00     0.001 A 
ATOM     73  C   UNL A   1      38.005  33.823  37.588  1.00  0.00     0.000 A 
ENDBRANCH  55  68
ENDBRANCH  29  30
ENDBRANCH  22  24
ENDBRANCH  21  22
ENDBRANCH  20  21
ENDBRANCH   1  20
TORSDOF 14
ENDMDL
MODEL 2
REMARK VINA RESULT:     -10.1      3.833      7.150
REMARK SMILES [NH3+][C@]1(C(=O)OCCOC(=O)c2ccc(-c3c4nc(c(-c5ccccc5)c5ccc([nH]5)c(-c5ccccc5)c5nc(c(-c6ccccc6)c6ccc3[nH]6)C=C5)C=C4)cc2)CCC[C@@H](OC2CCC2)C1
REMARK SMILES IDX 6 1 5 2 3 3 4 4 2 5 59 6 68 7 60 8 62 9 61 10 1 11 63 15
REMARK SMILES IDX 64 16 65 17 67 18 66 19 7 20 8 21 9 22 10 23 11 24 12 25
REMARK SMILES IDX 58 26 13 27 57 28 14 29 15 30 16 31 51 32 17 33 56 34 50 35
REMARK SMILES IDX 52 36 18 37 55 38 49 39 48 40 19 42 41 43 26 44 40 45 27 46
REMARK SMILES IDX 30 47 39 48 53 49 28 50 29 51 38 53 54 54 31 55 20 56 21 57
REMARK SMILES IDX 25 58 22 59 24 60 23 61 42 62 43 63 47 64 44 65 46 66 45 67
REMARK SMILES IDX 32 68 33 69 37 70 34 71 36 72 35 73
REMARK H PARENT 1 12 1 13 1 14 52 41 30 52
REMARK Flexibility Score: inf
ROOT
ATOM      1  C   UNL A   1      37.027  22.258  23.747  1.00  0.00     0.274 C 
ENDROOT
BRANCH   1   2
ATOM      2  O   UNL A   1      35.623  22.667  23.822  1.00  0.00    -0.457 OA
BRANCH   2   3
ATOM      3  C   UNL A   1      35.222  23.359  24.934  1.00  0.00     0.368 C 
ATOM      4  O   UNL A   1      35.595  24.509  25.155  1.00  0.00    -0.245 OA
BRANCH   3   5
ATOM      5  C   UNL A   1      34.298  22.525  25.964  1.00  0.00     0.195 C 
ATOM      6  C   UNL A   1      32.994  23.324  26.249  1.00  0.00     0.081 C 
ATOM      7  C   UNL A   1      34.037  21.011  25.683  1.00  0.00     0.113 C 
ATOM      8  C   UNL A   1      31.739  22.941  25.471  1.00  0.00     0.010 C 
ATOM      9  C   UNL A   1      32.642  20.534  25.197  1.00  0.00     0.125 C 
ATOM     10  C   UNL A   1      31.442  21.456  25.391  1.00  0.00     0.032 C 
BRANCH   5  11
ATOM     11  N   UNL A   1      35.077  22.583  27.249  1.00  0.00    -0.343 N 
ATOM     12  H   UNL A   1      34.525  23.061  27.961  1.00  0.00     0.345 HD
ATOM     13  H   UNL A   1      35.948  23.092  27.097  1.00  0.00     0.345 HD
ATOM     14  H   UNL A   1      35.289  21.635  27.563  1.00  0.00     0.345 HD
ENDBRANCH   5  11
BRANCH   9  15
ATOM     15  O   UNL A   1      32.570  19.721  24.011  1.00  0.00    -0.375 OA
BRANCH  15  16
ATOM     16  C   UNL A   1      32.453  18.280  23.952  1.00  0.00     0.118 C 
ATOM     17  C   UNL A   1      33.377  17.443  23.029  1.00  0.00     0.032 C 
ATOM     18  C   UNL A   1      33.047  17.487  25.126  1.00  0.00     0.032 C 
ATOM     19  C   UNL A   1      34.287  17.374  24.241  1.00  0.00     0.005 C 
ENDBRANCH  15  16
ENDBRANCH   9  15
ENDBRANCH   3   5
ENDBRANCH   2   3
ENDBRANCH   1   2
BRANCH   1  20
ATOM     20  C   UNL A   1      37.403  20.994  24.563  1.00  0.00     0.275 C 
BRANCH  20  21
ATOM     21  O   UNL A   1      37.794  21.346  25.909  1.00  0.00    -0.458 OA
BRANCH  21  22
ATOM     22  C   UNL A   1      39.123  21.244  26.223  1.00  0.00     0.338 C 
ATOM     23  O   UNL A   1      39.840  20.292  25.982  1.00  0.00    -0.246 OA
BRANCH  22  24
ATOM     24  C   UNL A   1      39.637  22.594  26.660  1.00  0.00     0.060 A 
ATOM     25  C   UNL A   1      40.793  22.677  27.443  1.00  0.00     0.016 A 
ATOM     26  C   UNL A   1      38.868  23.754  26.490  1.00  0.00     0.016 A 
ATOM     27  C   UNL A   1      41.143  23.871  28.072  1.00  0.00     0.010 A 
ATOM     28  C   UNL A   1      39.310  24.993  27.011  1.00  0.00     0.010 A 
ATOM     29  C   UNL A   1      40.481  25.075  27.781  1.00  0.00    -0.014 A 
BRANCH  29  30
ATOM     30  C   UNL A   1      41.141  26.377  28.137  1.00  0.00     0.031 A 
ATOM     31  C   UNL A   1      40.505  27.437  29.008  1.00  0.00     0.074 A 
ATOM     32  C   UNL A   1      42.368  26.633  27.625  1.00  0.00     0.049 A 
ATOM     33  N   UNL A   1      40.906  28.669  29.225  1.00  0.00    -0.248 NA
ATOM     34  C   UNL A   1      39.275  27.078  29.726  1.00  0.00     0.031 C 
ATOM     35  C   UNL A   1      43.142  25.721  26.777  1.00  0.00     0.029 A 
ATOM     36  N   UNL A   1      43.191  27.729  27.747  1.00  0.00    -0.354 N 
ATOM     37  C   UNL A   1      39.955  29.251  30.059  1.00  0.00     0.074 A 
ATOM     38  C   UNL A   1      38.964  28.225  30.322  1.00  0.00     0.031 C 
ATOM     39  C   UNL A   1      44.342  26.252  26.525  1.00  0.00     0.029 A 
ATOM     40  C   UNL A   1      44.369  27.607  27.048  1.00  0.00     0.049 A 
ATOM     41  H   UNL A   1      42.959  28.523  28.282  1.00  0.00     0.167 HD
ATOM     42  C   UNL A   1      39.908  30.520  30.545  1.00  0.00     0.031 A 
ATOM     43  C   UNL A   1      45.345  28.488  26.766  1.00  0.00     0.031 A 
ATOM     44  C   UNL A   1      40.904  31.542  30.302  1.00  0.00     0.049 A 
ATOM     45  C   UNL A   1      45.227  29.897  27.247  1.00  0.00     0.074 A 
ATOM     46  C   UNL A   1      40.932  32.847  30.774  1.00  0.00     0.029 A 
ATOM     47  N   UNL A   1      42.041  31.386  29.526  1.00  0.00    -0.354 N 
ATOM     48  N   UNL A   1      44.290  30.441  27.980  1.00  0.00    -0.248 NA
ATOM     49  C   UNL A   1      46.298  30.816  26.842  1.00  0.00     0.031 C 
ATOM     50  C   UNL A   1      42.049  33.496  30.234  1.00  0.00     0.029 A 
ATOM     51  C   UNL A   1      42.759  32.576  29.484  1.00  0.00     0.049 A 
ATOM     52  H   UNL A   1      42.304  30.553  29.072  1.00  0.00     0.167 HD
ATOM     53  C   UNL A   1      44.659  31.769  28.130  1.00  0.00     0.074 A 
ATOM     54  C   UNL A   1      45.924  31.935  27.443  1.00  0.00     0.031 C 
ATOM     55  C   UNL A   1      44.000  32.760  28.777  1.00  0.00     0.031 A 
BRANCH  42  56
ATOM     56  C   UNL A   1      38.703  30.924  31.361  1.00  0.00    -0.014 A 
ATOM     57  C   UNL A   1      38.637  30.713  32.747  1.00  0.00     0.009 A 
ATOM     58  C   UNL A   1      37.655  31.625  30.737  1.00  0.00     0.009 A 
ATOM     59  C   UNL A   1      37.539  31.173  33.483  1.00  0.00     0.001 A 
ATOM     60  C   UNL A   1      36.574  32.109  31.478  1.00  0.00     0.001 A 
ATOM     61  C   UNL A   1      36.513  31.877  32.850  1.00  0.00     0.000 A 
ENDBRANCH  42  56
BRANCH  43  62
ATOM     62  C   UNL A   1      46.477  28.069  25.899  1.00  0.00    -0.014 A 
ATOM     63  C   UNL A   1      46.399  28.198  24.506  1.00  0.00     0.009 A 
ATOM     64  C   UNL A   1      47.661  27.571  26.472  1.00  0.00     0.009 A 
ATOM     65  C   UNL A   1      47.483  27.832  23.704  1.00  0.00     0.001 A 
ATOM     66  C   UNL A   1      48.756  27.249  25.673  1.00  0.00     0.001 A 
ATOM     67  C   UNL A   1      48.663  27.371  24.288  1.00  0.00     0.000 A 
ENDBRANCH  43  62
BRANCH  55  68
ATOM     68  C   UNL A   1      44.668  34.108  28.789  1.00  0.00    -0.014 A 
ATOM     69  C   UNL A   1      45.567  34.470  29.806  1.00  0.00     0.009 A 
ATOM     70  C   UNL A   1      44.352  35.050  27.798  1.00  0.00     0.009 A 
ATOM     71  C   UNL A   1      46.084  35.767  29.866  1.00  0.00     0.001 A 
ATOM     72  C   UNL A   1      44.897  36.335  27.840  1.00  0.00     0.001 A 
ATOM     73  C   UNL A   1      45.747  36.698  28.883  1.00  0.00     0.000 A 
ENDBRANCH  55  68
ENDBRANCH  29  30
ENDBRANCH  22  24
ENDBRANCH  21  22
ENDBRANCH  20  21
ENDBRANCH   1  20
TORSDOF 14
ENDMDL
MODEL 3
REMARK VINA RESULT:     -10.1      3.239      8.104
REMARK SMILES [NH3+][C@]1(C(=O)OCCOC(=O)c2ccc(-c3c4nc(c(-c5ccccc5)c5ccc([nH]5)c(-c5ccccc5)c5nc(c(-c6ccccc6)c6ccc3[nH]6)C=C5)C=C4)cc2)CCC[C@@H](OC2CCC2)C1
REMARK SMILES IDX 6 1 5 2 3 3 4 4 2 5 59 6 68 7 60 8 62 9 61 10 1 11 63 15
REMARK SMILES IDX 64 16 65 17 67 18 66 19 7 20 8 21 9 22 10 23 11 24 12 25
REMARK SMILES IDX 58 26 13 27 57 28 14 29 15 30 16 31 51 32 17 33 56 34 50 35
REMARK SMILES IDX 52 36 18 37 55 38 49 39 48 40 19 42 41 43 26 44 40 45 27 46
REMARK SMILES IDX 30 47 39 48 53 49 28 50 29 51 38 53 54 54 31 55 20 56 21 57
REMARK SMILES IDX 25 58 22 59 24 60 23 61 42 62 43 63 47 64 44 65 46 66 45 67
REMARK SMILES IDX 32 68 33 69 37 70 34 71 36 72 35 73
REMARK H PARENT 1 12 1 13 1 14 52 41 30 52
REMARK Flexibility Score: inf
ROOT
ATOM      1  C   UNL A   1      30.981  30.819  25.145  1.00  0.00     0.274 C 
ENDROOT
BRANCH   1   2
ATOM      2  O   UNL A   1      31.193  29.371  25.201  1.00  0.00    -0.457 OA
BRANCH   2   3
ATOM      3  C   UNL A   1      31.556  28.738  24.042  1.00  0.00     0.368 C 
ATOM      4  O   UNL A   1      30.746  28.498  23.148  1.00  0.00    -0.245 OA
BRANCH   3   5
ATOM      5  C   UNL A   1      33.099  28.261  23.975  1.00  0.00     0.195 C 
ATOM      6  C   UNL A   1      33.690  28.226  25.413  1.00  0.00     0.081 C 
ATOM      7  C   UNL A   1      33.457  26.994  23.136  1.00  0.00     0.113 C 
ATOM      8  C   UNL A   1      33.744  26.880  26.130  1.00  0.00     0.010 C 
ATOM      9  C   UNL A   1      33.848  25.669  23.846  1.00  0.00     0.125 C 
ATOM     10  C   UNL A   1      34.277  25.720  25.309  1.00  0.00     0.032 C 
BRANCH   5  11
ATOM     11  N   UNL A   1      33.787  29.417  23.300  1.00  0.00    -0.343 N 
ATOM     12  H   UNL A   1      33.961  30.154  23.983  1.00  0.00     0.345 HD
ATOM     13  H   UNL A   1      33.193  29.778  22.555  1.00  0.00     0.345 HD
ATOM     14  H   UNL A   1      34.674  29.102  22.905  1.00  0.00     0.345 HD
ENDBRANCH   5  11
BRANCH   9  15
ATOM     15  O   UNL A   1      33.151  24.464  23.483  1.00  0.00    -0.375 OA
BRANCH  15  16
ATOM     16  C   UNL A   1      33.731  23.255  22.942  1.00  0.00     0.118 C 
ATOM     17  C   UNL A   1      35.180  22.835  23.305  1.00  0.00     0.032 C 
ATOM     18  C   UNL A   1      33.279  21.927  23.568  1.00  0.00     0.032 C 
ATOM     19  C   UNL A   1      34.523  22.076  24.442  1.00  0.00     0.005 C 
ENDBRANCH  15  16
ENDBRANCH   9  15
ENDBRANCH   3   5
ENDBRANCH   2   3
ENDBRANCH   1   2
BRANCH   1  20
ATOM     20  C   UNL A   1      31.301  31.595  26.449  1.00  0.00     0.275 C 
BRANCH  20  21
ATOM     21  O   UNL A   1      32.626  31.276  26.929  1.00  0.00    -0.458 OA
BRANCH  21  22
ATOM     22  C   UNL A   1      33.360  32.298  27.469  1.00  0.00     0.338 C 
ATOM     23  O   UNL A   1      32.970  33.436  27.651  1.00  0.00    -0.246 OA
BRANCH  22  24
ATOM     24  C   UNL A   1      34.630  31.740  28.064  1.00  0.00     0.060 A 
ATOM     25  C   UNL A   1      35.729  32.580  28.268  1.00  0.00     0.016 A 
ATOM     26  C   UNL A   1      34.816  30.358  28.214  1.00  0.00     0.016 A 
ATOM     27  C   UNL A   1      36.984  32.050  28.569  1.00  0.00     0.010 A 
ATOM     28  C   UNL A   1      36.055  29.843  28.662  1.00  0.00     0.010 A 
ATOM     29  C   UNL A   1      37.151  30.692  28.883  1.00  0.00    -0.014 A 
BRANCH  29  30
ATOM     30  C   UNL A   1      38.397  30.255  29.600  1.00  0.00     0.031 A 
ATOM     31  C   UNL A   1      39.460  29.372  28.987  1.00  0.00     0.074 A 
ATOM     32  C   UNL A   1      38.568  30.650  30.884  1.00  0.00     0.049 A 
ATOM     33  N   UNL A   1      40.478  28.785  29.574  1.00  0.00    -0.248 NA
ATOM     34  C   UNL A   1      39.379  29.115  27.543  1.00  0.00     0.031 C 
ATOM     35  C   UNL A   1      37.654  31.517  31.635  1.00  0.00     0.029 A 
ATOM     36  N   UNL A   1      39.573  30.389  31.787  1.00  0.00    -0.354 N 
ATOM     37  C   UNL A   1      41.129  28.048  28.589  1.00  0.00     0.074 A 
ATOM     38  C   UNL A   1      40.396  28.278  27.359  1.00  0.00     0.031 C 
ATOM     39  C   UNL A   1      38.171  31.778  32.839  1.00  0.00     0.029 A 
ATOM     40  C   UNL A   1      39.367  30.972  33.015  1.00  0.00     0.049 A 
ATOM     41  H   UNL A   1      40.361  29.839  31.575  1.00  0.00     0.167 HD
ATOM     42  C   UNL A   1      42.222  27.248  28.704  1.00  0.00     0.031 A 
ATOM     43  C   UNL A   1      39.995  30.832  34.195  1.00  0.00     0.031 A 
ATOM     44  C   UNL A   1      42.970  27.029  29.924  1.00  0.00     0.049 A 
ATOM     45  C   UNL A   1      41.144  29.885  34.311  1.00  0.00     0.074 A 
ATOM     46  C   UNL A   1      44.099  26.244  30.115  1.00  0.00     0.029 A 
ATOM     47  N   UNL A   1      42.674  27.588  31.157  1.00  0.00    -0.354 N 
ATOM     48  N   UNL A   1      41.703  29.152  33.382  1.00  0.00    -0.248 NA
ATOM     49  C   UNL A   1      41.736  29.736  35.647  1.00  0.00     0.031 C 
ATOM     50  C   UNL A   1      44.445  26.277  31.470  1.00  0.00     0.029 A 
ATOM     51  C   UNL A   1      43.578  27.142  32.115  1.00  0.00     0.049 A 
ATOM     52  H   UNL A   1      41.931  28.210  31.330  1.00  0.00     0.167 HD
ATOM     53  C   UNL A   1      42.718  28.455  34.021  1.00  0.00     0.074 A 
ATOM     54  C   UNL A   1      42.720  28.883  35.404  1.00  0.00     0.031 C 
ATOM     55  C   UNL A   1      43.567  27.537  33.500  1.00  0.00     0.031 A 
BRANCH  42  56
ATOM     56  C   UNL A   1      42.673  26.480  27.483  1.00  0.00    -0.014 A 
ATOM     57  C   UNL A   1      42.137  25.227  27.152  1.00  0.00     0.009 A 
ATOM     58  C   UNL A   1      43.582  27.080  26.593  1.00  0.00     0.009 A 
ATOM     59  C   UNL A   1      42.520  24.582  25.970  1.00  0.00     0.001 A 
ATOM     60  C   UNL A   1      43.940  26.448  25.399  1.00  0.00     0.001 A 
ATOM     61  C   UNL A   1      43.414  25.195  25.092  1.00  0.00     0.000 A 
ENDBRANCH  42  56
BRANCH  43  62
ATOM     62  C   UNL A   1      39.474  31.550  35.388  1.00  0.00    -0.014 A 
ATOM     63  C   UNL A   1      40.010  32.787  35.772  1.00  0.00     0.009 A 
ATOM     64  C   UNL A   1      38.405  31.012  36.127  1.00  0.00     0.009 A 
ATOM     65  C   UNL A   1      39.488  33.467  36.875  1.00  0.00     0.001 A 
ATOM     66  C   UNL A   1      37.858  31.714  37.199  1.00  0.00     0.001 A 
ATOM     67  C   UNL A   1      38.407  32.937  37.578  1.00  0.00     0.000 A 
ENDBRANCH  43  62
BRANCH  55  68
ATOM     68  C   UNL A   1      44.589  26.962  34.443  1.00  0.00    -0.014 A 
ATOM     69  C   UNL A   1      45.844  27.568  34.620  1.00  0.00     0.009 A 
ATOM     70  C   UNL A   1      44.313  25.767  35.124  1.00  0.00     0.009 A 
ATOM     71  C   UNL A   1      46.822  26.955  35.407  1.00  0.00     0.001 A 
ATOM     72  C   UNL A   1      45.280  25.174  35.938  1.00  0.00     0.001 A 
ATOM     73  C   UNL A   1      46.539  25.759  36.064  1.00  0.00     0.000 A 
ENDBRANCH  55  68
ENDBRANCH  29  30
ENDBRANCH  22  24
ENDBRANCH  21  22
ENDBRANCH  20  21
ENDBRANCH   1  20
TORSDOF 14
ENDMDL
