MODEL 1
REMARK VINA RESULT:     -11.4      0.000      0.000
REMARK SMILES Cc1ccc(Nc2c(C)cccc2Cl)c(CC(=O)OCCOC(=O)c2ccc(-c3c4nc(c(-c5ccccc5)c5ccc([nH]5)c(-c5ccccc5)c5nc(c(-c6ccccc6)c6ccc3[nH]6)C=C5)C=C4)cc2)c1
REMARK SMILES IDX 20 1 19 2 17 3 18 4 16 5 15 6 1 7 2 8 3 9 73 10 4 11 5 12
REMARK SMILES IDX 6 13 7 15 8 16 13 17 9 18 10 19 12 20 14 21 11 22 21 23
REMARK SMILES IDX 22 24 23 25 24 26 25 27 26 28 72 29 27 30 71 31 28 32 29 33
REMARK SMILES IDX 30 34 65 35 31 36 70 37 64 38 66 39 32 40 69 41 63 42 62 43
REMARK SMILES IDX 33 45 55 46 40 47 54 48 41 49 44 50 53 51 67 52 42 53 43 54
REMARK SMILES IDX 52 56 68 57 45 58 34 59 35 60 39 61 36 62 38 63 37 64 56 65
REMARK SMILES IDX 57 66 61 67 58 68 60 69 59 70 46 71 47 72 51 73 48 74 50 75
REMARK SMILES IDX 49 76
REMARK H PARENT 6 14 66 44 44 55
REMARK Flexibility Score: inf
ROOT
ATOM      1  C   UNL A   1      33.063  30.476  27.359  1.00  0.00     0.274 C 
ENDROOT
BRANCH   1   2
ATOM      2  O   UNL A   1      33.138  29.105  27.722  1.00  0.00    -0.462 OA
BRANCH   2   3
ATOM      3  C   UNL A   1      32.258  28.238  27.148  1.00  0.00     0.310 C 
ATOM      4  O   UNL A   1      31.237  27.825  27.643  1.00  0.00    -0.252 OA
BRANCH   3   5
ATOM      5  C   UNL A   1      32.791  27.867  25.776  1.00  0.00     0.160 C 
BRANCH   5   6
ATOM      6  C   UNL A   1      31.641  27.404  24.927  1.00  0.00    -0.013 A 
ATOM      7  C   UNL A   1      29.067  29.298  22.875  1.00  0.00     0.044 C 
ATOM      8  C   UNL A   1      29.786  28.179  23.561  1.00  0.00    -0.051 A 
ATOM      9  C   UNL A   1      29.218  26.908  23.656  1.00  0.00     0.005 A 
ATOM     10  C   UNL A   1      31.009  28.410  24.176  1.00  0.00     0.009 A 
ATOM     11  C   UNL A   1      29.862  25.887  24.363  1.00  0.00     0.026 A 
ATOM     12  C   UNL A   1      31.072  26.112  25.026  1.00  0.00     0.042 A 
BRANCH  12  13
ATOM     13  N   UNL A   1      31.648  25.085  25.799  1.00  0.00    -0.354 N 
ATOM     14  H   UNL A   1      31.720  25.281  26.762  1.00  0.00     0.167 HD
BRANCH  13  15
ATOM     15  C   UNL A   1      32.140  23.813  25.408  1.00  0.00     0.060 A 
ATOM     16  C   UNL A   1      31.415  22.646  25.724  1.00  0.00    -0.026 A 
ATOM     17  C   UNL A   1      33.240  23.689  24.533  1.00  0.00     0.064 A 
ATOM     18  C   UNL A   1      30.250  22.678  26.674  1.00  0.00     0.046 C 
ATOM     19  C   UNL A   1      31.815  21.409  25.187  1.00  0.00     0.005 A 
ATOM     20  C   UNL A   1      33.572  22.468  23.939  1.00  0.00     0.023 A 
ATOM     21  Cl  UNL A   1      34.349  24.982  24.278  1.00  0.00    -0.082 Cl
ATOM     22  C   UNL A   1      32.864  21.324  24.275  1.00  0.00     0.002 A 
ENDBRANCH  13  15
ENDBRANCH  12  13
ENDBRANCH   5   6
ENDBRANCH   3   5
ENDBRANCH   2   3
ENDBRANCH   1   2
BRANCH   1  23
ATOM     23  C   UNL A   1      34.478  31.076  27.383  1.00  0.00     0.275 C 
BRANCH  23  24
ATOM     24  O   UNL A   1      35.628  30.156  27.570  1.00  0.00    -0.458 OA
BRANCH  24  25
ATOM     25  C   UNL A   1      36.533  30.041  28.584  1.00  0.00     0.338 C 
ATOM     26  O   UNL A   1      36.345  30.503  29.701  1.00  0.00    -0.246 OA
BRANCH  25  27
ATOM     27  C   UNL A   1      37.737  29.252  28.312  1.00  0.00     0.060 A 
ATOM     28  C   UNL A   1      38.532  29.442  27.166  1.00  0.00     0.016 A 
ATOM     29  C   UNL A   1      38.147  28.420  29.326  1.00  0.00     0.016 A 
ATOM     30  C   UNL A   1      39.802  28.872  27.130  1.00  0.00     0.010 A 
ATOM     31  C   UNL A   1      39.475  28.173  29.444  1.00  0.00     0.010 A 
ATOM     32  C   UNL A   1      40.262  28.260  28.298  1.00  0.00    -0.014 A 
BRANCH  32  33
ATOM     33  C   UNL A   1      41.382  27.344  28.387  1.00  0.00     0.031 A 
ATOM     34  C   UNL A   1      41.180  25.907  28.199  1.00  0.00     0.074 A 
ATOM     35  C   UNL A   1      42.572  27.985  28.527  1.00  0.00     0.049 A 
ATOM     36  N   UNL A   1      41.717  24.997  28.933  1.00  0.00    -0.248 NA
ATOM     37  C   UNL A   1      40.307  25.363  27.155  1.00  0.00     0.031 C 
ATOM     38  C   UNL A   1      43.932  27.496  28.485  1.00  0.00     0.029 A 
ATOM     39  N   UNL A   1      42.751  29.346  28.847  1.00  0.00    -0.354 N 
ATOM     40  C   UNL A   1      41.611  23.830  28.204  1.00  0.00     0.074 A 
ATOM     41  C   UNL A   1      40.556  24.050  27.246  1.00  0.00     0.031 C 
ATOM     42  C   UNL A   1      44.717  28.392  29.126  1.00  0.00     0.029 A 
ATOM     43  C   UNL A   1      43.855  29.437  29.675  1.00  0.00     0.049 A 
ATOM     44  H   UNL A   1      42.192  30.095  28.538  1.00  0.00     0.167 HD
ATOM     45  C   UNL A   1      42.628  22.921  28.236  1.00  0.00     0.031 A 
ATOM     46  C   UNL A   1      43.663  29.765  30.989  1.00  0.00     0.031 A 
ATOM     47  C   UNL A   1      43.751  23.452  29.005  1.00  0.00     0.049 A 
ATOM     48  C   UNL A   1      43.963  28.557  31.848  1.00  0.00     0.074 A 
ATOM     49  C   UNL A   1      44.923  24.075  28.601  1.00  0.00     0.029 A 
ATOM     50  N   UNL A   1      43.578  23.772  30.345  1.00  0.00    -0.354 N 
ATOM     51  N   UNL A   1      43.871  27.327  31.419  1.00  0.00    -0.248 NA
ATOM     52  C   UNL A   1      44.432  28.636  33.226  1.00  0.00     0.031 C 
ATOM     53  C   UNL A   1      45.410  24.839  29.695  1.00  0.00     0.029 A 
ATOM     54  C   UNL A   1      44.537  24.680  30.756  1.00  0.00     0.049 A 
ATOM     55  H   UNL A   1      42.871  23.403  30.923  1.00  0.00     0.167 HD
ATOM     56  C   UNL A   1      44.377  26.478  32.361  1.00  0.00     0.074 A 
ATOM     57  C   UNL A   1      44.677  27.340  33.493  1.00  0.00     0.031 C 
ATOM     58  C   UNL A   1      44.554  25.143  32.136  1.00  0.00     0.031 A 
BRANCH  45  59
ATOM     59  C   UNL A   1      42.746  21.773  27.265  1.00  0.00    -0.014 A 
ATOM     60  C   UNL A   1      41.908  20.650  27.401  1.00  0.00     0.009 A 
ATOM     61  C   UNL A   1      43.646  21.751  26.185  1.00  0.00     0.009 A 
ATOM     62  C   UNL A   1      41.999  19.541  26.551  1.00  0.00     0.001 A 
ATOM     63  C   UNL A   1      43.756  20.634  25.340  1.00  0.00     0.001 A 
ATOM     64  C   UNL A   1      42.935  19.528  25.526  1.00  0.00     0.000 A 
ENDBRANCH  45  59
BRANCH  46  65
ATOM     65  C   UNL A   1      42.568  30.769  31.242  1.00  0.00    -0.014 A 
ATOM     66  C   UNL A   1      42.726  32.071  30.710  1.00  0.00     0.009 A 
ATOM     67  C   UNL A   1      41.287  30.409  31.688  1.00  0.00     0.009 A 
ATOM     68  C   UNL A   1      41.634  32.932  30.530  1.00  0.00     0.001 A 
ATOM     69  C   UNL A   1      40.197  31.288  31.531  1.00  0.00     0.001 A 
ATOM     70  C   UNL A   1      40.363  32.531  30.920  1.00  0.00     0.000 A 
ENDBRANCH  46  65
BRANCH  58  71
ATOM     71  C   UNL A   1      44.849  24.116  33.193  1.00  0.00    -0.014 A 
ATOM     72  C   UNL A   1      46.117  23.916  33.745  1.00  0.00     0.009 A 
ATOM     73  C   UNL A   1      43.770  23.428  33.796  1.00  0.00     0.009 A 
ATOM     74  C   UNL A   1      46.306  23.033  34.812  1.00  0.00     0.001 A 
ATOM     75  C   UNL A   1      43.944  22.600  34.900  1.00  0.00     0.001 A 
ATOM     76  C   UNL A   1      45.219  22.388  35.398  1.00  0.00     0.000 A 
ENDBRANCH  58  71
ENDBRANCH  32  33
ENDBRANCH  25  27
ENDBRANCH  24  25
ENDBRANCH  23  24
ENDBRANCH   1  23
TORSDOF 14
ENDMDL
MODEL 2
REMARK VINA RESULT:     -11.4      3.413      8.882
REMARK SMILES Cc1ccc(Nc2c(C)cccc2Cl)c(CC(=O)OCCOC(=O)c2ccc(-c3c4nc(c(-c5ccccc5)c5ccc([nH]5)c(-c5ccccc5)c5nc(c(-c6ccccc6)c6ccc3[nH]6)C=C5)C=C4)cc2)c1
REMARK SMILES IDX 20 1 19 2 17 3 18 4 16 5 15 6 1 7 2 8 3 9 73 10 4 11 5 12
REMARK SMILES IDX 6 13 7 15 8 16 13 17 9 18 10 19 12 20 14 21 11 22 21 23
REMARK SMILES IDX 22 24 23 25 24 26 25 27 26 28 72 29 27 30 71 31 28 32 29 33
REMARK SMILES IDX 30 34 65 35 31 36 70 37 64 38 66 39 32 40 69 41 63 42 62 43
REMARK SMILES IDX 33 45 55 46 40 47 54 48 41 49 44 50 53 51 67 52 42 53 43 54
REMARK SMILES IDX 52 56 68 57 45 58 34 59 35 60 39 61 36 62 38 63 37 64 56 65
REMARK SMILES IDX 57 66 61 67 58 68 60 69 59 70 46 71 47 72 51 73 48 74 50 75
REMARK SMILES IDX 49 76
REMARK H PARENT 6 14 66 44 44 55
REMARK Flexibility Score: inf
ROOT
ATOM      1  C   UNL A   1      37.048  23.260  25.414  1.00  0.00     0.274 C 
ENDROOT
BRANCH   1   2
ATOM      2  O   UNL A   1      35.722  23.738  25.589  1.00  0.00    -0.462 OA
BRANCH   2   3
ATOM      3  C   UNL A   1      34.720  22.824  25.710  1.00  0.00     0.310 C 
ATOM      4  O   UNL A   1      34.392  22.009  24.881  1.00  0.00    -0.252 OA
BRANCH   3   5
ATOM      5  C   UNL A   1      34.072  23.014  27.069  1.00  0.00     0.160 C 
BRANCH   5   6
ATOM      6  C   UNL A   1      32.745  23.693  26.875  1.00  0.00    -0.013 A 
ATOM      7  C   UNL A   1      29.175  22.431  27.166  1.00  0.00     0.044 C 
ATOM      8  C   UNL A   1      30.343  23.321  26.877  1.00  0.00    -0.051 A 
ATOM      9  C   UNL A   1      30.182  24.518  26.180  1.00  0.00     0.005 A 
ATOM     10  C   UNL A   1      31.624  22.929  27.244  1.00  0.00     0.009 A 
ATOM     11  C   UNL A   1      31.288  25.307  25.848  1.00  0.00     0.026 A 
ATOM     12  C   UNL A   1      32.589  24.910  26.169  1.00  0.00     0.042 A 
BRANCH  12  13
ATOM     13  N   UNL A   1      33.685  25.687  25.744  1.00  0.00    -0.354 N 
ATOM     14  H   UNL A   1      34.545  25.456  26.164  1.00  0.00     0.167 HD
BRANCH  13  15
ATOM     15  C   UNL A   1      33.741  26.749  24.806  1.00  0.00     0.060 A 
ATOM     16  C   UNL A   1      33.673  26.478  23.424  1.00  0.00    -0.026 A 
ATOM     17  C   UNL A   1      33.662  28.097  25.217  1.00  0.00     0.064 A 
ATOM     18  C   UNL A   1      33.784  25.075  22.893  1.00  0.00     0.046 C 
ATOM     19  C   UNL A   1      33.556  27.540  22.509  1.00  0.00     0.005 A 
ATOM     20  C   UNL A   1      33.458  29.134  24.302  1.00  0.00     0.023 A 
ATOM     21  Cl  UNL A   1      33.989  28.572  26.840  1.00  0.00    -0.082 Cl
ATOM     22  C   UNL A   1      33.415  28.855  22.944  1.00  0.00     0.002 A 
ENDBRANCH  13  15
ENDBRANCH  12  13
ENDBRANCH   5   6
ENDBRANCH   3   5
ENDBRANCH   2   3
ENDBRANCH   1   2
BRANCH   1  23
ATOM     23  C   UNL A   1      38.027  24.273  26.028  1.00  0.00     0.275 C 
BRANCH  23  24
ATOM     24  O   UNL A   1      38.784  23.873  27.241  1.00  0.00    -0.458 OA
BRANCH  24  25
ATOM     25  C   UNL A   1      39.934  24.362  27.786  1.00  0.00     0.338 C 
ATOM     26  O   UNL A   1      40.937  23.682  27.949  1.00  0.00    -0.246 OA
BRANCH  25  27
ATOM     27  C   UNL A   1      39.961  25.792  28.104  1.00  0.00     0.060 A 
ATOM     28  C   UNL A   1      40.277  26.780  27.153  1.00  0.00     0.016 A 
ATOM     29  C   UNL A   1      39.496  26.135  29.352  1.00  0.00     0.016 A 
ATOM     30  C   UNL A   1      39.992  28.110  27.450  1.00  0.00     0.010 A 
ATOM     31  C   UNL A   1      38.905  27.347  29.495  1.00  0.00     0.010 A 
ATOM     32  C   UNL A   1      39.279  28.366  28.623  1.00  0.00    -0.014 A 
BRANCH  32  33
ATOM     33  C   UNL A   1      39.163  29.654  29.277  1.00  0.00     0.031 A 
ATOM     34  C   UNL A   1      38.150  30.617  28.841  1.00  0.00     0.074 A 
ATOM     35  C   UNL A   1      39.982  29.770  30.356  1.00  0.00     0.049 A 
ATOM     36  N   UNL A   1      38.365  31.878  28.692  1.00  0.00    -0.248 NA
ATOM     37  C   UNL A   1      36.781  30.223  28.500  1.00  0.00     0.031 C 
ATOM     38  C   UNL A   1      40.074  30.783  31.382  1.00  0.00     0.029 A 
ATOM     39  N   UNL A   1      41.047  28.907  30.687  1.00  0.00    -0.354 N 
ATOM     40  C   UNL A   1      37.114  32.461  28.674  1.00  0.00     0.074 A 
ATOM     41  C   UNL A   1      36.187  31.411  28.331  1.00  0.00     0.031 C 
ATOM     42  C   UNL A   1      41.304  30.701  31.939  1.00  0.00     0.029 A 
ATOM     43  C   UNL A   1      42.063  29.684  31.213  1.00  0.00     0.049 A 
ATOM     44  H   UNL A   1      41.064  27.930  30.566  1.00  0.00     0.167 HD
ATOM     45  C   UNL A   1      36.928  33.672  29.272  1.00  0.00     0.031 A 
ATOM     46  C   UNL A   1      43.206  29.850  30.481  1.00  0.00     0.031 A 
ATOM     47  C   UNL A   1      38.151  34.089  29.955  1.00  0.00     0.049 A 
ATOM     48  C   UNL A   1      43.280  31.281  29.998  1.00  0.00     0.074 A 
ATOM     49  C   UNL A   1      38.533  33.996  31.284  1.00  0.00     0.029 A 
ATOM     50  N   UNL A   1      39.317  34.280  29.223  1.00  0.00    -0.354 N 
ATOM     51  N   UNL A   1      42.230  32.039  29.826  1.00  0.00    -0.248 NA
ATOM     52  C   UNL A   1      44.528  31.981  29.720  1.00  0.00     0.031 C 
ATOM     53  C   UNL A   1      39.952  34.054  31.336  1.00  0.00     0.029 A 
ATOM     54  C   UNL A   1      40.426  34.180  30.042  1.00  0.00     0.049 A 
ATOM     55  H   UNL A   1      39.348  34.461  28.256  1.00  0.00     0.167 HD
ATOM     56  C   UNL A   1      42.630  33.317  29.562  1.00  0.00     0.074 A 
ATOM     57  C   UNL A   1      44.078  33.224  29.463  1.00  0.00     0.031 C 
ATOM     58  C   UNL A   1      41.758  34.364  29.485  1.00  0.00     0.031 A 
BRANCH  45  59
ATOM     59  C   UNL A   1      35.567  34.252  29.565  1.00  0.00    -0.014 A 
ATOM     60  C   UNL A   1      34.801  34.808  28.522  1.00  0.00     0.009 A 
ATOM     61  C   UNL A   1      34.977  34.259  30.842  1.00  0.00     0.009 A 
ATOM     62  C   UNL A   1      33.548  35.392  28.744  1.00  0.00     0.001 A 
ATOM     63  C   UNL A   1      33.729  34.861  31.074  1.00  0.00     0.001 A 
ATOM     64  C   UNL A   1      33.017  35.431  30.025  1.00  0.00     0.000 A 
ENDBRANCH  45  59
BRANCH  46  65
ATOM     65  C   UNL A   1      43.644  28.638  29.699  1.00  0.00    -0.014 A 
ATOM     66  C   UNL A   1      43.681  27.393  30.372  1.00  0.00     0.009 A 
ATOM     67  C   UNL A   1      43.707  28.613  28.298  1.00  0.00     0.009 A 
ATOM     68  C   UNL A   1      43.671  26.177  29.674  1.00  0.00     0.001 A 
ATOM     69  C   UNL A   1      43.724  27.389  27.600  1.00  0.00     0.001 A 
ATOM     70  C   UNL A   1      43.669  26.174  28.285  1.00  0.00     0.000 A 
ENDBRANCH  46  65
BRANCH  58  71
ATOM     71  C   UNL A   1      42.086  35.728  28.944  1.00  0.00    -0.014 A 
ATOM     72  C   UNL A   1      42.846  36.673  29.638  1.00  0.00     0.009 A 
ATOM     73  C   UNL A   1      41.763  36.024  27.600  1.00  0.00     0.009 A 
ATOM     74  C   UNL A   1      43.223  37.877  29.034  1.00  0.00     0.001 A 
ATOM     75  C   UNL A   1      42.192  37.190  26.974  1.00  0.00     0.001 A 
ATOM     76  C   UNL A   1      42.909  38.128  27.700  1.00  0.00     0.000 A 
ENDBRANCH  58  71
ENDBRANCH  32  33
ENDBRANCH  25  27
ENDBRANCH  24  25
ENDBRANCH  23  24
ENDBRANCH   1  23
TORSDOF 14
ENDMDL
MODEL 3
REMARK VINA RESULT:     -11.4      1.880      2.659
REMARK SMILES Cc1ccc(Nc2c(C)cccc2Cl)c(CC(=O)OCCOC(=O)c2ccc(-c3c4nc(c(-c5ccccc5)c5ccc([nH]5)c(-c5ccccc5)c5nc(c(-c6ccccc6)c6ccc3[nH]6)C=C5)C=C4)cc2)c1
REMARK SMILES IDX 20 1 19 2 17 3 18 4 16 5 15 6 1 7 2 8 3 9 73 10 4 11 5 12
REMARK SMILES IDX 6 13 7 15 8 16 13 17 9 18 10 19 12 20 14 21 11 22 21 23
REMARK SMILES IDX 22 24 23 25 24 26 25 27 26 28 72 29 27 30 71 31 28 32 29 33
REMARK SMILES IDX 30 34 65 35 31 36 70 37 64 38 66 39 32 40 69 41 63 42 62 43
REMARK SMILES IDX 33 45 55 46 40 47 54 48 41 49 44 50 53 51 67 52 42 53 43 54
REMARK SMILES IDX 52 56 68 57 45 58 34 59 35 60 39 61 36 62 38 63 37 64 56 65
REMARK SMILES IDX 57 66 61 67 58 68 60 69 59 70 46 71 47 72 51 73 48 74 50 75
REMARK SMILES IDX 49 76
REMARK H PARENT 6 14 66 44 44 55
REMARK Flexibility Score: inf
ROOT
ATOM      1  C   UNL A   1      33.393  28.387  26.340  1.00  0.00     0.274 C 
ENDROOT
BRANCH   1   2
ATOM      2  O   UNL A   1      32.576  27.320  26.798  1.00  0.00    -0.462 OA
BRANCH   2   3
ATOM      3  C   UNL A   1      32.551  26.170  26.068  1.00  0.00     0.310 C 
ATOM      4  O   UNL A   1      31.574  25.506  25.817  1.00  0.00    -0.252 OA
BRANCH   3   5
ATOM      5  C   UNL A   1      33.971  25.858  25.634  1.00  0.00     0.160 C 
BRANCH   5   6
ATOM      6  C   UNL A   1      33.917  25.106  24.334  1.00  0.00    -0.013 A 
ATOM      7  C   UNL A   1      32.389  25.958  20.963  1.00  0.00     0.044 C 
ATOM      8  C   UNL A   1      33.055  25.192  22.063  1.00  0.00    -0.051 A 
ATOM      9  C   UNL A   1      33.274  23.818  21.954  1.00  0.00     0.005 A 
ATOM     10  C   UNL A   1      33.403  25.832  23.245  1.00  0.00     0.009 A 
ATOM     11  C   UNL A   1      33.828  23.096  23.017  1.00  0.00     0.026 A 
ATOM     12  C   UNL A   1      34.145  23.713  24.230  1.00  0.00     0.042 A 
BRANCH  12  13
ATOM     13  N   UNL A   1      34.621  22.939  25.307  1.00  0.00    -0.354 N 
ATOM     14  H   UNL A   1      34.142  23.073  26.157  1.00  0.00     0.167 HD
BRANCH  13  15
ATOM     15  C   UNL A   1      35.681  21.998  25.357  1.00  0.00     0.060 A 
ATOM     16  C   UNL A   1      35.432  20.637  25.087  1.00  0.00    -0.026 A 
ATOM     17  C   UNL A   1      37.025  22.412  25.474  1.00  0.00     0.064 A 
ATOM     18  C   UNL A   1      34.032  20.101  24.980  1.00  0.00     0.046 C 
ATOM     19  C   UNL A   1      36.510  19.740  24.968  1.00  0.00     0.005 A 
ATOM     20  C   UNL A   1      38.087  21.527  25.267  1.00  0.00     0.023 A 
ATOM     21  Cl  UNL A   1      37.447  23.979  26.051  1.00  0.00    -0.082 Cl
ATOM     22  C   UNL A   1      37.828  20.186  25.024  1.00  0.00     0.002 A 
ENDBRANCH  13  15
ENDBRANCH  12  13
ENDBRANCH   5   6
ENDBRANCH   3   5
ENDBRANCH   2   3
ENDBRANCH   1   2
BRANCH   1  23
ATOM     23  C   UNL A   1      34.109  29.019  27.545  1.00  0.00     0.275 C 
BRANCH  23  24
ATOM     24  O   UNL A   1      35.258  29.922  27.285  1.00  0.00    -0.458 OA
BRANCH  24  25
ATOM     25  C   UNL A   1      36.104  30.568  28.137  1.00  0.00     0.338 C 
ATOM     26  O   UNL A   1      35.844  31.651  28.641  1.00  0.00    -0.246 OA
BRANCH  25  27
ATOM     27  C   UNL A   1      37.336  29.867  28.507  1.00  0.00     0.060 A 
ATOM     28  C   UNL A   1      37.405  28.959  29.581  1.00  0.00     0.016 A 
ATOM     29  C   UNL A   1      38.393  30.017  27.640  1.00  0.00     0.016 A 
ATOM     30  C   UNL A   1      38.513  28.121  29.679  1.00  0.00     0.010 A 
ATOM     31  C   UNL A   1      39.271  28.990  27.530  1.00  0.00     0.010 A 
ATOM     32  C   UNL A   1      39.424  28.139  28.622  1.00  0.00    -0.014 A 
BRANCH  32  33
ATOM     33  C   UNL A   1      40.774  27.611  28.661  1.00  0.00     0.031 A 
ATOM     34  C   UNL A   1      41.065  26.282  28.122  1.00  0.00     0.074 A 
ATOM     35  C   UNL A   1      41.678  28.518  29.116  1.00  0.00     0.049 A 
ATOM     36  N   UNL A   1      41.821  25.415  28.699  1.00  0.00    -0.248 NA
ATOM     37  C   UNL A   1      40.488  25.796  26.865  1.00  0.00     0.031 C 
ATOM     38  C   UNL A   1      43.122  28.489  29.162  1.00  0.00     0.029 A 
ATOM     39  N   UNL A   1      41.381  29.736  29.762  1.00  0.00    -0.354 N 
ATOM     40  C   UNL A   1      42.151  24.505  27.714  1.00  0.00     0.074 A 
ATOM     41  C   UNL A   1      41.146  24.643  26.688  1.00  0.00     0.031 C 
ATOM     42  C   UNL A   1      43.529  29.377  30.098  1.00  0.00     0.029 A 
ATOM     43  C   UNL A   1      42.339  29.932  30.741  1.00  0.00     0.049 A 
ATOM     44  H   UNL A   1      40.629  30.336  29.554  1.00  0.00     0.167 HD
ATOM     45  C   UNL A   1      43.403  23.968  27.685  1.00  0.00     0.031 A 
ATOM     46  C   UNL A   1      41.965  29.828  32.053  1.00  0.00     0.031 A 
ATOM     47  C   UNL A   1      44.239  24.589  28.711  1.00  0.00     0.049 A 
ATOM     48  C   UNL A   1      42.587  28.584  32.647  1.00  0.00     0.074 A 
ATOM     49  C   UNL A   1      45.167  25.617  28.635  1.00  0.00     0.029 A 
ATOM     50  N   UNL A   1      43.885  24.477  30.049  1.00  0.00    -0.354 N 
ATOM     51  N   UNL A   1      42.929  27.542  31.939  1.00  0.00    -0.248 NA
ATOM     52  C   UNL A   1      42.913  28.435  34.059  1.00  0.00     0.031 C 
ATOM     53  C   UNL A   1      45.306  26.175  29.934  1.00  0.00     0.029 A 
ATOM     54  C   UNL A   1      44.465  25.489  30.791  1.00  0.00     0.049 A 
ATOM     55  H   UNL A   1      43.301  23.775  30.417  1.00  0.00     0.167 HD
ATOM     56  C   UNL A   1      43.623  26.667  32.725  1.00  0.00     0.074 A 
ATOM     57  C   UNL A   1      43.550  27.248  34.055  1.00  0.00     0.031 C 
ATOM     58  C   UNL A   1      44.240  25.555  32.228  1.00  0.00     0.031 A 
BRANCH  45  59
ATOM     59  C   UNL A   1      43.953  23.206  26.505  1.00  0.00    -0.014 A 
ATOM     60  C   UNL A   1      43.617  21.851  26.326  1.00  0.00     0.009 A 
ATOM     61  C   UNL A   1      44.786  23.776  25.525  1.00  0.00     0.009 A 
ATOM     62  C   UNL A   1      44.127  21.087  25.270  1.00  0.00     0.001 A 
ATOM     63  C   UNL A   1      45.317  23.009  24.474  1.00  0.00     0.001 A 
ATOM     64  C   UNL A   1      44.990  21.664  24.349  1.00  0.00     0.000 A 
ENDBRANCH  45  59
BRANCH  46  65
ATOM     65  C   UNL A   1      40.587  30.355  32.366  1.00  0.00    -0.014 A 
ATOM     66  C   UNL A   1      40.163  31.535  31.711  1.00  0.00     0.009 A 
ATOM     67  C   UNL A   1      39.603  29.588  33.009  1.00  0.00     0.009 A 
ATOM     68  C   UNL A   1      38.807  31.876  31.608  1.00  0.00     0.001 A 
ATOM     69  C   UNL A   1      38.244  29.949  32.928  1.00  0.00     0.001 A 
ATOM     70  C   UNL A   1      37.843  31.069  32.198  1.00  0.00     0.000 A 
ENDBRANCH  46  65
BRANCH  58  71
ATOM     71  C   UNL A   1      44.785  24.423  33.054  1.00  0.00    -0.014 A 
ATOM     72  C   UNL A   1      46.089  24.389  33.554  1.00  0.00     0.009 A 
ATOM     73  C   UNL A   1      43.898  23.417  33.502  1.00  0.00     0.009 A 
ATOM     74  C   UNL A   1      46.501  23.370  34.419  1.00  0.00     0.001 A 
ATOM     75  C   UNL A   1      44.285  22.441  34.414  1.00  0.00     0.001 A 
ATOM     76  C   UNL A   1      45.596  22.407  34.859  1.00  0.00     0.000 A 
ENDBRANCH  58  71
ENDBRANCH  32  33
ENDBRANCH  25  27
ENDBRANCH  24  25
ENDBRANCH  23  24
ENDBRANCH   1  23
TORSDOF 14
ENDMDL
