MODEL 1
REMARK VINA RESULT:     -12.9      0.000      0.000
REMARK SMILES NS(=O)(=O)c1ccc(-n2nc(NC(=O)NCCCC(=O)OCCOC(=O)c3ccc(-c4c5nc(c(-c6ccccc6)c6ccc([nH]6)c(-c6ccccc6)c6nc(c(-c7ccccc7)c7ccc4[nH]7)C=C6)C=C5)cc3)cc2-c2ccccc2)cc1
REMARK SMILES IDX 19 1 20 2 18 3 17 4 16 5 15 6 12 7 13 8 14 10 11 12 9 13
REMARK SMILES IDX 10 14 76 15 75 16 8 17 5 18 6 19 84 20 7 21 83 22 2 23 3 24
REMARK SMILES IDX 4 25 1 26 77 29 78 30 82 31 79 32 81 33 80 34 21 35 22 36
REMARK SMILES IDX 23 37 24 38 25 39 26 40 27 41 28 42 74 43 29 44 73 45 30 46
REMARK SMILES IDX 31 47 32 48 67 49 33 50 72 51 66 52 68 53 34 54 71 55 65 56
REMARK SMILES IDX 64 57 35 59 57 60 42 61 56 62 43 63 46 64 55 65 69 66 44 67
REMARK SMILES IDX 45 68 54 70 70 71 47 72 36 73 37 74 41 75 38 76 40 77 39 78
REMARK SMILES IDX 58 79 59 80 63 81 60 82 62 83 61 84 48 85 49 86 53 87 50 88
REMARK SMILES IDX 52 89 51 90
REMARK H PARENT 12 9 15 11 1 27 1 28 68 58 46 69
REMARK Flexibility Score: inf
ROOT
ATOM      1  C   UNL A   1      36.999  22.303  25.082  1.00  0.00     0.305 C 
ATOM      2  O   UNL A   1      37.405  21.497  24.251  1.00  0.00    -0.252 OA
ENDROOT
BRANCH   1   3
ATOM      3  C   UNL A   1      35.621  22.926  24.989  1.00  0.00     0.124 C 
BRANCH   3   4
ATOM      4  C   UNL A   1      34.980  23.192  23.638  1.00  0.00     0.033 C 
BRANCH   4   5
ATOM      5  C   UNL A   1      33.490  22.996  23.478  1.00  0.00     0.118 C 
BRANCH   5   6
ATOM      6  N   UNL A   1      32.948  21.680  23.709  1.00  0.00    -0.338 N 
ATOM      7  N   UNL A   1      31.794  21.990  25.795  1.00  0.00    -0.291 N 
ATOM      8  C   UNL A   1      32.215  21.224  24.755  1.00  0.00     0.320 C 
ATOM      9  H   UNL A   1      31.543  21.474  26.595  1.00  0.00     0.173 HD
ATOM     10  O   UNL A   1      32.011  20.006  24.813  1.00  0.00    -0.248 OA
ATOM     11  H   UNL A   1      33.137  21.017  23.006  1.00  0.00     0.165 HD
BRANCH   7  12
ATOM     12  C   UNL A   1      31.649  23.349  25.939  1.00  0.00     0.157 A 
ATOM     13  N   UNL A   1      31.105  25.225  25.288  1.00  0.00    -0.231 N 
ATOM     14  N   UNL A   1      30.572  24.028  25.562  1.00  0.00    -0.149 NA
ATOM     15  C   UNL A   1      32.124  25.526  26.164  1.00  0.00     0.076 A 
ATOM     16  C   UNL A   1      32.570  24.264  26.536  1.00  0.00     0.078 A 
BRANCH  13  17
ATOM     17  C   UNL A   1      30.594  26.013  24.260  1.00  0.00     0.065 A 
ATOM     18  C   UNL A   1      29.737  28.012  22.783  1.00  0.00     0.082 A 
ATOM     19  C   UNL A   1      31.004  27.537  22.486  1.00  0.00     0.024 A 
ATOM     20  C   UNL A   1      28.821  27.421  23.639  1.00  0.00     0.024 A 
ATOM     21  C   UNL A   1      31.454  26.514  23.267  1.00  0.00     0.030 A 
ATOM     22  C   UNL A   1      29.253  26.369  24.378  1.00  0.00     0.030 A 
BRANCH  18  23
ATOM     23  S   UNL A   1      29.300  29.580  22.314  1.00  0.00     0.238 S 
ATOM     24  O   UNL A   1      29.383  30.420  23.481  1.00  0.00    -0.207 OA
ATOM     25  O   UNL A   1      28.052  29.433  21.593  1.00  0.00    -0.207 OA
BRANCH  23  26
ATOM     26  N   UNL A   1      30.566  30.038  21.300  1.00  0.00    -0.225 NA
ATOM     27  H   UNL A   1      30.424  31.001  20.994  1.00  0.00     0.137 HD
ATOM     28  H   UNL A   1      30.590  29.423  20.486  1.00  0.00     0.137 HD
ENDBRANCH  23  26
ENDBRANCH  18  23
ENDBRANCH  13  17
BRANCH  15  29
ATOM     29  C   UNL A   1      32.476  26.911  26.480  1.00  0.00     0.000 A 
ATOM     30  C   UNL A   1      33.806  27.340  26.269  1.00  0.00     0.010 A 
ATOM     31  C   UNL A   1      31.576  27.789  27.079  1.00  0.00     0.010 A 
ATOM     32  C   UNL A   1      34.222  28.617  26.639  1.00  0.00     0.001 A 
ATOM     33  C   UNL A   1      31.993  29.079  27.437  1.00  0.00     0.001 A 
ATOM     34  C   UNL A   1      33.307  29.492  27.212  1.00  0.00     0.000 A 
ENDBRANCH  15  29
ENDBRANCH   7  12
ENDBRANCH   5   6
ENDBRANCH   4   5
ENDBRANCH   3   4
ENDBRANCH   1   3
BRANCH   1  35
ATOM     35  O   UNL A   1      37.729  22.746  26.135  1.00  0.00    -0.462 OA
BRANCH  35  36
ATOM     36  C   UNL A   1      37.852  24.174  26.277  1.00  0.00     0.274 C 
BRANCH  36  37
ATOM     37  C   UNL A   1      39.228  24.583  26.790  1.00  0.00     0.275 C 
BRANCH  37  38
ATOM     38  O   UNL A   1      39.173  25.273  28.043  1.00  0.00    -0.458 OA
BRANCH  38  39
ATOM     39  C   UNL A   1      39.594  26.561  28.033  1.00  0.00     0.338 C 
ATOM     40  O   UNL A   1      40.031  27.178  27.083  1.00  0.00    -0.246 OA
BRANCH  39  41
ATOM     41  C   UNL A   1      39.715  27.085  29.389  1.00  0.00     0.060 A 
ATOM     42  C   UNL A   1      38.843  26.662  30.405  1.00  0.00     0.016 A 
ATOM     43  C   UNL A   1      40.409  28.271  29.530  1.00  0.00     0.016 A 
ATOM     44  C   UNL A   1      38.393  27.642  31.313  1.00  0.00     0.010 A 
ATOM     45  C   UNL A   1      40.203  28.971  30.684  1.00  0.00     0.010 A 
ATOM     46  C   UNL A   1      38.908  28.960  31.195  1.00  0.00    -0.014 A 
BRANCH  46  47
ATOM     47  C   UNL A   1      38.573  30.197  32.028  1.00  0.00     0.031 A 
ATOM     48  C   UNL A   1      37.706  30.953  31.013  1.00  0.00     0.074 A 
ATOM     49  C   UNL A   1      38.877  30.568  33.362  1.00  0.00     0.049 A 
ATOM     50  N   UNL A   1      38.207  31.764  30.128  1.00  0.00    -0.248 NA
ATOM     51  C   UNL A   1      36.370  30.445  30.544  1.00  0.00     0.031 C 
ATOM     52  C   UNL A   1      39.646  29.967  34.509  1.00  0.00     0.029 A 
ATOM     53  N   UNL A   1      38.552  31.728  34.066  1.00  0.00    -0.354 N 
ATOM     54  C   UNL A   1      37.120  32.180  29.363  1.00  0.00     0.074 A 
ATOM     55  C   UNL A   1      36.183  31.108  29.397  1.00  0.00     0.031 C 
ATOM     56  C   UNL A   1      39.406  30.491  35.734  1.00  0.00     0.029 A 
ATOM     57  C   UNL A   1      38.628  31.663  35.511  1.00  0.00     0.049 A 
ATOM     58  H   UNL A   1      38.282  32.553  33.602  1.00  0.00     0.167 HD
ATOM     59  C   UNL A   1      36.870  33.515  29.280  1.00  0.00     0.031 A 
ATOM     60  C   UNL A   1      38.296  32.587  36.475  1.00  0.00     0.031 A 
ATOM     61  C   UNL A   1      38.064  34.237  29.650  1.00  0.00     0.049 A 
ATOM     62  C   UNL A   1      38.082  33.850  35.732  1.00  0.00     0.074 A 
ATOM     63  C   UNL A   1      39.356  34.255  29.169  1.00  0.00     0.029 A 
ATOM     64  N   UNL A   1      38.121  34.558  30.982  1.00  0.00    -0.354 N 
ATOM     65  N   UNL A   1      39.093  34.489  35.202  1.00  0.00    -0.248 NA
ATOM     66  C   UNL A   1      36.816  33.880  34.999  1.00  0.00     0.031 C 
ATOM     67  C   UNL A   1      40.191  34.250  30.325  1.00  0.00     0.029 A 
ATOM     68  C   UNL A   1      39.400  34.441  31.457  1.00  0.00     0.049 A 
ATOM     69  H   UNL A   1      37.347  34.837  31.523  1.00  0.00     0.167 HD
ATOM     70  C   UNL A   1      38.760  34.569  33.858  1.00  0.00     0.074 A 
ATOM     71  C   UNL A   1      37.332  34.168  33.795  1.00  0.00     0.031 C 
ATOM     72  C   UNL A   1      39.711  34.532  32.868  1.00  0.00     0.031 A 
BRANCH  59  73
ATOM     73  C   UNL A   1      35.488  34.107  29.463  1.00  0.00    -0.014 A 
ATOM     74  C   UNL A   1      34.932  34.818  28.390  1.00  0.00     0.009 A 
ATOM     75  C   UNL A   1      34.826  34.230  30.707  1.00  0.00     0.009 A 
ATOM     76  C   UNL A   1      33.787  35.609  28.550  1.00  0.00     0.001 A 
ATOM     77  C   UNL A   1      33.665  34.993  30.865  1.00  0.00     0.001 A 
ATOM     78  C   UNL A   1      33.150  35.692  29.785  1.00  0.00     0.000 A 
ENDBRANCH  59  73
BRANCH  60  79
ATOM     79  C   UNL A   1      37.721  32.310  37.842  1.00  0.00    -0.014 A 
ATOM     80  C   UNL A   1      37.033  31.134  38.230  1.00  0.00     0.009 A 
ATOM     81  C   UNL A   1      38.128  33.154  38.889  1.00  0.00     0.009 A 
ATOM     82  C   UNL A   1      36.854  30.806  39.599  1.00  0.00     0.001 A 
ATOM     83  C   UNL A   1      37.974  32.821  40.238  1.00  0.00     0.001 A 
ATOM     84  C   UNL A   1      37.359  31.634  40.599  1.00  0.00     0.000 A 
ENDBRANCH  60  79
BRANCH  72  85
ATOM     85  C   UNL A   1      41.189  34.569  33.226  1.00  0.00    -0.014 A 
ATOM     86  C   UNL A   1      42.058  33.463  33.348  1.00  0.00     0.009 A 
ATOM     87  C   UNL A   1      41.762  35.847  33.273  1.00  0.00     0.009 A 
ATOM     88  C   UNL A   1      43.435  33.652  33.582  1.00  0.00     0.001 A 
ATOM     89  C   UNL A   1      43.128  36.035  33.488  1.00  0.00     0.001 A 
ATOM     90  C   UNL A   1      43.963  34.940  33.667  1.00  0.00     0.000 A 
ENDBRANCH  72  85
ENDBRANCH  46  47
ENDBRANCH  39  41
ENDBRANCH  38  39
ENDBRANCH  37  38
ENDBRANCH  36  37
ENDBRANCH  35  36
ENDBRANCH   1  35
TORSDOF 19
ENDMDL
MODEL 2
REMARK VINA RESULT:     -11.9      4.844      7.127
REMARK SMILES NS(=O)(=O)c1ccc(-n2nc(NC(=O)NCCCC(=O)OCCOC(=O)c3ccc(-c4c5nc(c(-c6ccccc6)c6ccc([nH]6)c(-c6ccccc6)c6nc(c(-c7ccccc7)c7ccc4[nH]7)C=C6)C=C5)cc3)cc2-c2ccccc2)cc1
REMARK SMILES IDX 19 1 20 2 18 3 17 4 16 5 15 6 12 7 13 8 14 10 11 12 9 13
REMARK SMILES IDX 10 14 76 15 75 16 8 17 5 18 6 19 84 20 7 21 83 22 2 23 3 24
REMARK SMILES IDX 4 25 1 26 77 29 78 30 82 31 79 32 81 33 80 34 21 35 22 36
REMARK SMILES IDX 23 37 24 38 25 39 26 40 27 41 28 42 74 43 29 44 73 45 30 46
REMARK SMILES IDX 31 47 32 48 67 49 33 50 72 51 66 52 68 53 34 54 71 55 65 56
REMARK SMILES IDX 64 57 35 59 57 60 42 61 56 62 43 63 46 64 55 65 69 66 44 67
REMARK SMILES IDX 45 68 54 70 70 71 47 72 36 73 37 74 41 75 38 76 40 77 39 78
REMARK SMILES IDX 58 79 59 80 63 81 60 82 62 83 61 84 48 85 49 86 53 87 50 88
REMARK SMILES IDX 52 89 51 90
REMARK H PARENT 12 9 15 11 1 27 1 28 68 58 46 69
REMARK Flexibility Score: inf
ROOT
ATOM      1  C   UNL A   1      35.474  23.286  24.638  1.00  0.00     0.305 C 
ATOM      2  O   UNL A   1      35.789  24.446  24.886  1.00  0.00    -0.252 OA
ENDROOT
BRANCH   1   3
ATOM      3  C   UNL A   1      35.121  22.833  23.236  1.00  0.00     0.124 C 
BRANCH   3   4
ATOM      4  C   UNL A   1      33.938  23.439  22.500  1.00  0.00     0.033 C 
BRANCH   4   5
ATOM      5  C   UNL A   1      32.536  23.085  22.941  1.00  0.00     0.118 C 
BRANCH   5   6
ATOM      6  N   UNL A   1      32.288  21.745  23.412  1.00  0.00    -0.338 N 
ATOM      7  N   UNL A   1      32.113  22.089  25.784  1.00  0.00    -0.291 N 
ATOM      8  C   UNL A   1      32.127  21.296  24.682  1.00  0.00     0.320 C 
ATOM      9  H   UNL A   1      32.286  21.607  26.625  1.00  0.00     0.173 HD
ATOM     10  O   UNL A   1      32.098  20.072  24.848  1.00  0.00    -0.248 OA
ATOM     11  H   UNL A   1      32.227  21.056  22.711  1.00  0.00     0.165 HD
BRANCH   7  12
ATOM     12  C   UNL A   1      31.901  23.437  25.948  1.00  0.00     0.157 A 
ATOM     13  N   UNL A   1      31.262  25.292  25.324  1.00  0.00    -0.231 N 
ATOM     14  N   UNL A   1      30.789  24.067  25.582  1.00  0.00    -0.149 NA
ATOM     15  C   UNL A   1      32.266  25.632  26.202  1.00  0.00     0.076 A 
ATOM     16  C   UNL A   1      32.776  24.389  26.555  1.00  0.00     0.078 A 
BRANCH  13  17
ATOM     17  C   UNL A   1      30.709  26.068  24.307  1.00  0.00     0.065 A 
ATOM     18  C   UNL A   1      29.726  28.036  22.869  1.00  0.00     0.082 A 
ATOM     19  C   UNL A   1      31.031  27.669  22.584  1.00  0.00     0.024 A 
ATOM     20  C   UNL A   1      28.844  27.352  23.690  1.00  0.00     0.024 A 
ATOM     21  C   UNL A   1      31.545  26.662  23.345  1.00  0.00     0.030 A 
ATOM     22  C   UNL A   1      29.343  26.315  24.408  1.00  0.00     0.030 A 
BRANCH  18  23
ATOM     23  S   UNL A   1      29.176  29.578  22.434  1.00  0.00     0.238 S 
ATOM     24  O   UNL A   1      27.737  29.551  22.473  1.00  0.00    -0.207 OA
ATOM     25  O   UNL A   1      29.879  29.908  21.211  1.00  0.00    -0.207 OA
BRANCH  23  26
ATOM     26  N   UNL A   1      29.676  30.536  23.728  1.00  0.00    -0.225 NA
ATOM     27  H   UNL A   1      28.923  31.173  23.989  1.00  0.00     0.137 HD
ATOM     28  H   UNL A   1      30.498  31.075  23.455  1.00  0.00     0.137 HD
ENDBRANCH  23  26
ENDBRANCH  18  23
ENDBRANCH  13  17
BRANCH  15  29
ATOM     29  C   UNL A   1      32.550  27.028  26.536  1.00  0.00     0.000 A 
ATOM     30  C   UNL A   1      31.507  27.831  27.049  1.00  0.00     0.010 A 
ATOM     31  C   UNL A   1      33.782  27.621  26.270  1.00  0.00     0.010 A 
ATOM     32  C   UNL A   1      31.692  29.189  27.297  1.00  0.00     0.001 A 
ATOM     33  C   UNL A   1      33.971  28.984  26.534  1.00  0.00     0.001 A 
ATOM     34  C   UNL A   1      32.934  29.763  27.051  1.00  0.00     0.000 A 
ENDBRANCH  15  29
ENDBRANCH   7  12
ENDBRANCH   5   6
ENDBRANCH   4   5
ENDBRANCH   3   4
ENDBRANCH   1   3
BRANCH   1  35
ATOM     35  O   UNL A   1      35.374  22.307  25.569  1.00  0.00    -0.462 OA
BRANCH  35  36
ATOM     36  C   UNL A   1      36.000  21.049  25.251  1.00  0.00     0.274 C 
BRANCH  36  37
ATOM     37  C   UNL A   1      37.417  21.231  24.719  1.00  0.00     0.275 C 
BRANCH  37  38
ATOM     38  O   UNL A   1      38.396  21.310  25.761  1.00  0.00    -0.458 OA
BRANCH  38  39
ATOM     39  C   UNL A   1      39.390  20.390  25.716  1.00  0.00     0.338 C 
ATOM     40  O   UNL A   1      39.281  19.211  25.445  1.00  0.00    -0.246 OA
BRANCH  39  41
ATOM     41  C   UNL A   1      40.620  20.917  26.296  1.00  0.00     0.060 A 
ATOM     42  C   UNL A   1      41.071  20.477  27.550  1.00  0.00     0.016 A 
ATOM     43  C   UNL A   1      41.077  22.117  25.785  1.00  0.00     0.016 A 
ATOM     44  C   UNL A   1      41.624  21.449  28.410  1.00  0.00     0.010 A 
ATOM     45  C   UNL A   1      41.967  22.813  26.550  1.00  0.00     0.010 A 
ATOM     46  C   UNL A   1      41.765  22.777  27.928  1.00  0.00    -0.014 A 
BRANCH  46  47
ATOM     47  C   UNL A   1      42.307  24.007  28.654  1.00  0.00     0.031 A 
ATOM     48  C   UNL A   1      41.366  25.072  28.076  1.00  0.00     0.074 A 
ATOM     49  C   UNL A   1      43.321  24.176  29.630  1.00  0.00     0.049 A 
ATOM     50  N   UNL A   1      41.614  25.699  26.965  1.00  0.00    -0.248 NA
ATOM     51  C   UNL A   1      39.889  25.092  28.358  1.00  0.00     0.031 C 
ATOM     52  C   UNL A   1      44.299  23.284  30.349  1.00  0.00     0.029 A 
ATOM     53  N   UNL A   1      43.784  25.338  30.249  1.00  0.00    -0.354 N 
ATOM     54  C   UNL A   1      40.503  26.511  26.752  1.00  0.00     0.074 A 
ATOM     55  C   UNL A   1      39.403  25.838  27.358  1.00  0.00     0.031 C 
ATOM     56  C   UNL A   1      44.871  23.794  31.465  1.00  0.00     0.029 A 
ATOM     57  C   UNL A   1      44.523  25.175  31.484  1.00  0.00     0.049 A 
ATOM     58  H   UNL A   1      43.616  26.229  29.864  1.00  0.00     0.167 HD
ATOM     59  C   UNL A   1      40.704  27.851  26.626  1.00  0.00     0.031 A 
ATOM     60  C   UNL A   1      45.027  26.105  32.364  1.00  0.00     0.031 A 
ATOM     61  C   UNL A   1      42.089  28.085  26.297  1.00  0.00     0.049 A 
ATOM     62  C   UNL A   1      44.914  27.400  31.654  1.00  0.00     0.074 A 
ATOM     63  C   UNL A   1      42.910  27.672  25.268  1.00  0.00     0.029 A 
ATOM     64  N   UNL A   1      42.887  28.295  27.393  1.00  0.00    -0.354 N 
ATOM     65  N   UNL A   1      45.689  27.668  30.635  1.00  0.00    -0.248 NA
ATOM     66  C   UNL A   1      43.545  27.912  31.603  1.00  0.00     0.031 C 
ATOM     67  C   UNL A   1      44.143  27.312  25.888  1.00  0.00     0.029 A 
ATOM     68  C   UNL A   1      44.113  27.711  27.224  1.00  0.00     0.049 A 
ATOM     69  H   UNL A   1      42.613  28.800  28.194  1.00  0.00     0.167 HD
ATOM     70  C   UNL A   1      44.797  27.931  29.606  1.00  0.00     0.074 A 
ATOM     71  C   UNL A   1      43.477  28.062  30.272  1.00  0.00     0.031 C 
ATOM     72  C   UNL A   1      45.077  27.612  28.300  1.00  0.00     0.031 A 
BRANCH  59  73
ATOM     73  C   UNL A   1      39.870  28.882  27.358  1.00  0.00    -0.014 A 
ATOM     74  C   UNL A   1      40.309  29.303  28.621  1.00  0.00     0.009 A 
ATOM     75  C   UNL A   1      38.555  29.255  26.995  1.00  0.00     0.009 A 
ATOM     76  C   UNL A   1      39.483  30.047  29.474  1.00  0.00     0.001 A 
ATOM     77  C   UNL A   1      37.737  30.024  27.828  1.00  0.00     0.001 A 
ATOM     78  C   UNL A   1      38.200  30.413  29.075  1.00  0.00     0.000 A 
ENDBRANCH  59  73
BRANCH  60  79
ATOM     79  C   UNL A   1      45.129  25.978  33.864  1.00  0.00    -0.014 A 
ATOM     80  C   UNL A   1      44.050  26.049  34.778  1.00  0.00     0.009 A 
ATOM     81  C   UNL A   1      46.338  25.480  34.381  1.00  0.00     0.009 A 
ATOM     82  C   UNL A   1      44.179  25.562  36.105  1.00  0.00     0.001 A 
ATOM     83  C   UNL A   1      46.460  24.978  35.680  1.00  0.00     0.001 A 
ATOM     84  C   UNL A   1      45.374  24.993  36.540  1.00  0.00     0.000 A 
ENDBRANCH  60  79
BRANCH  72  85
ATOM     85  C   UNL A   1      46.459  27.107  27.914  1.00  0.00    -0.014 A 
ATOM     86  C   UNL A   1      47.586  27.893  27.590  1.00  0.00     0.009 A 
ATOM     87  C   UNL A   1      46.655  25.728  28.060  1.00  0.00     0.009 A 
ATOM     88  C   UNL A   1      48.839  27.291  27.353  1.00  0.00     0.001 A 
ATOM     89  C   UNL A   1      47.898  25.133  27.843  1.00  0.00     0.001 A 
ATOM     90  C   UNL A   1      48.987  25.909  27.465  1.00  0.00     0.000 A 
ENDBRANCH  72  85
ENDBRANCH  46  47
ENDBRANCH  39  41
ENDBRANCH  38  39
ENDBRANCH  37  38
ENDBRANCH  36  37
ENDBRANCH  35  36
ENDBRANCH   1  35
TORSDOF 19
ENDMDL
MODEL 3
REMARK VINA RESULT:     -11.9      2.858      5.707
REMARK SMILES NS(=O)(=O)c1ccc(-n2nc(NC(=O)NCCCC(=O)OCCOC(=O)c3ccc(-c4c5nc(c(-c6ccccc6)c6ccc([nH]6)c(-c6ccccc6)c6nc(c(-c7ccccc7)c7ccc4[nH]7)C=C6)C=C5)cc3)cc2-c2ccccc2)cc1
REMARK SMILES IDX 19 1 20 2 18 3 17 4 16 5 15 6 12 7 13 8 14 10 11 12 9 13
REMARK SMILES IDX 10 14 76 15 75 16 8 17 5 18 6 19 84 20 7 21 83 22 2 23 3 24
REMARK SMILES IDX 4 25 1 26 77 29 78 30 82 31 79 32 81 33 80 34 21 35 22 36
REMARK SMILES IDX 23 37 24 38 25 39 26 40 27 41 28 42 74 43 29 44 73 45 30 46
REMARK SMILES IDX 31 47 32 48 67 49 33 50 72 51 66 52 68 53 34 54 71 55 65 56
REMARK SMILES IDX 64 57 35 59 57 60 42 61 56 62 43 63 46 64 55 65 69 66 44 67
REMARK SMILES IDX 45 68 54 70 70 71 47 72 36 73 37 74 41 75 38 76 40 77 39 78
REMARK SMILES IDX 58 79 59 80 63 81 60 82 62 83 61 84 48 85 49 86 53 87 50 88
REMARK SMILES IDX 52 89 51 90
REMARK H PARENT 12 9 15 11 1 27 1 28 68 58 46 69
REMARK Flexibility Score: inf
ROOT
ATOM      1  C   UNL A   1      35.983  23.043  25.054  1.00  0.00     0.305 C 
ATOM      2  O   UNL A   1      35.796  24.222  25.337  1.00  0.00    -0.252 OA
ENDROOT
BRANCH   1   3
ATOM      3  C   UNL A   1      35.406  22.419  23.800  1.00  0.00     0.124 C 
BRANCH   3   4
ATOM      4  C   UNL A   1      34.424  23.187  22.932  1.00  0.00     0.033 C 
BRANCH   4   5
ATOM      5  C   UNL A   1      32.945  22.911  23.070  1.00  0.00     0.118 C 
BRANCH   5   6
ATOM      6  N   UNL A   1      32.532  21.580  23.437  1.00  0.00    -0.338 N 
ATOM      7  N   UNL A   1      31.919  21.879  25.742  1.00  0.00    -0.291 N 
ATOM      8  C   UNL A   1      32.101  21.113  24.636  1.00  0.00     0.320 C 
ATOM      9  H   UNL A   1      31.897  21.368  26.583  1.00  0.00     0.173 HD
ATOM     10  O   UNL A   1      31.968  19.889  24.750  1.00  0.00    -0.248 OA
ATOM     11  H   UNL A   1      32.568  20.913  22.715  1.00  0.00     0.165 HD
BRANCH   7  12
ATOM     12  C   UNL A   1      31.759  23.234  25.909  1.00  0.00     0.157 A 
ATOM     13  N   UNL A   1      31.183  25.112  25.294  1.00  0.00    -0.231 N 
ATOM     14  N   UNL A   1      30.668  23.905  25.556  1.00  0.00    -0.149 NA
ATOM     15  C   UNL A   1      32.208  25.414  26.161  1.00  0.00     0.076 A 
ATOM     16  C   UNL A   1      32.675  24.153  26.508  1.00  0.00     0.078 A 
BRANCH  13  17
ATOM     17  C   UNL A   1      30.649  25.910  24.283  1.00  0.00     0.065 A 
ATOM     18  C   UNL A   1      29.816  27.927  22.818  1.00  0.00     0.082 A 
ATOM     19  C   UNL A   1      31.023  27.362  22.443  1.00  0.00     0.024 A 
ATOM     20  C   UNL A   1      28.930  27.417  23.755  1.00  0.00     0.024 A 
ATOM     21  C   UNL A   1      31.464  26.329  23.217  1.00  0.00     0.030 A 
ATOM     22  C   UNL A   1      29.346  26.356  24.489  1.00  0.00     0.030 A 
BRANCH  18  23
ATOM     23  S   UNL A   1      29.446  29.509  22.339  1.00  0.00     0.238 S 
ATOM     24  O   UNL A   1      29.462  30.333  23.520  1.00  0.00    -0.207 OA
ATOM     25  O   UNL A   1      28.252  29.398  21.528  1.00  0.00    -0.207 OA
BRANCH  23  26
ATOM     26  N   UNL A   1      30.792  29.951  21.425  1.00  0.00    -0.225 NA
ATOM     27  H   UNL A   1      30.488  30.284  20.511  1.00  0.00     0.137 HD
ATOM     28  H   UNL A   1      31.404  29.142  21.307  1.00  0.00     0.137 HD
ENDBRANCH  23  26
ENDBRANCH  18  23
ENDBRANCH  13  17
BRANCH  15  29
ATOM     29  C   UNL A   1      32.547  26.798  26.494  1.00  0.00     0.000 A 
ATOM     30  C   UNL A   1      31.580  27.600  27.140  1.00  0.00     0.010 A 
ATOM     31  C   UNL A   1      33.749  27.384  26.103  1.00  0.00     0.010 A 
ATOM     32  C   UNL A   1      31.811  28.949  27.397  1.00  0.00     0.001 A 
ATOM     33  C   UNL A   1      33.986  28.738  26.375  1.00  0.00     0.001 A 
ATOM     34  C   UNL A   1      33.024  29.515  27.025  1.00  0.00     0.000 A 
ENDBRANCH  15  29
ENDBRANCH   7  12
ENDBRANCH   5   6
ENDBRANCH   4   5
ENDBRANCH   3   4
ENDBRANCH   1   3
BRANCH   1  35
ATOM     35  O   UNL A   1      36.679  22.174  25.826  1.00  0.00    -0.462 OA
BRANCH  35  36
ATOM     36  C   UNL A   1      37.553  21.260  25.138  1.00  0.00     0.274 C 
BRANCH  36  37
ATOM     37  C   UNL A   1      38.914  21.146  25.816  1.00  0.00     0.275 C 
BRANCH  37  38
ATOM     38  O   UNL A   1      39.185  22.235  26.705  1.00  0.00    -0.458 OA
BRANCH  38  39
ATOM     39  C   UNL A   1      40.441  22.293  27.212  1.00  0.00     0.338 C 
ATOM     40  O   UNL A   1      41.007  21.434  27.858  1.00  0.00    -0.246 OA
BRANCH  39  41
ATOM     41  C   UNL A   1      40.983  23.643  27.121  1.00  0.00     0.060 A 
ATOM     42  C   UNL A   1      42.227  23.960  27.691  1.00  0.00     0.016 A 
ATOM     43  C   UNL A   1      40.081  24.651  26.840  1.00  0.00     0.016 A 
ATOM     44  C   UNL A   1      42.337  25.210  28.334  1.00  0.00     0.010 A 
ATOM     45  C   UNL A   1      40.469  25.926  27.136  1.00  0.00     0.010 A 
ATOM     46  C   UNL A   1      41.226  26.092  28.293  1.00  0.00    -0.014 A 
BRANCH  46  47
ATOM     47  C   UNL A   1      41.081  27.478  28.920  1.00  0.00     0.031 A 
ATOM     48  C   UNL A   1      42.303  28.164  28.294  1.00  0.00     0.074 A 
ATOM     49  C   UNL A   1      40.102  28.050  29.772  1.00  0.00     0.049 A 
ATOM     50  N   UNL A   1      43.486  28.116  28.832  1.00  0.00    -0.248 NA
ATOM     51  C   UNL A   1      42.421  28.431  26.819  1.00  0.00     0.031 C 
ATOM     52  C   UNL A   1      38.836  27.583  30.440  1.00  0.00     0.029 A 
ATOM     53  N   UNL A   1      40.033  29.328  30.327  1.00  0.00    -0.354 N 
ATOM     54  C   UNL A   1      44.318  28.783  27.936  1.00  0.00     0.074 A 
ATOM     55  C   UNL A   1      43.738  28.594  26.648  1.00  0.00     0.031 C 
ATOM     56  C   UNL A   1      38.007  28.549  30.901  1.00  0.00     0.029 A 
ATOM     57  C   UNL A   1      38.740  29.767  30.809  1.00  0.00     0.049 A 
ATOM     58  H   UNL A   1      40.827  29.907  30.387  1.00  0.00     0.167 HD
ATOM     59  C   UNL A   1      45.025  29.852  28.392  1.00  0.00     0.031 A 
ATOM     60  C   UNL A   1      38.329  30.977  31.319  1.00  0.00     0.031 A 
ATOM     61  C   UNL A   1      45.091  29.785  29.832  1.00  0.00     0.049 A 
ATOM     62  C   UNL A   1      39.580  31.731  31.560  1.00  0.00     0.074 A 
ATOM     63  C   UNL A   1      45.567  28.847  30.724  1.00  0.00     0.029 A 
ATOM     64  N   UNL A   1      44.081  30.468  30.462  1.00  0.00    -0.354 N 
ATOM     65  N   UNL A   1      40.388  31.385  32.529  1.00  0.00    -0.248 NA
ATOM     66  C   UNL A   1      40.191  32.242  30.333  1.00  0.00     0.031 C 
ATOM     67  C   UNL A   1      44.583  28.767  31.753  1.00  0.00     0.029 A 
ATOM     68  C   UNL A   1      43.655  29.793  31.574  1.00  0.00     0.049 A 
ATOM     69  H   UNL A   1      43.714  31.329  30.155  1.00  0.00     0.167 HD
ATOM     70  C   UNL A   1      41.591  31.149  31.882  1.00  0.00     0.074 A 
ATOM     71  C   UNL A   1      41.402  31.696  30.515  1.00  0.00     0.031 C 
ATOM     72  C   UNL A   1      42.474  30.189  32.312  1.00  0.00     0.031 A 
BRANCH  59  73
ATOM     73  C   UNL A   1      45.100  31.168  27.647  1.00  0.00    -0.014 A 
ATOM     74  C   UNL A   1      46.370  31.659  27.312  1.00  0.00     0.009 A 
ATOM     75  C   UNL A   1      44.020  32.068  27.498  1.00  0.00     0.009 A 
ATOM     76  C   UNL A   1      46.550  32.973  26.859  1.00  0.00     0.001 A 
ATOM     77  C   UNL A   1      44.190  33.370  27.017  1.00  0.00     0.001 A 
ATOM     78  C   UNL A   1      45.462  33.826  26.706  1.00  0.00     0.000 A 
ENDBRANCH  59  73
BRANCH  60  79
ATOM     79  C   UNL A   1      36.978  31.626  31.146  1.00  0.00    -0.014 A 
ATOM     80  C   UNL A   1      35.978  31.739  32.142  1.00  0.00     0.009 A 
ATOM     81  C   UNL A   1      36.793  32.419  30.000  1.00  0.00     0.009 A 
ATOM     82  C   UNL A   1      34.911  32.665  32.010  1.00  0.00     0.001 A 
ATOM     83  C   UNL A   1      35.757  33.350  29.879  1.00  0.00     0.001 A 
ATOM     84  C   UNL A   1      34.826  33.495  30.894  1.00  0.00     0.000 A 
ENDBRANCH  60  79
BRANCH  72  85
ATOM     85  C   UNL A   1      42.232  29.461  33.625  1.00  0.00    -0.014 A 
ATOM     86  C   UNL A   1      41.623  28.198  33.792  1.00  0.00     0.009 A 
ATOM     87  C   UNL A   1      42.828  30.043  34.752  1.00  0.00     0.009 A 
ATOM     88  C   UNL A   1      41.558  27.593  35.064  1.00  0.00     0.001 A 
ATOM     89  C   UNL A   1      42.779  29.437  36.008  1.00  0.00     0.001 A 
ATOM     90  C   UNL A   1      42.123  28.223  36.172  1.00  0.00     0.000 A 
ENDBRANCH  72  85
ENDBRANCH  46  47
ENDBRANCH  39  41
ENDBRANCH  38  39
ENDBRANCH  37  38
ENDBRANCH  36  37
ENDBRANCH  35  36
ENDBRANCH   1  35
TORSDOF 19
ENDMDL
