MODEL 1
REMARK VINA RESULT:      -9.5      0.000      0.000
REMARK SMILES O=C(/C=C/C(=O)c1ccc(F)c(Br)c1)OCCOC(=O)c1ccc(-c2c3nc(c(-c4ccccc4)c4ccc([nH]4)c(-c4ccccc4)c4nc(c(-c5ccccc5)c5ccc2[nH]5)C=C4)C=C3)cc1
REMARK SMILES IDX 16 1 15 2 2 3 1 4 3 5 4 6 5 7 6 8 7 9 8 10 14 11 9 12 12 13
REMARK SMILES IDX 10 14 13 15 11 16 17 17 18 18 19 19 20 20 21 21 22 22 68 23
REMARK SMILES IDX 23 24 67 25 24 26 25 27 26 28 61 29 27 30 66 31 60 32 62 33
REMARK SMILES IDX 28 34 65 35 59 36 58 37 29 39 51 40 36 41 50 42 37 43 40 44
REMARK SMILES IDX 49 45 63 46 38 47 39 48 48 50 64 51 41 52 30 53 31 54 35 55
REMARK SMILES IDX 32 56 34 57 33 58 52 59 53 60 57 61 54 62 56 63 55 64 42 65
REMARK SMILES IDX 43 66 47 67 44 68 46 69 45 70
REMARK H PARENT 62 38 40 49
REMARK Flexibility Score: inf
ROOT
ATOM      1  C   UNL A   1      44.034  18.082  26.250  1.00  0.00     0.275 C 
ENDROOT
BRANCH   1   2
ATOM      2  O   UNL A   1      45.216  18.120  25.419  1.00  0.00    -0.459 OA
BRANCH   2   3
ATOM      3  C   UNL A   1      46.032  19.170  25.169  1.00  0.00     0.331 C 
ATOM      4  O   UNL A   1      47.250  19.071  25.284  1.00  0.00    -0.247 OA
BRANCH   3   5
ATOM      5  C   UNL A   1      45.467  20.512  24.957  1.00  0.00     0.097 C 
ATOM      6  C   UNL A   1      46.152  21.656  24.870  1.00  0.00     0.060 C 
BRANCH   6   7
ATOM      7  C   UNL A   1      45.577  22.929  24.369  1.00  0.00     0.186 C 
ATOM      8  O   UNL A   1      44.823  22.873  23.398  1.00  0.00    -0.289 OA
BRANCH   7   9
ATOM      9  C   UNL A   1      45.842  24.241  25.004  1.00  0.00     0.023 A 
ATOM     10  C   UNL A   1      47.113  24.612  25.457  1.00  0.00     0.015 A 
ATOM     11  C   UNL A   1      44.783  25.165  25.063  1.00  0.00     0.031 A 
ATOM     12  C   UNL A   1      47.320  25.897  25.963  1.00  0.00     0.041 A 
ATOM     13  C   UNL A   1      44.996  26.441  25.586  1.00  0.00     0.054 A 
ATOM     14  C   UNL A   1      46.263  26.804  26.026  1.00  0.00     0.137 A 
ATOM     15  Br  UNL A   1      43.554  27.658  25.692  1.00  0.00    -0.048 Br
ATOM     16  F   UNL A   1      46.496  28.031  26.514  1.00  0.00    -0.206 F 
ENDBRANCH   7   9
ENDBRANCH   6   7
ENDBRANCH   3   5
ENDBRANCH   2   3
ENDBRANCH   1   2
BRANCH   1  17
ATOM     17  C   UNL A   1      42.709  18.414  25.553  1.00  0.00     0.275 C 
BRANCH  17  18
ATOM     18  O   UNL A   1      41.625  18.668  26.459  1.00  0.00    -0.458 OA
BRANCH  18  19
ATOM     19  C   UNL A   1      40.820  19.699  26.101  1.00  0.00     0.338 C 
ATOM     20  O   UNL A   1      39.735  19.617  25.551  1.00  0.00    -0.246 OA
BRANCH  19  21
ATOM     21  C   UNL A   1      41.370  20.975  26.611  1.00  0.00     0.060 A 
ATOM     22  C   UNL A   1      41.367  21.181  27.997  1.00  0.00     0.016 A 
ATOM     23  C   UNL A   1      41.867  21.964  25.760  1.00  0.00     0.016 A 
ATOM     24  C   UNL A   1      41.806  22.396  28.531  1.00  0.00     0.010 A 
ATOM     25  C   UNL A   1      42.316  23.176  26.303  1.00  0.00     0.010 A 
ATOM     26  C   UNL A   1      42.253  23.422  27.689  1.00  0.00    -0.014 A 
BRANCH  26  27
ATOM     27  C   UNL A   1      42.505  24.788  28.230  1.00  0.00     0.031 A 
ATOM     28  C   UNL A   1      43.884  25.136  28.734  1.00  0.00     0.074 A 
ATOM     29  C   UNL A   1      41.548  25.737  28.257  1.00  0.00     0.049 A 
ATOM     30  N   UNL A   1      44.334  26.277  29.197  1.00  0.00    -0.248 NA
ATOM     31  C   UNL A   1      44.893  24.066  28.698  1.00  0.00     0.031 C 
ATOM     32  C   UNL A   1      40.185  25.589  27.751  1.00  0.00     0.029 A 
ATOM     33  N   UNL A   1      41.578  27.018  28.754  1.00  0.00    -0.354 N 
ATOM     34  C   UNL A   1      45.678  26.067  29.476  1.00  0.00     0.074 A 
ATOM     35  C   UNL A   1      45.950  24.671  29.216  1.00  0.00     0.031 C 
ATOM     36  C   UNL A   1      39.490  26.706  28.027  1.00  0.00     0.029 A 
ATOM     37  C   UNL A   1      40.362  27.659  28.707  1.00  0.00     0.049 A 
ATOM     38  H   UNL A   1      42.393  27.439  29.111  1.00  0.00     0.167 HD
ATOM     39  C   UNL A   1      46.619  26.959  29.867  1.00  0.00     0.031 A 
ATOM     40  C   UNL A   1      39.988  28.873  29.155  1.00  0.00     0.031 A 
ATOM     41  C   UNL A   1      46.364  28.346  30.145  1.00  0.00     0.049 A 
ATOM     42  C   UNL A   1      41.022  29.812  29.715  1.00  0.00     0.074 A 
ATOM     43  C   UNL A   1      47.267  29.335  30.496  1.00  0.00     0.029 A 
ATOM     44  N   UNL A   1      45.112  28.938  30.124  1.00  0.00    -0.354 N 
ATOM     45  N   UNL A   1      42.309  29.627  29.874  1.00  0.00    -0.248 NA
ATOM     46  C   UNL A   1      40.556  31.153  30.101  1.00  0.00     0.031 C 
ATOM     47  C   UNL A   1      46.552  30.509  30.755  1.00  0.00     0.029 A 
ATOM     48  C   UNL A   1      45.213  30.270  30.492  1.00  0.00     0.049 A 
ATOM     49  H   UNL A   1      44.274  28.480  29.884  1.00  0.00     0.167 HD
ATOM     50  C   UNL A   1      42.817  30.848  30.305  1.00  0.00     0.074 A 
ATOM     51  C   UNL A   1      41.698  31.761  30.393  1.00  0.00     0.031 C 
ATOM     52  C   UNL A   1      44.102  31.184  30.574  1.00  0.00     0.031 A 
BRANCH  39  53
ATOM     53  C   UNL A   1      48.025  26.444  30.020  1.00  0.00    -0.014 A 
ATOM     54  C   UNL A   1      48.475  25.913  31.240  1.00  0.00     0.009 A 
ATOM     55  C   UNL A   1      48.903  26.472  28.926  1.00  0.00     0.009 A 
ATOM     56  C   UNL A   1      49.790  25.464  31.375  1.00  0.00     0.001 A 
ATOM     57  C   UNL A   1      50.208  25.991  29.055  1.00  0.00     0.001 A 
ATOM     58  C   UNL A   1      50.654  25.500  30.281  1.00  0.00     0.000 A 
ENDBRANCH  39  53
BRANCH  40  59
ATOM     59  C   UNL A   1      38.568  29.306  29.050  1.00  0.00    -0.014 A 
ATOM     60  C   UNL A   1      37.707  29.219  30.154  1.00  0.00     0.009 A 
ATOM     61  C   UNL A   1      38.056  29.763  27.825  1.00  0.00     0.009 A 
ATOM     62  C   UNL A   1      36.355  29.545  30.027  1.00  0.00     0.001 A 
ATOM     63  C   UNL A   1      36.708  30.113  27.706  1.00  0.00     0.001 A 
ATOM     64  C   UNL A   1      35.857  29.992  28.803  1.00  0.00     0.000 A 
ENDBRANCH  40  59
BRANCH  52  65
ATOM     65  C   UNL A   1      44.390  32.623  30.914  1.00  0.00    -0.014 A 
ATOM     66  C   UNL A   1      44.646  33.584  29.924  1.00  0.00     0.009 A 
ATOM     67  C   UNL A   1      44.379  33.024  32.260  1.00  0.00     0.009 A 
ATOM     68  C   UNL A   1      44.933  34.904  30.279  1.00  0.00     0.001 A 
ATOM     69  C   UNL A   1      44.629  34.352  32.610  1.00  0.00     0.001 A 
ATOM     70  C   UNL A   1      44.920  35.288  31.620  1.00  0.00     0.000 A 
ENDBRANCH  52  65
ENDBRANCH  26  27
ENDBRANCH  19  21
ENDBRANCH  18  19
ENDBRANCH  17  18
ENDBRANCH   1  17
TORSDOF 13
ENDMDL
MODEL 2
REMARK VINA RESULT:      -8.9      5.929     11.439
REMARK SMILES O=C(/C=C/C(=O)c1ccc(F)c(Br)c1)OCCOC(=O)c1ccc(-c2c3nc(c(-c4ccccc4)c4ccc([nH]4)c(-c4ccccc4)c4nc(c(-c5ccccc5)c5ccc2[nH]5)C=C4)C=C3)cc1
REMARK SMILES IDX 16 1 15 2 2 3 1 4 3 5 4 6 5 7 6 8 7 9 8 10 14 11 9 12 12 13
REMARK SMILES IDX 10 14 13 15 11 16 17 17 18 18 19 19 20 20 21 21 22 22 68 23
REMARK SMILES IDX 23 24 67 25 24 26 25 27 26 28 61 29 27 30 66 31 60 32 62 33
REMARK SMILES IDX 28 34 65 35 59 36 58 37 29 39 51 40 36 41 50 42 37 43 40 44
REMARK SMILES IDX 49 45 63 46 38 47 39 48 48 50 64 51 41 52 30 53 31 54 35 55
REMARK SMILES IDX 32 56 34 57 33 58 52 59 53 60 57 61 54 62 56 63 55 64 42 65
REMARK SMILES IDX 43 66 47 67 44 68 46 69 45 70
REMARK H PARENT 62 38 40 49
REMARK Flexibility Score: inf
ROOT
ATOM      1  C   UNL A   1      34.528  35.702  33.654  1.00  0.00     0.275 C 
ENDROOT
BRANCH   1   2
ATOM      2  O   UNL A   1      34.031  36.647  32.678  1.00  0.00    -0.459 OA
BRANCH   2   3
ATOM      3  C   UNL A   1      32.890  36.583  31.955  1.00  0.00     0.331 C 
ATOM      4  O   UNL A   1      31.801  36.835  32.461  1.00  0.00    -0.247 OA
BRANCH   3   5
ATOM      5  C   UNL A   1      32.902  36.006  30.601  1.00  0.00     0.097 C 
ATOM      6  C   UNL A   1      33.689  35.015  30.169  1.00  0.00     0.060 C 
BRANCH   6   7
ATOM      7  C   UNL A   1      33.467  34.275  28.902  1.00  0.00     0.186 C 
ATOM      8  O   UNL A   1      32.499  34.595  28.214  1.00  0.00    -0.289 OA
BRANCH   7   9
ATOM      9  C   UNL A   1      34.374  33.207  28.421  1.00  0.00     0.023 A 
ATOM     10  C   UNL A   1      35.764  33.367  28.376  1.00  0.00     0.015 A 
ATOM     11  C   UNL A   1      33.804  31.965  28.087  1.00  0.00     0.031 A 
ATOM     12  C   UNL A   1      36.572  32.291  28.001  1.00  0.00     0.041 A 
ATOM     13  C   UNL A   1      34.619  30.902  27.698  1.00  0.00     0.054 A 
ATOM     14  C   UNL A   1      35.999  31.067  27.663  1.00  0.00     0.137 A 
ATOM     15  Br  UNL A   1      33.834  29.251  27.217  1.00  0.00    -0.048 Br
ATOM     16  F   UNL A   1      36.803  30.054  27.311  1.00  0.00    -0.206 F 
ENDBRANCH   7   9
ENDBRANCH   6   7
ENDBRANCH   3   5
ENDBRANCH   2   3
ENDBRANCH   1   2
BRANCH   1  17
ATOM     17  C   UNL A   1      35.786  34.921  33.257  1.00  0.00     0.275 C 
BRANCH  17  18
ATOM     18  O   UNL A   1      35.607  33.497  33.255  1.00  0.00    -0.458 OA
BRANCH  18  19
ATOM     19  C   UNL A   1      36.561  32.808  33.929  1.00  0.00     0.338 C 
ATOM     20  O   UNL A   1      36.650  32.684  35.140  1.00  0.00    -0.246 OA
BRANCH  19  21
ATOM     21  C   UNL A   1      37.429  32.076  32.980  1.00  0.00     0.060 A 
ATOM     22  C   UNL A   1      38.549  31.412  33.495  1.00  0.00     0.016 A 
ATOM     23  C   UNL A   1      37.170  32.044  31.608  1.00  0.00     0.016 A 
ATOM     24  C   UNL A   1      39.444  30.765  32.639  1.00  0.00     0.010 A 
ATOM     25  C   UNL A   1      38.066  31.384  30.754  1.00  0.00     0.010 A 
ATOM     26  C   UNL A   1      39.232  30.774  31.254  1.00  0.00    -0.014 A 
BRANCH  26  27
ATOM     27  C   UNL A   1      40.292  30.286  30.325  1.00  0.00     0.031 A 
ATOM     28  C   UNL A   1      41.421  31.213  29.947  1.00  0.00     0.074 A 
ATOM     29  C   UNL A   1      40.293  29.031  29.834  1.00  0.00     0.049 A 
ATOM     30  N   UNL A   1      42.470  30.979  29.197  1.00  0.00    -0.248 NA
ATOM     31  C   UNL A   1      41.372  32.578  30.496  1.00  0.00     0.031 C 
ATOM     32  C   UNL A   1      39.317  27.991  30.148  1.00  0.00     0.029 A 
ATOM     33  N   UNL A   1      41.145  28.424  28.941  1.00  0.00    -0.354 N 
ATOM     34  C   UNL A   1      43.214  32.151  29.212  1.00  0.00     0.074 A 
ATOM     35  C   UNL A   1      42.457  33.122  29.968  1.00  0.00     0.031 C 
ATOM     36  C   UNL A   1      39.582  26.900  29.408  1.00  0.00     0.029 A 
ATOM     37  C   UNL A   1      40.760  27.154  28.584  1.00  0.00     0.049 A 
ATOM     38  H   UNL A   1      41.956  28.859  28.590  1.00  0.00     0.167 HD
ATOM     39  C   UNL A   1      44.440  32.393  28.688  1.00  0.00     0.031 A 
ATOM     40  C   UNL A   1      41.292  26.288  27.700  1.00  0.00     0.031 A 
ATOM     41  C   UNL A   1      45.201  31.445  27.920  1.00  0.00     0.049 A 
ATOM     42  C   UNL A   1      42.590  26.623  27.016  1.00  0.00     0.074 A 
ATOM     43  C   UNL A   1      46.474  31.586  27.394  1.00  0.00     0.029 A 
ATOM     44  N   UNL A   1      44.752  30.188  27.550  1.00  0.00    -0.354 N 
ATOM     45  N   UNL A   1      43.330  27.699  27.125  1.00  0.00    -0.248 NA
ATOM     46  C   UNL A   1      43.157  25.593  26.132  1.00  0.00     0.031 C 
ATOM     47  C   UNL A   1      46.768  30.440  26.647  1.00  0.00     0.029 A 
ATOM     48  C   UNL A   1      45.709  29.556  26.770  1.00  0.00     0.049 A 
ATOM     49  H   UNL A   1      43.882  29.800  27.802  1.00  0.00     0.167 HD
ATOM     50  C   UNL A   1      44.480  27.445  26.387  1.00  0.00     0.074 A 
ATOM     51  C   UNL A   1      44.335  26.119  25.826  1.00  0.00     0.031 C 
ATOM     52  C   UNL A   1      45.570  28.233  26.217  1.00  0.00     0.031 A 
BRANCH  39  53
ATOM     53  C   UNL A   1      45.030  33.754  28.932  1.00  0.00    -0.014 A 
ATOM     54  C   UNL A   1      45.829  34.007  30.060  1.00  0.00     0.009 A 
ATOM     55  C   UNL A   1      44.801  34.791  28.015  1.00  0.00     0.009 A 
ATOM     56  C   UNL A   1      46.348  35.283  30.288  1.00  0.00     0.001 A 
ATOM     57  C   UNL A   1      45.349  36.058  28.229  1.00  0.00     0.001 A 
ATOM     58  C   UNL A   1      46.111  36.306  29.370  1.00  0.00     0.000 A 
ENDBRANCH  39  53
BRANCH  40  59
ATOM     59  C   UNL A   1      40.628  24.983  27.436  1.00  0.00    -0.014 A 
ATOM     60  C   UNL A   1      41.138  23.794  27.978  1.00  0.00     0.009 A 
ATOM     61  C   UNL A   1      39.503  24.918  26.598  1.00  0.00     0.009 A 
ATOM     62  C   UNL A   1      40.561  22.563  27.657  1.00  0.00     0.001 A 
ATOM     63  C   UNL A   1      38.912  23.688  26.299  1.00  0.00     0.001 A 
ATOM     64  C   UNL A   1      39.448  22.511  26.818  1.00  0.00     0.000 A 
ENDBRANCH  40  59
BRANCH  52  65
ATOM     65  C   UNL A   1      46.735  27.656  25.456  1.00  0.00    -0.014 A 
ATOM     66  C   UNL A   1      47.697  26.842  26.073  1.00  0.00     0.009 A 
ATOM     67  C   UNL A   1      46.854  27.920  24.081  1.00  0.00     0.009 A 
ATOM     68  C   UNL A   1      48.777  26.345  25.339  1.00  0.00     0.001 A 
ATOM     69  C   UNL A   1      47.914  27.392  23.343  1.00  0.00     0.001 A 
ATOM     70  C   UNL A   1      48.883  26.616  23.975  1.00  0.00     0.000 A 
ENDBRANCH  52  65
ENDBRANCH  26  27
ENDBRANCH  19  21
ENDBRANCH  18  19
ENDBRANCH  17  18
ENDBRANCH   1  17
TORSDOF 13
ENDMDL
MODEL 3
REMARK VINA RESULT:      -8.8      1.309      6.467
REMARK SMILES O=C(/C=C/C(=O)c1ccc(F)c(Br)c1)OCCOC(=O)c1ccc(-c2c3nc(c(-c4ccccc4)c4ccc([nH]4)c(-c4ccccc4)c4nc(c(-c5ccccc5)c5ccc2[nH]5)C=C4)C=C3)cc1
REMARK SMILES IDX 16 1 15 2 2 3 1 4 3 5 4 6 5 7 6 8 7 9 8 10 14 11 9 12 12 13
REMARK SMILES IDX 10 14 13 15 11 16 17 17 18 18 19 19 20 20 21 21 22 22 68 23
REMARK SMILES IDX 23 24 67 25 24 26 25 27 26 28 61 29 27 30 66 31 60 32 62 33
REMARK SMILES IDX 28 34 65 35 59 36 58 37 29 39 51 40 36 41 50 42 37 43 40 44
REMARK SMILES IDX 49 45 63 46 38 47 39 48 48 50 64 51 41 52 30 53 31 54 35 55
REMARK SMILES IDX 32 56 34 57 33 58 52 59 53 60 57 61 54 62 56 63 55 64 42 65
REMARK SMILES IDX 43 66 47 67 44 68 46 69 45 70
REMARK H PARENT 62 38 40 49
REMARK Flexibility Score: inf
ROOT
ATOM      1  C   UNL A   1      45.271  19.679  24.639  1.00  0.00     0.275 C 
ENDROOT
BRANCH   1   2
ATOM      2  O   UNL A   1      45.308  21.029  25.154  1.00  0.00    -0.459 OA
BRANCH   2   3
ATOM      3  C   UNL A   1      45.285  22.192  24.463  1.00  0.00     0.331 C 
ATOM      4  O   UNL A   1      44.739  22.269  23.367  1.00  0.00    -0.247 OA
BRANCH   3   5
ATOM      5  C   UNL A   1      46.094  23.336  24.912  1.00  0.00     0.097 C 
ATOM      6  C   UNL A   1      45.799  24.629  24.747  1.00  0.00     0.060 C 
BRANCH   6   7
ATOM      7  C   UNL A   1      46.485  25.733  25.464  1.00  0.00     0.186 C 
ATOM      8  O   UNL A   1      47.675  25.586  25.737  1.00  0.00    -0.289 OA
BRANCH   7   9
ATOM      9  C   UNL A   1      45.812  27.003  25.825  1.00  0.00     0.023 A 
ATOM     10  C   UNL A   1      44.419  27.142  25.815  1.00  0.00     0.015 A 
ATOM     11  C   UNL A   1      46.616  28.063  26.278  1.00  0.00     0.031 A 
ATOM     12  C   UNL A   1      43.840  28.335  26.254  1.00  0.00     0.041 A 
ATOM     13  C   UNL A   1      46.028  29.257  26.699  1.00  0.00     0.054 A 
ATOM     14  C   UNL A   1      44.644  29.385  26.692  1.00  0.00     0.137 A 
ATOM     15  Br  UNL A   1      47.126  30.686  27.270  1.00  0.00    -0.048 Br
ATOM     16  F   UNL A   1      44.057  30.515  27.112  1.00  0.00    -0.206 F 
ENDBRANCH   7   9
ENDBRANCH   6   7
ENDBRANCH   3   5
ENDBRANCH   2   3
ENDBRANCH   1   2
BRANCH   1  17
ATOM     17  C   UNL A   1      43.923  18.955  24.740  1.00  0.00     0.275 C 
BRANCH  17  18
ATOM     18  O   UNL A   1      43.285  19.097  26.018  1.00  0.00    -0.458 OA
BRANCH  18  19
ATOM     19  C   UNL A   1      42.068  19.695  25.977  1.00  0.00     0.338 C 
ATOM     20  O   UNL A   1      41.022  19.190  25.604  1.00  0.00    -0.246 OA
BRANCH  19  21
ATOM     21  C   UNL A   1      42.138  21.035  26.602  1.00  0.00     0.060 A 
ATOM     22  C   UNL A   1      42.248  22.146  25.756  1.00  0.00     0.016 A 
ATOM     23  C   UNL A   1      42.112  21.213  27.986  1.00  0.00     0.016 A 
ATOM     24  C   UNL A   1      42.391  23.429  26.290  1.00  0.00     0.010 A 
ATOM     25  C   UNL A   1      42.245  22.504  28.516  1.00  0.00     0.010 A 
ATOM     26  C   UNL A   1      42.426  23.621  27.677  1.00  0.00    -0.014 A 
BRANCH  26  27
ATOM     27  C   UNL A   1      42.803  24.946  28.248  1.00  0.00     0.031 A 
ATOM     28  C   UNL A   1      41.751  26.020  28.367  1.00  0.00     0.074 A 
ATOM     29  C   UNL A   1      44.049  25.208  28.690  1.00  0.00     0.049 A 
ATOM     30  N   UNL A   1      41.849  27.223  28.880  1.00  0.00    -0.248 NA
ATOM     31  C   UNL A   1      40.409  25.695  27.860  1.00  0.00     0.031 C 
ATOM     32  C   UNL A   1      45.164  24.264  28.708  1.00  0.00     0.029 A 
ATOM     33  N   UNL A   1      44.590  26.367  29.195  1.00  0.00    -0.354 N 
ATOM     34  C   UNL A   1      40.581  27.779  28.782  1.00  0.00     0.074 A 
ATOM     35  C   UNL A   1      39.752  26.822  28.084  1.00  0.00     0.031 C 
ATOM     36  C   UNL A   1      46.272  24.899  29.131  1.00  0.00     0.029 A 
ATOM     37  C   UNL A   1      45.941  26.288  29.437  1.00  0.00     0.049 A 
ATOM     38  H   UNL A   1      44.059  27.178  29.367  1.00  0.00     0.167 HD
ATOM     39  C   UNL A   1      40.124  28.958  29.268  1.00  0.00     0.031 A 
ATOM     40  C   UNL A   1      46.816  27.221  29.860  1.00  0.00     0.031 A 
ATOM     41  C   UNL A   1      40.936  29.929  29.951  1.00  0.00     0.049 A 
ATOM     42  C   UNL A   1      46.317  28.579  30.272  1.00  0.00     0.074 A 
ATOM     43  C   UNL A   1      40.547  31.128  30.523  1.00  0.00     0.029 A 
ATOM     44  N   UNL A   1      42.305  29.824  30.135  1.00  0.00    -0.354 N 
ATOM     45  N   UNL A   1      45.094  29.049  30.268  1.00  0.00    -0.248 NA
ATOM     46  C   UNL A   1      47.317  29.516  30.808  1.00  0.00     0.031 C 
ATOM     47  C   UNL A   1      41.692  31.780  30.993  1.00  0.00     0.029 A 
ATOM     48  C   UNL A   1      42.783  30.954  30.780  1.00  0.00     0.049 A 
ATOM     49  H   UNL A   1      42.857  29.060  29.849  1.00  0.00     0.167 HD
ATOM     50  C   UNL A   1      45.166  30.301  30.867  1.00  0.00     0.074 A 
ATOM     51  C   UNL A   1      46.554  30.523  31.212  1.00  0.00     0.031 C 
ATOM     52  C   UNL A   1      44.163  31.174  31.131  1.00  0.00     0.031 A 
BRANCH  39  53
ATOM     53  C   UNL A   1      38.664  29.259  29.069  1.00  0.00    -0.014 A 
ATOM     54  C   UNL A   1      37.738  29.085  30.111  1.00  0.00     0.009 A 
ATOM     55  C   UNL A   1      38.212  29.742  27.832  1.00  0.00     0.009 A 
ATOM     56  C   UNL A   1      36.382  29.342  29.903  1.00  0.00     0.001 A 
ATOM     57  C   UNL A   1      36.859  30.031  27.637  1.00  0.00     0.001 A 
ATOM     58  C   UNL A   1      35.944  29.819  28.667  1.00  0.00     0.000 A 
ENDBRANCH  39  53
BRANCH  40  59
ATOM     59  C   UNL A   1      48.264  26.895  29.968  1.00  0.00    -0.014 A 
ATOM     60  C   UNL A   1      49.140  27.152  28.902  1.00  0.00     0.009 A 
ATOM     61  C   UNL A   1      48.767  26.280  31.125  1.00  0.00     0.009 A 
ATOM     62  C   UNL A   1      50.480  26.766  28.976  1.00  0.00     0.001 A 
ATOM     63  C   UNL A   1      50.114  25.917  31.206  1.00  0.00     0.001 A 
ATOM     64  C   UNL A   1      50.966  26.149  30.128  1.00  0.00     0.000 A 
ENDBRANCH  40  59
BRANCH  52  65
ATOM     65  C   UNL A   1      44.509  32.421  31.902  1.00  0.00    -0.014 A 
ATOM     66  C   UNL A   1      44.919  33.600  31.262  1.00  0.00     0.009 A 
ATOM     67  C   UNL A   1      44.396  32.415  33.302  1.00  0.00     0.009 A 
ATOM     68  C   UNL A   1      45.255  34.730  32.012  1.00  0.00     0.001 A 
ATOM     69  C   UNL A   1      44.697  33.557  34.046  1.00  0.00     0.001 A 
ATOM     70  C   UNL A   1      45.140  34.709  33.402  1.00  0.00     0.000 A 
ENDBRANCH  52  65
ENDBRANCH  26  27
ENDBRANCH  19  21
ENDBRANCH  18  19
ENDBRANCH  17  18
ENDBRANCH   1  17
TORSDOF 13
ENDMDL
