MODEL 1
REMARK VINA RESULT:     -12.1      0.000      0.000
REMARK SMILES O=C(OCCOC(=O)c1ccc(-n2cc(CSc3nc4ccccc4c(=O)n3-c3ccccc3)nn2)cc1)c1ccc(-c2c3nc(c(-c4ccccc4)c4ccc([nH]4)c(-c4ccccc4)c4nc(c(-c5ccccc5)c5ccc2[nH]5)C=C4)C=C3)cc1
REMARK SMILES IDX 6 1 5 2 4 3 3 4 2 5 1 6 39 7 40 8 86 9 41 10 85 11 42 12
REMARK SMILES IDX 43 13 44 14 79 15 45 16 84 17 78 18 80 19 46 20 83 21 77 22
REMARK SMILES IDX 76 23 47 25 69 26 54 27 68 28 55 29 58 30 67 31 81 32 56 33
REMARK SMILES IDX 57 34 66 36 82 37 59 38 48 39 49 40 53 41 50 42 52 43 51 44
REMARK SMILES IDX 70 45 71 46 75 47 72 48 74 49 73 50 60 51 61 52 65 53 62 54
REMARK SMILES IDX 64 55 63 56 7 57 8 58 9 59 10 60 38 61 11 62 37 63 12 64
REMARK SMILES IDX 13 65 14 66 36 67 15 68 35 69 16 70 17 71 18 72 19 73 28 74
REMARK SMILES IDX 20 75 26 76 21 77 25 78 27 79 22 80 24 81 23 82 29 83 30 84
REMARK SMILES IDX 34 85 31 86 33 87 32 88
REMARK H PARENT 80 24 58 35
REMARK Flexibility Score: inf
ROOT
ATOM      1  O   UNL A   1      32.521  36.204  30.964  1.00  0.00    -0.458 OA
ENDROOT
BRANCH   1   2
ATOM      2  C   UNL A   1      33.003  37.100  31.979  1.00  0.00     0.275 C 
BRANCH   2   3
ATOM      3  C   UNL A   1      34.397  36.674  32.442  1.00  0.00     0.275 C 
BRANCH   3   4
ATOM      4  O   UNL A   1      34.475  35.735  33.534  1.00  0.00    -0.458 OA
BRANCH   4   5
ATOM      5  C   UNL A   1      34.303  34.418  33.301  1.00  0.00     0.338 C 
ATOM      6  O   UNL A   1      33.228  33.907  33.028  1.00  0.00    -0.246 OA
BRANCH   5   7
ATOM      7  C   UNL A   1      35.586  33.704  33.098  1.00  0.00     0.060 A 
ATOM      8  C   UNL A   1      36.823  34.355  33.045  1.00  0.00     0.016 A 
ATOM      9  C   UNL A   1      35.526  32.309  32.983  1.00  0.00     0.016 A 
ATOM     10  C   UNL A   1      37.974  33.628  32.768  1.00  0.00     0.010 A 
ATOM     11  C   UNL A   1      36.679  31.580  32.739  1.00  0.00     0.010 A 
ATOM     12  C   UNL A   1      37.891  32.246  32.570  1.00  0.00    -0.014 A 
BRANCH  12  13
ATOM     13  C   UNL A   1      39.119  31.498  32.309  1.00  0.00     0.031 A 
ATOM     14  C   UNL A   1      39.956  31.234  33.517  1.00  0.00     0.074 A 
ATOM     15  C   UNL A   1      39.401  30.929  31.119  1.00  0.00     0.049 A 
ATOM     16  N   UNL A   1      41.149  31.655  33.782  1.00  0.00    -0.248 NA
ATOM     17  C   UNL A   1      39.330  30.494  34.619  1.00  0.00     0.031 C 
ATOM     18  C   UNL A   1      38.556  30.835  29.924  1.00  0.00     0.029 A 
ATOM     19  N   UNL A   1      40.493  30.199  30.767  1.00  0.00    -0.354 N 
ATOM     20  C   UNL A   1      41.496  31.088  35.010  1.00  0.00     0.074 A 
ATOM     21  C   UNL A   1      40.291  30.512  35.542  1.00  0.00     0.031 C 
ATOM     22  C   UNL A   1      39.062  29.899  29.087  1.00  0.00     0.029 A 
ATOM     23  C   UNL A   1      40.339  29.441  29.611  1.00  0.00     0.049 A 
ATOM     24  H   UNL A   1      41.328  30.206  31.288  1.00  0.00     0.167 HD
ATOM     25  C   UNL A   1      42.793  30.935  35.401  1.00  0.00     0.031 A 
ATOM     26  C   UNL A   1      41.183  28.482  29.149  1.00  0.00     0.031 A 
ATOM     27  C   UNL A   1      43.684  31.743  34.614  1.00  0.00     0.049 A 
ATOM     28  C   UNL A   1      42.488  28.685  29.819  1.00  0.00     0.074 A 
ATOM     29  C   UNL A   1      43.809  33.097  34.381  1.00  0.00     0.029 A 
ATOM     30  N   UNL A   1      44.354  31.118  33.588  1.00  0.00    -0.354 N 
ATOM     31  N   UNL A   1      43.251  29.715  29.594  1.00  0.00    -0.248 NA
ATOM     32  C   UNL A   1      42.723  27.989  31.075  1.00  0.00     0.031 C 
ATOM     33  C   UNL A   1      44.053  33.191  32.980  1.00  0.00     0.029 A 
ATOM     34  C   UNL A   1      44.176  31.895  32.473  1.00  0.00     0.049 A 
ATOM     35  H   UNL A   1      44.862  30.277  33.644  1.00  0.00     0.167 HD
ATOM     36  C   UNL A   1      43.733  30.070  30.844  1.00  0.00     0.074 A 
ATOM     37  C   UNL A   1      43.447  28.920  31.705  1.00  0.00     0.031 C 
ATOM     38  C   UNL A   1      44.054  31.364  31.137  1.00  0.00     0.031 A 
BRANCH  25  39
ATOM     39  C   UNL A   1      43.297  29.760  36.206  1.00  0.00    -0.014 A 
ATOM     40  C   UNL A   1      44.214  29.998  37.249  1.00  0.00     0.009 A 
ATOM     41  C   UNL A   1      43.147  28.424  35.792  1.00  0.00     0.009 A 
ATOM     42  C   UNL A   1      45.003  28.968  37.777  1.00  0.00     0.001 A 
ATOM     43  C   UNL A   1      43.905  27.388  36.344  1.00  0.00     0.001 A 
ATOM     44  C   UNL A   1      44.857  27.665  37.315  1.00  0.00     0.000 A 
ENDBRANCH  25  39
BRANCH  26  45
ATOM     45  C   UNL A   1      40.899  27.258  28.369  1.00  0.00    -0.014 A 
ATOM     46  C   UNL A   1      39.939  26.329  28.808  1.00  0.00     0.009 A 
ATOM     47  C   UNL A   1      41.360  27.141  27.046  1.00  0.00     0.009 A 
ATOM     48  C   UNL A   1      39.428  25.351  27.942  1.00  0.00     0.001 A 
ATOM     49  C   UNL A   1      40.851  26.165  26.181  1.00  0.00     0.001 A 
ATOM     50  C   UNL A   1      39.873  25.280  26.624  1.00  0.00     0.000 A 
ENDBRANCH  26  45
BRANCH  38  51
ATOM     51  C   UNL A   1      44.040  32.379  30.019  1.00  0.00    -0.014 A 
ATOM     52  C   UNL A   1      42.907  33.138  29.673  1.00  0.00     0.009 A 
ATOM     53  C   UNL A   1      45.266  32.707  29.421  1.00  0.00     0.009 A 
ATOM     54  C   UNL A   1      42.999  34.176  28.738  1.00  0.00     0.001 A 
ATOM     55  C   UNL A   1      45.362  33.759  28.509  1.00  0.00     0.001 A 
ATOM     56  C   UNL A   1      44.228  34.490  28.163  1.00  0.00     0.000 A 
ENDBRANCH  38  51
ENDBRANCH  12  13
ENDBRANCH   5   7
ENDBRANCH   4   5
ENDBRANCH   3   4
ENDBRANCH   2   3
ENDBRANCH   1   2
BRANCH   1  57
ATOM     57  C   UNL A   1      33.076  36.356  29.730  1.00  0.00     0.338 C 
ATOM     58  O   UNL A   1      33.300  37.379  29.126  1.00  0.00    -0.246 OA
BRANCH  57  59
ATOM     59  C   UNL A   1      33.417  35.008  29.248  1.00  0.00     0.060 A 
ATOM     60  C   UNL A   1      32.659  34.433  28.224  1.00  0.00     0.018 A 
ATOM     61  C   UNL A   1      34.498  34.327  29.805  1.00  0.00     0.018 A 
ATOM     62  C   UNL A   1      33.033  33.199  27.692  1.00  0.00     0.029 A 
ATOM     63  C   UNL A   1      34.823  33.054  29.332  1.00  0.00     0.029 A 
ATOM     64  C   UNL A   1      34.099  32.497  28.263  1.00  0.00     0.066 A 
BRANCH  64  65
ATOM     65  N   UNL A   1      34.398  31.200  27.790  1.00  0.00    -0.220 N 
ATOM     66  C   UNL A   1      33.549  30.326  27.165  1.00  0.00     0.141 A 
ATOM     67  N   UNL A   1      35.627  30.640  27.882  1.00  0.00    -0.062 NA
ATOM     68  C   UNL A   1      34.333  29.242  26.828  1.00  0.00     0.093 A 
ATOM     69  N   UNL A   1      35.581  29.424  27.349  1.00  0.00    -0.134 NA
BRANCH  68  70
ATOM     70  C   UNL A   1      33.931  28.016  26.111  1.00  0.00     0.138 C 
BRANCH  70  71
ATOM     71  S   UNL A   1      32.375  27.188  26.463  1.00  0.00    -0.081 SA
BRANCH  71  72
ATOM     72  C   UNL A   1      32.067  25.879  25.343  1.00  0.00     0.176 A 
ATOM     73  N   UNL A   1      32.279  24.717  25.890  1.00  0.00    -0.223 NA
ATOM     74  N   UNL A   1      31.638  26.005  24.028  1.00  0.00    -0.255 N 
ATOM     75  C   UNL A   1      32.184  23.574  25.091  1.00  0.00     0.079 A 
ATOM     76  C   UNL A   1      32.164  25.038  23.157  1.00  0.00     0.266 A 
ATOM     77  C   UNL A   1      32.084  22.304  25.660  1.00  0.00     0.029 A 
ATOM     78  C   UNL A   1      32.294  23.681  23.713  1.00  0.00     0.066 A 
ATOM     79  O   UNL A   1      32.521  25.217  21.994  1.00  0.00    -0.268 OA
ATOM     80  C   UNL A   1      32.165  21.161  24.855  1.00  0.00     0.002 A 
ATOM     81  C   UNL A   1      32.433  22.552  22.900  1.00  0.00     0.016 A 
ATOM     82  C   UNL A   1      32.378  21.285  23.480  1.00  0.00     0.001 A 
BRANCH  74  83
ATOM     83  C   UNL A   1      30.755  27.023  23.486  1.00  0.00     0.051 A 
ATOM     84  C   UNL A   1      31.282  28.140  22.808  1.00  0.00     0.027 A 
ATOM     85  C   UNL A   1      29.356  26.963  23.538  1.00  0.00     0.027 A 
ATOM     86  C   UNL A   1      30.491  29.228  22.426  1.00  0.00     0.002 A 
ATOM     87  C   UNL A   1      28.558  28.072  23.215  1.00  0.00     0.002 A 
ATOM     88  C   UNL A   1      29.132  29.221  22.694  1.00  0.00     0.000 A 
ENDBRANCH  74  83
ENDBRANCH  71  72
ENDBRANCH  70  71
ENDBRANCH  68  70
ENDBRANCH  64  65
ENDBRANCH  57  59
ENDBRANCH   1  57
TORSDOF 16
ENDMDL
MODEL 2
REMARK VINA RESULT:     -11.9      3.153      4.956
REMARK SMILES O=C(OCCOC(=O)c1ccc(-n2cc(CSc3nc4ccccc4c(=O)n3-c3ccccc3)nn2)cc1)c1ccc(-c2c3nc(c(-c4ccccc4)c4ccc([nH]4)c(-c4ccccc4)c4nc(c(-c5ccccc5)c5ccc2[nH]5)C=C4)C=C3)cc1
REMARK SMILES IDX 6 1 5 2 4 3 3 4 2 5 1 6 39 7 40 8 86 9 41 10 85 11 42 12
REMARK SMILES IDX 43 13 44 14 79 15 45 16 84 17 78 18 80 19 46 20 83 21 77 22
REMARK SMILES IDX 76 23 47 25 69 26 54 27 68 28 55 29 58 30 67 31 81 32 56 33
REMARK SMILES IDX 57 34 66 36 82 37 59 38 48 39 49 40 53 41 50 42 52 43 51 44
REMARK SMILES IDX 70 45 71 46 75 47 72 48 74 49 73 50 60 51 61 52 65 53 62 54
REMARK SMILES IDX 64 55 63 56 7 57 8 58 9 59 10 60 38 61 11 62 37 63 12 64
REMARK SMILES IDX 13 65 14 66 36 67 15 68 35 69 16 70 17 71 18 72 19 73 28 74
REMARK SMILES IDX 20 75 26 76 21 77 25 78 27 79 22 80 24 81 23 82 29 83 30 84
REMARK SMILES IDX 34 85 31 86 33 87 32 88
REMARK H PARENT 80 24 58 35
REMARK Flexibility Score: inf
ROOT
ATOM      1  O   UNL A   1      33.684  31.794  27.622  1.00  0.00    -0.458 OA
ENDROOT
BRANCH   1   2
ATOM      2  C   UNL A   1      34.197  33.023  28.162  1.00  0.00     0.275 C 
BRANCH   2   3
ATOM      3  C   UNL A   1      34.408  32.889  29.671  1.00  0.00     0.275 C 
BRANCH   3   4
ATOM      4  O   UNL A   1      35.515  32.079  30.117  1.00  0.00    -0.458 OA
BRANCH   4   5
ATOM      5  C   UNL A   1      36.740  32.630  30.247  1.00  0.00     0.338 C 
ATOM      6  O   UNL A   1      36.936  33.792  30.569  1.00  0.00    -0.246 OA
BRANCH   5   7
ATOM      7  C   UNL A   1      37.820  31.615  30.271  1.00  0.00     0.060 A 
ATOM      8  C   UNL A   1      39.179  31.946  30.279  1.00  0.00     0.016 A 
ATOM      9  C   UNL A   1      37.428  30.271  30.311  1.00  0.00     0.016 A 
ATOM     10  C   UNL A   1      40.134  30.939  30.216  1.00  0.00     0.010 A 
ATOM     11  C   UNL A   1      38.382  29.266  30.282  1.00  0.00     0.010 A 
ATOM     12  C   UNL A   1      39.730  29.601  30.171  1.00  0.00    -0.014 A 
BRANCH  12  13
ATOM     13  C   UNL A   1      40.753  28.558  30.134  1.00  0.00     0.031 A 
ATOM     14  C   UNL A   1      41.412  28.286  31.446  1.00  0.00     0.074 A 
ATOM     15  C   UNL A   1      40.971  27.771  29.060  1.00  0.00     0.049 A 
ATOM     16  N   UNL A   1      42.650  28.452  31.780  1.00  0.00    -0.248 NA
ATOM     17  C   UNL A   1      40.547  27.881  32.560  1.00  0.00     0.031 C 
ATOM     18  C   UNL A   1      40.217  27.703  27.805  1.00  0.00     0.029 A 
ATOM     19  N   UNL A   1      41.874  26.764  28.918  1.00  0.00    -0.354 N 
ATOM     20  C   UNL A   1      42.759  28.005  33.098  1.00  0.00     0.074 A 
ATOM     21  C   UNL A   1      41.415  27.809  33.569  1.00  0.00     0.031 C 
ATOM     22  C   UNL A   1      40.537  26.564  27.148  1.00  0.00     0.029 A 
ATOM     23  C   UNL A   1      41.622  25.903  27.855  1.00  0.00     0.049 A 
ATOM     24  H   UNL A   1      42.646  26.653  29.519  1.00  0.00     0.167 HD
ATOM     25  C   UNL A   1      43.948  27.614  33.639  1.00  0.00     0.031 A 
ATOM     26  C   UNL A   1      42.236  24.718  27.607  1.00  0.00     0.031 A 
ATOM     27  C   UNL A   1      45.063  28.068  32.854  1.00  0.00     0.049 A 
ATOM     28  C   UNL A   1      43.500  24.706  28.379  1.00  0.00     0.074 A 
ATOM     29  C   UNL A   1      45.532  29.308  32.468  1.00  0.00     0.029 A 
ATOM     30  N   UNL A   1      45.631  27.163  31.990  1.00  0.00    -0.354 N 
ATOM     31  N   UNL A   1      44.506  25.487  28.108  1.00  0.00    -0.248 NA
ATOM     32  C   UNL A   1      43.468  24.166  29.729  1.00  0.00     0.031 C 
ATOM     33  C   UNL A   1      45.890  29.137  31.100  1.00  0.00     0.029 A 
ATOM     34  C   UNL A   1      45.729  27.788  30.774  1.00  0.00     0.049 A 
ATOM     35  H   UNL A   1      45.913  26.244  32.202  1.00  0.00     0.167 HD
ATOM     36  C   UNL A   1      44.970  25.899  29.347  1.00  0.00     0.074 A 
ATOM     37  C   UNL A   1      44.351  24.985  30.310  1.00  0.00     0.031 C 
ATOM     38  C   UNL A   1      45.576  27.112  29.509  1.00  0.00     0.031 A 
BRANCH  25  39
ATOM     39  C   UNL A   1      44.091  26.484  34.632  1.00  0.00    -0.014 A 
ATOM     40  C   UNL A   1      43.789  25.173  34.215  1.00  0.00     0.009 A 
ATOM     41  C   UNL A   1      44.214  26.692  36.018  1.00  0.00     0.009 A 
ATOM     42  C   UNL A   1      43.530  24.154  35.139  1.00  0.00     0.001 A 
ATOM     43  C   UNL A   1      43.995  25.667  36.943  1.00  0.00     0.001 A 
ATOM     44  C   UNL A   1      43.621  24.405  36.504  1.00  0.00     0.000 A 
ENDBRANCH  25  39
BRANCH  26  45
ATOM     45  C   UNL A   1      41.719  23.492  26.960  1.00  0.00    -0.014 A 
ATOM     46  C   UNL A   1      42.582  22.620  26.274  1.00  0.00     0.009 A 
ATOM     47  C   UNL A   1      40.427  23.026  27.262  1.00  0.00     0.009 A 
ATOM     48  C   UNL A   1      42.182  21.317  25.943  1.00  0.00     0.001 A 
ATOM     49  C   UNL A   1      40.027  21.725  26.931  1.00  0.00     0.001 A 
ATOM     50  C   UNL A   1      40.910  20.865  26.286  1.00  0.00     0.000 A 
ENDBRANCH  26  45
BRANCH  38  51
ATOM     51  C   UNL A   1      45.891  27.927  28.278  1.00  0.00    -0.014 A 
ATOM     52  C   UNL A   1      44.982  28.824  27.687  1.00  0.00     0.009 A 
ATOM     53  C   UNL A   1      47.214  27.923  27.814  1.00  0.00     0.009 A 
ATOM     54  C   UNL A   1      45.384  29.671  26.648  1.00  0.00     0.001 A 
ATOM     55  C   UNL A   1      47.622  28.786  26.795  1.00  0.00     0.001 A 
ATOM     56  C   UNL A   1      46.706  29.655  26.209  1.00  0.00     0.000 A 
ENDBRANCH  38  51
ENDBRANCH  12  13
ENDBRANCH   5   7
ENDBRANCH   4   5
ENDBRANCH   3   4
ENDBRANCH   2   3
ENDBRANCH   1   2
BRANCH   1  57
ATOM     57  C   UNL A   1      32.459  31.873  27.034  1.00  0.00     0.338 C 
ATOM     58  O   UNL A   1      31.773  32.851  26.852  1.00  0.00    -0.246 OA
BRANCH  57  59
ATOM     59  C   UNL A   1      32.109  30.512  26.595  1.00  0.00     0.060 A 
ATOM     60  C   UNL A   1      31.404  30.335  25.402  1.00  0.00     0.018 A 
ATOM     61  C   UNL A   1      32.497  29.417  27.365  1.00  0.00     0.018 A 
ATOM     62  C   UNL A   1      31.153  29.047  24.927  1.00  0.00     0.029 A 
ATOM     63  C   UNL A   1      32.172  28.128  26.935  1.00  0.00     0.029 A 
ATOM     64  C   UNL A   1      31.514  27.943  25.706  1.00  0.00     0.066 A 
BRANCH  64  65
ATOM     65  N   UNL A   1      31.156  26.649  25.269  1.00  0.00    -0.220 N 
ATOM     66  C   UNL A   1      31.146  25.494  26.005  1.00  0.00     0.141 A 
ATOM     67  N   UNL A   1      30.735  26.380  24.011  1.00  0.00    -0.062 NA
ATOM     68  C   UNL A   1      30.644  24.530  25.156  1.00  0.00     0.093 A 
ATOM     69  N   UNL A   1      30.476  25.080  23.919  1.00  0.00    -0.134 NA
BRANCH  68  70
ATOM     70  C   UNL A   1      30.396  23.104  25.444  1.00  0.00     0.138 C 
BRANCH  70  71
ATOM     71  S   UNL A   1      31.514  22.144  26.471  1.00  0.00    -0.081 SA
BRANCH  71  72
ATOM     72  C   UNL A   1      32.544  21.103  25.513  1.00  0.00     0.176 A 
ATOM     73  N   UNL A   1      32.154  19.862  25.562  1.00  0.00    -0.223 NA
ATOM     74  N   UNL A   1      33.647  21.497  24.767  1.00  0.00    -0.255 N 
ATOM     75  C   UNL A   1      32.939  18.888  24.938  1.00  0.00     0.079 A 
ATOM     76  C   UNL A   1      34.688  20.556  24.739  1.00  0.00     0.266 A 
ATOM     77  C   UNL A   1      32.434  17.614  24.679  1.00  0.00     0.029 A 
ATOM     78  C   UNL A   1      34.274  19.146  24.663  1.00  0.00     0.066 A 
ATOM     79  O   UNL A   1      35.894  20.797  24.774  1.00  0.00    -0.268 OA
ATOM     80  C   UNL A   1      33.281  16.599  24.215  1.00  0.00     0.002 A 
ATOM     81  C   UNL A   1      35.145  18.132  24.255  1.00  0.00     0.016 A 
ATOM     82  C   UNL A   1      34.644  16.849  24.039  1.00  0.00     0.001 A 
BRANCH  74  83
ATOM     83  C   UNL A   1      33.828  22.756  24.065  1.00  0.00     0.051 A 
ATOM     84  C   UNL A   1      34.370  23.873  24.729  1.00  0.00     0.027 A 
ATOM     85  C   UNL A   1      33.542  22.951  22.707  1.00  0.00     0.027 A 
ATOM     86  C   UNL A   1      34.400  25.147  24.153  1.00  0.00     0.002 A 
ATOM     87  C   UNL A   1      33.509  24.232  22.136  1.00  0.00     0.002 A 
ATOM     88  C   UNL A   1      33.903  25.338  22.875  1.00  0.00     0.000 A 
ENDBRANCH  74  83
ENDBRANCH  71  72
ENDBRANCH  70  71
ENDBRANCH  68  70
ENDBRANCH  64  65
ENDBRANCH  57  59
ENDBRANCH   1  57
TORSDOF 16
ENDMDL
MODEL 3
REMARK VINA RESULT:     -11.9      3.353      5.526
REMARK SMILES O=C(OCCOC(=O)c1ccc(-n2cc(CSc3nc4ccccc4c(=O)n3-c3ccccc3)nn2)cc1)c1ccc(-c2c3nc(c(-c4ccccc4)c4ccc([nH]4)c(-c4ccccc4)c4nc(c(-c5ccccc5)c5ccc2[nH]5)C=C4)C=C3)cc1
REMARK SMILES IDX 6 1 5 2 4 3 3 4 2 5 1 6 39 7 40 8 86 9 41 10 85 11 42 12
REMARK SMILES IDX 43 13 44 14 79 15 45 16 84 17 78 18 80 19 46 20 83 21 77 22
REMARK SMILES IDX 76 23 47 25 69 26 54 27 68 28 55 29 58 30 67 31 81 32 56 33
REMARK SMILES IDX 57 34 66 36 82 37 59 38 48 39 49 40 53 41 50 42 52 43 51 44
REMARK SMILES IDX 70 45 71 46 75 47 72 48 74 49 73 50 60 51 61 52 65 53 62 54
REMARK SMILES IDX 64 55 63 56 7 57 8 58 9 59 10 60 38 61 11 62 37 63 12 64
REMARK SMILES IDX 13 65 14 66 36 67 15 68 35 69 16 70 17 71 18 72 19 73 28 74
REMARK SMILES IDX 20 75 26 76 21 77 25 78 27 79 22 80 24 81 23 82 29 83 30 84
REMARK SMILES IDX 34 85 31 86 33 87 32 88
REMARK H PARENT 80 24 58 35
REMARK Flexibility Score: inf
ROOT
ATOM      1  O   UNL A   1      32.290  30.253  27.236  1.00  0.00    -0.458 OA
ENDROOT
BRANCH   1   2
ATOM      2  C   UNL A   1      33.703  30.508  27.307  1.00  0.00     0.275 C 
BRANCH   2   3
ATOM      3  C   UNL A   1      33.958  31.951  27.746  1.00  0.00     0.275 C 
BRANCH   3   4
ATOM      4  O   UNL A   1      35.304  32.300  28.127  1.00  0.00    -0.458 OA
BRANCH   4   5
ATOM      5  C   UNL A   1      35.726  32.070  29.388  1.00  0.00     0.338 C 
ATOM      6  O   UNL A   1      35.121  32.428  30.386  1.00  0.00    -0.246 OA
BRANCH   5   7
ATOM      7  C   UNL A   1      36.823  31.075  29.449  1.00  0.00     0.060 A 
ATOM      8  C   UNL A   1      36.604  29.707  29.631  1.00  0.00     0.016 A 
ATOM      9  C   UNL A   1      38.128  31.558  29.286  1.00  0.00     0.016 A 
ATOM     10  C   UNL A   1      37.686  28.846  29.762  1.00  0.00     0.010 A 
ATOM     11  C   UNL A   1      39.207  30.695  29.383  1.00  0.00     0.010 A 
ATOM     12  C   UNL A   1      38.988  29.351  29.683  1.00  0.00    -0.014 A 
BRANCH  12  13
ATOM     13  C   UNL A   1      40.111  28.423  29.795  1.00  0.00     0.031 A 
ATOM     14  C   UNL A   1      40.663  28.278  31.174  1.00  0.00     0.074 A 
ATOM     15  C   UNL A   1      40.512  27.620  28.787  1.00  0.00     0.049 A 
ATOM     16  N   UNL A   1      41.839  28.589  31.612  1.00  0.00    -0.248 NA
ATOM     17  C   UNL A   1      39.740  27.829  32.223  1.00  0.00     0.031 C 
ATOM     18  C   UNL A   1      39.895  27.420  27.472  1.00  0.00     0.029 A 
ATOM     19  N   UNL A   1      41.524  26.711  28.781  1.00  0.00    -0.354 N 
ATOM     20  C   UNL A   1      41.865  28.211  32.956  1.00  0.00     0.074 A 
ATOM     21  C   UNL A   1      40.508  27.892  33.310  1.00  0.00     0.031 C 
ATOM     22  C   UNL A   1      40.393  26.295  26.908  1.00  0.00     0.029 A 
ATOM     23  C   UNL A   1      41.466  25.784  27.745  1.00  0.00     0.049 A 
ATOM     24  H   UNL A   1      42.241  26.708  29.456  1.00  0.00     0.167 HD
ATOM     25  C   UNL A   1      43.029  27.972  33.624  1.00  0.00     0.031 A 
ATOM     26  C   UNL A   1      42.220  24.662  27.617  1.00  0.00     0.031 A 
ATOM     27  C   UNL A   1      44.163  28.510  32.924  1.00  0.00     0.049 A 
ATOM     28  C   UNL A   1      43.397  24.818  28.501  1.00  0.00     0.074 A 
ATOM     29  C   UNL A   1      44.537  29.775  32.520  1.00  0.00     0.029 A 
ATOM     30  N   UNL A   1      44.902  27.635  32.163  1.00  0.00    -0.354 N 
ATOM     31  N   UNL A   1      44.339  25.690  28.285  1.00  0.00    -0.248 NA
ATOM     32  C   UNL A   1      43.289  24.334  29.869  1.00  0.00     0.031 C 
ATOM     33  C   UNL A   1      45.043  29.588  31.201  1.00  0.00     0.029 A 
ATOM     34  C   UNL A   1      45.053  28.217  30.931  1.00  0.00     0.049 A 
ATOM     35  H   UNL A   1      45.255  26.762  32.448  1.00  0.00     0.167 HD
ATOM     36  C   UNL A   1      44.635  26.200  29.540  1.00  0.00     0.074 A 
ATOM     37  C   UNL A   1      44.022  25.265  30.487  1.00  0.00     0.031 C 
ATOM     38  C   UNL A   1      45.095  27.476  29.694  1.00  0.00     0.031 A 
BRANCH  25  39
ATOM     39  C   UNL A   1      43.190  26.906  34.683  1.00  0.00    -0.014 A 
ATOM     40  C   UNL A   1      43.023  25.556  34.316  1.00  0.00     0.009 A 
ATOM     41  C   UNL A   1      43.195  27.189  36.061  1.00  0.00     0.009 A 
ATOM     42  C   UNL A   1      42.781  24.564  35.274  1.00  0.00     0.001 A 
ATOM     43  C   UNL A   1      42.993  26.193  37.022  1.00  0.00     0.001 A 
ATOM     44  C   UNL A   1      42.753  24.885  36.626  1.00  0.00     0.000 A 
ENDBRANCH  25  39
BRANCH  26  45
ATOM     45  C   UNL A   1      41.896  23.362  26.988  1.00  0.00    -0.014 A 
ATOM     46  C   UNL A   1      42.906  22.563  26.425  1.00  0.00     0.009 A 
ATOM     47  C   UNL A   1      40.638  22.771  27.198  1.00  0.00     0.009 A 
ATOM     48  C   UNL A   1      42.678  21.211  26.125  1.00  0.00     0.001 A 
ATOM     49  C   UNL A   1      40.409  21.422  26.898  1.00  0.00     0.001 A 
ATOM     50  C   UNL A   1      41.434  20.638  26.377  1.00  0.00     0.000 A 
ENDBRANCH  26  45
BRANCH  38  51
ATOM     51  C   UNL A   1      45.443  28.269  28.458  1.00  0.00    -0.014 A 
ATOM     52  C   UNL A   1      44.517  29.065  27.759  1.00  0.00     0.009 A 
ATOM     53  C   UNL A   1      46.796  28.356  28.098  1.00  0.00     0.009 A 
ATOM     54  C   UNL A   1      44.934  29.904  26.719  1.00  0.00     0.001 A 
ATOM     55  C   UNL A   1      47.215  29.212  27.078  1.00  0.00     0.001 A 
ATOM     56  C   UNL A   1      46.284  29.981  26.385  1.00  0.00     0.000 A 
ENDBRANCH  38  51
ENDBRANCH  12  13
ENDBRANCH   5   7
ENDBRANCH   4   5
ENDBRANCH   3   4
ENDBRANCH   2   3
ENDBRANCH   1   2
BRANCH   1  57
ATOM     57  C   UNL A   1      31.777  30.120  25.983  1.00  0.00     0.338 C 
ATOM     58  O   UNL A   1      30.992  30.840  25.410  1.00  0.00    -0.246 OA
BRANCH  57  59
ATOM     59  C   UNL A   1      32.397  28.923  25.392  1.00  0.00     0.060 A 
ATOM     60  C   UNL A   1      32.637  27.806  26.197  1.00  0.00     0.018 A 
ATOM     61  C   UNL A   1      32.724  28.911  24.037  1.00  0.00     0.018 A 
ATOM     62  C   UNL A   1      33.133  26.633  25.628  1.00  0.00     0.029 A 
ATOM     63  C   UNL A   1      33.300  27.765  23.482  1.00  0.00     0.029 A 
ATOM     64  C   UNL A   1      33.490  26.620  24.276  1.00  0.00     0.066 A 
BRANCH  64  65
ATOM     65  N   UNL A   1      34.095  25.464  23.737  1.00  0.00    -0.220 N 
ATOM     66  C   UNL A   1      35.184  24.790  24.223  1.00  0.00     0.141 A 
ATOM     67  N   UNL A   1      33.637  24.832  22.630  1.00  0.00    -0.062 NA
ATOM     68  C   UNL A   1      35.326  23.693  23.399  1.00  0.00     0.093 A 
ATOM     69  N   UNL A   1      34.417  23.785  22.386  1.00  0.00    -0.134 NA
BRANCH  68  70
ATOM     70  C   UNL A   1      36.330  22.614  23.485  1.00  0.00     0.138 C 
BRANCH  70  71
ATOM     71  S   UNL A   1      36.457  21.563  24.936  1.00  0.00    -0.081 SA
BRANCH  71  72
ATOM     72  C   UNL A   1      35.220  20.325  24.954  1.00  0.00     0.176 A 
ATOM     73  N   UNL A   1      35.734  19.131  25.001  1.00  0.00    -0.223 NA
ATOM     74  N   UNL A   1      33.847  20.534  24.932  1.00  0.00    -0.255 N 
ATOM     75  C   UNL A   1      34.878  18.029  24.909  1.00  0.00     0.079 A 
ATOM     76  C   UNL A   1      33.130  19.561  24.218  1.00  0.00     0.266 A 
ATOM     77  C   UNL A   1      35.309  16.751  25.265  1.00  0.00     0.029 A 
ATOM     78  C   UNL A   1      33.614  18.179  24.358  1.00  0.00     0.066 A 
ATOM     79  O   UNL A   1      32.152  19.755  23.498  1.00  0.00    -0.268 OA
ATOM     80  C   UNL A   1      34.502  15.636  25.004  1.00  0.00     0.002 A 
ATOM     81  C   UNL A   1      32.821  17.073  24.039  1.00  0.00     0.016 A 
ATOM     82  C   UNL A   1      33.275  15.794  24.357  1.00  0.00     0.001 A 
BRANCH  74  83
ATOM     83  C   UNL A   1      33.117  21.638  25.530  1.00  0.00     0.051 A 
ATOM     84  C   UNL A   1      33.347  22.005  26.870  1.00  0.00     0.027 A 
ATOM     85  C   UNL A   1      32.194  22.438  24.843  1.00  0.00     0.027 A 
ATOM     86  C   UNL A   1      32.548  22.939  27.540  1.00  0.00     0.002 A 
ATOM     87  C   UNL A   1      31.346  23.331  25.516  1.00  0.00     0.002 A 
ATOM     88  C   UNL A   1      31.500  23.552  26.876  1.00  0.00     0.000 A 
ENDBRANCH  74  83
ENDBRANCH  71  72
ENDBRANCH  70  71
ENDBRANCH  68  70
ENDBRANCH  64  65
ENDBRANCH  57  59
ENDBRANCH   1  57
TORSDOF 16
ENDMDL
