MODEL 1
REMARK VINA RESULT:     -13.1      0.000      0.000
REMARK SMILES O=C(OCCOC(=O)[C@H]1CCCCN1C(=O)c1cn2ccccc2n1)c1ccc(-c2c3nc(c(-c4ccccc4)c4ccc([nH]4)c(-c4ccccc4)c4nc(c(-c5ccccc5)c5ccc2[nH]5)C=C4)C=C3)cc1
REMARK SMILES IDX 4 1 3 2 2 3 1 4 26 5 27 6 73 7 28 8 72 9 29 10 30 11 31 12
REMARK SMILES IDX 66 13 32 14 71 15 65 16 67 17 33 18 70 19 64 20 63 21 34 23
REMARK SMILES IDX 56 24 41 25 55 26 42 27 45 28 54 29 68 30 43 31 44 32 53 34
REMARK SMILES IDX 69 35 46 36 35 37 36 38 40 39 37 40 39 41 38 42 57 43 58 44
REMARK SMILES IDX 62 45 59 46 61 47 60 48 47 49 48 50 52 51 49 52 51 53 50 54
REMARK SMILES IDX 5 55 6 56 7 57 8 58 9 59 10 60 14 61 11 62 13 63 12 64 15 65
REMARK SMILES IDX 16 66 17 67 18 68 25 69 19 70 24 71 20 72 23 73 21 74 22 75
REMARK H PARENT 67 22 45 33
REMARK Flexibility Score: inf
ROOT
ATOM      1  C   UNL A   1      38.266  21.579  25.376  1.00  0.00     0.275 C 
ENDROOT
BRANCH   1   2
ATOM      2  O   UNL A   1      39.323  21.629  26.379  1.00  0.00    -0.458 OA
BRANCH   2   3
ATOM      3  C   UNL A   1      40.538  22.266  26.232  1.00  0.00     0.338 C 
ATOM      4  O   UNL A   1      41.492  21.732  25.682  1.00  0.00    -0.246 OA
BRANCH   3   5
ATOM      5  C   UNL A   1      40.782  23.433  27.153  1.00  0.00     0.060 A 
ATOM      6  C   UNL A   1      42.136  24.284  26.725  1.00  0.00     0.016 A 
ATOM      7  C   UNL A   1      39.381  24.243  27.803  1.00  0.00     0.016 A 
ATOM      8  C   UNL A   1      42.142  26.023  26.821  1.00  0.00     0.010 A 
ATOM      9  C   UNL A   1      39.249  25.971  28.017  1.00  0.00     0.010 A 
ATOM     10  C   UNL A   1      40.633  27.014  27.583  1.00  0.00    -0.014 A 
BRANCH  10  11
ATOM     11  C   UNL A   1      40.475  28.181  28.828  1.00  0.00     0.031 A 
ATOM     12  C   UNL A   1      39.263  29.259  28.921  1.00  0.00     0.074 A 
ATOM     13  C   UNL A   1      41.277  28.209  29.913  1.00  0.00     0.049 A 
ATOM     14  N   UNL A   1      38.782  29.880  29.996  1.00  0.00    -0.248 NA
ATOM     15  C   UNL A   1      38.535  29.703  27.714  1.00  0.00     0.031 C 
ATOM     16  C   UNL A   1      42.540  27.515  30.024  1.00  0.00     0.029 A 
ATOM     17  N   UNL A   1      41.061  28.710  31.186  1.00  0.00    -0.354 N 
ATOM     18  C   UNL A   1      37.723  30.708  29.571  1.00  0.00     0.074 A 
ATOM     19  C   UNL A   1      37.583  30.498  28.163  1.00  0.00     0.031 C 
ATOM     20  C   UNL A   1      42.840  27.374  31.324  1.00  0.00     0.029 A 
ATOM     21  C   UNL A   1      41.892  28.133  32.129  1.00  0.00     0.049 A 
ATOM     22  H   UNL A   1      40.393  29.401  31.396  1.00  0.00     0.167 HD
ATOM     23  C   UNL A   1      36.957  31.632  30.214  1.00  0.00     0.031 A 
ATOM     24  C   UNL A   1      41.927  28.202  33.477  1.00  0.00     0.031 A 
ATOM     25  C   UNL A   1      37.142  32.042  31.575  1.00  0.00     0.049 A 
ATOM     26  C   UNL A   1      41.091  29.229  34.183  1.00  0.00     0.074 A 
ATOM     27  C   UNL A   1      36.482  33.038  32.279  1.00  0.00     0.029 A 
ATOM     28  N   UNL A   1      38.092  31.512  32.423  1.00  0.00    -0.354 N 
ATOM     29  N   UNL A   1      40.112  29.963  33.722  1.00  0.00    -0.248 NA
ATOM     30  C   UNL A   1      41.451  29.510  35.583  1.00  0.00     0.031 C 
ATOM     31  C   UNL A   1      37.087  33.159  33.534  1.00  0.00     0.029 A 
ATOM     32  C   UNL A   1      38.058  32.179  33.635  1.00  0.00     0.049 A 
ATOM     33  H   UNL A   1      38.701  30.772  32.200  1.00  0.00     0.167 HD
ATOM     34  C   UNL A   1      39.784  30.832  34.755  1.00  0.00     0.074 A 
ATOM     35  C   UNL A   1      40.610  30.486  35.889  1.00  0.00     0.031 C 
ATOM     36  C   UNL A   1      38.900  31.857  34.748  1.00  0.00     0.031 A 
BRANCH  23  37
ATOM     37  C   UNL A   1      35.897  32.373  29.415  1.00  0.00    -0.014 A 
ATOM     38  C   UNL A   1      34.667  31.779  29.087  1.00  0.00     0.009 A 
ATOM     39  C   UNL A   1      36.118  33.706  29.024  1.00  0.00     0.009 A 
ATOM     40  C   UNL A   1      33.699  32.491  28.366  1.00  0.00     0.001 A 
ATOM     41  C   UNL A   1      35.140  34.425  28.326  1.00  0.00     0.001 A 
ATOM     42  C   UNL A   1      33.935  33.813  27.989  1.00  0.00     0.000 A 
ENDBRANCH  23  37
BRANCH  24  43
ATOM     43  C   UNL A   1      42.922  27.421  34.273  1.00  0.00    -0.014 A 
ATOM     44  C   UNL A   1      44.245  27.867  34.441  1.00  0.00     0.009 A 
ATOM     45  C   UNL A   1      42.572  26.157  34.768  1.00  0.00     0.009 A 
ATOM     46  C   UNL A   1      45.194  27.050  35.066  1.00  0.00     0.001 A 
ATOM     47  C   UNL A   1      43.510  25.358  35.419  1.00  0.00     0.001 A 
ATOM     48  C   UNL A   1      44.824  25.797  35.554  1.00  0.00     0.000 A 
ENDBRANCH  24  43
BRANCH  36  49
ATOM     49  C   UNL A   1      38.776  32.666  36.002  1.00  0.00    -0.014 A 
ATOM     50  C   UNL A   1      37.890  32.296  37.026  1.00  0.00     0.009 A 
ATOM     51  C   UNL A   1      39.565  33.814  36.162  1.00  0.00     0.009 A 
ATOM     52  C   UNL A   1      37.763  33.089  38.166  1.00  0.00     0.001 A 
ATOM     53  C   UNL A   1      39.459  34.588  37.317  1.00  0.00     0.001 A 
ATOM     54  C   UNL A   1      38.548  34.233  38.311  1.00  0.00     0.000 A 
ENDBRANCH  36  49
ENDBRANCH  10  11
ENDBRANCH   3   5
ENDBRANCH   2   3
ENDBRANCH   1   2
BRANCH   1  55
ATOM     55  C   UNL A   1      36.974  22.452  25.663  1.00  0.00     0.274 C 
BRANCH  55  56
ATOM     56  O   UNL A   1      36.748  23.682  24.896  1.00  0.00    -0.461 OA
BRANCH  56  57
ATOM     57  C   UNL A   1      35.648  23.733  24.074  1.00  0.00     0.328 C 
ATOM     58  O   UNL A   1      35.687  23.289  22.930  1.00  0.00    -0.250 OA
BRANCH  57  59
ATOM     59  C   UNL A   1      34.266  24.027  24.844  1.00  0.00     0.195 C 
ATOM     60  C   UNL A   1      34.027  25.856  24.631  1.00  0.00     0.037 C 
ATOM     61  N   UNL A   1      32.838  23.105  24.679  1.00  0.00    -0.323 N 
ATOM     62  C   UNL A   1      32.496  26.625  23.228  1.00  0.00     0.005 C 
ATOM     63  C   UNL A   1      31.432  23.447  23.592  1.00  0.00     0.121 C 
ATOM     64  C   UNL A   1      31.169  25.188  22.753  1.00  0.00     0.022 C 
BRANCH  61  65
ATOM     65  C   UNL A   1      32.925  22.046  25.617  1.00  0.00     0.274 C 
ATOM     66  O   UNL A   1      32.863  22.262  26.829  1.00  0.00    -0.267 OA
BRANCH  65  67
ATOM     67  C   UNL A   1      33.123  20.683  25.179  1.00  0.00     0.147 A 
ATOM     68  C   UNL A   1      34.312  20.110  24.780  1.00  0.00     0.127 A 
ATOM     69  N   UNL A   1      32.159  19.704  25.378  1.00  0.00    -0.223 NA
ATOM     70  N   UNL A   1      34.051  18.771  24.665  1.00  0.00    -0.306 N 
ATOM     71  C   UNL A   1      32.729  18.573  25.042  1.00  0.00     0.137 A 
ATOM     72  C   UNL A   1      34.891  17.744  24.251  1.00  0.00     0.093 A 
ATOM     73  C   UNL A   1      32.225  17.245  24.995  1.00  0.00     0.048 A 
ATOM     74  C   UNL A   1      34.404  16.492  24.175  1.00  0.00     0.018 A 
ATOM     75  C   UNL A   1      33.022  16.249  24.564  1.00  0.00     0.005 A 
ENDBRANCH  65  67
ENDBRANCH  61  65
ENDBRANCH  57  59
ENDBRANCH  56  57
ENDBRANCH  55  56
ENDBRANCH   1  55
TORSDOF 13
ENDMDL
MODEL 2
REMARK VINA RESULT:     -12.8      1.097      3.546
REMARK SMILES O=C(OCCOC(=O)[C@H]1CCCCN1C(=O)c1cn2ccccc2n1)c1ccc(-c2c3nc(c(-c4ccccc4)c4ccc([nH]4)c(-c4ccccc4)c4nc(c(-c5ccccc5)c5ccc2[nH]5)C=C4)C=C3)cc1
REMARK SMILES IDX 4 1 3 2 2 3 1 4 26 5 27 6 73 7 28 8 72 9 29 10 30 11 31 12
REMARK SMILES IDX 66 13 32 14 71 15 65 16 67 17 33 18 70 19 64 20 63 21 34 23
REMARK SMILES IDX 56 24 41 25 55 26 42 27 45 28 54 29 68 30 43 31 44 32 53 34
REMARK SMILES IDX 69 35 46 36 35 37 36 38 40 39 37 40 39 41 38 42 57 43 58 44
REMARK SMILES IDX 62 45 59 46 61 47 60 48 47 49 48 50 52 51 49 52 51 53 50 54
REMARK SMILES IDX 5 55 6 56 7 57 8 58 9 59 10 60 14 61 11 62 13 63 12 64 15 65
REMARK SMILES IDX 16 66 17 67 18 68 25 69 19 70 24 71 20 72 23 73 21 74 22 75
REMARK H PARENT 67 22 45 33
REMARK Flexibility Score: inf
ROOT
ATOM      1  C   UNL A   1      38.530  21.704  25.486  1.00  0.00     0.275 C 
ENDROOT
BRANCH   1   2
ATOM      2  O   UNL A   1      39.578  21.748  26.500  1.00  0.00    -0.458 OA
BRANCH   2   3
ATOM      3  C   UNL A   1      40.808  22.357  26.355  1.00  0.00     0.338 C 
ATOM      4  O   UNL A   1      41.779  21.764  25.904  1.00  0.00    -0.246 OA
BRANCH   3   5
ATOM      5  C   UNL A   1      41.024  23.601  27.177  1.00  0.00     0.060 A 
ATOM      6  C   UNL A   1      42.055  24.660  26.431  1.00  0.00     0.016 A 
ATOM      7  C   UNL A   1      39.677  24.175  28.124  1.00  0.00     0.016 A 
ATOM      8  C   UNL A   1      41.747  26.373  26.498  1.00  0.00     0.010 A 
ATOM      9  C   UNL A   1      39.266  25.859  28.338  1.00  0.00     0.010 A 
ATOM     10  C   UNL A   1      40.287  27.112  27.578  1.00  0.00    -0.014 A 
BRANCH  10  11
ATOM     11  C   UNL A   1      40.193  28.302  28.808  1.00  0.00     0.031 A 
ATOM     12  C   UNL A   1      39.020  29.421  28.908  1.00  0.00     0.074 A 
ATOM     13  C   UNL A   1      41.017  28.317  29.877  1.00  0.00     0.049 A 
ATOM     14  N   UNL A   1      38.582  30.073  29.983  1.00  0.00    -0.248 NA
ATOM     15  C   UNL A   1      38.285  29.872  27.708  1.00  0.00     0.031 C 
ATOM     16  C   UNL A   1      42.257  27.582  29.975  1.00  0.00     0.029 A 
ATOM     17  N   UNL A   1      40.843  28.844  31.146  1.00  0.00    -0.354 N 
ATOM     18  C   UNL A   1      37.543  30.931  29.565  1.00  0.00     0.074 A 
ATOM     19  C   UNL A   1      37.369  30.706  28.163  1.00  0.00     0.031 C 
ATOM     20  C   UNL A   1      42.578  27.450  31.271  1.00  0.00     0.029 A 
ATOM     21  C   UNL A   1      41.671  28.252  32.082  1.00  0.00     0.049 A 
ATOM     22  H   UNL A   1      40.202  29.559  31.359  1.00  0.00     0.167 HD
ATOM     23  C   UNL A   1      36.821  31.889  30.209  1.00  0.00     0.031 A 
ATOM     24  C   UNL A   1      41.735  28.338  33.428  1.00  0.00     0.031 A 
ATOM     25  C   UNL A   1      37.046  32.312  31.560  1.00  0.00     0.049 A 
ATOM     26  C   UNL A   1      40.947  29.403  34.134  1.00  0.00     0.074 A 
ATOM     27  C   UNL A   1      36.434  33.340  32.262  1.00  0.00     0.029 A 
ATOM     28  N   UNL A   1      37.994  31.762  32.398  1.00  0.00    -0.354 N 
ATOM     29  N   UNL A   1      39.985  30.163  33.681  1.00  0.00    -0.248 NA
ATOM     30  C   UNL A   1      41.344  29.691  35.523  1.00  0.00     0.031 C 
ATOM     31  C   UNL A   1      37.067  33.458  33.503  1.00  0.00     0.029 A 
ATOM     32  C   UNL A   1      38.006  32.446  33.600  1.00  0.00     0.049 A 
ATOM     33  H   UNL A   1      38.573  30.998  32.174  1.00  0.00     0.167 HD
ATOM     34  C   UNL A   1      39.706  31.058  34.707  1.00  0.00     0.074 A 
ATOM     35  C   UNL A   1      40.543  30.700  35.830  1.00  0.00     0.031 C 
ATOM     36  C   UNL A   1      38.858  32.111  34.702  1.00  0.00     0.031 A 
BRANCH  23  37
ATOM     37  C   UNL A   1      35.772  32.655  29.419  1.00  0.00    -0.014 A 
ATOM     38  C   UNL A   1      34.492  32.125  29.181  1.00  0.00     0.009 A 
ATOM     39  C   UNL A   1      36.056  33.949  28.946  1.00  0.00     0.009 A 
ATOM     40  C   UNL A   1      33.537  32.859  28.466  1.00  0.00     0.001 A 
ATOM     41  C   UNL A   1      35.092  34.691  28.255  1.00  0.00     0.001 A 
ATOM     42  C   UNL A   1      33.836  34.142  28.007  1.00  0.00     0.000 A 
ENDBRANCH  23  37
BRANCH  24  43
ATOM     43  C   UNL A   1      42.718  27.535  34.217  1.00  0.00    -0.014 A 
ATOM     44  C   UNL A   1      44.075  27.897  34.291  1.00  0.00     0.009 A 
ATOM     45  C   UNL A   1      42.313  26.327  34.801  1.00  0.00     0.009 A 
ATOM     46  C   UNL A   1      45.000  27.052  34.913  1.00  0.00     0.001 A 
ATOM     47  C   UNL A   1      43.230  25.502  35.449  1.00  0.00     0.001 A 
ATOM     48  C   UNL A   1      44.576  25.856  35.492  1.00  0.00     0.000 A 
ENDBRANCH  24  43
BRANCH  36  49
ATOM     49  C   UNL A   1      38.786  32.943  35.946  1.00  0.00    -0.014 A 
ATOM     50  C   UNL A   1      39.586  34.084  36.108  1.00  0.00     0.009 A 
ATOM     51  C   UNL A   1      37.898  32.578  36.968  1.00  0.00     0.009 A 
ATOM     52  C   UNL A   1      39.530  34.818  37.293  1.00  0.00     0.001 A 
ATOM     53  C   UNL A   1      37.823  33.331  38.139  1.00  0.00     0.001 A 
ATOM     54  C   UNL A   1      38.648  34.442  38.306  1.00  0.00     0.000 A 
ENDBRANCH  36  49
ENDBRANCH  10  11
ENDBRANCH   3   5
ENDBRANCH   2   3
ENDBRANCH   1   2
BRANCH   1  55
ATOM     55  C   UNL A   1      37.453  22.866  25.528  1.00  0.00     0.274 C 
BRANCH  55  56
ATOM     56  O   UNL A   1      36.366  22.809  26.510  1.00  0.00    -0.461 OA
BRANCH  56  57
ATOM     57  C   UNL A   1      35.348  21.913  26.289  1.00  0.00     0.328 C 
ATOM     58  O   UNL A   1      34.497  21.691  27.146  1.00  0.00    -0.250 OA
BRANCH  57  59
ATOM     59  C   UNL A   1      35.144  21.520  24.742  1.00  0.00     0.195 C 
ATOM     60  C   UNL A   1      35.747  19.765  24.653  1.00  0.00     0.037 C 
ATOM     61  N   UNL A   1      33.733  21.827  23.830  1.00  0.00    -0.323 N 
ATOM     62  C   UNL A   1      34.302  18.099  24.451  1.00  0.00     0.005 C 
ATOM     63  C   UNL A   1      32.359  20.691  23.520  1.00  0.00     0.121 C 
ATOM     64  C   UNL A   1      32.508  18.773  23.840  1.00  0.00     0.022 C 
BRANCH  61  65
ATOM     65  C   UNL A   1      33.870  23.131  23.293  1.00  0.00     0.274 C 
ATOM     66  O   UNL A   1      34.433  23.319  22.212  1.00  0.00    -0.267 OA
BRANCH  65  67
ATOM     67  C   UNL A   1      33.384  24.285  24.015  1.00  0.00     0.147 A 
ATOM     68  C   UNL A   1      32.091  24.507  24.440  1.00  0.00     0.127 A 
ATOM     69  N   UNL A   1      34.250  25.191  24.612  1.00  0.00    -0.223 NA
ATOM     70  N   UNL A   1      32.157  25.609  25.250  1.00  0.00    -0.306 N 
ATOM     71  C   UNL A   1      33.491  25.987  25.327  1.00  0.00     0.137 A 
ATOM     72  C   UNL A   1      31.133  26.283  25.903  1.00  0.00     0.093 A 
ATOM     73  C   UNL A   1      33.808  27.125  26.116  1.00  0.00     0.048 A 
ATOM     74  C   UNL A   1      31.428  27.380  26.624  1.00  0.00     0.018 A 
ATOM     75  C   UNL A   1      32.817  27.804  26.726  1.00  0.00     0.005 A 
ENDBRANCH  65  67
ENDBRANCH  61  65
ENDBRANCH  57  59
ENDBRANCH  56  57
ENDBRANCH  55  56
ENDBRANCH   1  55
TORSDOF 13
ENDMDL
MODEL 3
REMARK VINA RESULT:     -11.9      7.079      9.245
REMARK SMILES O=C(OCCOC(=O)[C@H]1CCCCN1C(=O)c1cn2ccccc2n1)c1ccc(-c2c3nc(c(-c4ccccc4)c4ccc([nH]4)c(-c4ccccc4)c4nc(c(-c5ccccc5)c5ccc2[nH]5)C=C4)C=C3)cc1
REMARK SMILES IDX 4 1 3 2 2 3 1 4 26 5 27 6 73 7 28 8 72 9 29 10 30 11 31 12
REMARK SMILES IDX 66 13 32 14 71 15 65 16 67 17 33 18 70 19 64 20 63 21 34 23
REMARK SMILES IDX 56 24 41 25 55 26 42 27 45 28 54 29 68 30 43 31 44 32 53 34
REMARK SMILES IDX 69 35 46 36 35 37 36 38 40 39 37 40 39 41 38 42 57 43 58 44
REMARK SMILES IDX 62 45 59 46 61 47 60 48 47 49 48 50 52 51 49 52 51 53 50 54
REMARK SMILES IDX 5 55 6 56 7 57 8 58 9 59 10 60 14 61 11 62 13 63 12 64 15 65
REMARK SMILES IDX 16 66 17 67 18 68 25 69 19 70 24 71 20 72 23 73 21 74 22 75
REMARK H PARENT 67 22 45 33
REMARK Flexibility Score: inf
ROOT
ATOM      1  C   UNL A   1      38.013  23.406  25.886  1.00  0.00     0.275 C 
ENDROOT
BRANCH   1   2
ATOM      2  O   UNL A   1      38.947  24.440  26.319  1.00  0.00    -0.458 OA
BRANCH   2   3
ATOM      3  C   UNL A   1      40.187  24.215  26.880  1.00  0.00     0.338 C 
ATOM      4  O   UNL A   1      40.392  23.293  27.659  1.00  0.00    -0.246 OA
BRANCH   3   5
ATOM      5  C   UNL A   1      41.138  25.383  26.859  1.00  0.00     0.060 A 
ATOM      6  C   UNL A   1      41.660  25.780  28.379  1.00  0.00     0.016 A 
ATOM      7  C   UNL A   1      42.196  25.525  25.480  1.00  0.00     0.016 A 
ATOM      8  C   UNL A   1      43.316  26.251  28.639  1.00  0.00     0.010 A 
ATOM      9  C   UNL A   1      43.864  26.037  25.563  1.00  0.00     0.010 A 
ATOM     10  C   UNL A   1      44.563  26.485  27.145  1.00  0.00    -0.014 A 
BRANCH  10  11
ATOM     11  C   UNL A   1      45.579  27.763  26.624  1.00  0.00     0.031 A 
ATOM     12  C   UNL A   1      45.203  29.338  26.749  1.00  0.00     0.074 A 
ATOM     13  C   UNL A   1      46.842  27.564  26.190  1.00  0.00     0.049 A 
ATOM     14  N   UNL A   1      46.022  30.387  26.811  1.00  0.00    -0.248 NA
ATOM     15  C   UNL A   1      43.797  29.791  26.787  1.00  0.00     0.031 C 
ATOM     16  C   UNL A   1      47.387  26.287  25.791  1.00  0.00     0.029 A 
ATOM     17  N   UNL A   1      47.938  28.412  26.174  1.00  0.00    -0.354 N 
ATOM     18  C   UNL A   1      45.223  31.543  26.928  1.00  0.00     0.074 A 
ATOM     19  C   UNL A   1      43.865  31.096  26.974  1.00  0.00     0.031 C 
ATOM     20  C   UNL A   1      48.726  26.350  25.859  1.00  0.00     0.029 A 
ATOM     21  C   UNL A   1      49.136  27.724  26.118  1.00  0.00     0.049 A 
ATOM     22  H   UNL A   1      47.871  29.393  26.200  1.00  0.00     0.167 HD
ATOM     23  C   UNL A   1      45.515  32.873  26.922  1.00  0.00     0.031 A 
ATOM     24  C   UNL A   1      50.422  28.121  26.235  1.00  0.00     0.031 A 
ATOM     25  C   UNL A   1      46.821  33.421  26.698  1.00  0.00     0.049 A 
ATOM     26  C   UNL A   1      50.743  29.587  26.216  1.00  0.00     0.074 A 
ATOM     27  C   UNL A   1      47.195  34.751  26.574  1.00  0.00     0.029 A 
ATOM     28  N   UNL A   1      47.959  32.664  26.511  1.00  0.00    -0.354 N 
ATOM     29  N   UNL A   1      49.943  30.615  26.336  1.00  0.00    -0.248 NA
ATOM     30  C   UNL A   1      52.150  29.941  25.963  1.00  0.00     0.031 C 
ATOM     31  C   UNL A   1      48.551  34.793  26.239  1.00  0.00     0.029 A 
ATOM     32  C   UNL A   1      49.032  33.496  26.244  1.00  0.00     0.049 A 
ATOM     33  H   UNL A   1      48.001  31.682  26.561  1.00  0.00     0.167 HD
ATOM     34  C   UNL A   1      50.740  31.731  26.112  1.00  0.00     0.074 A 
ATOM     35  C   UNL A   1      52.094  31.263  25.926  1.00  0.00     0.031 C 
ATOM     36  C   UNL A   1      50.369  33.030  26.028  1.00  0.00     0.031 A 
BRANCH  23  37
ATOM     37  C   UNL A   1      44.370  33.865  27.046  1.00  0.00    -0.014 A 
ATOM     38  C   UNL A   1      43.763  34.439  25.916  1.00  0.00     0.009 A 
ATOM     39  C   UNL A   1      43.861  34.193  28.316  1.00  0.00     0.009 A 
ATOM     40  C   UNL A   1      42.696  35.336  26.058  1.00  0.00     0.001 A 
ATOM     41  C   UNL A   1      42.778  35.069  28.453  1.00  0.00     0.001 A 
ATOM     42  C   UNL A   1      42.202  35.647  27.325  1.00  0.00     0.000 A 
ENDBRANCH  23  37
BRANCH  24  43
ATOM     43  C   UNL A   1      51.549  27.142  26.184  1.00  0.00    -0.014 A 
ATOM     44  C   UNL A   1      52.004  26.606  24.966  1.00  0.00     0.009 A 
ATOM     45  C   UNL A   1      52.094  26.651  27.378  1.00  0.00     0.009 A 
ATOM     46  C   UNL A   1      52.961  25.584  24.956  1.00  0.00     0.001 A 
ATOM     47  C   UNL A   1      53.070  25.657  27.365  1.00  0.00     0.001 A 
ATOM     48  C   UNL A   1      53.493  25.113  26.155  1.00  0.00     0.000 A 
ENDBRANCH  24  43
BRANCH  36  49
ATOM     49  C   UNL A   1      51.442  34.033  25.731  1.00  0.00    -0.014 A 
ATOM     50  C   UNL A   1      52.185  34.632  26.760  1.00  0.00     0.009 A 
ATOM     51  C   UNL A   1      51.714  34.376  24.400  1.00  0.00     0.009 A 
ATOM     52  C   UNL A   1      53.150  35.593  26.460  1.00  0.00     0.001 A 
ATOM     53  C   UNL A   1      52.701  35.315  24.102  1.00  0.00     0.001 A 
ATOM     54  C   UNL A   1      53.408  35.932  25.133  1.00  0.00     0.000 A 
ENDBRANCH  36  49
ENDBRANCH  10  11
ENDBRANCH   3   5
ENDBRANCH   2   3
ENDBRANCH   1   2
BRANCH   1  55
ATOM     55  C   UNL A   1      36.517  23.864  25.631  1.00  0.00     0.274 C 
BRANCH  55  56
ATOM     56  O   UNL A   1      36.001  23.914  24.259  1.00  0.00    -0.461 OA
BRANCH  56  57
ATOM     57  C   UNL A   1      34.740  24.423  24.066  1.00  0.00     0.328 C 
ATOM     58  O   UNL A   1      34.254  24.512  22.941  1.00  0.00    -0.250 OA
BRANCH  57  59
ATOM     59  C   UNL A   1      33.849  24.498  25.404  1.00  0.00     0.195 C 
ATOM     60  C   UNL A   1      33.642  26.321  25.691  1.00  0.00     0.037 C 
ATOM     61  N   UNL A   1      32.444  23.573  25.699  1.00  0.00    -0.323 N 
ATOM     62  C   UNL A   1      31.697  27.299  25.286  1.00  0.00     0.005 C 
ATOM     63  C   UNL A   1      30.726  24.075  25.430  1.00  0.00     0.121 C 
ATOM     64  C   UNL A   1      30.220  25.939  25.160  1.00  0.00     0.022 C 
BRANCH  61  65
ATOM     65  C   UNL A   1      32.872  22.349  26.268  1.00  0.00     0.274 C 
ATOM     66  O   UNL A   1      33.052  22.241  27.483  1.00  0.00    -0.267 OA
BRANCH  65  67
ATOM     67  C   UNL A   1      33.145  21.199  25.436  1.00  0.00     0.147 A 
ATOM     68  C   UNL A   1      34.162  20.284  25.602  1.00  0.00     0.127 A 
ATOM     69  N   UNL A   1      32.220  20.731  24.513  1.00  0.00    -0.223 NA
ATOM     70  N   UNL A   1      33.893  19.274  24.716  1.00  0.00    -0.306 N 
ATOM     71  C   UNL A   1      32.701  19.590  24.079  1.00  0.00     0.137 A 
ATOM     72  C   UNL A   1      34.626  18.126  24.443  1.00  0.00     0.093 A 
ATOM     73  C   UNL A   1      32.219  18.682  23.098  1.00  0.00     0.048 A 
ATOM     74  C   UNL A   1      34.187  17.282  23.492  1.00  0.00     0.018 A 
ATOM     75  C   UNL A   1      32.939  17.582  22.804  1.00  0.00     0.005 A 
ENDBRANCH  65  67
ENDBRANCH  61  65
ENDBRANCH  57  59
ENDBRANCH  56  57
ENDBRANCH  55  56
ENDBRANCH   1  55
TORSDOF 13
ENDMDL
