MODEL 1
REMARK VINA RESULT:      -8.1      0.000      0.000
REMARK SMILES CC(=O)Oc1ccccc1C(=O)OCCOC(=O)c1ccc(-c2c3nc(c(-c4ccccc4)c4ccc([nH]4)c(-c4ccccc4)c4nc(c(-c5ccccc5)c5ccc2[nH]5)C=C4)C=C3)cc1
REMARK SMILES IDX 14 1 13 2 11 3 12 4 10 5 5 6 6 7 7 8 9 9 8 10 4 11 2 12 1 13
REMARK SMILES IDX 3 14 15 15 16 16 17 17 18 18 19 19 20 20 66 21 21 22 65 23
REMARK SMILES IDX 22 24 23 25 24 26 59 27 25 28 64 29 58 30 60 31 26 32 63 33
REMARK SMILES IDX 57 34 56 35 27 37 49 38 34 39 48 40 35 41 38 42 47 43 61 44
REMARK SMILES IDX 36 45 37 46 46 48 62 49 39 50 28 51 29 52 33 53 30 54 32 55
REMARK SMILES IDX 31 56 50 57 51 58 55 59 52 60 54 61 53 62 40 63 41 64 45 65
REMARK SMILES IDX 42 66 44 67 43 68
REMARK H PARENT 60 36 38 47
REMARK Flexibility Score: inf
ROOT
ATOM      1  C   UNL A   1      34.000  34.080  29.529  1.00  0.00     0.275 C 
ENDROOT
BRANCH   1   2
ATOM      2  O   UNL A   1      35.420  34.187  29.763  1.00  0.00    -0.458 OA
BRANCH   2   3
ATOM      3  C   UNL A   1      35.909  33.488  30.823  1.00  0.00     0.342 C 
ATOM      4  O   UNL A   1      35.297  32.679  31.491  1.00  0.00    -0.246 OA
BRANCH   3   5
ATOM      5  C   UNL A   1      37.358  33.759  31.013  1.00  0.00     0.102 A 
ATOM      6  C   UNL A   1      37.924  34.181  32.221  1.00  0.00     0.145 A 
ATOM      7  C   UNL A   1      39.297  34.445  32.313  1.00  0.00     0.048 A 
ATOM      8  C   UNL A   1      40.116  34.274  31.196  1.00  0.00     0.004 A 
ATOM      9  C   UNL A   1      38.206  33.552  29.911  1.00  0.00     0.019 A 
ATOM     10  C   UNL A   1      39.571  33.830  29.994  1.00  0.00     0.001 A 
BRANCH   6  11
ATOM     11  O   UNL A   1      37.172  34.435  33.377  1.00  0.00    -0.426 OA
BRANCH  11  12
ATOM     12  C   UNL A   1      37.242  33.456  34.361  1.00  0.00     0.308 C 
ATOM     13  C   UNL A   1      38.122  33.942  35.473  1.00  0.00     0.139 C 
ATOM     14  O   UNL A   1      36.689  32.366  34.344  1.00  0.00    -0.252 OA
ENDBRANCH  11  12
ENDBRANCH   6  11
ENDBRANCH   3   5
ENDBRANCH   2   3
ENDBRANCH   1   2
BRANCH   1  15
ATOM     15  C   UNL A   1      33.705  33.658  28.092  1.00  0.00     0.275 C 
BRANCH  15  16
ATOM     16  O   UNL A   1      34.710  32.736  27.637  1.00  0.00    -0.458 OA
BRANCH  16  17
ATOM     17  C   UNL A   1      34.433  31.429  27.827  1.00  0.00     0.338 C 
ATOM     18  O   UNL A   1      33.372  30.848  27.648  1.00  0.00    -0.246 OA
BRANCH  17  19
ATOM     19  C   UNL A   1      35.661  30.737  28.230  1.00  0.00     0.060 A 
ATOM     20  C   UNL A   1      35.599  29.882  29.327  1.00  0.00     0.016 A 
ATOM     21  C   UNL A   1      36.881  31.011  27.621  1.00  0.00     0.016 A 
ATOM     22  C   UNL A   1      36.761  29.346  29.868  1.00  0.00     0.010 A 
ATOM     23  C   UNL A   1      38.042  30.404  28.113  1.00  0.00     0.010 A 
ATOM     24  C   UNL A   1      37.998  29.584  29.258  1.00  0.00    -0.014 A 
BRANCH  24  25
ATOM     25  C   UNL A   1      39.239  29.001  29.837  1.00  0.00     0.031 A 
ATOM     26  C   UNL A   1      39.820  29.564  31.106  1.00  0.00     0.074 A 
ATOM     27  C   UNL A   1      39.838  27.952  29.240  1.00  0.00     0.049 A 
ATOM     28  N   UNL A   1      40.970  29.305  31.674  1.00  0.00    -0.248 NA
ATOM     29  C   UNL A   1      39.005  30.558  31.823  1.00  0.00     0.031 C 
ATOM     30  C   UNL A   1      39.351  27.261  28.043  1.00  0.00     0.029 A 
ATOM     31  N   UNL A   1      40.985  27.271  29.569  1.00  0.00    -0.354 N 
ATOM     32  C   UNL A   1      41.046  30.149  32.776  1.00  0.00     0.074 A 
ATOM     33  C   UNL A   1      39.824  30.925  32.798  1.00  0.00     0.031 C 
ATOM     34  C   UNL A   1      40.165  26.231  27.768  1.00  0.00     0.029 A 
ATOM     35  C   UNL A   1      41.281  26.246  28.704  1.00  0.00     0.049 A 
ATOM     36  H   UNL A   1      41.540  27.497  30.350  1.00  0.00     0.167 HD
ATOM     37  C   UNL A   1      42.047  30.271  33.681  1.00  0.00     0.031 A 
ATOM     38  C   UNL A   1      42.354  25.436  28.636  1.00  0.00     0.031 A 
ATOM     39  C   UNL A   1      43.244  29.470  33.678  1.00  0.00     0.049 A 
ATOM     40  C   UNL A   1      43.478  25.631  29.612  1.00  0.00     0.074 A 
ATOM     41  C   UNL A   1      44.304  29.499  34.567  1.00  0.00     0.029 A 
ATOM     42  N   UNL A   1      43.533  28.489  32.741  1.00  0.00    -0.354 N 
ATOM     43  N   UNL A   1      43.560  26.465  30.618  1.00  0.00    -0.248 NA
ATOM     44  C   UNL A   1      44.667  24.788  29.423  1.00  0.00     0.031 C 
ATOM     45  C   UNL A   1      45.259  28.570  34.137  1.00  0.00     0.029 A 
ATOM     46  C   UNL A   1      44.769  27.926  33.013  1.00  0.00     0.049 A 
ATOM     47  H   UNL A   1      42.946  28.230  31.994  1.00  0.00     0.167 HD
ATOM     48  C   UNL A   1      44.808  26.250  31.185  1.00  0.00     0.074 A 
ATOM     49  C   UNL A   1      45.436  25.187  30.426  1.00  0.00     0.031 C 
ATOM     50  C   UNL A   1      45.386  26.882  32.237  1.00  0.00     0.031 A 
BRANCH  37  51
ATOM     51  C   UNL A   1      41.916  31.354  34.717  1.00  0.00    -0.014 A 
ATOM     52  C   UNL A   1      41.394  31.102  35.994  1.00  0.00     0.009 A 
ATOM     53  C   UNL A   1      42.347  32.655  34.405  1.00  0.00     0.009 A 
ATOM     54  C   UNL A   1      41.270  32.138  36.923  1.00  0.00     0.001 A 
ATOM     55  C   UNL A   1      42.249  33.682  35.345  1.00  0.00     0.001 A 
ATOM     56  C   UNL A   1      41.701  33.426  36.600  1.00  0.00     0.000 A 
ENDBRANCH  37  51
BRANCH  38  57
ATOM     57  C   UNL A   1      42.438  24.408  27.566  1.00  0.00    -0.014 A 
ATOM     58  C   UNL A   1      41.893  23.130  27.760  1.00  0.00     0.009 A 
ATOM     59  C   UNL A   1      43.043  24.708  26.335  1.00  0.00     0.009 A 
ATOM     60  C   UNL A   1      41.957  22.173  26.745  1.00  0.00     0.001 A 
ATOM     61  C   UNL A   1      43.078  23.760  25.311  1.00  0.00     0.001 A 
ATOM     62  C   UNL A   1      42.541  22.491  25.519  1.00  0.00     0.000 A 
ENDBRANCH  38  57
BRANCH  50  63
ATOM     63  C   UNL A   1      46.761  26.425  32.629  1.00  0.00    -0.014 A 
ATOM     64  C   UNL A   1      46.941  25.382  33.551  1.00  0.00     0.009 A 
ATOM     65  C   UNL A   1      47.888  27.028  32.053  1.00  0.00     0.009 A 
ATOM     66  C   UNL A   1      48.227  24.975  33.912  1.00  0.00     0.001 A 
ATOM     67  C   UNL A   1      49.171  26.602  32.395  1.00  0.00     0.001 A 
ATOM     68  C   UNL A   1      49.340  25.582  33.331  1.00  0.00     0.000 A 
ENDBRANCH  50  63
ENDBRANCH  24  25
ENDBRANCH  17  19
ENDBRANCH  16  17
ENDBRANCH  15  16
ENDBRANCH   1  15
TORSDOF 13
ENDMDL
MODEL 2
REMARK VINA RESULT:      -8.1      2.969      8.377
REMARK SMILES CC(=O)Oc1ccccc1C(=O)OCCOC(=O)c1ccc(-c2c3nc(c(-c4ccccc4)c4ccc([nH]4)c(-c4ccccc4)c4nc(c(-c5ccccc5)c5ccc2[nH]5)C=C4)C=C3)cc1
REMARK SMILES IDX 14 1 13 2 11 3 12 4 10 5 5 6 6 7 7 8 9 9 8 10 4 11 2 12 1 13
REMARK SMILES IDX 3 14 15 15 16 16 17 17 18 18 19 19 20 20 66 21 21 22 65 23
REMARK SMILES IDX 22 24 23 25 24 26 59 27 25 28 64 29 58 30 60 31 26 32 63 33
REMARK SMILES IDX 57 34 56 35 27 37 49 38 34 39 48 40 35 41 38 42 47 43 61 44
REMARK SMILES IDX 36 45 37 46 46 48 62 49 39 50 28 51 29 52 33 53 30 54 32 55
REMARK SMILES IDX 31 56 50 57 51 58 55 59 52 60 54 61 53 62 40 63 41 64 45 65
REMARK SMILES IDX 42 66 44 67 43 68
REMARK H PARENT 60 36 38 47
REMARK Flexibility Score: inf
ROOT
ATOM      1  C   UNL A   1      33.862  35.132  28.936  1.00  0.00     0.275 C 
ENDROOT
BRANCH   1   2
ATOM      2  O   UNL A   1      33.772  33.709  29.160  1.00  0.00    -0.458 OA
BRANCH   2   3
ATOM      3  C   UNL A   1      33.478  32.947  28.073  1.00  0.00     0.342 C 
ATOM      4  O   UNL A   1      32.598  33.163  27.262  1.00  0.00    -0.246 OA
BRANCH   3   5
ATOM      5  C   UNL A   1      34.455  31.836  27.924  1.00  0.00     0.102 A 
ATOM      6  C   UNL A   1      34.096  30.504  27.686  1.00  0.00     0.145 A 
ATOM      7  C   UNL A   1      35.075  29.507  27.588  1.00  0.00     0.048 A 
ATOM      8  C   UNL A   1      36.424  29.841  27.715  1.00  0.00     0.004 A 
ATOM      9  C   UNL A   1      35.820  32.158  28.006  1.00  0.00     0.019 A 
ATOM     10  C   UNL A   1      36.798  31.165  27.925  1.00  0.00     0.001 A 
BRANCH   6  11
ATOM     11  O   UNL A   1      32.765  30.068  27.604  1.00  0.00    -0.426 OA
BRANCH  11  12
ATOM     12  C   UNL A   1      32.389  29.531  26.379  1.00  0.00     0.308 C 
ATOM     13  C   UNL A   1      31.764  28.187  26.604  1.00  0.00     0.139 C 
ATOM     14  O   UNL A   1      32.537  30.048  25.281  1.00  0.00    -0.252 OA
ENDBRANCH  11  12
ENDBRANCH   6  11
ENDBRANCH   3   5
ENDBRANCH   2   3
ENDBRANCH   1   2
BRANCH   1  15
ATOM     15  C   UNL A   1      32.909  35.898  29.850  1.00  0.00     0.275 C 
BRANCH  15  16
ATOM     16  O   UNL A   1      32.534  35.075  30.966  1.00  0.00    -0.458 OA
BRANCH  16  17
ATOM     17  C   UNL A   1      32.819  35.577  32.185  1.00  0.00     0.338 C 
ATOM     18  O   UNL A   1      32.175  36.383  32.840  1.00  0.00    -0.246 OA
BRANCH  17  19
ATOM     19  C   UNL A   1      34.039  34.938  32.689  1.00  0.00     0.060 A 
ATOM     20  C   UNL A   1      35.252  35.590  32.485  1.00  0.00     0.016 A 
ATOM     21  C   UNL A   1      34.012  33.663  33.246  1.00  0.00     0.016 A 
ATOM     22  C   UNL A   1      36.452  34.952  32.771  1.00  0.00     0.010 A 
ATOM     23  C   UNL A   1      35.217  33.053  33.614  1.00  0.00     0.010 A 
ATOM     24  C   UNL A   1      36.452  33.681  33.356  1.00  0.00    -0.014 A 
BRANCH  24  25
ATOM     25  C   UNL A   1      37.740  33.004  33.668  1.00  0.00     0.031 A 
ATOM     26  C   UNL A   1      38.324  32.006  32.706  1.00  0.00     0.074 A 
ATOM     27  C   UNL A   1      38.404  33.298  34.805  1.00  0.00     0.049 A 
ATOM     28  N   UNL A   1      39.341  31.197  32.869  1.00  0.00    -0.248 NA
ATOM     29  C   UNL A   1      37.671  31.892  31.392  1.00  0.00     0.031 C 
ATOM     30  C   UNL A   1      37.991  34.293  35.798  1.00  0.00     0.029 A 
ATOM     31  N   UNL A   1      39.577  32.794  35.311  1.00  0.00    -0.354 N 
ATOM     32  C   UNL A   1      39.408  30.436  31.708  1.00  0.00     0.074 A 
ATOM     33  C   UNL A   1      38.332  30.881  30.848  1.00  0.00     0.031 C 
ATOM     34  C   UNL A   1      38.918  34.359  36.765  1.00  0.00     0.029 A 
ATOM     35  C   UNL A   1      39.936  33.347  36.516  1.00  0.00     0.049 A 
ATOM     36  H   UNL A   1      40.108  32.103  34.853  1.00  0.00     0.167 HD
ATOM     37  C   UNL A   1      40.283  29.450  31.392  1.00  0.00     0.031 A 
ATOM     38  C   UNL A   1      40.943  33.044  37.356  1.00  0.00     0.031 A 
ATOM     39  C   UNL A   1      41.375  29.037  32.234  1.00  0.00     0.049 A 
ATOM     40  C   UNL A   1      41.862  31.908  37.014  1.00  0.00     0.074 A 
ATOM     41  C   UNL A   1      42.332  28.066  31.992  1.00  0.00     0.029 A 
ATOM     42  N   UNL A   1      41.660  29.578  33.479  1.00  0.00    -0.354 N 
ATOM     43  N   UNL A   1      41.884  31.162  35.937  1.00  0.00    -0.248 NA
ATOM     44  C   UNL A   1      42.875  31.555  38.017  1.00  0.00     0.031 C 
ATOM     45  C   UNL A   1      43.165  27.985  33.114  1.00  0.00     0.029 A 
ATOM     46  C   UNL A   1      42.760  28.942  34.030  1.00  0.00     0.049 A 
ATOM     47  H   UNL A   1      41.156  30.308  33.906  1.00  0.00     0.167 HD
ATOM     48  C   UNL A   1      42.914  30.252  36.130  1.00  0.00     0.074 A 
ATOM     49  C   UNL A   1      43.509  30.558  37.416  1.00  0.00     0.031 C 
ATOM     50  C   UNL A   1      43.326  29.248  35.318  1.00  0.00     0.031 A 
BRANCH  37  51
ATOM     51  C   UNL A   1      40.053  28.707  30.104  1.00  0.00    -0.014 A 
ATOM     52  C   UNL A   1      39.341  27.499  30.060  1.00  0.00     0.009 A 
ATOM     53  C   UNL A   1      40.549  29.247  28.905  1.00  0.00     0.009 A 
ATOM     54  C   UNL A   1      39.165  26.829  28.847  1.00  0.00     0.001 A 
ATOM     55  C   UNL A   1      40.347  28.589  27.691  1.00  0.00     0.001 A 
ATOM     56  C   UNL A   1      39.664  27.375  27.664  1.00  0.00     0.000 A 
ENDBRANCH  37  51
BRANCH  38  57
ATOM     57  C   UNL A   1      41.094  33.793  38.631  1.00  0.00    -0.014 A 
ATOM     58  C   UNL A   1      40.453  33.351  39.798  1.00  0.00     0.009 A 
ATOM     59  C   UNL A   1      41.901  34.941  38.693  1.00  0.00     0.009 A 
ATOM     60  C   UNL A   1      40.614  34.047  40.998  1.00  0.00     0.001 A 
ATOM     61  C   UNL A   1      42.085  35.616  39.900  1.00  0.00     0.001 A 
ATOM     62  C   UNL A   1      41.436  35.172  41.051  1.00  0.00     0.000 A 
ENDBRANCH  38  57
BRANCH  50  63
ATOM     63  C   UNL A   1      44.483  28.419  35.798  1.00  0.00    -0.014 A 
ATOM     64  C   UNL A   1      45.807  28.827  35.572  1.00  0.00     0.009 A 
ATOM     65  C   UNL A   1      44.245  27.231  36.504  1.00  0.00     0.009 A 
ATOM     66  C   UNL A   1      46.871  28.040  36.017  1.00  0.00     0.001 A 
ATOM     67  C   UNL A   1      45.310  26.462  36.972  1.00  0.00     0.001 A 
ATOM     68  C   UNL A   1      46.622  26.862  36.720  1.00  0.00     0.000 A 
ENDBRANCH  50  63
ENDBRANCH  24  25
ENDBRANCH  17  19
ENDBRANCH  16  17
ENDBRANCH  15  16
ENDBRANCH   1  15
TORSDOF 13
ENDMDL
MODEL 3
REMARK VINA RESULT:      -8.1      2.144      3.115
REMARK SMILES CC(=O)Oc1ccccc1C(=O)OCCOC(=O)c1ccc(-c2c3nc(c(-c4ccccc4)c4ccc([nH]4)c(-c4ccccc4)c4nc(c(-c5ccccc5)c5ccc2[nH]5)C=C4)C=C3)cc1
REMARK SMILES IDX 14 1 13 2 11 3 12 4 10 5 5 6 6 7 7 8 9 9 8 10 4 11 2 12 1 13
REMARK SMILES IDX 3 14 15 15 16 16 17 17 18 18 19 19 20 20 66 21 21 22 65 23
REMARK SMILES IDX 22 24 23 25 24 26 59 27 25 28 64 29 58 30 60 31 26 32 63 33
REMARK SMILES IDX 57 34 56 35 27 37 49 38 34 39 48 40 35 41 38 42 47 43 61 44
REMARK SMILES IDX 36 45 37 46 46 48 62 49 39 50 28 51 29 52 33 53 30 54 32 55
REMARK SMILES IDX 31 56 50 57 51 58 55 59 52 60 54 61 53 62 40 63 41 64 45 65
REMARK SMILES IDX 42 66 44 67 43 68
REMARK H PARENT 60 36 38 47
REMARK Flexibility Score: inf
ROOT
ATOM      1  C   UNL A   1      33.783  33.982  28.101  1.00  0.00     0.275 C 
ENDROOT
BRANCH   1   2
ATOM      2  O   UNL A   1      34.184  35.152  28.843  1.00  0.00    -0.458 OA
BRANCH   2   3
ATOM      3  C   UNL A   1      33.184  35.872  29.420  1.00  0.00     0.342 C 
ATOM      4  O   UNL A   1      32.130  36.179  28.898  1.00  0.00    -0.246 OA
BRANCH   3   5
ATOM      5  C   UNL A   1      33.493  36.161  30.845  1.00  0.00     0.102 A 
ATOM      6  C   UNL A   1      33.938  35.201  31.760  1.00  0.00     0.145 A 
ATOM      7  C   UNL A   1      34.180  35.546  33.096  1.00  0.00     0.048 A 
ATOM      8  C   UNL A   1      33.990  36.862  33.521  1.00  0.00     0.004 A 
ATOM      9  C   UNL A   1      33.349  37.489  31.282  1.00  0.00     0.019 A 
ATOM     10  C   UNL A   1      33.573  37.833  32.616  1.00  0.00     0.001 A 
BRANCH   6  11
ATOM     11  O   UNL A   1      34.099  33.845  31.438  1.00  0.00    -0.426 OA
BRANCH  11  12
ATOM     12  C   UNL A   1      35.399  33.362  31.531  1.00  0.00     0.308 C 
ATOM     13  C   UNL A   1      35.391  32.086  32.319  1.00  0.00     0.139 C 
ATOM     14  O   UNL A   1      36.404  33.876  31.061  1.00  0.00    -0.252 OA
ENDBRANCH  11  12
ENDBRANCH   6  11
ENDBRANCH   3   5
ENDBRANCH   2   3
ENDBRANCH   1   2
BRANCH   1  15
ATOM     15  C   UNL A   1      34.946  33.009  27.928  1.00  0.00     0.275 C 
BRANCH  15  16
ATOM     16  O   UNL A   1      34.738  31.847  28.747  1.00  0.00    -0.458 OA
BRANCH  16  17
ATOM     17  C   UNL A   1      34.771  30.662  28.101  1.00  0.00     0.338 C 
ATOM     18  O   UNL A   1      33.905  30.159  27.402  1.00  0.00    -0.246 OA
BRANCH  17  19
ATOM     19  C   UNL A   1      36.090  30.051  28.297  1.00  0.00     0.060 A 
ATOM     20  C   UNL A   1      36.385  29.519  29.549  1.00  0.00     0.016 A 
ATOM     21  C   UNL A   1      37.068  30.106  27.309  1.00  0.00     0.016 A 
ATOM     22  C   UNL A   1      37.674  29.098  29.850  1.00  0.00     0.010 A 
ATOM     23  C   UNL A   1      38.345  29.603  27.585  1.00  0.00     0.010 A 
ATOM     24  C   UNL A   1      38.669  29.117  28.866  1.00  0.00    -0.014 A 
BRANCH  24  25
ATOM     25  C   UNL A   1      40.046  28.657  29.191  1.00  0.00     0.031 A 
ATOM     26  C   UNL A   1      40.968  29.535  29.994  1.00  0.00     0.074 A 
ATOM     27  C   UNL A   1      40.470  27.443  28.787  1.00  0.00     0.049 A 
ATOM     28  N   UNL A   1      42.246  29.387  30.238  1.00  0.00    -0.248 NA
ATOM     29  C   UNL A   1      40.379  30.745  30.588  1.00  0.00     0.031 C 
ATOM     30  C   UNL A   1      39.664  26.459  28.060  1.00  0.00     0.029 A 
ATOM     31  N   UNL A   1      41.685  26.822  28.944  1.00  0.00    -0.354 N 
ATOM     32  C   UNL A   1      42.626  30.514  30.957  1.00  0.00     0.074 A 
ATOM     33  C   UNL A   1      41.444  31.334  31.112  1.00  0.00     0.031 C 
ATOM     34  C   UNL A   1      40.389  25.346  27.877  1.00  0.00     0.029 A 
ATOM     35  C   UNL A   1      41.737  25.569  28.381  1.00  0.00     0.049 A 
ATOM     36  H   UNL A   1      42.445  27.235  29.414  1.00  0.00     0.167 HD
ATOM     37  C   UNL A   1      43.852  30.837  31.437  1.00  0.00     0.031 A 
ATOM     38  C   UNL A   1      42.764  24.712  28.241  1.00  0.00     0.031 A 
ATOM     39  C   UNL A   1      45.016  30.000  31.315  1.00  0.00     0.049 A 
ATOM     40  C   UNL A   1      44.126  25.118  28.725  1.00  0.00     0.074 A 
ATOM     41  C   UNL A   1      46.296  30.226  31.790  1.00  0.00     0.029 A 
ATOM     42  N   UNL A   1      45.039  28.769  30.676  1.00  0.00    -0.354 N 
ATOM     43  N   UNL A   1      44.484  26.208  29.358  1.00  0.00    -0.248 NA
ATOM     44  C   UNL A   1      45.228  24.187  28.450  1.00  0.00     0.031 C 
ATOM     45  C   UNL A   1      47.105  29.156  31.393  1.00  0.00     0.029 A 
ATOM     46  C   UNL A   1      46.317  28.237  30.719  1.00  0.00     0.049 A 
ATOM     47  H   UNL A   1      44.260  28.336  30.255  1.00  0.00     0.167 HD
ATOM     48  C   UNL A   1      45.852  26.095  29.560  1.00  0.00     0.074 A 
ATOM     49  C   UNL A   1      46.254  24.817  29.005  1.00  0.00     0.031 C 
ATOM     50  C   UNL A   1      46.701  26.974  30.146  1.00  0.00     0.031 A 
BRANCH  37  51
ATOM     51  C   UNL A   1      44.007  32.186  32.086  1.00  0.00    -0.014 A 
ATOM     52  C   UNL A   1      44.325  33.334  31.346  1.00  0.00     0.009 A 
ATOM     53  C   UNL A   1      43.810  32.305  33.472  1.00  0.00     0.009 A 
ATOM     54  C   UNL A   1      44.480  34.566  31.987  1.00  0.00     0.001 A 
ATOM     55  C   UNL A   1      43.936  33.542  34.106  1.00  0.00     0.001 A 
ATOM     56  C   UNL A   1      44.282  34.670  33.365  1.00  0.00     0.000 A 
ENDBRANCH  37  51
BRANCH  38  57
ATOM     57  C   UNL A   1      42.553  23.409  27.558  1.00  0.00    -0.014 A 
ATOM     58  C   UNL A   1      42.140  22.282  28.284  1.00  0.00     0.009 A 
ATOM     59  C   UNL A   1      42.738  23.292  26.171  1.00  0.00     0.009 A 
ATOM     60  C   UNL A   1      41.923  21.064  27.635  1.00  0.00     0.001 A 
ATOM     61  C   UNL A   1      42.491  22.082  25.521  1.00  0.00     0.001 A 
ATOM     62  C   UNL A   1      42.089  20.968  26.254  1.00  0.00     0.000 A 
ENDBRANCH  38  57
BRANCH  50  63
ATOM     63  C   UNL A   1      48.146  26.571  30.224  1.00  0.00    -0.014 A 
ATOM     64  C   UNL A   1      49.065  26.980  29.245  1.00  0.00     0.009 A 
ATOM     65  C   UNL A   1      48.596  25.793  31.301  1.00  0.00     0.009 A 
ATOM     66  C   UNL A   1      50.402  26.588  29.328  1.00  0.00     0.001 A 
ATOM     67  C   UNL A   1      49.938  25.426  31.395  1.00  0.00     0.001 A 
ATOM     68  C   UNL A   1      50.839  25.816  30.404  1.00  0.00     0.000 A 
ENDBRANCH  50  63
ENDBRANCH  24  25
ENDBRANCH  17  19
ENDBRANCH  16  17
ENDBRANCH  15  16
ENDBRANCH   1  15
TORSDOF 13
ENDMDL
