MODEL 1
REMARK VINA RESULT:     -10.9      0.000      0.000
REMARK SMILES CC(C)[NH2+][C@@]1(C(=O)OCCOC(=O)c2ccc(-c3c4nc(c(-c5ccccc5)c5ccc([nH]5)c(-c5ccccc5)c5nc(c(-c6ccccc6)c6ccc3[nH]6)C=C5)C=C4)cc2)CC[C@H](Oc2ccccc2F)C1
REMARK SMILES IDX 9 1 8 2 6 3 7 4 5 5 62 6 73 7 63 8 64 9 4 10 2 13 1 14 3 15
REMARK SMILES IDX 65 16 66 17 67 18 71 19 68 20 70 21 72 22 69 23 10 24 11 25
REMARK SMILES IDX 12 26 13 27 14 28 15 29 61 30 16 31 60 32 17 33 18 34 19 35
REMARK SMILES IDX 54 36 20 37 59 38 53 39 55 40 21 41 58 42 52 43 51 44 22 46
REMARK SMILES IDX 44 47 29 48 43 49 30 50 33 51 42 52 56 53 31 54 32 55 41 57
REMARK SMILES IDX 57 58 34 59 23 60 24 61 28 62 25 63 27 64 26 65 45 66 46 67
REMARK SMILES IDX 50 68 47 69 49 70 48 71 35 72 36 73 40 74 37 75 39 76 38 77
REMARK H PARENT 4 11 4 12 55 45 33 56
REMARK Flexibility Score: inf
ROOT
ATOM      1  C   UNL A   1      37.878  20.047  24.924  1.00  0.00     0.274 C 
ENDROOT
BRANCH   1   2
ATOM      2  O   UNL A   1      36.798  20.748  25.563  1.00  0.00    -0.457 OA
BRANCH   2   3
ATOM      3  C   UNL A   1      35.823  21.205  24.733  1.00  0.00     0.368 C 
ATOM      4  O   UNL A   1      36.020  22.118  23.938  1.00  0.00    -0.245 OA
BRANCH   3   5
ATOM      5  C   UNL A   1      34.442  20.490  24.956  1.00  0.00     0.198 C 
ATOM      6  C   UNL A   1      33.404  20.934  23.922  1.00  0.00     0.085 C 
ATOM      7  C   UNL A   1      33.760  20.924  26.282  1.00  0.00     0.126 C 
ATOM      8  C   UNL A   1      32.911  22.273  24.428  1.00  0.00     0.052 C 
ATOM      9  C   UNL A   1      32.946  22.197  25.962  1.00  0.00     0.180 C 
BRANCH   5  10
ATOM     10  N   UNL A   1      34.527  19.003  24.953  1.00  0.00    -0.330 N 
ATOM     11  H   UNL A   1      35.376  18.760  24.443  1.00  0.00     0.347 HD
ATOM     12  H   UNL A   1      34.483  18.771  25.946  1.00  0.00     0.347 HD
BRANCH  10  13
ATOM     13  C   UNL A   1      33.448  18.194  24.381  1.00  0.00     0.176 C 
ATOM     14  C   UNL A   1      34.102  17.149  23.467  1.00  0.00     0.075 C 
ATOM     15  C   UNL A   1      32.517  17.448  25.344  1.00  0.00     0.075 C 
ENDBRANCH  10  13
ENDBRANCH   5  10
BRANCH   9  16
ATOM     16  O   UNL A   1      33.577  23.326  26.576  1.00  0.00    -0.487 OA
BRANCH  16  17
ATOM     17  C   UNL A   1      33.258  24.581  26.133  1.00  0.00     0.155 A 
ATOM     18  C   UNL A   1      34.124  25.434  25.447  1.00  0.00     0.049 A 
ATOM     19  C   UNL A   1      31.969  25.033  26.434  1.00  0.00     0.165 A 
ATOM     20  C   UNL A   1      33.733  26.745  25.150  1.00  0.00     0.004 A 
ATOM     21  C   UNL A   1      31.566  26.330  26.121  1.00  0.00     0.043 A 
ATOM     22  F   UNL A   1      31.099  24.229  27.066  1.00  0.00    -0.203 F 
ATOM     23  C   UNL A   1      32.460  27.196  25.495  1.00  0.00     0.003 A 
ENDBRANCH  16  17
ENDBRANCH   9  16
ENDBRANCH   3   5
ENDBRANCH   2   3
ENDBRANCH   1   2
BRANCH   1  24
ATOM     24  C   UNL A   1      39.191  20.241  25.684  1.00  0.00     0.275 C 
BRANCH  24  25
ATOM     25  O   UNL A   1      40.019  19.059  25.671  1.00  0.00    -0.458 OA
BRANCH  25  26
ATOM     26  C   UNL A   1      41.329  19.270  25.951  1.00  0.00     0.338 C 
ATOM     27  O   UNL A   1      42.256  18.499  25.744  1.00  0.00    -0.246 OA
BRANCH  26  28
ATOM     28  C   UNL A   1      41.543  20.631  26.489  1.00  0.00     0.060 A 
ATOM     29  C   UNL A   1      41.930  21.636  25.596  1.00  0.00     0.016 A 
ATOM     30  C   UNL A   1      41.419  20.925  27.851  1.00  0.00     0.016 A 
ATOM     31  C   UNL A   1      42.155  22.935  26.056  1.00  0.00     0.010 A 
ATOM     32  C   UNL A   1      41.673  22.225  28.315  1.00  0.00     0.010 A 
ATOM     33  C   UNL A   1      42.032  23.243  27.418  1.00  0.00    -0.014 A 
BRANCH  33  34
ATOM     34  C   UNL A   1      42.389  24.610  27.886  1.00  0.00     0.031 A 
ATOM     35  C   UNL A   1      43.839  24.985  27.988  1.00  0.00     0.074 A 
ATOM     36  C   UNL A   1      41.445  25.534  28.149  1.00  0.00     0.049 A 
ATOM     37  N   UNL A   1      44.377  26.132  28.313  1.00  0.00    -0.248 NA
ATOM     38  C   UNL A   1      44.811  23.921  27.689  1.00  0.00     0.031 C 
ATOM     39  C   UNL A   1      40.005  25.315  28.062  1.00  0.00     0.029 A 
ATOM     40  N   UNL A   1      41.558  26.856  28.511  1.00  0.00    -0.354 N 
ATOM     41  C   UNL A   1      45.750  25.930  28.259  1.00  0.00     0.074 A 
ATOM     42  C   UNL A   1      45.961  24.551  27.871  1.00  0.00     0.031 C 
ATOM     43  C   UNL A   1      39.368  26.478  28.283  1.00  0.00     0.029 A 
ATOM     44  C   UNL A   1      40.349  27.505  28.625  1.00  0.00     0.049 A 
ATOM     45  H   UNL A   1      42.422  27.297  28.673  1.00  0.00     0.167 HD
ATOM     46  C   UNL A   1      46.747  26.803  28.531  1.00  0.00     0.031 A 
ATOM     47  C   UNL A   1      40.064  28.771  28.993  1.00  0.00     0.031 A 
ATOM     48  C   UNL A   1      46.546  28.148  28.998  1.00  0.00     0.049 A 
ATOM     49  C   UNL A   1      41.191  29.687  29.398  1.00  0.00     0.074 A 
ATOM     50  C   UNL A   1      47.496  29.087  29.358  1.00  0.00     0.029 A 
ATOM     51  N   UNL A   1      45.306  28.738  29.192  1.00  0.00    -0.354 N 
ATOM     52  N   UNL A   1      42.485  29.482  29.344  1.00  0.00    -0.248 NA
ATOM     53  C   UNL A   1      40.816  31.002  29.941  1.00  0.00     0.031 C 
ATOM     54  C   UNL A   1      46.831  30.222  29.833  1.00  0.00     0.029 A 
ATOM     55  C   UNL A   1      45.467  30.019  29.696  1.00  0.00     0.049 A 
ATOM     56  H   UNL A   1      44.441  28.311  29.001  1.00  0.00     0.167 HD
ATOM     57  C   UNL A   1      43.075  30.643  29.831  1.00  0.00     0.074 A 
ATOM     58  C   UNL A   1      41.999  31.559  30.148  1.00  0.00     0.031 C 
ATOM     59  C   UNL A   1      44.389  30.922  30.007  1.00  0.00     0.031 A 
BRANCH  46  60
ATOM     60  C   UNL A   1      48.152  26.284  28.411  1.00  0.00    -0.014 A 
ATOM     61  C   UNL A   1      48.800  25.671  29.496  1.00  0.00     0.009 A 
ATOM     62  C   UNL A   1      48.842  26.425  27.197  1.00  0.00     0.009 A 
ATOM     63  C   UNL A   1      50.124  25.245  29.376  1.00  0.00     0.001 A 
ATOM     64  C   UNL A   1      50.155  25.972  27.072  1.00  0.00     0.001 A 
ATOM     65  C   UNL A   1      50.799  25.393  28.164  1.00  0.00     0.000 A 
ENDBRANCH  46  60
BRANCH  47  66
ATOM     66  C   UNL A   1      38.651  29.244  29.077  1.00  0.00    -0.014 A 
ATOM     67  C   UNL A   1      38.051  29.921  28.003  1.00  0.00     0.009 A 
ATOM     68  C   UNL A   1      37.912  29.076  30.259  1.00  0.00     0.009 A 
ATOM     69  C   UNL A   1      36.758  30.440  28.121  1.00  0.00     0.001 A 
ATOM     70  C   UNL A   1      36.607  29.562  30.362  1.00  0.00     0.001 A 
ATOM     71  C   UNL A   1      36.035  30.255  29.298  1.00  0.00     0.000 A 
ENDBRANCH  47  66
BRANCH  59  72
ATOM     72  C   UNL A   1      44.748  32.289  30.527  1.00  0.00    -0.014 A 
ATOM     73  C   UNL A   1      44.919  32.532  31.898  1.00  0.00     0.009 A 
ATOM     74  C   UNL A   1      44.970  33.337  29.619  1.00  0.00     0.009 A 
ATOM     75  C   UNL A   1      45.273  33.805  32.351  1.00  0.00     0.001 A 
ATOM     76  C   UNL A   1      45.356  34.600  30.072  1.00  0.00     0.001 A 
ATOM     77  C   UNL A   1      45.498  34.835  31.438  1.00  0.00     0.000 A 
ENDBRANCH  59  72
ENDBRANCH  33  34
ENDBRANCH  26  28
ENDBRANCH  25  26
ENDBRANCH  24  25
ENDBRANCH   1  24
TORSDOF 15
ENDMDL
MODEL 2
REMARK VINA RESULT:     -10.7      4.285      9.154
REMARK SMILES CC(C)[NH2+][C@@]1(C(=O)OCCOC(=O)c2ccc(-c3c4nc(c(-c5ccccc5)c5ccc([nH]5)c(-c5ccccc5)c5nc(c(-c6ccccc6)c6ccc3[nH]6)C=C5)C=C4)cc2)CC[C@H](Oc2ccccc2F)C1
REMARK SMILES IDX 9 1 8 2 6 3 7 4 5 5 62 6 73 7 63 8 64 9 4 10 2 13 1 14 3 15
REMARK SMILES IDX 65 16 66 17 67 18 71 19 68 20 70 21 72 22 69 23 10 24 11 25
REMARK SMILES IDX 12 26 13 27 14 28 15 29 61 30 16 31 60 32 17 33 18 34 19 35
REMARK SMILES IDX 54 36 20 37 59 38 53 39 55 40 21 41 58 42 52 43 51 44 22 46
REMARK SMILES IDX 44 47 29 48 43 49 30 50 33 51 42 52 56 53 31 54 32 55 41 57
REMARK SMILES IDX 57 58 34 59 23 60 24 61 28 62 25 63 27 64 26 65 45 66 46 67
REMARK SMILES IDX 50 68 47 69 49 70 48 71 35 72 36 73 40 74 37 75 39 76 38 77
REMARK H PARENT 4 11 4 12 55 45 33 56
REMARK Flexibility Score: inf
ROOT
ATOM      1  C   UNL A   1      32.187  31.149  26.650  1.00  0.00     0.274 C 
ENDROOT
BRANCH   1   2
ATOM      2  O   UNL A   1      31.260  30.728  25.637  1.00  0.00    -0.457 OA
BRANCH   2   3
ATOM      3  C   UNL A   1      31.438  29.464  25.167  1.00  0.00     0.368 C 
ATOM      4  O   UNL A   1      32.101  28.631  25.777  1.00  0.00    -0.245 OA
BRANCH   3   5
ATOM      5  C   UNL A   1      30.772  29.231  23.765  1.00  0.00     0.198 C 
ATOM      6  C   UNL A   1      29.938  27.948  23.743  1.00  0.00     0.085 C 
ATOM      7  C   UNL A   1      31.817  28.937  22.655  1.00  0.00     0.126 C 
ATOM      8  C   UNL A   1      30.952  26.837  23.561  1.00  0.00     0.052 C 
ATOM      9  C   UNL A   1      32.073  27.414  22.684  1.00  0.00     0.180 C 
BRANCH   5  10
ATOM     10  N   UNL A   1      29.926  30.368  23.304  1.00  0.00    -0.330 N 
ATOM     11  H   UNL A   1      29.903  31.042  24.068  1.00  0.00     0.347 HD
ATOM     12  H   UNL A   1      30.378  30.649  22.433  1.00  0.00     0.347 HD
BRANCH  10  13
ATOM     13  C   UNL A   1      28.537  30.148  22.895  1.00  0.00     0.176 C 
ATOM     14  C   UNL A   1      27.675  31.160  23.662  1.00  0.00     0.075 C 
ATOM     15  C   UNL A   1      28.192  30.283  21.407  1.00  0.00     0.075 C 
ENDBRANCH  10  13
ENDBRANCH   5  10
BRANCH   9  16
ATOM     16  O   UNL A   1      33.386  27.167  23.200  1.00  0.00    -0.487 OA
BRANCH  16  17
ATOM     17  C   UNL A   1      33.653  25.952  23.769  1.00  0.00     0.155 A 
ATOM     18  C   UNL A   1      33.929  25.741  25.121  1.00  0.00     0.049 A 
ATOM     19  C   UNL A   1      33.679  24.855  22.900  1.00  0.00     0.165 A 
ATOM     20  C   UNL A   1      34.311  24.474  25.573  1.00  0.00     0.004 A 
ATOM     21  C   UNL A   1      34.037  23.586  23.349  1.00  0.00     0.043 A 
ATOM     22  F   UNL A   1      33.390  25.015  21.599  1.00  0.00    -0.203 F 
ATOM     23  C   UNL A   1      34.375  23.398  24.688  1.00  0.00     0.003 A 
ENDBRANCH  16  17
ENDBRANCH   9  16
ENDBRANCH   3   5
ENDBRANCH   2   3
ENDBRANCH   1   2
BRANCH   1  24
ATOM     24  C   UNL A   1      31.705  32.422  27.349  1.00  0.00     0.275 C 
BRANCH  24  25
ATOM     25  O   UNL A   1      32.620  33.525  27.187  1.00  0.00    -0.458 OA
BRANCH  25  26
ATOM     26  C   UNL A   1      33.078  34.068  28.342  1.00  0.00     0.338 C 
ATOM     27  O   UNL A   1      32.492  34.870  29.057  1.00  0.00    -0.246 OA
BRANCH  26  28
ATOM     28  C   UNL A   1      34.395  33.504  28.707  1.00  0.00     0.060 A 
ATOM     29  C   UNL A   1      34.483  32.754  29.884  1.00  0.00     0.016 A 
ATOM     30  C   UNL A   1      35.546  33.737  27.947  1.00  0.00     0.016 A 
ATOM     31  C   UNL A   1      35.706  32.208  30.279  1.00  0.00     0.010 A 
ATOM     32  C   UNL A   1      36.780  33.210  28.360  1.00  0.00     0.010 A 
ATOM     33  C   UNL A   1      36.866  32.432  29.525  1.00  0.00    -0.014 A 
BRANCH  33  34
ATOM     34  C   UNL A   1      38.170  31.930  30.037  1.00  0.00     0.031 A 
ATOM     35  C   UNL A   1      38.697  30.623  29.518  1.00  0.00     0.074 A 
ATOM     36  C   UNL A   1      38.916  32.651  30.895  1.00  0.00     0.049 A 
ATOM     37  N   UNL A   1      39.831  30.025  29.777  1.00  0.00    -0.248 NA
ATOM     38  C   UNL A   1      37.823  29.891  28.587  1.00  0.00     0.031 C 
ATOM     39  C   UNL A   1      38.541  33.945  31.454  1.00  0.00     0.029 A 
ATOM     40  N   UNL A   1      40.164  32.413  31.422  1.00  0.00    -0.354 N 
ATOM     41  C   UNL A   1      39.810  28.847  29.043  1.00  0.00     0.074 A 
ATOM     42  C   UNL A   1      38.550  28.815  28.330  1.00  0.00     0.031 C 
ATOM     43  C   UNL A   1      39.565  34.426  32.181  1.00  0.00     0.029 A 
ATOM     44  C   UNL A   1      40.633  33.431  32.221  1.00  0.00     0.049 A 
ATOM     45  H   UNL A   1      40.674  31.590  31.244  1.00  0.00     0.167 HD
ATOM     46  C   UNL A   1      40.741  27.867  28.985  1.00  0.00     0.031 A 
ATOM     47  C   UNL A   1      41.776  33.535  32.929  1.00  0.00     0.031 A 
ATOM     48  C   UNL A   1      41.956  27.852  29.754  1.00  0.00     0.049 A 
ATOM     49  C   UNL A   1      42.743  32.378  32.932  1.00  0.00     0.074 A 
ATOM     50  C   UNL A   1      42.930  26.872  29.807  1.00  0.00     0.029 A 
ATOM     51  N   UNL A   1      42.350  28.857  30.625  1.00  0.00    -0.354 N 
ATOM     52  N   UNL A   1      42.709  31.268  32.235  1.00  0.00    -0.248 NA
ATOM     53  C   UNL A   1      43.895  32.477  33.843  1.00  0.00     0.031 C 
ATOM     54  C   UNL A   1      43.882  27.253  30.759  1.00  0.00     0.029 A 
ATOM     55  C   UNL A   1      43.540  28.506  31.242  1.00  0.00     0.049 A 
ATOM     56  H   UNL A   1      41.858  29.694  30.781  1.00  0.00     0.167 HD
ATOM     57  C   UNL A   1      43.837  30.547  32.611  1.00  0.00     0.074 A 
ATOM     58  C   UNL A   1      44.550  31.358  33.576  1.00  0.00     0.031 C 
ATOM     59  C   UNL A   1      44.241  29.321  32.201  1.00  0.00     0.031 A 
BRANCH  46  60
ATOM     60  C   UNL A   1      40.424  26.684  28.115  1.00  0.00    -0.014 A 
ATOM     61  C   UNL A   1      40.924  26.585  26.806  1.00  0.00     0.009 A 
ATOM     62  C   UNL A   1      39.602  25.659  28.610  1.00  0.00     0.009 A 
ATOM     63  C   UNL A   1      40.572  25.501  25.998  1.00  0.00     0.001 A 
ATOM     64  C   UNL A   1      39.277  24.564  27.810  1.00  0.00     0.001 A 
ATOM     65  C   UNL A   1      39.752  24.491  26.502  1.00  0.00     0.000 A 
ENDBRANCH  46  60
BRANCH  47  66
ATOM     66  C   UNL A   1      42.053  34.741  33.763  1.00  0.00    -0.014 A 
ATOM     67  C   UNL A   1      41.557  34.844  35.072  1.00  0.00     0.009 A 
ATOM     68  C   UNL A   1      42.765  35.828  33.229  1.00  0.00     0.009 A 
ATOM     69  C   UNL A   1      41.744  36.014  35.816  1.00  0.00     0.001 A 
ATOM     70  C   UNL A   1      42.984  36.981  33.987  1.00  0.00     0.001 A 
ATOM     71  C   UNL A   1      42.461  37.079  35.274  1.00  0.00     0.000 A 
ENDBRANCH  47  66
BRANCH  59  72
ATOM     72  C   UNL A   1      45.536  28.791  32.756  1.00  0.00    -0.014 A 
ATOM     73  C   UNL A   1      45.570  27.992  33.909  1.00  0.00     0.009 A 
ATOM     74  C   UNL A   1      46.738  29.056  32.080  1.00  0.00     0.009 A 
ATOM     75  C   UNL A   1      46.784  27.496  34.390  1.00  0.00     0.001 A 
ATOM     76  C   UNL A   1      47.946  28.532  32.544  1.00  0.00     0.001 A 
ATOM     77  C   UNL A   1      47.969  27.760  33.704  1.00  0.00     0.000 A 
ENDBRANCH  59  72
ENDBRANCH  33  34
ENDBRANCH  26  28
ENDBRANCH  25  26
ENDBRANCH  24  25
ENDBRANCH   1  24
TORSDOF 15
ENDMDL
MODEL 3
REMARK VINA RESULT:     -10.7      2.747      7.621
REMARK SMILES CC(C)[NH2+][C@@]1(C(=O)OCCOC(=O)c2ccc(-c3c4nc(c(-c5ccccc5)c5ccc([nH]5)c(-c5ccccc5)c5nc(c(-c6ccccc6)c6ccc3[nH]6)C=C5)C=C4)cc2)CC[C@H](Oc2ccccc2F)C1
REMARK SMILES IDX 9 1 8 2 6 3 7 4 5 5 62 6 73 7 63 8 64 9 4 10 2 13 1 14 3 15
REMARK SMILES IDX 65 16 66 17 67 18 71 19 68 20 70 21 72 22 69 23 10 24 11 25
REMARK SMILES IDX 12 26 13 27 14 28 15 29 61 30 16 31 60 32 17 33 18 34 19 35
REMARK SMILES IDX 54 36 20 37 59 38 53 39 55 40 21 41 58 42 52 43 51 44 22 46
REMARK SMILES IDX 44 47 29 48 43 49 30 50 33 51 42 52 56 53 31 54 32 55 41 57
REMARK SMILES IDX 57 58 34 59 23 60 24 61 28 62 25 63 27 64 26 65 45 66 46 67
REMARK SMILES IDX 50 68 47 69 49 70 48 71 35 72 36 73 40 74 37 75 39 76 38 77
REMARK H PARENT 4 11 4 12 55 45 33 56
REMARK Flexibility Score: inf
ROOT
ATOM      1  C   UNL A   1      33.719  28.356  25.550  1.00  0.00     0.274 C 
ENDROOT
BRANCH   1   2
ATOM      2  O   UNL A   1      33.470  27.173  26.326  1.00  0.00    -0.457 OA
BRANCH   2   3
ATOM      3  C   UNL A   1      32.188  26.720  26.310  1.00  0.00     0.368 C 
ATOM      4  O   UNL A   1      31.388  26.997  27.197  1.00  0.00    -0.245 OA
BRANCH   3   5
ATOM      5  C   UNL A   1      31.888  25.774  25.092  1.00  0.00     0.198 C 
ATOM      6  C   UNL A   1      30.865  24.694  25.456  1.00  0.00     0.085 C 
ATOM      7  C   UNL A   1      33.117  24.912  24.696  1.00  0.00     0.126 C 
ATOM      8  C   UNL A   1      31.665  23.649  26.205  1.00  0.00     0.052 C 
ATOM      9  C   UNL A   1      33.066  23.644  25.576  1.00  0.00     0.180 C 
BRANCH   5  10
ATOM     10  N   UNL A   1      31.423  26.492  23.873  1.00  0.00    -0.330 N 
ATOM     11  H   UNL A   1      32.250  26.911  23.448  1.00  0.00     0.347 HD
ATOM     12  H   UNL A   1      30.935  25.763  23.351  1.00  0.00     0.347 HD
BRANCH  10  13
ATOM     13  C   UNL A   1      30.418  27.554  23.968  1.00  0.00     0.176 C 
ATOM     14  C   UNL A   1      30.877  28.696  23.052  1.00  0.00     0.075 C 
ATOM     15  C   UNL A   1      28.971  27.213  23.591  1.00  0.00     0.075 C 
ENDBRANCH  10  13
ENDBRANCH   5  10
BRANCH   9  16
ATOM     16  O   UNL A   1      34.125  23.697  26.539  1.00  0.00    -0.487 OA
BRANCH  16  17
ATOM     17  C   UNL A   1      35.356  23.209  26.194  1.00  0.00     0.155 A 
ATOM     18  C   UNL A   1      36.498  23.985  25.988  1.00  0.00     0.049 A 
ATOM     19  C   UNL A   1      35.442  21.826  26.006  1.00  0.00     0.165 A 
ATOM     20  C   UNL A   1      37.676  23.395  25.516  1.00  0.00     0.004 A 
ATOM     21  C   UNL A   1      36.619  21.229  25.558  1.00  0.00     0.043 A 
ATOM     22  F   UNL A   1      34.372  21.045  26.223  1.00  0.00    -0.203 F 
ATOM     23  C   UNL A   1      37.734  22.020  25.292  1.00  0.00     0.003 A 
ENDBRANCH  16  17
ENDBRANCH   9  16
ENDBRANCH   3   5
ENDBRANCH   2   3
ENDBRANCH   1   2
BRANCH   1  24
ATOM     24  C   UNL A   1      33.158  29.601  26.241  1.00  0.00     0.275 C 
BRANCH  24  25
ATOM     25  O   UNL A   1      33.586  29.714  27.615  1.00  0.00    -0.458 OA
BRANCH  25  26
ATOM     26  C   UNL A   1      34.455  30.722  27.867  1.00  0.00     0.338 C 
ATOM     27  O   UNL A   1      34.199  31.919  27.903  1.00  0.00    -0.246 OA
BRANCH  26  28
ATOM     28  C   UNL A   1      35.800  30.196  28.185  1.00  0.00     0.060 A 
ATOM     29  C   UNL A   1      36.015  29.680  29.467  1.00  0.00     0.016 A 
ATOM     30  C   UNL A   1      36.858  30.244  27.272  1.00  0.00     0.016 A 
ATOM     31  C   UNL A   1      37.269  29.180  29.822  1.00  0.00     0.010 A 
ATOM     32  C   UNL A   1      38.126  29.766  27.640  1.00  0.00     0.010 A 
ATOM     33  C   UNL A   1      38.338  29.220  28.915  1.00  0.00    -0.014 A 
BRANCH  33  34
ATOM     34  C   UNL A   1      39.686  28.782  29.366  1.00  0.00     0.031 A 
ATOM     35  C   UNL A   1      40.207  27.450  28.907  1.00  0.00     0.074 A 
ATOM     36  C   UNL A   1      40.474  29.580  30.112  1.00  0.00     0.049 A 
ATOM     37  N   UNL A   1      41.371  26.895  29.127  1.00  0.00    -0.248 NA
ATOM     38  C   UNL A   1      39.287  26.634  28.099  1.00  0.00     0.031 C 
ATOM     39  C   UNL A   1      40.108  30.905  30.601  1.00  0.00     0.029 A 
ATOM     40  N   UNL A   1      41.761  29.405  30.563  1.00  0.00    -0.354 N 
ATOM     41  C   UNL A   1      41.325  25.665  28.484  1.00  0.00     0.074 A 
ATOM     42  C   UNL A   1      40.020  25.555  27.869  1.00  0.00     0.031 C 
ATOM     43  C   UNL A   1      41.169  31.458  31.214  1.00  0.00     0.029 A 
ATOM     44  C   UNL A   1      42.261  30.489  31.249  1.00  0.00     0.049 A 
ATOM     45  H   UNL A   1      42.277  28.581  30.410  1.00  0.00     0.167 HD
ATOM     46  C   UNL A   1      42.273  24.701  28.431  1.00  0.00     0.031 A 
ATOM     47  C   UNL A   1      43.449  30.667  31.863  1.00  0.00     0.031 A 
ATOM     48  C   UNL A   1      43.540  24.767  29.108  1.00  0.00     0.049 A 
ATOM     49  C   UNL A   1      44.442  29.532  31.880  1.00  0.00     0.074 A 
ATOM     50  C   UNL A   1      44.540  23.812  29.162  1.00  0.00     0.029 A 
ATOM     51  N   UNL A   1      43.971  25.842  29.872  1.00  0.00    -0.354 N 
ATOM     52  N   UNL A   1      44.385  28.373  31.271  1.00  0.00    -0.248 NA
ATOM     53  C   UNL A   1      45.652  29.721  32.695  1.00  0.00     0.031 C 
ATOM     54  C   UNL A   1      45.547  24.282  30.012  1.00  0.00     0.029 A 
ATOM     55  C   UNL A   1      45.210  25.560  30.425  1.00  0.00     0.049 A 
ATOM     56  H   UNL A   1      43.471  26.679  30.002  1.00  0.00     0.167 HD
ATOM     57  C   UNL A   1      45.554  27.704  31.616  1.00  0.00     0.074 A 
ATOM     58  C   UNL A   1      46.314  28.597  32.464  1.00  0.00     0.031 C 
ATOM     59  C   UNL A   1      45.958  26.458  31.268  1.00  0.00     0.031 A 
BRANCH  46  60
ATOM     60  C   UNL A   1      41.925  23.451  27.675  1.00  0.00    -0.014 A 
ATOM     61  C   UNL A   1      42.308  23.275  26.335  1.00  0.00     0.009 A 
ATOM     62  C   UNL A   1      41.190  22.438  28.312  1.00  0.00     0.009 A 
ATOM     63  C   UNL A   1      41.926  22.127  25.638  1.00  0.00     0.001 A 
ATOM     64  C   UNL A   1      40.836  21.280  27.621  1.00  0.00     0.001 A 
ATOM     65  C   UNL A   1      41.193  21.130  26.282  1.00  0.00     0.000 A 
ENDBRANCH  46  60
BRANCH  47  66
ATOM     66  C   UNL A   1      43.755  31.938  32.583  1.00  0.00    -0.014 A 
ATOM     67  C   UNL A   1      43.376  32.117  33.923  1.00  0.00     0.009 A 
ATOM     68  C   UNL A   1      44.374  33.006  31.913  1.00  0.00     0.009 A 
ATOM     69  C   UNL A   1      43.586  33.343  34.565  1.00  0.00     0.001 A 
ATOM     70  C   UNL A   1      44.618  34.215  32.568  1.00  0.00     0.001 A 
ATOM     71  C   UNL A   1      44.211  34.388  33.888  1.00  0.00     0.000 A 
ENDBRANCH  47  66
BRANCH  59  72
ATOM     72  C   UNL A   1      47.301  25.996  31.765  1.00  0.00    -0.014 A 
ATOM     73  C   UNL A   1      48.469  26.181  31.008  1.00  0.00     0.009 A 
ATOM     74  C   UNL A   1      47.404  25.414  33.038  1.00  0.00     0.009 A 
ATOM     75  C   UNL A   1      49.706  25.762  31.503  1.00  0.00     0.001 A 
ATOM     76  C   UNL A   1      48.646  25.026  33.545  1.00  0.00     0.001 A 
ATOM     77  C   UNL A   1      49.795  25.192  32.773  1.00  0.00     0.000 A 
ENDBRANCH  59  72
ENDBRANCH  33  34
ENDBRANCH  26  28
ENDBRANCH  25  26
ENDBRANCH  24  25
ENDBRANCH   1  24
TORSDOF 15
ENDMDL
