MODEL 1
REMARK VINA RESULT:     -10.4      0.000      0.000
REMARK SMILES CCN(c1cccc(F)c1)c1cc(C)c(N)c(C(=O)OCCOC(=O)c2ccc(-c3c4nc(c(-c5ccccc5)c5ccc([nH]5)c(-c5ccccc5)c5nc(c(-c6ccccc6)c6ccc3[nH]6)C=C5)C=C4)cc2)c1
REMARK SMILES IDX 21 1 20 2 18 3 19 4 17 5 11 6 12 7 74 8 13 9 14 10 15 11
REMARK SMILES IDX 3 12 2 13 1 14 4 15 5 16 10 17 6 18 8 19 7 20 9 21 16 22
REMARK SMILES IDX 22 25 23 26 24 27 25 28 26 29 27 30 73 31 28 32 72 33 29 34
REMARK SMILES IDX 30 35 31 36 66 37 32 38 71 39 65 40 67 41 33 42 70 43 64 44
REMARK SMILES IDX 63 45 34 47 56 48 41 49 55 50 42 51 45 52 54 53 68 54 43 55
REMARK SMILES IDX 44 56 53 58 69 59 46 60 35 61 36 62 40 63 37 64 39 65 38 66
REMARK SMILES IDX 57 67 58 68 62 69 59 70 61 71 60 72 47 73 48 74 52 75 49 76
REMARK SMILES IDX 51 77 50 78
REMARK H PARENT 16 23 16 24 67 46 45 57
REMARK Flexibility Score: inf
ROOT
ATOM      1  C   UNL A   1      32.196  29.777  25.798  1.00  0.00     0.275 C 
ENDROOT
BRANCH   1   2
ATOM      2  O   UNL A   1      32.958  28.552  25.829  1.00  0.00    -0.458 OA
BRANCH   2   3
ATOM      3  C   UNL A   1      32.260  27.412  26.082  1.00  0.00     0.340 C 
ATOM      4  O   UNL A   1      31.329  27.295  26.866  1.00  0.00    -0.246 OA
BRANCH   3   5
ATOM      5  C   UNL A   1      32.720  26.319  25.184  1.00  0.00     0.085 A 
ATOM      6  C   UNL A   1      33.888  24.184  24.926  1.00  0.00     0.042 A 
ATOM      7  C   UNL A   1      33.690  24.289  23.548  1.00  0.00     0.031 A 
ATOM      8  C   UNL A   1      33.462  25.260  25.720  1.00  0.00     0.044 A 
ATOM      9  C   UNL A   1      32.961  25.353  22.982  1.00  0.00    -0.025 A 
ATOM     10  C   UNL A   1      32.823  25.423  21.484  1.00  0.00     0.047 C 
ATOM     11  C   UNL A   1      32.356  26.305  23.821  1.00  0.00     0.049 A 
BRANCH   6  12
ATOM     12  N   UNL A   1      34.372  23.014  25.554  1.00  0.00    -0.342 N 
BRANCH  12  13
ATOM     13  C   UNL A   1      33.409  22.096  26.196  1.00  0.00     0.119 C 
ATOM     14  C   UNL A   1      33.398  22.182  27.718  1.00  0.00     0.027 C 
ENDBRANCH  12  13
BRANCH  12  15
ATOM     15  C   UNL A   1      35.739  22.640  25.497  1.00  0.00     0.044 A 
ATOM     16  C   UNL A   1      36.781  23.472  25.935  1.00  0.00     0.026 A 
ATOM     17  C   UNL A   1      36.085  21.341  25.078  1.00  0.00     0.065 A 
ATOM     18  C   UNL A   1      38.109  23.025  25.962  1.00  0.00     0.005 A 
ATOM     19  C   UNL A   1      37.403  20.899  25.115  1.00  0.00     0.125 A 
ATOM     20  C   UNL A   1      38.421  21.731  25.556  1.00  0.00     0.039 A 
ATOM     21  F   UNL A   1      37.691  19.647  24.735  1.00  0.00    -0.207 F 
ENDBRANCH  12  15
ENDBRANCH   6  12
BRANCH  11  22
ATOM     22  N   UNL A   1      31.520  27.282  23.274  1.00  0.00    -0.398 N 
ATOM     23  H   UNL A   1      31.789  27.758  22.455  1.00  0.00     0.156 HD
ATOM     24  H   UNL A   1      30.662  27.494  23.707  1.00  0.00     0.156 HD
ENDBRANCH  11  22
ENDBRANCH   3   5
ENDBRANCH   2   3
ENDBRANCH   1   2
BRANCH   1  25
ATOM     25  C   UNL A   1      32.522  30.631  27.024  1.00  0.00     0.275 C 
BRANCH  25  26
ATOM     26  O   UNL A   1      33.680  30.083  27.671  1.00  0.00    -0.458 OA
BRANCH  26  27
ATOM     27  C   UNL A   1      34.521  30.974  28.250  1.00  0.00     0.338 C 
ATOM     28  O   UNL A   1      34.266  32.119  28.579  1.00  0.00    -0.246 OA
BRANCH  27  29
ATOM     29  C   UNL A   1      35.842  30.331  28.440  1.00  0.00     0.060 A 
ATOM     30  C   UNL A   1      36.124  29.663  29.630  1.00  0.00     0.016 A 
ATOM     31  C   UNL A   1      36.838  30.452  27.471  1.00  0.00     0.016 A 
ATOM     32  C   UNL A   1      37.397  29.147  29.873  1.00  0.00     0.010 A 
ATOM     33  C   UNL A   1      38.096  29.866  27.686  1.00  0.00     0.010 A 
ATOM     34  C   UNL A   1      38.399  29.224  28.902  1.00  0.00    -0.014 A 
BRANCH  34  35
ATOM     35  C   UNL A   1      39.770  28.708  29.196  1.00  0.00     0.031 A 
ATOM     36  C   UNL A   1      40.722  29.527  30.030  1.00  0.00     0.074 A 
ATOM     37  C   UNL A   1      40.168  27.489  28.775  1.00  0.00     0.049 A 
ATOM     38  N   UNL A   1      41.999  29.339  30.258  1.00  0.00    -0.248 NA
ATOM     39  C   UNL A   1      40.167  30.722  30.685  1.00  0.00     0.031 C 
ATOM     40  C   UNL A   1      39.352  26.540  28.016  1.00  0.00     0.029 A 
ATOM     41  N   UNL A   1      41.363  26.829  28.949  1.00  0.00    -0.354 N 
ATOM     42  C   UNL A   1      42.413  30.427  31.017  1.00  0.00     0.074 A 
ATOM     43  C   UNL A   1      41.252  31.267  31.218  1.00  0.00     0.031 C 
ATOM     44  C   UNL A   1      40.047  25.404  27.840  1.00  0.00     0.029 A 
ATOM     45  C   UNL A   1      41.387  25.573  28.393  1.00  0.00     0.049 A 
ATOM     46  H   UNL A   1      42.130  27.222  29.427  1.00  0.00     0.167 HD
ATOM     47  C   UNL A   1      43.648  30.708  31.500  1.00  0.00     0.031 A 
ATOM     48  C   UNL A   1      42.381  24.668  28.297  1.00  0.00     0.031 A 
ATOM     49  C   UNL A   1      44.798  29.855  31.355  1.00  0.00     0.049 A 
ATOM     50  C   UNL A   1      43.747  25.005  28.826  1.00  0.00     0.074 A 
ATOM     51  C   UNL A   1      46.091  30.068  31.799  1.00  0.00     0.029 A 
ATOM     52  N   UNL A   1      44.784  28.613  30.743  1.00  0.00    -0.354 N 
ATOM     53  N   UNL A   1      44.147  26.085  29.451  1.00  0.00    -0.248 NA
ATOM     54  C   UNL A   1      44.805  24.006  28.610  1.00  0.00     0.031 C 
ATOM     55  C   UNL A   1      46.870  28.963  31.430  1.00  0.00     0.029 A 
ATOM     56  C   UNL A   1      46.049  28.047  30.794  1.00  0.00     0.049 A 
ATOM     57  H   UNL A   1      43.994  28.193  30.333  1.00  0.00     0.167 HD
ATOM     58  C   UNL A   1      45.502  25.901  29.693  1.00  0.00     0.074 A 
ATOM     59  C   UNL A   1      45.847  24.590  29.184  1.00  0.00     0.031 C 
ATOM     60  C   UNL A   1      46.385  26.751  30.271  1.00  0.00     0.031 A 
BRANCH  47  61
ATOM     61  C   UNL A   1      43.828  32.030  32.191  1.00  0.00    -0.014 A 
ATOM     62  C   UNL A   1      44.159  33.194  31.483  1.00  0.00     0.009 A 
ATOM     63  C   UNL A   1      43.642  32.109  33.581  1.00  0.00     0.009 A 
ATOM     64  C   UNL A   1      44.336  34.405  32.159  1.00  0.00     0.001 A 
ATOM     65  C   UNL A   1      43.792  33.324  34.250  1.00  0.00     0.001 A 
ATOM     66  C   UNL A   1      44.148  34.468  33.540  1.00  0.00     0.000 A 
ENDBRANCH  47  61
BRANCH  48  67
ATOM     67  C   UNL A   1      42.138  23.369  27.616  1.00  0.00    -0.014 A 
ATOM     68  C   UNL A   1      41.562  22.293  28.308  1.00  0.00     0.009 A 
ATOM     69  C   UNL A   1      42.486  23.200  26.266  1.00  0.00     0.009 A 
ATOM     70  C   UNL A   1      41.344  21.073  27.663  1.00  0.00     0.001 A 
ATOM     71  C   UNL A   1      42.239  21.989  25.615  1.00  0.00     0.001 A 
ATOM     72  C   UNL A   1      41.675  20.924  26.316  1.00  0.00     0.000 A 
ENDBRANCH  48  67
BRANCH  60  73
ATOM     73  C   UNL A   1      47.807  26.282  30.386  1.00  0.00    -0.014 A 
ATOM     74  C   UNL A   1      48.687  26.372  29.296  1.00  0.00     0.009 A 
ATOM     75  C   UNL A   1      48.277  25.759  31.601  1.00  0.00     0.009 A 
ATOM     76  C   UNL A   1      50.002  25.917  29.411  1.00  0.00     0.001 A 
ATOM     77  C   UNL A   1      49.598  25.325  31.719  1.00  0.00     0.001 A 
ATOM     78  C   UNL A   1      50.457  25.395  30.621  1.00  0.00     0.000 A 
ENDBRANCH  60  73
ENDBRANCH  34  35
ENDBRANCH  27  29
ENDBRANCH  26  27
ENDBRANCH  25  26
ENDBRANCH   1  25
TORSDOF 15
ENDMDL
MODEL 2
REMARK VINA RESULT:     -10.1      3.158      8.093
REMARK SMILES CCN(c1cccc(F)c1)c1cc(C)c(N)c(C(=O)OCCOC(=O)c2ccc(-c3c4nc(c(-c5ccccc5)c5ccc([nH]5)c(-c5ccccc5)c5nc(c(-c6ccccc6)c6ccc3[nH]6)C=C5)C=C4)cc2)c1
REMARK SMILES IDX 21 1 20 2 18 3 19 4 17 5 11 6 12 7 74 8 13 9 14 10 15 11
REMARK SMILES IDX 3 12 2 13 1 14 4 15 5 16 10 17 6 18 8 19 7 20 9 21 16 22
REMARK SMILES IDX 22 25 23 26 24 27 25 28 26 29 27 30 73 31 28 32 72 33 29 34
REMARK SMILES IDX 30 35 31 36 66 37 32 38 71 39 65 40 67 41 33 42 70 43 64 44
REMARK SMILES IDX 63 45 34 47 56 48 41 49 55 50 42 51 45 52 54 53 68 54 43 55
REMARK SMILES IDX 44 56 53 58 69 59 46 60 35 61 36 62 40 63 37 64 39 65 38 66
REMARK SMILES IDX 57 67 58 68 62 69 59 70 61 71 60 72 47 73 48 74 52 75 49 76
REMARK SMILES IDX 51 77 50 78
REMARK H PARENT 16 23 16 24 67 46 45 57
REMARK Flexibility Score: inf
ROOT
ATOM      1  C   UNL A   1      35.963  22.265  25.752  1.00  0.00     0.275 C 
ENDROOT
BRANCH   1   2
ATOM      2  O   UNL A   1      35.020  21.993  24.693  1.00  0.00    -0.458 OA
BRANCH   2   3
ATOM      3  C   UNL A   1      34.692  23.043  23.893  1.00  0.00     0.340 C 
ATOM      4  O   UNL A   1      35.147  23.274  22.782  1.00  0.00    -0.246 OA
BRANCH   3   5
ATOM      5  C   UNL A   1      33.604  23.842  24.517  1.00  0.00     0.085 A 
ATOM      6  C   UNL A   1      32.654  26.042  25.015  1.00  0.00     0.042 A 
ATOM      7  C   UNL A   1      31.651  25.398  25.742  1.00  0.00     0.031 A 
ATOM      8  C   UNL A   1      33.673  25.240  24.477  1.00  0.00     0.044 A 
ATOM      9  C   UNL A   1      31.569  23.995  25.811  1.00  0.00    -0.025 A 
ATOM     10  C   UNL A   1      30.484  23.371  26.648  1.00  0.00     0.047 C 
ATOM     11  C   UNL A   1      32.477  23.208  25.080  1.00  0.00     0.049 A 
BRANCH   6  12
ATOM     12  N   UNL A   1      32.623  27.419  24.697  1.00  0.00    -0.342 N 
BRANCH  12  13
ATOM     13  C   UNL A   1      32.199  27.832  23.344  1.00  0.00     0.119 C 
ATOM     14  C   UNL A   1      30.731  27.549  23.046  1.00  0.00     0.027 C 
ENDBRANCH  12  13
BRANCH  12  15
ATOM     15  C   UNL A   1      32.884  28.420  25.667  1.00  0.00     0.044 A 
ATOM     16  C   UNL A   1      34.016  28.410  26.496  1.00  0.00     0.026 A 
ATOM     17  C   UNL A   1      32.033  29.540  25.753  1.00  0.00     0.065 A 
ATOM     18  C   UNL A   1      34.293  29.473  27.367  1.00  0.00     0.005 A 
ATOM     19  C   UNL A   1      32.317  30.596  26.612  1.00  0.00     0.125 A 
ATOM     20  C   UNL A   1      33.443  30.574  27.421  1.00  0.00     0.039 A 
ATOM     21  F   UNL A   1      31.500  31.658  26.646  1.00  0.00    -0.207 F 
ENDBRANCH  12  15
ENDBRANCH   6  12
BRANCH  11  22
ATOM     22  N   UNL A   1      32.316  21.821  25.036  1.00  0.00    -0.398 N 
ATOM     23  H   UNL A   1      33.026  21.255  24.657  1.00  0.00     0.156 HD
ATOM     24  H   UNL A   1      31.492  21.410  25.384  1.00  0.00     0.156 HD
ENDBRANCH  11  22
ENDBRANCH   3   5
ENDBRANCH   2   3
ENDBRANCH   1   2
BRANCH   1  25
ATOM     25  C   UNL A   1      37.337  21.700  25.392  1.00  0.00     0.275 C 
BRANCH  25  26
ATOM     26  O   UNL A   1      38.289  22.775  25.392  1.00  0.00    -0.458 OA
BRANCH  26  27
ATOM     27  C   UNL A   1      39.268  22.709  26.328  1.00  0.00     0.338 C 
ATOM     28  O   UNL A   1      39.899  21.723  26.663  1.00  0.00    -0.246 OA
BRANCH  27  29
ATOM     29  C   UNL A   1      39.473  24.060  26.900  1.00  0.00     0.060 A 
ATOM     30  C   UNL A   1      40.095  25.048  26.141  1.00  0.00     0.016 A 
ATOM     31  C   UNL A   1      39.119  24.333  28.221  1.00  0.00     0.016 A 
ATOM     32  C   UNL A   1      40.398  26.291  26.698  1.00  0.00     0.010 A 
ATOM     33  C   UNL A   1      39.355  25.610  28.757  1.00  0.00     0.010 A 
ATOM     34  C   UNL A   1      40.019  26.599  28.008  1.00  0.00    -0.014 A 
BRANCH  34  35
ATOM     35  C   UNL A   1      40.391  27.918  28.605  1.00  0.00     0.031 A 
ATOM     36  C   UNL A   1      41.819  28.189  29.006  1.00  0.00     0.074 A 
ATOM     37  C   UNL A   1      39.483  28.906  28.749  1.00  0.00     0.049 A 
ATOM     38  N   UNL A   1      42.314  29.193  29.688  1.00  0.00    -0.248 NA
ATOM     39  C   UNL A   1      42.822  27.193  28.596  1.00  0.00     0.031 C 
ATOM     40  C   UNL A   1      38.076  28.836  28.352  1.00  0.00     0.029 A 
ATOM     41  N   UNL A   1      39.620  30.179  29.253  1.00  0.00    -0.354 N 
ATOM     42  C   UNL A   1      43.665  28.912  29.851  1.00  0.00     0.074 A 
ATOM     43  C   UNL A   1      43.914  27.648  29.191  1.00  0.00     0.031 C 
ATOM     44  C   UNL A   1      37.497  30.028  28.573  1.00  0.00     0.029 A 
ATOM     45  C   UNL A   1      38.462  30.918  29.211  1.00  0.00     0.049 A 
ATOM     46  H   UNL A   1      40.468  30.527  29.612  1.00  0.00     0.167 HD
ATOM     47  C   UNL A   1      44.613  29.634  30.496  1.00  0.00     0.031 A 
ATOM     48  C   UNL A   1      38.187  32.156  29.665  1.00  0.00     0.031 A 
ATOM     49  C   UNL A   1      44.390  30.917  31.108  1.00  0.00     0.049 A 
ATOM     50  C   UNL A   1      39.249  32.935  30.391  1.00  0.00     0.074 A 
ATOM     51  C   UNL A   1      45.289  31.713  31.797  1.00  0.00     0.029 A 
ATOM     52  N   UNL A   1      43.188  31.605  31.080  1.00  0.00    -0.354 N 
ATOM     53  N   UNL A   1      40.495  32.609  30.626  1.00  0.00    -0.248 NA
ATOM     54  C   UNL A   1      38.853  34.243  30.936  1.00  0.00     0.031 C 
ATOM     55  C   UNL A   1      44.623  32.873  32.210  1.00  0.00     0.029 A 
ATOM     56  C   UNL A   1      43.321  32.816  31.741  1.00  0.00     0.049 A 
ATOM     57  H   UNL A   1      42.362  31.283  30.653  1.00  0.00     0.167 HD
ATOM     58  C   UNL A   1      41.030  33.663  31.356  1.00  0.00     0.074 A 
ATOM     59  C   UNL A   1      39.985  34.656  31.489  1.00  0.00     0.031 C 
ATOM     60  C   UNL A   1      42.272  33.789  31.882  1.00  0.00     0.031 A 
BRANCH  47  61
ATOM     61  C   UNL A   1      45.978  29.018  30.617  1.00  0.00    -0.014 A 
ATOM     62  C   UNL A   1      46.315  28.172  31.684  1.00  0.00     0.009 A 
ATOM     63  C   UNL A   1      46.939  29.280  29.626  1.00  0.00     0.009 A 
ATOM     64  C   UNL A   1      47.599  27.629  31.774  1.00  0.00     0.001 A 
ATOM     65  C   UNL A   1      48.212  28.715  29.704  1.00  0.00     0.001 A 
ATOM     66  C   UNL A   1      48.544  27.898  30.784  1.00  0.00     0.000 A 
ENDBRANCH  47  61
BRANCH  48  67
ATOM     67  C   UNL A   1      36.821  32.720  29.503  1.00  0.00    -0.014 A 
ATOM     68  C   UNL A   1      36.458  33.391  28.325  1.00  0.00     0.009 A 
ATOM     69  C   UNL A   1      35.872  32.589  30.529  1.00  0.00     0.009 A 
ATOM     70  C   UNL A   1      35.174  33.925  28.183  1.00  0.00     0.001 A 
ATOM     71  C   UNL A   1      34.581  33.096  30.373  1.00  0.00     0.001 A 
ATOM     72  C   UNL A   1      34.235  33.770  29.202  1.00  0.00     0.000 A 
ENDBRANCH  48  67
BRANCH  60  73
ATOM     73  C   UNL A   1      42.565  35.049  32.644  1.00  0.00    -0.014 A 
ATOM     74  C   UNL A   1      43.302  36.092  32.061  1.00  0.00     0.009 A 
ATOM     75  C   UNL A   1      42.084  35.203  33.954  1.00  0.00     0.009 A 
ATOM     76  C   UNL A   1      43.581  37.251  32.787  1.00  0.00     0.001 A 
ATOM     77  C   UNL A   1      42.346  36.372  34.669  1.00  0.00     0.001 A 
ATOM     78  C   UNL A   1      43.102  37.392  34.089  1.00  0.00     0.000 A 
ENDBRANCH  60  73
ENDBRANCH  34  35
ENDBRANCH  27  29
ENDBRANCH  26  27
ENDBRANCH  25  26
ENDBRANCH   1  25
TORSDOF 15
ENDMDL
MODEL 3
REMARK VINA RESULT:     -10.1      3.031      7.766
REMARK SMILES CCN(c1cccc(F)c1)c1cc(C)c(N)c(C(=O)OCCOC(=O)c2ccc(-c3c4nc(c(-c5ccccc5)c5ccc([nH]5)c(-c5ccccc5)c5nc(c(-c6ccccc6)c6ccc3[nH]6)C=C5)C=C4)cc2)c1
REMARK SMILES IDX 21 1 20 2 18 3 19 4 17 5 11 6 12 7 74 8 13 9 14 10 15 11
REMARK SMILES IDX 3 12 2 13 1 14 4 15 5 16 10 17 6 18 8 19 7 20 9 21 16 22
REMARK SMILES IDX 22 25 23 26 24 27 25 28 26 29 27 30 73 31 28 32 72 33 29 34
REMARK SMILES IDX 30 35 31 36 66 37 32 38 71 39 65 40 67 41 33 42 70 43 64 44
REMARK SMILES IDX 63 45 34 47 56 48 41 49 55 50 42 51 45 52 54 53 68 54 43 55
REMARK SMILES IDX 44 56 53 58 69 59 46 60 35 61 36 62 40 63 37 64 39 65 38 66
REMARK SMILES IDX 57 67 58 68 62 69 59 70 61 71 60 72 47 73 48 74 52 75 49 76
REMARK SMILES IDX 51 77 50 78
REMARK H PARENT 16 23 16 24 67 46 45 57
REMARK Flexibility Score: inf
ROOT
ATOM      1  C   UNL A   1      38.618  21.592  25.720  1.00  0.00     0.275 C 
ENDROOT
BRANCH   1   2
ATOM      2  O   UNL A   1      37.176  21.651  25.742  1.00  0.00    -0.458 OA
BRANCH   2   3
ATOM      3  C   UNL A   1      36.580  22.257  24.681  1.00  0.00     0.340 C 
ATOM      4  O   UNL A   1      36.918  22.158  23.509  1.00  0.00    -0.246 OA
BRANCH   3   5
ATOM      5  C   UNL A   1      35.369  22.997  25.126  1.00  0.00     0.085 A 
ATOM      6  C   UNL A   1      33.992  25.016  24.992  1.00  0.00     0.042 A 
ATOM      7  C   UNL A   1      33.175  24.474  25.987  1.00  0.00     0.031 A 
ATOM      8  C   UNL A   1      35.138  24.288  24.635  1.00  0.00     0.044 A 
ATOM      9  C   UNL A   1      33.397  23.186  26.509  1.00  0.00    -0.025 A 
ATOM     10  C   UNL A   1      32.500  22.684  27.610  1.00  0.00     0.047 C 
ATOM     11  C   UNL A   1      34.425  22.388  25.977  1.00  0.00     0.049 A 
BRANCH   6  12
ATOM     12  N   UNL A   1      33.656  26.175  24.256  1.00  0.00    -0.342 N 
BRANCH  12  13
ATOM     13  C   UNL A   1      33.668  26.114  22.780  1.00  0.00     0.119 C 
ATOM     14  C   UNL A   1      32.596  25.203  22.194  1.00  0.00     0.027 C 
ENDBRANCH  12  13
BRANCH  12  15
ATOM     15  C   UNL A   1      33.207  27.363  24.888  1.00  0.00     0.044 A 
ATOM     16  C   UNL A   1      33.936  28.022  25.890  1.00  0.00     0.026 A 
ATOM     17  C   UNL A   1      32.025  27.983  24.437  1.00  0.00     0.065 A 
ATOM     18  C   UNL A   1      33.510  29.250  26.413  1.00  0.00     0.005 A 
ATOM     19  C   UNL A   1      31.612  29.207  24.953  1.00  0.00     0.125 A 
ATOM     20  C   UNL A   1      32.346  29.849  25.939  1.00  0.00     0.039 A 
ATOM     21  F   UNL A   1      30.498  29.781  24.479  1.00  0.00    -0.207 F 
ENDBRANCH  12  15
ENDBRANCH   6  12
BRANCH  11  22
ATOM     22  N   UNL A   1      34.561  21.061  26.395  1.00  0.00    -0.398 N 
ATOM     23  H   UNL A   1      33.797  20.592  26.801  1.00  0.00     0.156 HD
ATOM     24  H   UNL A   1      35.422  20.596  26.284  1.00  0.00     0.156 HD
ENDBRANCH  11  22
ENDBRANCH   3   5
ENDBRANCH   2   3
ENDBRANCH   1   2
BRANCH   1  25
ATOM     25  C   UNL A   1      39.083  20.173  25.390  1.00  0.00     0.275 C 
BRANCH  25  26
ATOM     26  O   UNL A   1      40.044  19.764  26.375  1.00  0.00    -0.458 OA
BRANCH  26  27
ATOM     27  C   UNL A   1      41.348  19.891  26.028  1.00  0.00     0.338 C 
ATOM     28  O   UNL A   1      42.015  19.108  25.375  1.00  0.00    -0.246 OA
BRANCH  27  29
ATOM     29  C   UNL A   1      41.864  21.170  26.568  1.00  0.00     0.060 A 
ATOM     30  C   UNL A   1      41.826  21.411  27.939  1.00  0.00     0.016 A 
ATOM     31  C   UNL A   1      42.321  22.171  25.710  1.00  0.00     0.016 A 
ATOM     32  C   UNL A   1      42.204  22.650  28.457  1.00  0.00     0.010 A 
ATOM     33  C   UNL A   1      42.772  23.391  26.240  1.00  0.00     0.010 A 
ATOM     34  C   UNL A   1      42.699  23.655  27.620  1.00  0.00    -0.014 A 
BRANCH  34  35
ATOM     35  C   UNL A   1      43.056  24.991  28.184  1.00  0.00     0.031 A 
ATOM     36  C   UNL A   1      41.972  25.990  28.502  1.00  0.00     0.074 A 
ATOM     37  C   UNL A   1      44.334  25.315  28.470  1.00  0.00     0.049 A 
ATOM     38  N   UNL A   1      42.079  27.253  28.836  1.00  0.00    -0.248 NA
ATOM     39  C   UNL A   1      40.584  25.508  28.423  1.00  0.00     0.031 C 
ATOM     40  C   UNL A   1      45.496  24.445  28.287  1.00  0.00     0.029 A 
ATOM     41  N   UNL A   1      44.867  26.468  28.999  1.00  0.00    -0.354 N 
ATOM     42  C   UNL A   1      40.778  27.731  28.933  1.00  0.00     0.074 A 
ATOM     43  C   UNL A   1      39.898  26.622  28.631  1.00  0.00     0.031 C 
ATOM     44  C   UNL A   1      46.592  25.070  28.749  1.00  0.00     0.029 A 
ATOM     45  C   UNL A   1      46.229  26.417  29.176  1.00  0.00     0.049 A 
ATOM     46  H   UNL A   1      44.323  27.257  29.228  1.00  0.00     0.167 HD
ATOM     47  C   UNL A   1      40.350  28.980  29.240  1.00  0.00     0.031 A 
ATOM     48  C   UNL A   1      47.101  27.355  29.596  1.00  0.00     0.031 A 
ATOM     49  C   UNL A   1      41.212  30.076  29.596  1.00  0.00     0.049 A 
ATOM     50  C   UNL A   1      46.608  28.738  29.917  1.00  0.00     0.074 A 
ATOM     51  C   UNL A   1      40.866  31.380  29.906  1.00  0.00     0.029 A 
ATOM     52  N   UNL A   1      42.589  29.989  29.717  1.00  0.00    -0.354 N 
ATOM     53  N   UNL A   1      45.383  29.201  29.905  1.00  0.00    -0.248 NA
ATOM     54  C   UNL A   1      47.627  29.733  30.286  1.00  0.00     0.031 C 
ATOM     55  C   UNL A   1      42.039  32.091  30.189  1.00  0.00     0.029 A 
ATOM     56  C   UNL A   1      43.109  31.217  30.095  1.00  0.00     0.049 A 
ATOM     57  H   UNL A   1      43.120  29.175  29.559  1.00  0.00     0.167 HD
ATOM     58  C   UNL A   1      45.483  30.543  30.250  1.00  0.00     0.074 A 
ATOM     59  C   UNL A   1      46.884  30.809  30.506  1.00  0.00     0.031 C 
ATOM     60  C   UNL A   1      44.503  31.475  30.332  1.00  0.00     0.031 A 
BRANCH  47  61
ATOM     61  C   UNL A   1      38.873  29.239  29.151  1.00  0.00    -0.014 A 
ATOM     62  C   UNL A   1      38.030  29.098  30.263  1.00  0.00     0.009 A 
ATOM     63  C   UNL A   1      38.321  29.652  27.927  1.00  0.00     0.009 A 
ATOM     64  C   UNL A   1      36.658  29.332  30.142  1.00  0.00     0.001 A 
ATOM     65  C   UNL A   1      36.955  29.911  27.815  1.00  0.00     0.001 A 
ATOM     66  C   UNL A   1      36.123  29.741  28.920  1.00  0.00     0.000 A 
ENDBRANCH  47  61
BRANCH  48  67
ATOM     67  C   UNL A   1      48.551  27.035  29.681  1.00  0.00    -0.014 A 
ATOM     68  C   UNL A   1      49.098  26.490  30.852  1.00  0.00     0.009 A 
ATOM     69  C   UNL A   1      49.396  27.276  28.585  1.00  0.00     0.009 A 
ATOM     70  C   UNL A   1      50.463  26.200  30.926  1.00  0.00     0.001 A 
ATOM     71  C   UNL A   1      50.753  26.956  28.651  1.00  0.00     0.001 A 
ATOM     72  C   UNL A   1      51.287  26.425  29.824  1.00  0.00     0.000 A 
ENDBRANCH  48  67
BRANCH  60  73
ATOM     73  C   UNL A   1      44.916  32.865  30.719  1.00  0.00    -0.014 A 
ATOM     74  C   UNL A   1      45.249  33.818  29.743  1.00  0.00     0.009 A 
ATOM     75  C   UNL A   1      44.957  33.234  32.073  1.00  0.00     0.009 A 
ATOM     76  C   UNL A   1      45.647  35.102  30.117  1.00  0.00     0.001 A 
ATOM     77  C   UNL A   1      45.335  34.525  32.443  1.00  0.00     0.001 A 
ATOM     78  C   UNL A   1      45.689  35.456  31.466  1.00  0.00     0.000 A 
ENDBRANCH  60  73
ENDBRANCH  34  35
ENDBRANCH  27  29
ENDBRANCH  26  27
ENDBRANCH  25  26
ENDBRANCH   1  25
TORSDOF 15
ENDMDL
