MODEL 1
REMARK VINA RESULT:     -10.4      0.000      0.000
REMARK SMILES CC(C)=CCc1cccc2c(C(=O)OCCOC(=O)c3ccc(-c4c5nc(c(-c6ccccc6)c6ccc([nH]6)c(-c6ccccc6)c6nc(c(-c7ccccc7)c7ccc4[nH]7)C=C6)C=C5)cc3)c[nH]c12
REMARK SMILES IDX 15 1 14 2 12 3 13 4 11 5 6 6 7 7 70 8 8 9 10 10 69 11 9 12
REMARK SMILES IDX 68 13 5 15 4 16 1 17 2 18 3 19 16 20 17 21 18 22 19 23 20 24
REMARK SMILES IDX 21 25 67 26 22 27 66 28 23 29 24 30 25 31 60 32 26 33 65 34
REMARK SMILES IDX 59 35 61 36 27 37 64 38 58 39 57 40 28 42 50 43 35 44 49 45
REMARK SMILES IDX 36 46 39 47 48 48 62 49 37 50 38 51 47 53 63 54 40 55 29 56
REMARK SMILES IDX 30 57 34 58 31 59 33 60 32 61 51 62 52 63 56 64 53 65 55 66
REMARK SMILES IDX 54 67 41 68 42 69 46 70 43 71 45 72 44 73
REMARK H PARENT 69 14 61 41 39 52
REMARK Flexibility Score: inf
ROOT
ATOM      1  C   UNL A   1      33.411  35.541  30.196  1.00  0.00     0.275 C 
ENDROOT
BRANCH   1   2
ATOM      2  O   UNL A   1      32.880  34.498  29.356  1.00  0.00    -0.458 OA
BRANCH   2   3
ATOM      3  C   UNL A   1      33.667  34.111  28.310  1.00  0.00     0.340 C 
ATOM      4  O   UNL A   1      34.640  34.742  27.913  1.00  0.00    -0.246 OA
BRANCH   3   5
ATOM      5  C   UNL A   1      33.296  32.813  27.756  1.00  0.00     0.085 A 
ATOM      6  C   UNL A   1      33.639  29.305  26.838  1.00  0.00    -0.020 A 
ATOM      7  C   UNL A   1      34.907  28.956  27.341  1.00  0.00     0.006 A 
ATOM      8  C   UNL A   1      33.251  30.641  27.044  1.00  0.00     0.050 A 
ATOM      9  C   UNL A   1      35.751  29.894  27.934  1.00  0.00     0.001 A 
ATOM     10  C   UNL A   1      34.060  31.605  27.655  1.00  0.00     0.014 A 
ATOM     11  N   UNL A   1      32.062  31.257  26.734  1.00  0.00    -0.360 N 
ATOM     12  C   UNL A   1      35.347  31.222  28.080  1.00  0.00     0.011 A 
ATOM     13  C   UNL A   1      32.035  32.512  27.263  1.00  0.00     0.099 A 
ATOM     14  H   UNL A   1      31.336  30.853  26.206  1.00  0.00     0.166 HD
BRANCH   6  15
ATOM     15  C   UNL A   1      32.716  28.275  26.228  1.00  0.00     0.065 C 
BRANCH  15  16
ATOM     16  C   UNL A   1      33.291  26.886  26.196  1.00  0.00    -0.024 C 
ATOM     17  C   UNL A   1      33.648  26.818  23.721  1.00  0.00     0.039 C 
ATOM     18  C   UNL A   1      33.706  26.224  25.099  1.00  0.00    -0.080 C 
ATOM     19  C   UNL A   1      34.226  24.821  25.229  1.00  0.00     0.039 C 
ENDBRANCH  15  16
ENDBRANCH   6  15
ENDBRANCH   3   5
ENDBRANCH   2   3
ENDBRANCH   1   2
BRANCH   1  20
ATOM     20  C   UNL A   1      33.930  34.989  31.527  1.00  0.00     0.275 C 
BRANCH  20  21
ATOM     21  O   UNL A   1      35.233  34.392  31.377  1.00  0.00    -0.458 OA
BRANCH  21  22
ATOM     22  C   UNL A   1      35.272  33.051  31.539  1.00  0.00     0.338 C 
ATOM     23  O   UNL A   1      34.343  32.304  31.800  1.00  0.00    -0.246 OA
BRANCH  22  24
ATOM     24  C   UNL A   1      36.624  32.554  31.254  1.00  0.00     0.060 A 
ATOM     25  C   UNL A   1      37.267  33.048  30.124  1.00  0.00     0.016 A 
ATOM     26  C   UNL A   1      37.185  31.508  31.978  1.00  0.00     0.016 A 
ATOM     27  C   UNL A   1      38.435  32.461  29.655  1.00  0.00     0.010 A 
ATOM     28  C   UNL A   1      38.403  30.963  31.550  1.00  0.00     0.010 A 
ATOM     29  C   UNL A   1      39.022  31.411  30.366  1.00  0.00    -0.014 A 
BRANCH  29  30
ATOM     30  C   UNL A   1      40.245  30.746  29.843  1.00  0.00     0.031 A 
ATOM     31  C   UNL A   1      41.548  31.498  29.819  1.00  0.00     0.074 A 
ATOM     32  C   UNL A   1      40.197  29.475  29.399  1.00  0.00     0.049 A 
ATOM     33  N   UNL A   1      42.675  31.184  29.235  1.00  0.00    -0.248 NA
ATOM     34  C   UNL A   1      41.581  32.780  30.541  1.00  0.00     0.031 C 
ATOM     35  C   UNL A   1      39.024  28.600  29.440  1.00  0.00     0.029 A 
ATOM     36  N   UNL A   1      41.170  28.697  28.819  1.00  0.00    -0.354 N 
ATOM     37  C   UNL A   1      43.532  32.253  29.469  1.00  0.00     0.074 A 
ATOM     38  C   UNL A   1      42.792  33.227  30.241  1.00  0.00     0.031 C 
ATOM     39  C   UNL A   1      39.347  27.406  28.922  1.00  0.00     0.029 A 
ATOM     40  C   UNL A   1      40.719  27.457  28.433  1.00  0.00     0.049 A 
ATOM     41  H   UNL A   1      42.099  28.998  28.694  1.00  0.00     0.167 HD
ATOM     42  C   UNL A   1      44.818  32.409  29.069  1.00  0.00     0.031 A 
ATOM     43  C   UNL A   1      41.322  26.491  27.717  1.00  0.00     0.031 A 
ATOM     44  C   UNL A   1      45.553  31.425  28.319  1.00  0.00     0.049 A 
ATOM     45  C   UNL A   1      42.720  26.719  27.214  1.00  0.00     0.074 A 
ATOM     46  C   UNL A   1      46.860  31.482  27.870  1.00  0.00     0.029 A 
ATOM     47  N   UNL A   1      45.042  30.200  27.914  1.00  0.00    -0.354 N 
ATOM     48  N   UNL A   1      43.507  27.751  27.401  1.00  0.00    -0.248 NA
ATOM     49  C   UNL A   1      43.309  25.651  26.394  1.00  0.00     0.031 C 
ATOM     50  C   UNL A   1      47.123  30.316  27.144  1.00  0.00     0.029 A 
ATOM     51  C   UNL A   1      46.003  29.502  27.202  1.00  0.00     0.049 A 
ATOM     52  H   UNL A   1      44.133  29.875  28.105  1.00  0.00     0.167 HD
ATOM     53  C   UNL A   1      44.694  27.444  26.750  1.00  0.00     0.074 A 
ATOM     54  C   UNL A   1      44.528  26.126  26.173  1.00  0.00     0.031 C 
ATOM     55  C   UNL A   1      45.823  28.187  26.642  1.00  0.00     0.031 A 
BRANCH  42  56
ATOM     56  C   UNL A   1      45.490  33.717  29.389  1.00  0.00    -0.014 A 
ATOM     57  C   UNL A   1      45.319  34.854  28.584  1.00  0.00     0.009 A 
ATOM     58  C   UNL A   1      46.298  33.814  30.535  1.00  0.00     0.009 A 
ATOM     59  C   UNL A   1      45.976  36.047  28.897  1.00  0.00     0.001 A 
ATOM     60  C   UNL A   1      46.927  35.016  30.862  1.00  0.00     0.001 A 
ATOM     61  C   UNL A   1      46.775  36.128  30.037  1.00  0.00     0.000 A 
ENDBRANCH  42  56
BRANCH  43  62
ATOM     62  C   UNL A   1      40.588  25.239  27.389  1.00  0.00    -0.014 A 
ATOM     63  C   UNL A   1      39.498  25.261  26.505  1.00  0.00     0.009 A 
ATOM     64  C   UNL A   1      40.974  24.015  27.959  1.00  0.00     0.009 A 
ATOM     65  C   UNL A   1      38.798  24.086  26.217  1.00  0.00     0.001 A 
ATOM     66  C   UNL A   1      40.294  22.838  27.642  1.00  0.00     0.001 A 
ATOM     67  C   UNL A   1      39.201  22.876  26.779  1.00  0.00     0.000 A 
ENDBRANCH  43  62
BRANCH  55  68
ATOM     68  C   UNL A   1      46.990  27.566  25.926  1.00  0.00    -0.014 A 
ATOM     69  C   UNL A   1      47.926  26.767  26.599  1.00  0.00     0.009 A 
ATOM     70  C   UNL A   1      47.124  27.752  24.541  1.00  0.00     0.009 A 
ATOM     71  C   UNL A   1      48.989  26.190  25.903  1.00  0.00     0.001 A 
ATOM     72  C   UNL A   1      48.168  27.148  23.842  1.00  0.00     0.001 A 
ATOM     73  C   UNL A   1      49.106  26.375  24.525  1.00  0.00     0.000 A 
ENDBRANCH  55  68
ENDBRANCH  29  30
ENDBRANCH  22  24
ENDBRANCH  21  22
ENDBRANCH  20  21
ENDBRANCH   1  20
TORSDOF 13
ENDMDL
MODEL 2
REMARK VINA RESULT:     -10.4      5.389     10.354
REMARK SMILES CC(C)=CCc1cccc2c(C(=O)OCCOC(=O)c3ccc(-c4c5nc(c(-c6ccccc6)c6ccc([nH]6)c(-c6ccccc6)c6nc(c(-c7ccccc7)c7ccc4[nH]7)C=C6)C=C5)cc3)c[nH]c12
REMARK SMILES IDX 15 1 14 2 12 3 13 4 11 5 6 6 7 7 70 8 8 9 10 10 69 11 9 12
REMARK SMILES IDX 68 13 5 15 4 16 1 17 2 18 3 19 16 20 17 21 18 22 19 23 20 24
REMARK SMILES IDX 21 25 67 26 22 27 66 28 23 29 24 30 25 31 60 32 26 33 65 34
REMARK SMILES IDX 59 35 61 36 27 37 64 38 58 39 57 40 28 42 50 43 35 44 49 45
REMARK SMILES IDX 36 46 39 47 48 48 62 49 37 50 38 51 47 53 63 54 40 55 29 56
REMARK SMILES IDX 30 57 34 58 31 59 33 60 32 61 51 62 52 63 56 64 53 65 55 66
REMARK SMILES IDX 54 67 41 68 42 69 46 70 43 71 45 72 44 73
REMARK H PARENT 69 14 61 41 39 52
REMARK Flexibility Score: inf
ROOT
ATOM      1  C   UNL A   1      43.303  19.418  25.710  1.00  0.00     0.275 C 
ENDROOT
BRANCH   1   2
ATOM      2  O   UNL A   1      41.916  19.618  25.377  1.00  0.00    -0.458 OA
BRANCH   2   3
ATOM      3  C   UNL A   1      41.092  19.957  26.411  1.00  0.00     0.340 C 
ATOM      4  O   UNL A   1      41.397  19.852  27.593  1.00  0.00    -0.246 OA
BRANCH   3   5
ATOM      5  C   UNL A   1      39.832  20.552  25.977  1.00  0.00     0.085 A 
ATOM      6  C   UNL A   1      37.262  23.099  25.558  1.00  0.00    -0.020 A 
ATOM      7  C   UNL A   1      37.820  24.234  26.178  1.00  0.00     0.006 A 
ATOM      8  C   UNL A   1      38.056  21.938  25.591  1.00  0.00     0.050 A 
ATOM      9  C   UNL A   1      39.044  24.187  26.843  1.00  0.00     0.001 A 
ATOM     10  C   UNL A   1      39.299  21.859  26.228  1.00  0.00     0.014 A 
ATOM     11  N   UNL A   1      37.820  20.709  25.023  1.00  0.00    -0.360 N 
ATOM     12  C   UNL A   1      39.782  23.003  26.891  1.00  0.00     0.011 A 
ATOM     13  C   UNL A   1      38.924  19.920  25.143  1.00  0.00     0.099 A 
ATOM     14  H   UNL A   1      36.977  20.438  24.593  1.00  0.00     0.166 HD
BRANCH   6  15
ATOM     15  C   UNL A   1      35.952  23.168  24.809  1.00  0.00     0.065 C 
BRANCH  15  16
ATOM     16  C   UNL A   1      34.740  23.046  25.689  1.00  0.00    -0.024 C 
ATOM     17  C   UNL A   1      33.739  25.248  25.045  1.00  0.00     0.039 C 
ATOM     18  C   UNL A   1      33.752  23.955  25.810  1.00  0.00    -0.080 C 
ATOM     19  C   UNL A   1      32.621  23.701  26.764  1.00  0.00     0.039 C 
ENDBRANCH  15  16
ENDBRANCH   6  15
ENDBRANCH   3   5
ENDBRANCH   2   3
ENDBRANCH   1   2
BRANCH   1  20
ATOM     20  C   UNL A   1      44.171  20.597  25.261  1.00  0.00     0.275 C 
BRANCH  20  21
ATOM     21  O   UNL A   1      44.038  21.720  26.153  1.00  0.00    -0.458 OA
BRANCH  21  22
ATOM     22  C   UNL A   1      43.484  22.824  25.607  1.00  0.00     0.338 C 
ATOM     23  O   UNL A   1      43.062  22.963  24.471  1.00  0.00    -0.246 OA
BRANCH  22  24
ATOM     24  C   UNL A   1      43.353  23.873  26.627  1.00  0.00     0.060 A 
ATOM     25  C   UNL A   1      42.786  23.518  27.846  1.00  0.00     0.016 A 
ATOM     26  C   UNL A   1      43.624  25.207  26.342  1.00  0.00     0.016 A 
ATOM     27  C   UNL A   1      42.410  24.487  28.767  1.00  0.00     0.010 A 
ATOM     28  C   UNL A   1      43.315  26.181  27.301  1.00  0.00     0.010 A 
ATOM     29  C   UNL A   1      42.674  25.834  28.508  1.00  0.00    -0.014 A 
BRANCH  29  30
ATOM     30  C   UNL A   1      42.231  26.881  29.467  1.00  0.00     0.031 A 
ATOM     31  C   UNL A   1      43.021  27.121  30.725  1.00  0.00     0.074 A 
ATOM     32  C   UNL A   1      41.134  27.621  29.214  1.00  0.00     0.049 A 
ATOM     33  N   UNL A   1      42.710  27.835  31.775  1.00  0.00    -0.248 NA
ATOM     34  C   UNL A   1      44.331  26.457  30.814  1.00  0.00     0.031 C 
ATOM     35  C   UNL A   1      40.321  27.555  27.998  1.00  0.00     0.029 A 
ATOM     36  N   UNL A   1      40.511  28.579  29.977  1.00  0.00    -0.354 N 
ATOM     37  C   UNL A   1      43.757  27.661  32.672  1.00  0.00     0.074 A 
ATOM     38  C   UNL A   1      44.707  26.768  32.047  1.00  0.00     0.031 C 
ATOM     39  C   UNL A   1      39.317  28.440  28.090  1.00  0.00     0.029 A 
ATOM     40  C   UNL A   1      39.363  29.071  29.404  1.00  0.00     0.049 A 
ATOM     41  H   UNL A   1      40.853  28.883  30.849  1.00  0.00     0.167 HD
ATOM     42  C   UNL A   1      43.907  28.195  33.910  1.00  0.00     0.031 A 
ATOM     43  C   UNL A   1      38.421  29.895  29.899  1.00  0.00     0.031 A 
ATOM     44  C   UNL A   1      42.966  29.100  34.516  1.00  0.00     0.049 A 
ATOM     45  C   UNL A   1      38.566  30.410  31.303  1.00  0.00     0.074 A 
ATOM     46  C   UNL A   1      43.027  29.701  35.761  1.00  0.00     0.029 A 
ATOM     47  N   UNL A   1      41.796  29.539  33.914  1.00  0.00    -0.354 N 
ATOM     48  N   UNL A   1      39.536  30.205  32.162  1.00  0.00    -0.248 NA
ATOM     49  C   UNL A   1      37.482  31.263  31.810  1.00  0.00     0.031 C 
ATOM     50  C   UNL A   1      41.865  30.460  35.935  1.00  0.00     0.029 A 
ATOM     51  C   UNL A   1      41.116  30.387  34.771  1.00  0.00     0.049 A 
ATOM     52  H   UNL A   1      41.494  29.286  33.012  1.00  0.00     0.167 HD
ATOM     53  C   UNL A   1      39.195  30.929  33.297  1.00  0.00     0.074 A 
ATOM     54  C   UNL A   1      37.936  31.586  33.014  1.00  0.00     0.031 C 
ATOM     55  C   UNL A   1      39.868  31.041  34.469  1.00  0.00     0.031 A 
BRANCH  42  56
ATOM     56  C   UNL A   1      45.107  27.765  34.710  1.00  0.00    -0.014 A 
ATOM     57  C   UNL A   1      46.316  28.479  34.673  1.00  0.00     0.009 A 
ATOM     58  C   UNL A   1      45.016  26.630  35.533  1.00  0.00     0.009 A 
ATOM     59  C   UNL A   1      47.418  28.040  35.411  1.00  0.00     0.001 A 
ATOM     60  C   UNL A   1      46.109  26.213  36.294  1.00  0.00     0.001 A 
ATOM     61  C   UNL A   1      47.313  26.911  36.223  1.00  0.00     0.000 A 
ENDBRANCH  42  56
BRANCH  43  62
ATOM     62  C   UNL A   1      37.230  30.244  29.079  1.00  0.00    -0.014 A 
ATOM     63  C   UNL A   1      36.278  29.267  28.750  1.00  0.00     0.009 A 
ATOM     64  C   UNL A   1      37.040  31.557  28.619  1.00  0.00     0.009 A 
ATOM     65  C   UNL A   1      35.172  29.595  27.959  1.00  0.00     0.001 A 
ATOM     66  C   UNL A   1      35.916  31.889  27.859  1.00  0.00     0.001 A 
ATOM     67  C   UNL A   1      34.989  30.905  27.522  1.00  0.00     0.000 A 
ENDBRANCH  43  62
BRANCH  55  68
ATOM     68  C   UNL A   1      39.288  31.956  35.511  1.00  0.00    -0.014 A 
ATOM     69  C   UNL A   1      39.543  33.336  35.501  1.00  0.00     0.009 A 
ATOM     70  C   UNL A   1      38.433  31.428  36.491  1.00  0.00     0.009 A 
ATOM     71  C   UNL A   1      38.975  34.163  36.472  1.00  0.00     0.001 A 
ATOM     72  C   UNL A   1      37.842  32.262  37.440  1.00  0.00     0.001 A 
ATOM     73  C   UNL A   1      38.121  33.628  37.435  1.00  0.00     0.000 A 
ENDBRANCH  55  68
ENDBRANCH  29  30
ENDBRANCH  22  24
ENDBRANCH  21  22
ENDBRANCH  20  21
ENDBRANCH   1  20
TORSDOF 13
ENDMDL
MODEL 3
REMARK VINA RESULT:     -10.3      4.896      9.775
REMARK SMILES CC(C)=CCc1cccc2c(C(=O)OCCOC(=O)c3ccc(-c4c5nc(c(-c6ccccc6)c6ccc([nH]6)c(-c6ccccc6)c6nc(c(-c7ccccc7)c7ccc4[nH]7)C=C6)C=C5)cc3)c[nH]c12
REMARK SMILES IDX 15 1 14 2 12 3 13 4 11 5 6 6 7 7 70 8 8 9 10 10 69 11 9 12
REMARK SMILES IDX 68 13 5 15 4 16 1 17 2 18 3 19 16 20 17 21 18 22 19 23 20 24
REMARK SMILES IDX 21 25 67 26 22 27 66 28 23 29 24 30 25 31 60 32 26 33 65 34
REMARK SMILES IDX 59 35 61 36 27 37 64 38 58 39 57 40 28 42 50 43 35 44 49 45
REMARK SMILES IDX 36 46 39 47 48 48 62 49 37 50 38 51 47 53 63 54 40 55 29 56
REMARK SMILES IDX 30 57 34 58 31 59 33 60 32 61 51 62 52 63 56 64 53 65 55 66
REMARK SMILES IDX 54 67 41 68 42 69 46 70 43 71 45 72 44 73
REMARK H PARENT 69 14 61 41 39 52
REMARK Flexibility Score: inf
ROOT
ATOM      1  C   UNL A   1      42.249  19.565  26.810  1.00  0.00     0.275 C 
ENDROOT
BRANCH   1   2
ATOM      2  O   UNL A   1      41.032  20.159  26.322  1.00  0.00    -0.458 OA
BRANCH   2   3
ATOM      3  C   UNL A   1      41.045  21.515  26.166  1.00  0.00     0.340 C 
ATOM      4  O   UNL A   1      42.054  22.167  25.927  1.00  0.00    -0.246 OA
BRANCH   3   5
ATOM      5  C   UNL A   1      39.716  22.117  26.217  1.00  0.00     0.085 A 
ATOM      6  C   UNL A   1      36.121  22.423  25.723  1.00  0.00    -0.020 A 
ATOM      7  C   UNL A   1      35.765  21.195  25.132  1.00  0.00     0.006 A 
ATOM      8  C   UNL A   1      37.488  22.583  26.011  1.00  0.00     0.050 A 
ATOM      9  C   UNL A   1      36.716  20.237  24.788  1.00  0.00     0.001 A 
ATOM     10  C   UNL A   1      38.469  21.635  25.702  1.00  0.00     0.014 A 
ATOM     11  N   UNL A   1      38.126  23.626  26.640  1.00  0.00    -0.360 N 
ATOM     12  C   UNL A   1      38.070  20.452  25.049  1.00  0.00     0.011 A 
ATOM     13  C   UNL A   1      39.428  23.302  26.876  1.00  0.00     0.099 A 
ATOM     14  H   UNL A   1      37.705  24.482  26.883  1.00  0.00     0.166 HD
BRANCH   6  15
ATOM     15  C   UNL A   1      35.079  23.442  26.125  1.00  0.00     0.065 C 
BRANCH  15  16
ATOM     16  C   UNL A   1      34.792  24.469  25.067  1.00  0.00    -0.024 C 
ATOM     17  C   UNL A   1      32.792  23.302  24.119  1.00  0.00     0.039 C 
ATOM     18  C   UNL A   1      33.789  24.425  24.169  1.00  0.00    -0.080 C 
ATOM     19  C   UNL A   1      33.656  25.517  23.147  1.00  0.00     0.039 C 
ENDBRANCH  15  16
ENDBRANCH   6  15
ENDBRANCH   3   5
ENDBRANCH   2   3
ENDBRANCH   1   2
BRANCH   1  20
ATOM     20  C   UNL A   1      42.906  18.669  25.756  1.00  0.00     0.275 C 
BRANCH  20  21
ATOM     21  O   UNL A   1      43.364  19.436  24.624  1.00  0.00    -0.458 OA
BRANCH  21  22
ATOM     22  C   UNL A   1      44.703  19.595  24.544  1.00  0.00     0.338 C 
ATOM     23  O   UNL A   1      45.539  18.755  24.257  1.00  0.00    -0.246 OA
BRANCH  22  24
ATOM     24  C   UNL A   1      45.051  21.006  24.762  1.00  0.00     0.060 A 
ATOM     25  C   UNL A   1      45.524  21.365  26.021  1.00  0.00     0.016 A 
ATOM     26  C   UNL A   1      44.767  21.983  23.816  1.00  0.00     0.016 A 
ATOM     27  C   UNL A   1      45.647  22.700  26.382  1.00  0.00     0.010 A 
ATOM     28  C   UNL A   1      44.963  23.330  24.151  1.00  0.00     0.010 A 
ATOM     29  C   UNL A   1      45.372  23.702  25.448  1.00  0.00    -0.014 A 
BRANCH  29  30
ATOM     30  C   UNL A   1      45.455  25.134  25.842  1.00  0.00     0.031 A 
ATOM     31  C   UNL A   1      46.776  25.851  25.766  1.00  0.00     0.074 A 
ATOM     32  C   UNL A   1      44.357  25.795  26.257  1.00  0.00     0.049 A 
ATOM     33  N   UNL A   1      47.110  27.024  26.238  1.00  0.00    -0.248 NA
ATOM     34  C   UNL A   1      47.867  25.147  25.075  1.00  0.00     0.031 C 
ATOM     35  C   UNL A   1      42.999  25.250  26.301  1.00  0.00     0.029 A 
ATOM     36  N   UNL A   1      44.215  27.078  26.728  1.00  0.00    -0.354 N 
ATOM     37  C   UNL A   1      48.462  27.174  25.953  1.00  0.00     0.074 A 
ATOM     38  C   UNL A   1      48.887  25.969  25.275  1.00  0.00     0.031 C 
ATOM     39  C   UNL A   1      42.161  26.193  26.759  1.00  0.00     0.029 A 
ATOM     40  C   UNL A   1      42.933  27.375  27.123  1.00  0.00     0.049 A 
ATOM     41  H   UNL A   1      44.959  27.721  26.776  1.00  0.00     0.167 HD
ATOM     42  C   UNL A   1      49.275  28.220  26.239  1.00  0.00     0.031 A 
ATOM     43  C   UNL A   1      42.441  28.455  27.758  1.00  0.00     0.031 A 
ATOM     44  C   UNL A   1      48.837  29.424  26.895  1.00  0.00     0.049 A 
ATOM     45  C   UNL A   1      43.376  29.568  28.138  1.00  0.00     0.074 A 
ATOM     46  C   UNL A   1      49.579  30.545  27.226  1.00  0.00     0.029 A 
ATOM     47  N   UNL A   1      47.538  29.664  27.315  1.00  0.00    -0.354 N 
ATOM     48  N   UNL A   1      44.661  29.682  27.906  1.00  0.00    -0.248 NA
ATOM     49  C   UNL A   1      42.794  30.698  28.876  1.00  0.00     0.031 C 
ATOM     50  C   UNL A   1      48.740  31.440  27.896  1.00  0.00     0.029 A 
ATOM     51  C   UNL A   1      47.460  30.908  27.920  1.00  0.00     0.049 A 
ATOM     52  H   UNL A   1      46.782  29.045  27.199  1.00  0.00     0.167 HD
ATOM     53  C   UNL A   1      45.034  30.908  28.439  1.00  0.00     0.074 A 
ATOM     54  C   UNL A   1      43.838  31.505  28.997  1.00  0.00     0.031 C 
ATOM     55  C   UNL A   1      46.260  31.490  28.462  1.00  0.00     0.031 A 
BRANCH  42  56
ATOM     56  C   UNL A   1      50.733  28.082  25.891  1.00  0.00    -0.014 A 
ATOM     57  C   UNL A   1      51.660  27.536  26.792  1.00  0.00     0.009 A 
ATOM     58  C   UNL A   1      51.180  28.490  24.623  1.00  0.00     0.009 A 
ATOM     59  C   UNL A   1      53.011  27.442  26.446  1.00  0.00     0.001 A 
ATOM     60  C   UNL A   1      52.524  28.365  24.269  1.00  0.00     0.001 A 
ATOM     61  C   UNL A   1      53.441  27.853  25.184  1.00  0.00     0.000 A 
ENDBRANCH  42  56
BRANCH  43  62
ATOM     62  C   UNL A   1      40.999  28.513  28.121  1.00  0.00    -0.014 A 
ATOM     63  C   UNL A   1      40.069  29.118  27.262  1.00  0.00     0.009 A 
ATOM     64  C   UNL A   1      40.545  27.963  29.331  1.00  0.00     0.009 A 
ATOM     65  C   UNL A   1      38.719  29.190  27.618  1.00  0.00     0.001 A 
ATOM     66  C   UNL A   1      39.190  28.005  29.667  1.00  0.00     0.001 A 
ATOM     67  C   UNL A   1      38.281  28.627  28.815  1.00  0.00     0.000 A 
ENDBRANCH  43  62
BRANCH  55  68
ATOM     68  C   UNL A   1      46.356  32.868  29.055  1.00  0.00    -0.014 A 
ATOM     69  C   UNL A   1      46.141  34.018  28.281  1.00  0.00     0.009 A 
ATOM     70  C   UNL A   1      46.623  33.009  30.426  1.00  0.00     0.009 A 
ATOM     71  C   UNL A   1      46.221  35.284  28.865  1.00  0.00     0.001 A 
ATOM     72  C   UNL A   1      46.670  34.273  31.013  1.00  0.00     0.001 A 
ATOM     73  C   UNL A   1      46.478  35.410  30.230  1.00  0.00     0.000 A 
ENDBRANCH  55  68
ENDBRANCH  29  30
ENDBRANCH  22  24
ENDBRANCH  21  22
ENDBRANCH  20  21
ENDBRANCH   1  20
TORSDOF 13
ENDMDL
