MODEL 1
REMARK VINA RESULT:      -9.5      0.000      0.000
REMARK SMILES O=C(OCCOC(=O)c1coc(-c2csc(-c3ccc(Cl)cn3)n2)c1)c1ccc(-c2c3nc(c(-c4ccccc4)c4ccc([nH]4)c(-c4ccccc4)c4nc(c(-c5ccccc5)c5ccc2[nH]5)C=C4)C=C3)cc1
REMARK SMILES IDX 4 1 3 2 2 3 1 4 26 5 27 6 73 7 28 8 72 9 29 10 30 11 31 12
REMARK SMILES IDX 66 13 32 14 71 15 65 16 67 17 33 18 70 19 64 20 63 21 34 23
REMARK SMILES IDX 56 24 41 25 55 26 42 27 45 28 54 29 68 30 43 31 44 32 53 34
REMARK SMILES IDX 69 35 46 36 35 37 36 38 40 39 37 40 39 41 38 42 57 43 58 44
REMARK SMILES IDX 62 45 59 46 61 47 60 48 47 49 48 50 52 51 49 52 51 53 50 54
REMARK SMILES IDX 5 55 6 56 7 57 8 58 9 59 10 60 25 61 11 62 12 63 13 64 14 65
REMARK SMILES IDX 24 66 15 67 16 68 17 69 18 70 23 71 19 72 22 73 20 74 21 75
REMARK H PARENT 67 22 45 33
REMARK Flexibility Score: inf
ROOT
ATOM      1  C   UNL A   1      42.813  18.393  25.801  1.00  0.00     0.275 C 
ENDROOT
BRANCH   1   2
ATOM      2  O   UNL A   1      42.091  19.571  25.400  1.00  0.00    -0.458 OA
BRANCH   2   3
ATOM      3  C   UNL A   1      41.326  20.417  26.126  1.00  0.00     0.338 C 
ATOM      4  O   UNL A   1      40.109  20.246  26.148  1.00  0.00    -0.246 OA
BRANCH   3   5
ATOM      5  C   UNL A   1      41.858  21.647  26.793  1.00  0.00     0.060 A 
ATOM      6  C   UNL A   1      41.984  21.849  28.169  1.00  0.00     0.016 A 
ATOM      7  C   UNL A   1      42.218  22.706  25.936  1.00  0.00     0.016 A 
ATOM      8  C   UNL A   1      42.485  23.051  28.679  1.00  0.00     0.010 A 
ATOM      9  C   UNL A   1      42.722  23.908  26.437  1.00  0.00     0.010 A 
ATOM     10  C   UNL A   1      42.838  24.092  27.817  1.00  0.00    -0.014 A 
BRANCH  10  11
ATOM     11  C   UNL A   1      43.131  25.430  28.366  1.00  0.00     0.031 A 
ATOM     12  C   UNL A   1      41.988  26.384  28.542  1.00  0.00     0.074 A 
ATOM     13  C   UNL A   1      44.379  25.778  28.724  1.00  0.00     0.049 A 
ATOM     14  N   UNL A   1      41.995  27.613  28.987  1.00  0.00    -0.248 NA
ATOM     15  C   UNL A   1      40.655  25.879  28.173  1.00  0.00     0.031 C 
ATOM     16  C   UNL A   1      45.550  24.910  28.648  1.00  0.00     0.029 A 
ATOM     17  N   UNL A   1      44.867  26.961  29.214  1.00  0.00    -0.354 N 
ATOM     18  C   UNL A   1      40.669  28.024  28.957  1.00  0.00     0.074 A 
ATOM     19  C   UNL A   1      39.892  26.932  28.415  1.00  0.00     0.031 C 
ATOM     20  C   UNL A   1      46.631  25.598  29.053  1.00  0.00     0.029 A 
ATOM     21  C   UNL A   1      46.228  26.959  29.394  1.00  0.00     0.049 A 
ATOM     22  H   UNL A   1      44.296  27.738  29.419  1.00  0.00     0.167 HD
ATOM     23  C   UNL A   1      40.143  29.205  29.354  1.00  0.00     0.031 A 
ATOM     24  C   UNL A   1      47.053  27.953  29.772  1.00  0.00     0.031 A 
ATOM     25  C   UNL A   1      40.927  30.301  29.848  1.00  0.00     0.049 A 
ATOM     26  C   UNL A   1      46.463  29.295  30.112  1.00  0.00     0.074 A 
ATOM     27  C   UNL A   1      40.506  31.554  30.254  1.00  0.00     0.029 A 
ATOM     28  N   UNL A   1      42.307  30.271  29.990  1.00  0.00    -0.354 N 
ATOM     29  N   UNL A   1      45.204  29.669  30.100  1.00  0.00    -0.248 NA
ATOM     30  C   UNL A   1      47.400  30.348  30.529  1.00  0.00     0.031 C 
ATOM     31  C   UNL A   1      41.640  32.299  30.598  1.00  0.00     0.029 A 
ATOM     32  C   UNL A   1      42.759  31.492  30.455  1.00  0.00     0.049 A 
ATOM     33  H   UNL A   1      42.879  29.495  29.789  1.00  0.00     0.167 HD
ATOM     34  C   UNL A   1      45.193  30.984  30.543  1.00  0.00     0.074 A 
ATOM     35  C   UNL A   1      46.571  31.346  30.811  1.00  0.00     0.031 C 
ATOM     36  C   UNL A   1      44.137  31.816  30.723  1.00  0.00     0.031 A 
BRANCH  23  37
ATOM     37  C   UNL A   1      38.657  29.359  29.203  1.00  0.00    -0.014 A 
ATOM     38  C   UNL A   1      38.087  29.740  27.977  1.00  0.00     0.009 A 
ATOM     39  C   UNL A   1      37.823  29.187  30.316  1.00  0.00     0.009 A 
ATOM     40  C   UNL A   1      36.718  29.997  27.883  1.00  0.00     0.001 A 
ATOM     41  C   UNL A   1      36.450  29.419  30.214  1.00  0.00     0.001 A 
ATOM     42  C   UNL A   1      35.901  29.838  29.002  1.00  0.00     0.000 A 
ENDBRANCH  23  37
BRANCH  24  43
ATOM     43  C   UNL A   1      48.518  27.715  29.837  1.00  0.00    -0.014 A 
ATOM     44  C   UNL A   1      49.331  27.919  28.713  1.00  0.00     0.009 A 
ATOM     45  C   UNL A   1      49.115  27.300  31.038  1.00  0.00     0.009 A 
ATOM     46  C   UNL A   1      50.710  27.698  28.787  1.00  0.00     0.001 A 
ATOM     47  C   UNL A   1      50.495  27.103  31.116  1.00  0.00     0.001 A 
ATOM     48  C   UNL A   1      51.291  27.295  29.988  1.00  0.00     0.000 A 
ENDBRANCH  24  43
BRANCH  36  49
ATOM     49  C   UNL A   1      44.422  33.180  31.283  1.00  0.00    -0.014 A 
ATOM     50  C   UNL A   1      44.641  34.282  30.445  1.00  0.00     0.009 A 
ATOM     51  C   UNL A   1      44.388  33.371  32.674  1.00  0.00     0.009 A 
ATOM     52  C   UNL A   1      44.837  35.550  30.992  1.00  0.00     0.001 A 
ATOM     53  C   UNL A   1      44.562  34.644  33.216  1.00  0.00     0.001 A 
ATOM     54  C   UNL A   1      44.790  35.732  32.375  1.00  0.00     0.000 A 
ENDBRANCH  36  49
ENDBRANCH  10  11
ENDBRANCH   3   5
ENDBRANCH   2   3
ENDBRANCH   1   2
BRANCH   1  55
ATOM     55  C   UNL A   1      44.336  18.534  25.745  1.00  0.00     0.275 C 
BRANCH  55  56
ATOM     56  O   UNL A   1      44.816  19.240  24.590  1.00  0.00    -0.458 OA
BRANCH  56  57
ATOM     57  C   UNL A   1      45.963  19.961  24.789  1.00  0.00     0.341 C 
ATOM     58  O   UNL A   1      47.055  19.477  25.032  1.00  0.00    -0.246 OA
BRANCH  57  59
ATOM     59  C   UNL A   1      45.759  21.380  24.599  1.00  0.00     0.098 A 
ATOM     60  C   UNL A   1      44.885  21.969  23.714  1.00  0.00     0.211 A 
ATOM     61  C   UNL A   1      46.405  22.459  25.271  1.00  0.00     0.068 A 
ATOM     62  O   UNL A   1      44.938  23.322  23.816  1.00  0.00    -0.462 OA
ATOM     63  C   UNL A   1      45.921  23.627  24.720  1.00  0.00     0.154 A 
BRANCH  63  64
ATOM     64  C   UNL A   1      46.397  25.012  25.005  1.00  0.00     0.117 A 
ATOM     65  C   UNL A   1      47.742  25.301  25.096  1.00  0.00     0.099 A 
ATOM     66  N   UNL A   1      45.538  26.073  25.258  1.00  0.00    -0.231 NA
ATOM     67  S   UNL A   1      47.959  26.950  25.484  1.00  0.00    -0.120 S 
ATOM     68  C   UNL A   1      46.246  27.141  25.586  1.00  0.00     0.142 A 
BRANCH  68  69
ATOM     69  C   UNL A   1      45.736  28.415  26.105  1.00  0.00     0.099 A 
ATOM     70  C   UNL A   1      46.593  29.503  26.282  1.00  0.00     0.033 A 
ATOM     71  N   UNL A   1      44.396  28.493  26.306  1.00  0.00    -0.252 NA
ATOM     72  C   UNL A   1      46.055  30.732  26.667  1.00  0.00     0.024 A 
ATOM     73  C   UNL A   1      43.906  29.700  26.691  1.00  0.00     0.132 A 
ATOM     74  C   UNL A   1      44.685  30.834  26.873  1.00  0.00     0.059 A 
ATOM     75  Cl  UNL A   1      43.979  32.331  27.325  1.00  0.00    -0.083 Cl
ENDBRANCH  68  69
ENDBRANCH  63  64
ENDBRANCH  57  59
ENDBRANCH  56  57
ENDBRANCH  55  56
ENDBRANCH   1  55
TORSDOF 13
ENDMDL
MODEL 2
REMARK VINA RESULT:      -8.9      5.455     11.072
REMARK SMILES O=C(OCCOC(=O)c1coc(-c2csc(-c3ccc(Cl)cn3)n2)c1)c1ccc(-c2c3nc(c(-c4ccccc4)c4ccc([nH]4)c(-c4ccccc4)c4nc(c(-c5ccccc5)c5ccc2[nH]5)C=C4)C=C3)cc1
REMARK SMILES IDX 4 1 3 2 2 3 1 4 26 5 27 6 73 7 28 8 72 9 29 10 30 11 31 12
REMARK SMILES IDX 66 13 32 14 71 15 65 16 67 17 33 18 70 19 64 20 63 21 34 23
REMARK SMILES IDX 56 24 41 25 55 26 42 27 45 28 54 29 68 30 43 31 44 32 53 34
REMARK SMILES IDX 69 35 46 36 35 37 36 38 40 39 37 40 39 41 38 42 57 43 58 44
REMARK SMILES IDX 62 45 59 46 61 47 60 48 47 49 48 50 52 51 49 52 51 53 50 54
REMARK SMILES IDX 5 55 6 56 7 57 8 58 9 59 10 60 25 61 11 62 12 63 13 64 14 65
REMARK SMILES IDX 24 66 15 67 16 68 17 69 18 70 23 71 19 72 22 73 20 74 21 75
REMARK H PARENT 67 22 45 33
REMARK Flexibility Score: inf
ROOT
ATOM      1  C   UNL A   1      34.408  33.728  27.986  1.00  0.00     0.275 C 
ENDROOT
BRANCH   1   2
ATOM      2  O   UNL A   1      34.175  32.460  28.623  1.00  0.00    -0.458 OA
BRANCH   2   3
ATOM      3  C   UNL A   1      34.442  31.204  28.199  1.00  0.00     0.338 C 
ATOM      4  O   UNL A   1      33.553  30.563  27.643  1.00  0.00    -0.246 OA
BRANCH   3   5
ATOM      5  C   UNL A   1      35.722  30.487  28.493  1.00  0.00     0.060 A 
ATOM      6  C   UNL A   1      36.065  29.872  29.700  1.00  0.00     0.016 A 
ATOM      7  C   UNL A   1      36.677  30.481  27.457  1.00  0.00     0.016 A 
ATOM      8  C   UNL A   1      37.301  29.240  29.863  1.00  0.00     0.010 A 
ATOM      9  C   UNL A   1      37.914  29.850  27.611  1.00  0.00     0.010 A 
ATOM     10  C   UNL A   1      38.238  29.243  28.827  1.00  0.00    -0.014 A 
BRANCH  10  11
ATOM     11  C   UNL A   1      39.619  28.793  29.087  1.00  0.00     0.031 A 
ATOM     12  C   UNL A   1      40.557  29.751  29.758  1.00  0.00     0.074 A 
ATOM     13  C   UNL A   1      40.021  27.553  28.759  1.00  0.00     0.049 A 
ATOM     14  N   UNL A   1      41.815  29.595  30.075  1.00  0.00    -0.248 NA
ATOM     15  C   UNL A   1      39.996  31.062  30.126  1.00  0.00     0.031 C 
ATOM     16  C   UNL A   1      39.177  26.525  28.157  1.00  0.00     0.029 A 
ATOM     17  N   UNL A   1      41.248  26.953  28.880  1.00  0.00    -0.354 N 
ATOM     18  C   UNL A   1      42.192  30.783  30.686  1.00  0.00     0.074 A 
ATOM     19  C   UNL A   1      41.045  31.664  30.660  1.00  0.00     0.031 C 
ATOM     20  C   UNL A   1      39.917  25.426  27.936  1.00  0.00     0.029 A 
ATOM     21  C   UNL A   1      41.290  25.684  28.360  1.00  0.00     0.049 A 
ATOM     22  H   UNL A   1      42.024  27.391  29.300  1.00  0.00     0.167 HD
ATOM     23  C   UNL A   1      43.386  31.110  31.230  1.00  0.00     0.031 A 
ATOM     24  C   UNL A   1      42.328  24.837  28.226  1.00  0.00     0.031 A 
ATOM     25  C   UNL A   1      44.534  30.247  31.212  1.00  0.00     0.049 A 
ATOM     26  C   UNL A   1      43.677  25.257  28.743  1.00  0.00     0.074 A 
ATOM     27  C   UNL A   1      45.803  30.482  31.707  1.00  0.00     0.029 A 
ATOM     28  N   UNL A   1      44.545  28.978  30.651  1.00  0.00    -0.354 N 
ATOM     29  N   UNL A   1      44.020  26.376  29.338  1.00  0.00    -0.248 NA
ATOM     30  C   UNL A   1      44.779  24.297  28.585  1.00  0.00     0.031 C 
ATOM     31  C   UNL A   1      46.597  29.370  31.403  1.00  0.00     0.029 A 
ATOM     32  C   UNL A   1      45.807  28.425  30.766  1.00  0.00     0.049 A 
ATOM     33  H   UNL A   1      43.770  28.538  30.233  1.00  0.00     0.167 HD
ATOM     34  C   UNL A   1      45.364  26.241  29.659  1.00  0.00     0.074 A 
ATOM     35  C   UNL A   1      45.776  24.933  29.188  1.00  0.00     0.031 C 
ATOM     36  C   UNL A   1      46.182  27.115  30.296  1.00  0.00     0.031 A 
BRANCH  23  37
ATOM     37  C   UNL A   1      43.495  32.482  31.829  1.00  0.00    -0.014 A 
ATOM     38  C   UNL A   1      43.865  33.589  31.047  1.00  0.00     0.009 A 
ATOM     39  C   UNL A   1      43.291  32.659  33.205  1.00  0.00     0.009 A 
ATOM     40  C   UNL A   1      44.080  34.834  31.641  1.00  0.00     0.001 A 
ATOM     41  C   UNL A   1      43.480  33.911  33.793  1.00  0.00     0.001 A 
ATOM     42  C   UNL A   1      43.889  34.994  33.014  1.00  0.00     0.000 A 
ENDBRANCH  23  37
BRANCH  24  43
ATOM     43  C   UNL A   1      42.129  23.521  27.567  1.00  0.00    -0.014 A 
ATOM     44  C   UNL A   1      42.356  23.362  26.192  1.00  0.00     0.009 A 
ATOM     45  C   UNL A   1      41.729  22.406  28.320  1.00  0.00     0.009 A 
ATOM     46  C   UNL A   1      42.171  22.117  25.583  1.00  0.00     0.001 A 
ATOM     47  C   UNL A   1      41.569  21.158  27.714  1.00  0.00     0.001 A 
ATOM     48  C   UNL A   1      41.783  21.015  26.345  1.00  0.00     0.000 A 
ENDBRANCH  24  43
BRANCH  36  49
ATOM     49  C   UNL A   1      47.589  26.668  30.569  1.00  0.00    -0.014 A 
ATOM     50  C   UNL A   1      47.923  25.988  31.748  1.00  0.00     0.009 A 
ATOM     51  C   UNL A   1      48.574  26.864  29.587  1.00  0.00     0.009 A 
ATOM     52  C   UNL A   1      49.225  25.525  31.946  1.00  0.00     0.001 A 
ATOM     53  C   UNL A   1      49.867  26.380  29.778  1.00  0.00     0.001 A 
ATOM     54  C   UNL A   1      50.194  25.715  30.959  1.00  0.00     0.000 A 
ENDBRANCH  36  49
ENDBRANCH  10  11
ENDBRANCH   3   5
ENDBRANCH   2   3
ENDBRANCH   1   2
BRANCH   1  55
ATOM     55  C   UNL A   1      33.960  34.940  28.805  1.00  0.00     0.275 C 
BRANCH  55  56
ATOM     56  O   UNL A   1      33.129  34.612  29.929  1.00  0.00    -0.458 OA
BRANCH  56  57
ATOM     57  C   UNL A   1      32.996  35.608  30.860  1.00  0.00     0.341 C 
ATOM     58  O   UNL A   1      32.235  36.555  30.761  1.00  0.00    -0.246 OA
BRANCH  57  59
ATOM     59  C   UNL A   1      33.807  35.374  32.034  1.00  0.00     0.098 A 
ATOM     60  C   UNL A   1      34.056  36.273  33.048  1.00  0.00     0.211 A 
ATOM     61  C   UNL A   1      34.513  34.189  32.394  1.00  0.00     0.068 A 
ATOM     62  O   UNL A   1      34.842  35.712  34.003  1.00  0.00    -0.462 OA
ATOM     63  C   UNL A   1      35.182  34.457  33.570  1.00  0.00     0.154 A 
BRANCH  63  64
ATOM     64  C   UNL A   1      36.159  33.568  34.263  1.00  0.00     0.117 A 
ATOM     65  C   UNL A   1      36.594  33.843  35.542  1.00  0.00     0.099 A 
ATOM     66  N   UNL A   1      36.740  32.462  33.658  1.00  0.00    -0.231 NA
ATOM     67  S   UNL A   1      37.744  32.678  36.030  1.00  0.00    -0.120 S 
ATOM     68  C   UNL A   1      37.643  31.941  34.472  1.00  0.00     0.142 A 
BRANCH  68  69
ATOM     69  C   UNL A   1      38.611  30.884  34.159  1.00  0.00     0.099 A 
ATOM     70  C   UNL A   1      38.237  29.786  33.382  1.00  0.00     0.033 A 
ATOM     71  N   UNL A   1      39.884  31.085  34.586  1.00  0.00    -0.252 NA
ATOM     72  C   UNL A   1      39.212  28.859  33.007  1.00  0.00     0.024 A 
ATOM     73  C   UNL A   1      40.806  30.159  34.214  1.00  0.00     0.132 A 
ATOM     74  C   UNL A   1      40.521  29.050  33.429  1.00  0.00     0.059 A 
ATOM     75  Cl  UNL A   1      41.754  27.947  32.973  1.00  0.00    -0.083 Cl
ENDBRANCH  68  69
ENDBRANCH  63  64
ENDBRANCH  57  59
ENDBRANCH  56  57
ENDBRANCH  55  56
ENDBRANCH   1  55
TORSDOF 13
ENDMDL
MODEL 3
REMARK VINA RESULT:      -8.8      0.985      6.092
REMARK SMILES O=C(OCCOC(=O)c1coc(-c2csc(-c3ccc(Cl)cn3)n2)c1)c1ccc(-c2c3nc(c(-c4ccccc4)c4ccc([nH]4)c(-c4ccccc4)c4nc(c(-c5ccccc5)c5ccc2[nH]5)C=C4)C=C3)cc1
REMARK SMILES IDX 4 1 3 2 2 3 1 4 26 5 27 6 73 7 28 8 72 9 29 10 30 11 31 12
REMARK SMILES IDX 66 13 32 14 71 15 65 16 67 17 33 18 70 19 64 20 63 21 34 23
REMARK SMILES IDX 56 24 41 25 55 26 42 27 45 28 54 29 68 30 43 31 44 32 53 34
REMARK SMILES IDX 69 35 46 36 35 37 36 38 40 39 37 40 39 41 38 42 57 43 58 44
REMARK SMILES IDX 62 45 59 46 61 47 60 48 47 49 48 50 52 51 49 52 51 53 50 54
REMARK SMILES IDX 5 55 6 56 7 57 8 58 9 59 10 60 25 61 11 62 12 63 13 64 14 65
REMARK SMILES IDX 24 66 15 67 16 68 17 69 18 70 23 71 19 72 22 73 20 74 21 75
REMARK H PARENT 67 22 45 33
REMARK Flexibility Score: inf
ROOT
ATOM      1  C   UNL A   1      43.389  18.827  25.566  1.00  0.00     0.275 C 
ENDROOT
BRANCH   1   2
ATOM      2  O   UNL A   1      42.029  19.208  25.288  1.00  0.00    -0.458 OA
BRANCH   2   3
ATOM      3  C   UNL A   1      41.176  19.984  25.994  1.00  0.00     0.338 C 
ATOM      4  O   UNL A   1      39.975  19.727  25.962  1.00  0.00    -0.246 OA
BRANCH   3   5
ATOM      5  C   UNL A   1      41.591  21.235  26.702  1.00  0.00     0.060 A 
ATOM      6  C   UNL A   1      41.478  21.484  28.072  1.00  0.00     0.016 A 
ATOM      7  C   UNL A   1      42.100  22.265  25.886  1.00  0.00     0.016 A 
ATOM      8  C   UNL A   1      41.889  22.702  28.621  1.00  0.00     0.010 A 
ATOM      9  C   UNL A   1      42.516  23.484  26.427  1.00  0.00     0.010 A 
ATOM     10  C   UNL A   1      42.392  23.713  27.799  1.00  0.00    -0.014 A 
BRANCH  10  11
ATOM     11  C   UNL A   1      42.592  25.070  28.346  1.00  0.00     0.031 A 
ATOM     12  C   UNL A   1      43.954  25.427  28.861  1.00  0.00     0.074 A 
ATOM     13  C   UNL A   1      41.594  25.969  28.359  1.00  0.00     0.049 A 
ATOM     14  N   UNL A   1      44.369  26.543  29.401  1.00  0.00    -0.248 NA
ATOM     15  C   UNL A   1      44.988  24.386  28.746  1.00  0.00     0.031 C 
ATOM     16  C   UNL A   1      40.251  25.745  27.832  1.00  0.00     0.029 A 
ATOM     17  N   UNL A   1      41.556  27.251  28.843  1.00  0.00    -0.354 N 
ATOM     18  C   UNL A   1      45.713  26.339  29.681  1.00  0.00     0.074 A 
ATOM     19  C   UNL A   1      46.034  24.984  29.291  1.00  0.00     0.031 C 
ATOM     20  C   UNL A   1      39.508  26.845  28.044  1.00  0.00     0.029 A 
ATOM     21  C   UNL A   1      40.320  27.839  28.741  1.00  0.00     0.049 A 
ATOM     22  H   UNL A   1      42.341  27.707  29.227  1.00  0.00     0.167 HD
ATOM     23  C   UNL A   1      46.606  27.207  30.210  1.00  0.00     0.031 A 
ATOM     24  C   UNL A   1      39.892  29.037  29.181  1.00  0.00     0.031 A 
ATOM     25  C   UNL A   1      46.270  28.535  30.637  1.00  0.00     0.049 A 
ATOM     26  C   UNL A   1      40.873  29.952  29.862  1.00  0.00     0.074 A 
ATOM     27  C   UNL A   1      47.084  29.493  31.211  1.00  0.00     0.029 A 
ATOM     28  N   UNL A   1      44.999  29.086  30.543  1.00  0.00    -0.354 N 
ATOM     29  N   UNL A   1      42.149  29.758  30.105  1.00  0.00    -0.248 NA
ATOM     30  C   UNL A   1      40.365  31.254  30.317  1.00  0.00     0.031 C 
ATOM     31  C   UNL A   1      46.293  30.610  31.508  1.00  0.00     0.029 A 
ATOM     32  C   UNL A   1      45.000  30.363  31.071  1.00  0.00     0.049 A 
ATOM     33  H   UNL A   1      44.214  28.633  30.158  1.00  0.00     0.167 HD
ATOM     34  C   UNL A   1      42.604  30.924  30.705  1.00  0.00     0.074 A 
ATOM     35  C   UNL A   1      41.466  31.819  30.794  1.00  0.00     0.031 C 
ATOM     36  C   UNL A   1      43.853  31.233  31.134  1.00  0.00     0.031 A 
BRANCH  23  37
ATOM     37  C   UNL A   1      48.006  26.697  30.394  1.00  0.00    -0.014 A 
ATOM     38  C   UNL A   1      48.941  26.746  29.347  1.00  0.00     0.009 A 
ATOM     39  C   UNL A   1      48.376  26.100  31.608  1.00  0.00     0.009 A 
ATOM     40  C   UNL A   1      50.199  26.159  29.494  1.00  0.00     0.001 A 
ATOM     41  C   UNL A   1      49.643  25.538  31.763  1.00  0.00     0.001 A 
ATOM     42  C   UNL A   1      50.549  25.554  30.701  1.00  0.00     0.000 A 
ENDBRANCH  23  37
BRANCH  24  43
ATOM     43  C   UNL A   1      38.470  29.427  29.000  1.00  0.00    -0.014 A 
ATOM     44  C   UNL A   1      37.998  29.877  27.758  1.00  0.00     0.009 A 
ATOM     45  C   UNL A   1      37.568  29.330  30.072  1.00  0.00     0.009 A 
ATOM     46  C   UNL A   1      36.657  30.235  27.598  1.00  0.00     0.001 A 
ATOM     47  C   UNL A   1      36.223  29.665  29.903  1.00  0.00     0.001 A 
ATOM     48  C   UNL A   1      35.769  30.124  28.668  1.00  0.00     0.000 A 
ENDBRANCH  24  43
BRANCH  36  49
ATOM     49  C   UNL A   1      44.070  32.611  31.691  1.00  0.00    -0.014 A 
ATOM     50  C   UNL A   1      43.983  32.864  33.067  1.00  0.00     0.009 A 
ATOM     51  C   UNL A   1      44.446  33.649  30.824  1.00  0.00     0.009 A 
ATOM     52  C   UNL A   1      44.255  34.139  33.563  1.00  0.00     0.001 A 
ATOM     53  C   UNL A   1      44.738  34.916  31.326  1.00  0.00     0.001 A 
ATOM     54  C   UNL A   1      44.638  35.162  32.694  1.00  0.00     0.000 A 
ENDBRANCH  36  49
ENDBRANCH  10  11
ENDBRANCH   3   5
ENDBRANCH   2   3
ENDBRANCH   1   2
BRANCH   1  55
ATOM     55  C   UNL A   1      44.353  19.024  24.393  1.00  0.00     0.275 C 
BRANCH  55  56
ATOM     56  O   UNL A   1      45.371  20.007  24.631  1.00  0.00    -0.458 OA
BRANCH  56  57
ATOM     57  C   UNL A   1      45.135  21.233  24.068  1.00  0.00     0.341 C 
ATOM     58  O   UNL A   1      44.439  21.423  23.085  1.00  0.00    -0.246 OA
BRANCH  57  59
ATOM     59  C   UNL A   1      45.741  22.310  24.819  1.00  0.00     0.098 A 
ATOM     60  C   UNL A   1      46.210  22.241  26.112  1.00  0.00     0.211 A 
ATOM     61  C   UNL A   1      45.983  23.650  24.397  1.00  0.00     0.068 A 
ATOM     62  O   UNL A   1      46.735  23.433  26.495  1.00  0.00    -0.462 OA
ATOM     63  C   UNL A   1      46.533  24.320  25.470  1.00  0.00     0.154 A 
BRANCH  63  64
ATOM     64  C   UNL A   1      46.831  25.779  25.553  1.00  0.00     0.117 A 
ATOM     65  C   UNL A   1      48.128  26.243  25.592  1.00  0.00     0.099 A 
ATOM     66  N   UNL A   1      45.844  26.750  25.663  1.00  0.00    -0.231 NA
ATOM     67  S   UNL A   1      48.135  27.944  25.743  1.00  0.00    -0.120 S 
ATOM     68  C   UNL A   1      46.410  27.933  25.831  1.00  0.00     0.142 A 
BRANCH  68  69
ATOM     69  C   UNL A   1      45.741  29.194  26.171  1.00  0.00     0.099 A 
ATOM     70  C   UNL A   1      44.563  29.193  26.919  1.00  0.00     0.033 A 
ATOM     71  N   UNL A   1      46.377  30.334  25.799  1.00  0.00    -0.252 NA
ATOM     72  C   UNL A   1      44.017  30.413  27.322  1.00  0.00     0.024 A 
ATOM     73  C   UNL A   1      45.814  31.505  26.197  1.00  0.00     0.132 A 
ATOM     74  C   UNL A   1      44.656  31.591  26.956  1.00  0.00     0.059 A 
ATOM     75  Cl  UNL A   1      44.031  33.111  27.449  1.00  0.00    -0.083 Cl
ENDBRANCH  68  69
ENDBRANCH  63  64
ENDBRANCH  57  59
ENDBRANCH  56  57
ENDBRANCH  55  56
ENDBRANCH   1  55
TORSDOF 13
ENDMDL
