MODEL 1
REMARK VINA RESULT:     -11.5      0.000      0.000
REMARK SMILES O=C(OCCOC(=O)c1cc(NC(=S)NC(=O)c2ccccc2F)ccc1Cl)c1ccc(-c2c3nc(c(-c4ccccc4)c4ccc([nH]4)c(-c4ccccc4)c4nc(c(-c5ccccc5)c5ccc2[nH]5)C=C4)C=C3)cc1
REMARK SMILES IDX 5 1 4 2 3 3 2 4 1 5 29 6 30 7 76 8 31 9 75 10 32 11 33 12
REMARK SMILES IDX 34 13 69 14 35 15 74 16 68 17 70 18 36 19 73 20 67 21 66 22
REMARK SMILES IDX 37 24 59 25 44 26 58 27 45 28 48 29 57 30 71 31 46 32 47 33
REMARK SMILES IDX 56 35 72 36 49 37 38 38 39 39 43 40 40 41 42 42 41 43 60 44
REMARK SMILES IDX 61 45 65 46 62 47 64 48 63 49 50 50 51 51 55 52 52 53 54 54
REMARK SMILES IDX 53 55 6 56 7 57 8 58 9 59 10 60 27 61 11 62 26 63 28 64
REMARK SMILES IDX 25 65 12 66 13 68 14 69 15 70 16 71 17 73 18 74 19 75 23 76
REMARK SMILES IDX 20 77 22 78 24 79 21 80
REMARK H PARENT 70 23 48 34 12 67 15 72
REMARK Flexibility Score: inf
ROOT
ATOM      1  C   UNL A   1      31.659  31.353  26.813  1.00  0.00     0.275 C 
ENDROOT
BRANCH   1   2
ATOM      2  C   UNL A   1      31.778  32.875  26.636  1.00  0.00     0.275 C 
BRANCH   2   3
ATOM      3  O   UNL A   1      32.043  33.586  27.845  1.00  0.00    -0.458 OA
BRANCH   3   4
ATOM      4  C   UNL A   1      33.203  34.151  28.240  1.00  0.00     0.338 C 
ATOM      5  O   UNL A   1      33.220  35.371  28.402  1.00  0.00    -0.246 OA
BRANCH   4   6
ATOM      6  C   UNL A   1      34.505  33.405  28.359  1.00  0.00     0.060 A 
ATOM      7  C   UNL A   1      35.796  33.843  28.043  1.00  0.00     0.016 A 
ATOM      8  C   UNL A   1      34.401  32.168  28.992  1.00  0.00     0.016 A 
ATOM      9  C   UNL A   1      36.940  33.192  28.530  1.00  0.00     0.010 A 
ATOM     10  C   UNL A   1      35.527  31.559  29.535  1.00  0.00     0.010 A 
ATOM     11  C   UNL A   1      36.819  32.079  29.350  1.00  0.00    -0.014 A 
BRANCH  11  12
ATOM     12  C   UNL A   1      38.007  31.405  29.950  1.00  0.00     0.031 A 
ATOM     13  C   UNL A   1      38.407  31.817  31.339  1.00  0.00     0.074 A 
ATOM     14  C   UNL A   1      38.752  30.487  29.288  1.00  0.00     0.049 A 
ATOM     15  N   UNL A   1      39.401  31.389  32.071  1.00  0.00    -0.248 NA
ATOM     16  C   UNL A   1      37.611  32.882  31.980  1.00  0.00     0.031 C 
ATOM     17  C   UNL A   1      38.528  30.007  27.922  1.00  0.00     0.029 A 
ATOM     18  N   UNL A   1      39.875  29.790  29.682  1.00  0.00    -0.354 N 
ATOM     19  C   UNL A   1      39.304  32.115  33.248  1.00  0.00     0.074 A 
ATOM     20  C   UNL A   1      38.342  33.164  33.039  1.00  0.00     0.031 C 
ATOM     21  C   UNL A   1      39.480  29.113  27.592  1.00  0.00     0.029 A 
ATOM     22  C   UNL A   1      40.376  28.930  28.726  1.00  0.00     0.049 A 
ATOM     23  H   UNL A   1      40.284  29.896  30.571  1.00  0.00     0.167 HD
ATOM     24  C   UNL A   1      39.826  31.839  34.462  1.00  0.00     0.031 A 
ATOM     25  C   UNL A   1      41.415  28.069  28.777  1.00  0.00     0.031 A 
ATOM     26  C   UNL A   1      40.740  30.771  34.699  1.00  0.00     0.049 A 
ATOM     27  C   UNL A   1      42.122  27.872  30.098  1.00  0.00     0.074 A 
ATOM     28  C   UNL A   1      41.306  30.368  35.890  1.00  0.00     0.029 A 
ATOM     29  N   UNL A   1      41.227  29.937  33.705  1.00  0.00    -0.354 N 
ATOM     30  N   UNL A   1      41.896  28.460  31.248  1.00  0.00    -0.248 NA
ATOM     31  C   UNL A   1      43.175  26.847  30.146  1.00  0.00     0.031 C 
ATOM     32  C   UNL A   1      42.192  29.325  35.606  1.00  0.00     0.029 A 
ATOM     33  C   UNL A   1      42.123  29.041  34.250  1.00  0.00     0.049 A 
ATOM     34  H   UNL A   1      40.972  29.979  32.756  1.00  0.00     0.167 HD
ATOM     35  C   UNL A   1      42.718  27.822  32.170  1.00  0.00     0.074 A 
ATOM     36  C   UNL A   1      43.461  26.815  31.440  1.00  0.00     0.031 C 
ATOM     37  C   UNL A   1      42.831  28.032  33.504  1.00  0.00     0.031 A 
BRANCH  24  38
ATOM     38  C   UNL A   1      39.326  32.690  35.591  1.00  0.00    -0.014 A 
ATOM     39  C   UNL A   1      40.023  33.855  35.966  1.00  0.00     0.009 A 
ATOM     40  C   UNL A   1      38.237  32.267  36.360  1.00  0.00     0.009 A 
ATOM     41  C   UNL A   1      39.687  34.535  37.136  1.00  0.00     0.001 A 
ATOM     42  C   UNL A   1      37.878  32.973  37.509  1.00  0.00     0.001 A 
ATOM     43  C   UNL A   1      38.614  34.092  37.906  1.00  0.00     0.000 A 
ENDBRANCH  24  38
BRANCH  25  44
ATOM     44  C   UNL A   1      41.817  27.249  27.593  1.00  0.00    -0.014 A 
ATOM     45  C   UNL A   1      42.759  27.734  26.668  1.00  0.00     0.009 A 
ATOM     46  C   UNL A   1      41.193  26.019  27.328  1.00  0.00     0.009 A 
ATOM     47  C   UNL A   1      43.030  27.032  25.488  1.00  0.00     0.001 A 
ATOM     48  C   UNL A   1      41.485  25.307  26.157  1.00  0.00     0.001 A 
ATOM     49  C   UNL A   1      42.393  25.820  25.232  1.00  0.00     0.000 A 
ENDBRANCH  25  44
BRANCH  37  50
ATOM     50  C   UNL A   1      43.735  27.123  34.283  1.00  0.00    -0.014 A 
ATOM     51  C   UNL A   1      43.262  25.937  34.861  1.00  0.00     0.009 A 
ATOM     52  C   UNL A   1      45.106  27.420  34.352  1.00  0.00     0.009 A 
ATOM     53  C   UNL A   1      44.145  25.073  35.510  1.00  0.00     0.001 A 
ATOM     54  C   UNL A   1      45.991  26.536  34.967  1.00  0.00     0.001 A 
ATOM     55  C   UNL A   1      45.508  25.368  35.553  1.00  0.00     0.000 A 
ENDBRANCH  37  50
ENDBRANCH  11  12
ENDBRANCH   4   6
ENDBRANCH   3   4
ENDBRANCH   2   3
ENDBRANCH   1   2
BRANCH   1  56
ATOM     56  O   UNL A   1      31.347  30.588  25.613  1.00  0.00    -0.458 OA
BRANCH  56  57
ATOM     57  C   UNL A   1      32.201  29.556  25.360  1.00  0.00     0.339 C 
ATOM     58  O   UNL A   1      33.373  29.711  25.044  1.00  0.00    -0.246 OA
BRANCH  57  59
ATOM     59  C   UNL A   1      31.528  28.170  25.276  1.00  0.00     0.080 A 
ATOM     60  C   UNL A   1      31.716  26.416  26.251  1.00  0.00     0.043 A 
ATOM     61  C   UNL A   1      30.761  28.020  23.635  1.00  0.00     0.055 A 
ATOM     62  C   UNL A   1      31.318  24.908  25.638  1.00  0.00     0.041 A 
ATOM     63  C   UNL A   1      30.289  26.380  23.072  1.00  0.00     0.023 A 
ATOM     64  Cl  UNL A   1      30.456  29.372  22.618  1.00  0.00    -0.083 Cl
ATOM     65  C   UNL A   1      30.572  24.885  24.055  1.00  0.00     0.028 A 
BRANCH  62  66
ATOM     66  N   UNL A   1      31.735  23.934  26.578  1.00  0.00    -0.332 N 
ATOM     67  H   UNL A   1      31.021  23.598  27.166  1.00  0.00     0.169 HD
BRANCH  66  68
ATOM     68  C   UNL A   1      33.004  23.368  26.810  1.00  0.00     0.177 C 
ATOM     69  S   UNL A   1      33.068  22.103  27.920  1.00  0.00    -0.040 S 
BRANCH  68  70
ATOM     70  N   UNL A   1      34.283  23.749  26.196  1.00  0.00    -0.299 N 
ATOM     71  C   UNL A   1      35.460  23.527  25.233  1.00  0.00     0.260 C 
ATOM     72  H   UNL A   1      34.507  24.600  26.639  1.00  0.00     0.172 HD
ATOM     73  O   UNL A   1      36.416  24.300  25.274  1.00  0.00    -0.269 OA
BRANCH  71  74
ATOM     74  C   UNL A   1      35.407  22.436  24.108  1.00  0.00     0.075 A 
ATOM     75  C   UNL A   1      35.472  20.841  24.888  1.00  0.00     0.017 A 
ATOM     76  C   UNL A   1      34.061  22.918  23.015  1.00  0.00     0.135 A 
ATOM     77  C   UNL A   1      34.028  19.768  24.776  1.00  0.00     0.001 A 
ATOM     78  C   UNL A   1      32.568  21.964  22.827  1.00  0.00     0.040 A 
ATOM     79  F   UNL A   1      33.838  24.250  22.964  1.00  0.00    -0.206 F 
ATOM     80  C   UNL A   1      32.430  20.406  23.698  1.00  0.00     0.003 A 
ENDBRANCH  71  74
ENDBRANCH  68  70
ENDBRANCH  66  68
ENDBRANCH  62  66
ENDBRANCH  57  59
ENDBRANCH  56  57
ENDBRANCH   1  56
TORSDOF 15
ENDMDL
MODEL 2
REMARK VINA RESULT:     -11.4      1.102      1.855
REMARK SMILES O=C(OCCOC(=O)c1cc(NC(=S)NC(=O)c2ccccc2F)ccc1Cl)c1ccc(-c2c3nc(c(-c4ccccc4)c4ccc([nH]4)c(-c4ccccc4)c4nc(c(-c5ccccc5)c5ccc2[nH]5)C=C4)C=C3)cc1
REMARK SMILES IDX 5 1 4 2 3 3 2 4 1 5 29 6 30 7 76 8 31 9 75 10 32 11 33 12
REMARK SMILES IDX 34 13 69 14 35 15 74 16 68 17 70 18 36 19 73 20 67 21 66 22
REMARK SMILES IDX 37 24 59 25 44 26 58 27 45 28 48 29 57 30 71 31 46 32 47 33
REMARK SMILES IDX 56 35 72 36 49 37 38 38 39 39 43 40 40 41 42 42 41 43 60 44
REMARK SMILES IDX 61 45 65 46 62 47 64 48 63 49 50 50 51 51 55 52 52 53 54 54
REMARK SMILES IDX 53 55 6 56 7 57 8 58 9 59 10 60 27 61 11 62 26 63 28 64
REMARK SMILES IDX 25 65 12 66 13 68 14 69 15 70 16 71 17 73 18 74 19 75 23 76
REMARK SMILES IDX 20 77 22 78 24 79 21 80
REMARK H PARENT 70 23 48 34 12 67 15 72
REMARK Flexibility Score: inf
ROOT
ATOM      1  C   UNL A   1      31.707  31.143  26.624  1.00  0.00     0.275 C 
ENDROOT
BRANCH   1   2
ATOM      2  C   UNL A   1      31.766  32.677  26.570  1.00  0.00     0.275 C 
BRANCH   2   3
ATOM      3  O   UNL A   1      32.054  33.297  27.822  1.00  0.00    -0.458 OA
BRANCH   3   4
ATOM      4  C   UNL A   1      33.198  33.899  28.209  1.00  0.00     0.338 C 
ATOM      5  O   UNL A   1      33.176  35.117  28.379  1.00  0.00    -0.246 OA
BRANCH   4   6
ATOM      6  C   UNL A   1      34.526  33.197  28.309  1.00  0.00     0.060 A 
ATOM      7  C   UNL A   1      35.810  33.723  28.124  1.00  0.00     0.016 A 
ATOM      8  C   UNL A   1      34.448  31.887  28.777  1.00  0.00     0.016 A 
ATOM      9  C   UNL A   1      36.957  33.063  28.591  1.00  0.00     0.010 A 
ATOM     10  C   UNL A   1      35.572  31.260  29.305  1.00  0.00     0.010 A 
ATOM     11  C   UNL A   1      36.846  31.851  29.259  1.00  0.00    -0.014 A 
BRANCH  11  12
ATOM     12  C   UNL A   1      38.032  31.155  29.837  1.00  0.00     0.031 A 
ATOM     13  C   UNL A   1      38.425  31.512  31.244  1.00  0.00     0.074 A 
ATOM     14  C   UNL A   1      38.782  30.266  29.144  1.00  0.00     0.049 A 
ATOM     15  N   UNL A   1      39.415  31.057  31.964  1.00  0.00    -0.248 NA
ATOM     16  C   UNL A   1      37.623  32.550  31.923  1.00  0.00     0.031 C 
ATOM     17  C   UNL A   1      38.566  29.840  27.758  1.00  0.00     0.029 A 
ATOM     18  N   UNL A   1      39.904  29.555  29.515  1.00  0.00    -0.354 N 
ATOM     19  C   UNL A   1      39.311  31.735  33.168  1.00  0.00     0.074 A 
ATOM     20  C   UNL A   1      38.348  32.790  32.996  1.00  0.00     0.031 C 
ATOM     21  C   UNL A   1      39.520  28.961  27.398  1.00  0.00     0.029 A 
ATOM     22  C   UNL A   1      40.412  28.735  28.528  1.00  0.00     0.049 A 
ATOM     23  H   UNL A   1      40.308  29.626  30.409  1.00  0.00     0.167 HD
ATOM     24  C   UNL A   1      39.827  31.412  34.372  1.00  0.00     0.031 A 
ATOM     25  C   UNL A   1      41.452  27.874  28.550  1.00  0.00     0.031 A 
ATOM     26  C   UNL A   1      40.742  30.337  34.572  1.00  0.00     0.049 A 
ATOM     27  C   UNL A   1      42.152  27.626  29.866  1.00  0.00     0.074 A 
ATOM     28  C   UNL A   1      41.302  29.887  35.749  1.00  0.00     0.029 A 
ATOM     29  N   UNL A   1      41.235  29.544  33.548  1.00  0.00    -0.354 N 
ATOM     30  N   UNL A   1      41.919  28.167  31.038  1.00  0.00    -0.248 NA
ATOM     31  C   UNL A   1      43.207  26.601  29.879  1.00  0.00     0.031 C 
ATOM     32  C   UNL A   1      42.191  28.858  35.428  1.00  0.00     0.029 A 
ATOM     33  C   UNL A   1      42.130  28.628  34.061  1.00  0.00     0.049 A 
ATOM     34  H   UNL A   1      40.985  29.624  32.600  1.00  0.00     0.167 HD
ATOM     35  C   UNL A   1      42.738  27.494  31.937  1.00  0.00     0.074 A 
ATOM     36  C   UNL A   1      43.486  26.518  31.172  1.00  0.00     0.031 C 
ATOM     37  C   UNL A   1      42.843  27.651  33.280  1.00  0.00     0.031 A 
BRANCH  24  38
ATOM     38  C   UNL A   1      39.320  32.216  35.532  1.00  0.00    -0.014 A 
ATOM     39  C   UNL A   1      38.165  31.809  36.229  1.00  0.00     0.009 A 
ATOM     40  C   UNL A   1      39.916  33.440  35.852  1.00  0.00     0.009 A 
ATOM     41  C   UNL A   1      37.572  32.652  37.168  1.00  0.00     0.001 A 
ATOM     42  C   UNL A   1      39.342  34.263  36.822  1.00  0.00     0.001 A 
ATOM     43  C   UNL A   1      38.162  33.879  37.463  1.00  0.00     0.000 A 
ENDBRANCH  24  38
BRANCH  25  44
ATOM     44  C   UNL A   1      41.861  27.102  27.337  1.00  0.00    -0.014 A 
ATOM     45  C   UNL A   1      41.445  25.771  27.157  1.00  0.00     0.009 A 
ATOM     46  C   UNL A   1      42.745  27.658  26.398  1.00  0.00     0.009 A 
ATOM     47  C   UNL A   1      41.940  25.003  26.098  1.00  0.00     0.001 A 
ATOM     48  C   UNL A   1      43.220  26.894  25.324  1.00  0.00     0.001 A 
ATOM     49  C   UNL A   1      42.828  25.563  25.182  1.00  0.00     0.000 A 
ENDBRANCH  25  44
BRANCH  37  50
ATOM     50  C   UNL A   1      43.745  26.713  34.027  1.00  0.00    -0.014 A 
ATOM     51  C   UNL A   1      45.082  27.036  34.292  1.00  0.00     0.009 A 
ATOM     52  C   UNL A   1      43.208  25.528  34.557  1.00  0.00     0.009 A 
ATOM     53  C   UNL A   1      45.872  26.179  35.059  1.00  0.00     0.001 A 
ATOM     54  C   UNL A   1      43.988  24.693  35.354  1.00  0.00     0.001 A 
ATOM     55  C   UNL A   1      45.322  25.015  35.597  1.00  0.00     0.000 A 
ENDBRANCH  37  50
ENDBRANCH  11  12
ENDBRANCH   4   6
ENDBRANCH   3   4
ENDBRANCH   2   3
ENDBRANCH   1   2
BRANCH   1  56
ATOM     56  O   UNL A   1      31.396  30.465  25.373  1.00  0.00    -0.458 OA
BRANCH  56  57
ATOM     57  C   UNL A   1      32.167  29.373  25.112  1.00  0.00     0.339 C 
ATOM     58  O   UNL A   1      33.299  29.439  24.651  1.00  0.00    -0.246 OA
BRANCH  57  59
ATOM     59  C   UNL A   1      31.430  28.021  25.223  1.00  0.00     0.080 A 
ATOM     60  C   UNL A   1      31.575  26.394  26.403  1.00  0.00     0.043 A 
ATOM     61  C   UNL A   1      30.593  27.709  23.640  1.00  0.00     0.055 A 
ATOM     62  C   UNL A   1      31.085  24.843  25.997  1.00  0.00     0.041 A 
ATOM     63  C   UNL A   1      30.026  26.038  23.302  1.00  0.00     0.023 A 
ATOM     64  Cl  UNL A   1      30.312  28.940  22.473  1.00  0.00    -0.083 Cl
ATOM     65  C   UNL A   1      30.279  24.663  24.454  1.00  0.00     0.028 A 
BRANCH  62  66
ATOM     66  N   UNL A   1      31.494  23.974  27.037  1.00  0.00    -0.332 N 
ATOM     67  H   UNL A   1      31.136  24.199  27.926  1.00  0.00     0.169 HD
BRANCH  66  68
ATOM     68  C   UNL A   1      32.328  22.839  27.009  1.00  0.00     0.177 C 
ATOM     69  S   UNL A   1      33.689  22.886  27.999  1.00  0.00    -0.040 S 
BRANCH  68  70
ATOM     70  N   UNL A   1      32.152  21.614  26.217  1.00  0.00    -0.299 N 
ATOM     71  C   UNL A   1      32.353  20.755  24.958  1.00  0.00     0.260 C 
ATOM     72  H   UNL A   1      31.622  21.032  26.809  1.00  0.00     0.172 HD
ATOM     73  O   UNL A   1      31.778  19.671  24.880  1.00  0.00    -0.269 OA
BRANCH  71  74
ATOM     74  C   UNL A   1      33.381  21.158  23.845  1.00  0.00     0.075 A 
ATOM     75  C   UNL A   1      32.676  22.489  22.902  1.00  0.00     0.017 A 
ATOM     76  C   UNL A   1      34.974  21.303  24.671  1.00  0.00     0.135 A 
ATOM     77  C   UNL A   1      33.460  24.109  22.980  1.00  0.00     0.001 A 
ATOM     78  C   UNL A   1      35.847  22.846  24.840  1.00  0.00     0.040 A 
ATOM     79  F   UNL A   1      35.111  20.505  25.753  1.00  0.00    -0.206 F 
ATOM     80  C   UNL A   1      35.157  24.312  24.077  1.00  0.00     0.003 A 
ENDBRANCH  71  74
ENDBRANCH  68  70
ENDBRANCH  66  68
ENDBRANCH  62  66
ENDBRANCH  57  59
ENDBRANCH  56  57
ENDBRANCH   1  56
TORSDOF 15
ENDMDL
MODEL 3
REMARK VINA RESULT:     -11.0      3.472      8.650
REMARK SMILES O=C(OCCOC(=O)c1cc(NC(=S)NC(=O)c2ccccc2F)ccc1Cl)c1ccc(-c2c3nc(c(-c4ccccc4)c4ccc([nH]4)c(-c4ccccc4)c4nc(c(-c5ccccc5)c5ccc2[nH]5)C=C4)C=C3)cc1
REMARK SMILES IDX 5 1 4 2 3 3 2 4 1 5 29 6 30 7 76 8 31 9 75 10 32 11 33 12
REMARK SMILES IDX 34 13 69 14 35 15 74 16 68 17 70 18 36 19 73 20 67 21 66 22
REMARK SMILES IDX 37 24 59 25 44 26 58 27 45 28 48 29 57 30 71 31 46 32 47 33
REMARK SMILES IDX 56 35 72 36 49 37 38 38 39 39 43 40 40 41 42 42 41 43 60 44
REMARK SMILES IDX 61 45 65 46 62 47 64 48 63 49 50 50 51 51 55 52 52 53 54 54
REMARK SMILES IDX 53 55 6 56 7 57 8 58 9 59 10 60 27 61 11 62 26 63 28 64
REMARK SMILES IDX 25 65 12 66 13 68 14 69 15 70 16 71 17 73 18 74 19 75 23 76
REMARK SMILES IDX 20 77 22 78 24 79 21 80
REMARK H PARENT 70 23 48 34 12 67 15 72
REMARK Flexibility Score: inf
ROOT
ATOM      1  C   UNL A   1      44.207  22.269  25.558  1.00  0.00     0.275 C 
ENDROOT
BRANCH   1   2
ATOM      2  C   UNL A   1      44.944  23.065  24.470  1.00  0.00     0.275 C 
BRANCH   2   3
ATOM      3  O   UNL A   1      45.868  24.029  24.974  1.00  0.00    -0.458 OA
BRANCH   3   4
ATOM      4  C   UNL A   1      45.752  25.373  24.968  1.00  0.00     0.338 C 
ATOM      5  O   UNL A   1      46.634  26.022  24.405  1.00  0.00    -0.246 OA
BRANCH   4   6
ATOM      6  C   UNL A   1      44.692  26.131  25.721  1.00  0.00     0.060 A 
ATOM      7  C   UNL A   1      43.320  25.865  25.806  1.00  0.00     0.016 A 
ATOM      8  C   UNL A   1      45.184  27.146  26.538  1.00  0.00     0.016 A 
ATOM      9  C   UNL A   1      42.517  26.424  26.813  1.00  0.00     0.010 A 
ATOM     10  C   UNL A   1      44.411  27.650  27.579  1.00  0.00     0.010 A 
ATOM     11  C   UNL A   1      43.071  27.269  27.764  1.00  0.00    -0.014 A 
BRANCH  11  12
ATOM     12  C   UNL A   1      42.269  27.824  28.892  1.00  0.00     0.031 A 
ATOM     13  C   UNL A   1      42.792  27.605  30.285  1.00  0.00     0.074 A 
ATOM     14  C   UNL A   1      41.088  28.464  28.720  1.00  0.00     0.049 A 
ATOM     15  N   UNL A   1      42.278  27.978  31.427  1.00  0.00    -0.248 NA
ATOM     16  C   UNL A   1      44.039  26.827  30.420  1.00  0.00     0.031 C 
ATOM     17  C   UNL A   1      40.417  28.722  27.442  1.00  0.00     0.029 A 
ATOM     18  N   UNL A   1      40.221  29.014  29.642  1.00  0.00    -0.354 N 
ATOM     19  C   UNL A   1      43.165  27.504  32.379  1.00  0.00     0.074 A 
ATOM     20  C   UNL A   1      44.087  26.617  31.719  1.00  0.00     0.031 C 
ATOM     21  C   UNL A   1      39.253  29.363  27.661  1.00  0.00     0.029 A 
ATOM     22  C   UNL A   1      39.093  29.588  29.091  1.00  0.00     0.049 A 
ATOM     23  H   UNL A   1      40.394  29.000  30.610  1.00  0.00     0.167 HD
ATOM     24  C   UNL A   1      43.328  27.898  33.660  1.00  0.00     0.031 A 
ATOM     25  C   UNL A   1      38.071  30.251  29.674  1.00  0.00     0.031 A 
ATOM     26  C   UNL A   1      42.456  28.815  34.316  1.00  0.00     0.049 A 
ATOM     27  C   UNL A   1      38.162  30.556  31.151  1.00  0.00     0.074 A 
ATOM     28  C   UNL A   1      42.540  29.322  35.596  1.00  0.00     0.029 A 
ATOM     29  N   UNL A   1      41.326  29.360  33.728  1.00  0.00    -0.354 N 
ATOM     30  N   UNL A   1      39.106  30.233  32.003  1.00  0.00    -0.248 NA
ATOM     31  C   UNL A   1      37.086  31.374  31.732  1.00  0.00     0.031 C 
ATOM     32  C   UNL A   1      41.417  30.127  35.807  1.00  0.00     0.029 A 
ATOM     33  C   UNL A   1      40.675  30.170  34.635  1.00  0.00     0.049 A 
ATOM     34  H   UNL A   1      41.032  29.193  32.804  1.00  0.00     0.167 HD
ATOM     35  C   UNL A   1      38.780  30.873  33.193  1.00  0.00     0.074 A 
ATOM     36  C   UNL A   1      37.542  31.588  32.958  1.00  0.00     0.031 C 
ATOM     37  C   UNL A   1      39.457  30.890  34.367  1.00  0.00     0.031 A 
BRANCH  24  38
ATOM     38  C   UNL A   1      44.546  27.364  34.353  1.00  0.00    -0.014 A 
ATOM     39  C   UNL A   1      45.787  28.017  34.214  1.00  0.00     0.009 A 
ATOM     40  C   UNL A   1      44.486  26.148  35.040  1.00  0.00     0.009 A 
ATOM     41  C   UNL A   1      46.957  27.419  34.681  1.00  0.00     0.001 A 
ATOM     42  C   UNL A   1      45.655  25.572  35.542  1.00  0.00     0.001 A 
ATOM     43  C   UNL A   1      46.888  26.196  35.345  1.00  0.00     0.000 A 
ENDBRANCH  24  38
BRANCH  25  44
ATOM     44  C   UNL A   1      36.911  30.762  28.883  1.00  0.00    -0.014 A 
ATOM     45  C   UNL A   1      36.818  32.123  28.540  1.00  0.00     0.009 A 
ATOM     46  C   UNL A   1      35.843  29.915  28.545  1.00  0.00     0.009 A 
ATOM     47  C   UNL A   1      35.668  32.630  27.924  1.00  0.00     0.001 A 
ATOM     48  C   UNL A   1      34.704  30.420  27.907  1.00  0.00     0.001 A 
ATOM     49  C   UNL A   1      34.611  31.779  27.608  1.00  0.00     0.000 A 
ENDBRANCH  25  44
BRANCH  37  50
ATOM     50  C   UNL A   1      38.923  31.753  35.472  1.00  0.00    -0.014 A 
ATOM     51  C   UNL A   1      38.155  31.217  36.516  1.00  0.00     0.009 A 
ATOM     52  C   UNL A   1      39.284  33.109  35.513  1.00  0.00     0.009 A 
ATOM     53  C   UNL A   1      37.742  32.031  37.571  1.00  0.00     0.001 A 
ATOM     54  C   UNL A   1      38.902  33.911  36.587  1.00  0.00     0.001 A 
ATOM     55  C   UNL A   1      38.124  33.373  37.611  1.00  0.00     0.000 A 
ENDBRANCH  37  50
ENDBRANCH  11  12
ENDBRANCH   4   6
ENDBRANCH   3   4
ENDBRANCH   2   3
ENDBRANCH   1   2
BRANCH   1  56
ATOM     56  O   UNL A   1      42.871  21.798  25.218  1.00  0.00    -0.458 OA
BRANCH  56  57
ATOM     57  C   UNL A   1      42.203  21.196  26.242  1.00  0.00     0.339 C 
ATOM     58  O   UNL A   1      42.417  20.047  26.605  1.00  0.00    -0.246 OA
BRANCH  57  59
ATOM     59  C   UNL A   1      40.989  21.988  26.773  1.00  0.00     0.080 A 
ATOM     60  C   UNL A   1      39.109  22.338  26.139  1.00  0.00     0.043 A 
ATOM     61  C   UNL A   1      41.601  23.210  27.971  1.00  0.00     0.055 A 
ATOM     62  C   UNL A   1      38.166  23.660  26.553  1.00  0.00     0.041 A 
ATOM     63  C   UNL A   1      40.508  24.562  28.427  1.00  0.00     0.023 A 
ATOM     64  Cl  UNL A   1      43.160  23.117  28.689  1.00  0.00    -0.083 Cl
ATOM     65  C   UNL A   1      38.851  24.765  27.726  1.00  0.00     0.028 A 
BRANCH  62  66
ATOM     66  N   UNL A   1      36.977  23.602  25.786  1.00  0.00    -0.332 N 
ATOM     67  H   UNL A   1      36.864  24.342  25.147  1.00  0.00     0.169 HD
BRANCH  66  68
ATOM     68  C   UNL A   1      35.930  22.661  25.789  1.00  0.00     0.177 C 
ATOM     69  S   UNL A   1      35.930  21.537  24.534  1.00  0.00    -0.040 S 
BRANCH  68  70
ATOM     70  N   UNL A   1      34.834  22.538  26.759  1.00  0.00    -0.299 N 
ATOM     71  C   UNL A   1      33.385  22.758  27.225  1.00  0.00     0.260 C 
ATOM     72  H   UNL A   1      35.247  22.061  27.515  1.00  0.00     0.172 HD
ATOM     73  O   UNL A   1      33.077  22.444  28.373  1.00  0.00    -0.269 OA
BRANCH  71  74
ATOM     74  C   UNL A   1      32.267  23.234  26.235  1.00  0.00     0.075 A 
ATOM     75  C   UNL A   1      32.691  24.864  25.670  1.00  0.00     0.017 A 
ATOM     76  C   UNL A   1      31.996  21.863  25.100  1.00  0.00     0.135 A 
ATOM     77  C   UNL A   1      33.102  25.093  23.930  1.00  0.00     0.001 A 
ATOM     78  C   UNL A   1      32.380  21.946  23.362  1.00  0.00     0.040 A 
ATOM     79  F   UNL A   1      32.246  20.646  25.631  1.00  0.00    -0.206 F 
ATOM     80  C   UNL A   1      32.981  23.491  22.688  1.00  0.00     0.003 A 
ENDBRANCH  71  74
ENDBRANCH  68  70
ENDBRANCH  66  68
ENDBRANCH  62  66
ENDBRANCH  57  59
ENDBRANCH  56  57
ENDBRANCH   1  56
TORSDOF 15
ENDMDL
