MODEL 1
REMARK VINA RESULT:     -10.2      0.000      0.000
REMARK SMILES O=C(NCCOCC(=O)OCCOC(=O)c1ccc(-c2c3nc(c(-c4ccccc4)c4ccc([nH]4)c(-c4ccccc4)c4nc(c(-c5ccccc5)c5ccc2[nH]5)C=C4)C=C3)cc1)Nc1cccc(F)c1
REMARK SMILES IDX 10 1 8 2 9 3 7 4 6 5 5 6 4 7 3 8 1 9 2 10 64 11 65 14 66 15
REMARK SMILES IDX 71 16 67 17 69 18 68 19 70 20 11 21 12 22 13 23 14 24 15 25
REMARK SMILES IDX 16 26 17 27 63 28 18 29 62 30 19 31 20 32 21 33 56 34 22 35
REMARK SMILES IDX 61 36 55 37 57 38 23 39 60 40 54 41 53 42 24 44 46 45 31 46
REMARK SMILES IDX 45 47 32 48 35 49 44 50 58 51 33 52 34 53 43 55 59 56 36 57
REMARK SMILES IDX 25 58 26 59 30 60 27 61 29 62 28 63 47 64 48 65 52 66 49 67
REMARK SMILES IDX 51 68 50 69 37 70 38 71 42 72 39 73 41 74 40 75
REMARK H PARENT 3 12 64 13 57 43 35 54
REMARK Flexibility Score: inf
ROOT
ATOM      1  O   UNL A   1      45.930  20.273  25.352  1.00  0.00    -0.460 OA
ENDROOT
BRANCH   1   2
ATOM      2  C   UNL A   1      45.275  19.282  24.693  1.00  0.00     0.332 C 
ATOM      3  O   UNL A   1      45.711  18.707  23.698  1.00  0.00    -0.250 OA
BRANCH   2   4
ATOM      4  C   UNL A   1      43.954  18.850  25.373  1.00  0.00     0.282 C 
BRANCH   4   5
ATOM      5  O   UNL A   1      42.687  19.451  25.195  1.00  0.00    -0.368 OA
BRANCH   5   6
ATOM      6  C   UNL A   1      42.288  20.445  26.147  1.00  0.00     0.182 C 
BRANCH   6   7
ATOM      7  C   UNL A   1      40.796  20.429  26.558  1.00  0.00     0.146 C 
BRANCH   7   8
ATOM      8  N   UNL A   1      40.190  21.731  26.692  1.00  0.00    -0.336 N 
ATOM      9  O   UNL A   1      39.015  23.518  26.534  1.00  0.00    -0.249 OA
ATOM     10  C   UNL A   1      39.099  22.345  26.222  1.00  0.00     0.319 C 
ATOM     11  N   UNL A   1      38.107  21.729  25.529  1.00  0.00    -0.308 N 
ATOM     12  H   UNL A   1      40.715  22.319  27.281  1.00  0.00     0.165 HD
ATOM     13  H   UNL A   1      38.121  20.765  25.332  1.00  0.00     0.171 HD
BRANCH  11  14
ATOM     14  C   UNL A   1      37.034  22.587  25.104  1.00  0.00     0.045 A 
ATOM     15  C   UNL A   1      36.771  22.755  23.738  1.00  0.00     0.026 A 
ATOM     16  C   UNL A   1      36.093  23.053  26.031  1.00  0.00     0.065 A 
ATOM     17  C   UNL A   1      35.549  23.304  23.309  1.00  0.00     0.005 A 
ATOM     18  C   UNL A   1      34.896  23.625  25.593  1.00  0.00     0.125 A 
ATOM     19  C   UNL A   1      34.605  23.734  24.240  1.00  0.00     0.039 A 
ATOM     20  F   UNL A   1      33.977  24.009  26.491  1.00  0.00    -0.207 F 
ENDBRANCH  11  14
ENDBRANCH   7   8
ENDBRANCH   6   7
ENDBRANCH   5   6
ENDBRANCH   4   5
ENDBRANCH   2   4
ENDBRANCH   1   2
BRANCH   1  21
ATOM     21  C   UNL A   1      45.945  21.567  24.704  1.00  0.00     0.274 C 
BRANCH  21  22
ATOM     22  C   UNL A   1      45.219  22.636  25.541  1.00  0.00     0.275 C 
BRANCH  22  23
ATOM     23  O   UNL A   1      44.410  23.529  24.732  1.00  0.00    -0.458 OA
BRANCH  23  24
ATOM     24  C   UNL A   1      44.642  24.828  25.012  1.00  0.00     0.338 C 
ATOM     25  O   UNL A   1      45.701  25.401  24.791  1.00  0.00    -0.246 OA
BRANCH  24  26
ATOM     26  C   UNL A   1      43.538  25.585  25.618  1.00  0.00     0.060 A 
ATOM     27  C   UNL A   1      43.753  26.954  25.839  1.00  0.00     0.016 A 
ATOM     28  C   UNL A   1      42.621  24.882  26.400  1.00  0.00     0.016 A 
ATOM     29  C   UNL A   1      43.196  27.577  26.961  1.00  0.00     0.010 A 
ATOM     30  C   UNL A   1      42.052  25.512  27.515  1.00  0.00     0.010 A 
ATOM     31  C   UNL A   1      42.398  26.836  27.854  1.00  0.00    -0.014 A 
BRANCH  31  32
ATOM     32  C   UNL A   1      41.711  27.499  28.988  1.00  0.00     0.031 A 
ATOM     33  C   UNL A   1      40.455  28.338  28.910  1.00  0.00     0.074 A 
ATOM     34  C   UNL A   1      42.398  27.393  30.134  1.00  0.00     0.049 A 
ATOM     35  N   UNL A   1      39.975  29.187  29.792  1.00  0.00    -0.248 NA
ATOM     36  C   UNL A   1      39.615  28.227  27.716  1.00  0.00     0.031 C 
ATOM     37  C   UNL A   1      43.617  26.593  30.297  1.00  0.00     0.029 A 
ATOM     38  N   UNL A   1      42.214  27.994  31.341  1.00  0.00    -0.354 N 
ATOM     39  C   UNL A   1      38.827  29.748  29.224  1.00  0.00     0.074 A 
ATOM     40  C   UNL A   1      38.680  29.148  27.920  1.00  0.00     0.031 C 
ATOM     41  C   UNL A   1      44.105  26.794  31.522  1.00  0.00     0.029 A 
ATOM     42  C   UNL A   1      43.256  27.762  32.198  1.00  0.00     0.049 A 
ATOM     43  H   UNL A   1      41.423  28.532  31.573  1.00  0.00     0.167 HD
ATOM     44  C   UNL A   1      37.969  30.655  29.759  1.00  0.00     0.031 A 
ATOM     45  C   UNL A   1      43.536  28.305  33.389  1.00  0.00     0.031 A 
ATOM     46  C   UNL A   1      38.085  31.146  31.114  1.00  0.00     0.049 A 
ATOM     47  C   UNL A   1      42.562  29.266  33.971  1.00  0.00     0.074 A 
ATOM     48  C   UNL A   1      37.218  31.967  31.816  1.00  0.00     0.029 A 
ATOM     49  N   UNL A   1      39.125  30.834  31.978  1.00  0.00    -0.354 N 
ATOM     50  N   UNL A   1      41.489  29.784  33.424  1.00  0.00    -0.248 NA
ATOM     51  C   UNL A   1      42.813  29.681  35.351  1.00  0.00     0.031 C 
ATOM     52  C   UNL A   1      37.761  32.195  33.085  1.00  0.00     0.029 A 
ATOM     53  C   UNL A   1      38.933  31.464  33.197  1.00  0.00     0.049 A 
ATOM     54  H   UNL A   1      39.887  30.251  31.757  1.00  0.00     0.167 HD
ATOM     55  C   UNL A   1      40.918  30.577  34.402  1.00  0.00     0.074 A 
ATOM     56  C   UNL A   1      41.755  30.445  35.582  1.00  0.00     0.031 C 
ATOM     57  C   UNL A   1      39.804  31.343  34.337  1.00  0.00     0.031 A 
BRANCH  44  58
ATOM     58  C   UNL A   1      36.823  31.197  28.926  1.00  0.00    -0.014 A 
ATOM     59  C   UNL A   1      35.700  30.421  28.593  1.00  0.00     0.009 A 
ATOM     60  C   UNL A   1      36.803  32.564  28.584  1.00  0.00     0.009 A 
ATOM     61  C   UNL A   1      34.608  30.989  27.924  1.00  0.00     0.001 A 
ATOM     62  C   UNL A   1      35.697  33.138  27.947  1.00  0.00     0.001 A 
ATOM     63  C   UNL A   1      34.602  32.348  27.610  1.00  0.00     0.000 A 
ENDBRANCH  44  58
BRANCH  45  64
ATOM     64  C   UNL A   1      44.767  27.862  34.074  1.00  0.00    -0.014 A 
ATOM     65  C   UNL A   1      45.927  28.642  33.986  1.00  0.00     0.009 A 
ATOM     66  C   UNL A   1      44.729  26.779  34.968  1.00  0.00     0.009 A 
ATOM     67  C   UNL A   1      47.031  28.345  34.784  1.00  0.00     0.001 A 
ATOM     68  C   UNL A   1      45.824  26.505  35.786  1.00  0.00     0.001 A 
ATOM     69  C   UNL A   1      46.974  27.286  35.690  1.00  0.00     0.000 A 
ENDBRANCH  45  64
BRANCH  57  70
ATOM     70  C   UNL A   1      39.448  32.091  35.587  1.00  0.00    -0.014 A 
ATOM     71  C   UNL A   1      38.576  31.532  36.534  1.00  0.00     0.009 A 
ATOM     72  C   UNL A   1      39.965  33.375  35.803  1.00  0.00     0.009 A 
ATOM     73  C   UNL A   1      38.183  32.271  37.648  1.00  0.00     0.001 A 
ATOM     74  C   UNL A   1      39.598  34.099  36.937  1.00  0.00     0.001 A 
ATOM     75  C   UNL A   1      38.694  33.552  37.849  1.00  0.00     0.000 A 
ENDBRANCH  57  70
ENDBRANCH  31  32
ENDBRANCH  24  26
ENDBRANCH  23  24
ENDBRANCH  22  23
ENDBRANCH  21  22
ENDBRANCH   1  21
TORSDOF 16
ENDMDL
MODEL 2
REMARK VINA RESULT:     -10.1      4.896      9.758
REMARK SMILES O=C(NCCOCC(=O)OCCOC(=O)c1ccc(-c2c3nc(c(-c4ccccc4)c4ccc([nH]4)c(-c4ccccc4)c4nc(c(-c5ccccc5)c5ccc2[nH]5)C=C4)C=C3)cc1)Nc1cccc(F)c1
REMARK SMILES IDX 10 1 8 2 9 3 7 4 6 5 5 6 4 7 3 8 1 9 2 10 64 11 65 14 66 15
REMARK SMILES IDX 71 16 67 17 69 18 68 19 70 20 11 21 12 22 13 23 14 24 15 25
REMARK SMILES IDX 16 26 17 27 63 28 18 29 62 30 19 31 20 32 21 33 56 34 22 35
REMARK SMILES IDX 61 36 55 37 57 38 23 39 60 40 54 41 53 42 24 44 46 45 31 46
REMARK SMILES IDX 45 47 32 48 35 49 44 50 58 51 33 52 34 53 43 55 59 56 36 57
REMARK SMILES IDX 25 58 26 59 30 60 27 61 29 62 28 63 47 64 48 65 52 66 49 67
REMARK SMILES IDX 51 68 50 69 37 70 38 71 42 72 39 73 41 74 40 75
REMARK H PARENT 3 12 64 13 57 43 35 54
REMARK Flexibility Score: inf
ROOT
ATOM      1  O   UNL A   1      32.639  28.631  26.407  1.00  0.00    -0.460 OA
ENDROOT
BRANCH   1   2
ATOM      2  C   UNL A   1      31.900  27.646  26.981  1.00  0.00     0.332 C 
ATOM      3  O   UNL A   1      31.192  27.801  27.973  1.00  0.00    -0.250 OA
BRANCH   2   4
ATOM      4  C   UNL A   1      31.937  26.307  26.205  1.00  0.00     0.282 C 
BRANCH   4   5
ATOM      5  O   UNL A   1      30.858  25.411  26.032  1.00  0.00    -0.368 OA
BRANCH   5   6
ATOM      6  C   UNL A   1      29.651  25.932  25.460  1.00  0.00     0.182 C 
BRANCH   6   7
ATOM      7  C   UNL A   1      29.578  25.931  23.915  1.00  0.00     0.146 C 
BRANCH   7   8
ATOM      8  N   UNL A   1      30.318  26.988  23.272  1.00  0.00    -0.336 N 
ATOM      9  O   UNL A   1      30.989  28.745  22.243  1.00  0.00    -0.249 OA
ATOM     10  C   UNL A   1      30.054  28.214  22.810  1.00  0.00     0.319 C 
ATOM     11  N   UNL A   1      28.886  28.878  23.012  1.00  0.00    -0.308 N 
ATOM     12  H   UNL A   1      31.262  26.742  23.137  1.00  0.00     0.165 HD
ATOM     13  H   UNL A   1      28.144  28.495  23.533  1.00  0.00     0.171 HD
BRANCH  11  14
ATOM     14  C   UNL A   1      28.811  30.182  22.410  1.00  0.00     0.045 A 
ATOM     15  C   UNL A   1      28.275  30.329  21.124  1.00  0.00     0.026 A 
ATOM     16  C   UNL A   1      29.028  31.330  23.184  1.00  0.00     0.065 A 
ATOM     17  C   UNL A   1      27.886  31.598  20.655  1.00  0.00     0.005 A 
ATOM     18  C   UNL A   1      28.666  32.587  22.694  1.00  0.00     0.125 A 
ATOM     19  C   UNL A   1      28.076  32.730  21.445  1.00  0.00     0.039 A 
ATOM     20  F   UNL A   1      28.822  33.671  23.469  1.00  0.00    -0.207 F 
ENDBRANCH  11  14
ENDBRANCH   7   8
ENDBRANCH   6   7
ENDBRANCH   5   6
ENDBRANCH   4   5
ENDBRANCH   2   4
ENDBRANCH   1   2
BRANCH   1  21
ATOM     21  C   UNL A   1      31.894  29.687  25.754  1.00  0.00     0.274 C 
BRANCH  21  22
ATOM     22  C   UNL A   1      31.979  31.014  26.529  1.00  0.00     0.275 C 
BRANCH  22  23
ATOM     23  O   UNL A   1      32.816  30.922  27.711  1.00  0.00    -0.458 OA
BRANCH  23  24
ATOM     24  C   UNL A   1      33.744  31.899  27.760  1.00  0.00     0.338 C 
ATOM     25  O   UNL A   1      33.484  33.090  27.866  1.00  0.00    -0.246 OA
BRANCH  24  26
ATOM     26  C   UNL A   1      35.151  31.483  27.683  1.00  0.00     0.060 A 
ATOM     27  C   UNL A   1      35.414  30.108  27.800  1.00  0.00     0.016 A 
ATOM     28  C   UNL A   1      36.124  32.417  28.037  1.00  0.00     0.016 A 
ATOM     29  C   UNL A   1      36.574  29.671  28.447  1.00  0.00     0.010 A 
ATOM     30  C   UNL A   1      37.294  31.976  28.671  1.00  0.00     0.010 A 
ATOM     31  C   UNL A   1      37.492  30.609  28.958  1.00  0.00    -0.014 A 
BRANCH  31  32
ATOM     32  C   UNL A   1      38.777  30.170  29.550  1.00  0.00     0.031 A 
ATOM     33  C   UNL A   1      39.769  29.209  28.932  1.00  0.00     0.074 A 
ATOM     34  C   UNL A   1      38.944  30.619  30.801  1.00  0.00     0.049 A 
ATOM     35  N   UNL A   1      40.750  28.551  29.511  1.00  0.00    -0.248 NA
ATOM     36  C   UNL A   1      39.678  28.941  27.495  1.00  0.00     0.031 C 
ATOM     37  C   UNL A   1      38.037  31.559  31.471  1.00  0.00     0.029 A 
ATOM     38  N   UNL A   1      39.877  30.311  31.743  1.00  0.00    -0.354 N 
ATOM     39  C   UNL A   1      41.334  27.753  28.523  1.00  0.00     0.074 A 
ATOM     40  C   UNL A   1      40.599  28.003  27.306  1.00  0.00     0.031 C 
ATOM     41  C   UNL A   1      38.428  31.711  32.736  1.00  0.00     0.029 A 
ATOM     42  C   UNL A   1      39.578  30.850  32.964  1.00  0.00     0.049 A 
ATOM     43  H   UNL A   1      40.676  29.763  31.565  1.00  0.00     0.167 HD
ATOM     44  C   UNL A   1      42.399  26.915  28.625  1.00  0.00     0.031 A 
ATOM     45  C   UNL A   1      40.135  30.641  34.163  1.00  0.00     0.031 A 
ATOM     46  C   UNL A   1      43.181  26.779  29.832  1.00  0.00     0.049 A 
ATOM     47  C   UNL A   1      41.323  29.751  34.243  1.00  0.00     0.074 A 
ATOM     48  C   UNL A   1      44.351  26.064  30.031  1.00  0.00     0.029 A 
ATOM     49  N   UNL A   1      42.883  27.397  31.038  1.00  0.00    -0.354 N 
ATOM     50  N   UNL A   1      41.858  29.007  33.306  1.00  0.00    -0.248 NA
ATOM     51  C   UNL A   1      42.011  29.709  35.533  1.00  0.00     0.031 C 
ATOM     52  C   UNL A   1      44.728  26.207  31.371  1.00  0.00     0.029 A 
ATOM     53  C   UNL A   1      43.832  27.063  31.989  1.00  0.00     0.049 A 
ATOM     54  H   UNL A   1      42.110  27.988  31.194  1.00  0.00     0.167 HD
ATOM     55  C   UNL A   1      42.966  28.416  33.886  1.00  0.00     0.074 A 
ATOM     56  C   UNL A   1      43.034  28.915  35.249  1.00  0.00     0.031 C 
ATOM     57  C   UNL A   1      43.849  27.544  33.346  1.00  0.00     0.031 A 
BRANCH  44  58
ATOM     58  C   UNL A   1      42.815  26.071  27.434  1.00  0.00    -0.014 A 
ATOM     59  C   UNL A   1      42.241  24.819  27.160  1.00  0.00     0.009 A 
ATOM     60  C   UNL A   1      43.707  26.609  26.485  1.00  0.00     0.009 A 
ATOM     61  C   UNL A   1      42.564  24.123  25.987  1.00  0.00     0.001 A 
ATOM     62  C   UNL A   1      44.002  25.929  25.299  1.00  0.00     0.001 A 
ATOM     63  C   UNL A   1      43.436  24.681  25.053  1.00  0.00     0.000 A 
ENDBRANCH  44  58
BRANCH  45  64
ATOM     64  C   UNL A   1      39.566  31.363  35.320  1.00  0.00    -0.014 A 
ATOM     65  C   UNL A   1      39.908  32.703  35.536  1.00  0.00     0.009 A 
ATOM     66  C   UNL A   1      38.539  30.780  36.082  1.00  0.00     0.009 A 
ATOM     67  C   UNL A   1      39.231  33.451  36.498  1.00  0.00     0.001 A 
ATOM     68  C   UNL A   1      37.844  31.541  37.021  1.00  0.00     0.001 A 
ATOM     69  C   UNL A   1      38.193  32.874  37.230  1.00  0.00     0.000 A 
ENDBRANCH  45  64
BRANCH  57  70
ATOM     70  C   UNL A   1      44.954  27.085  34.250  1.00  0.00    -0.014 A 
ATOM     71  C   UNL A   1      46.122  27.848  34.400  1.00  0.00     0.009 A 
ATOM     72  C   UNL A   1      44.837  25.867  34.933  1.00  0.00     0.009 A 
ATOM     73  C   UNL A   1      47.179  27.370  35.174  1.00  0.00     0.001 A 
ATOM     74  C   UNL A   1      45.881  25.407  35.734  1.00  0.00     0.001 A 
ATOM     75  C   UNL A   1      47.057  26.151  35.840  1.00  0.00     0.000 A 
ENDBRANCH  57  70
ENDBRANCH  31  32
ENDBRANCH  24  26
ENDBRANCH  23  24
ENDBRANCH  22  23
ENDBRANCH  21  22
ENDBRANCH   1  21
TORSDOF 16
ENDMDL
MODEL 3
REMARK VINA RESULT:      -9.9      5.194     11.484
REMARK SMILES O=C(NCCOCC(=O)OCCOC(=O)c1ccc(-c2c3nc(c(-c4ccccc4)c4ccc([nH]4)c(-c4ccccc4)c4nc(c(-c5ccccc5)c5ccc2[nH]5)C=C4)C=C3)cc1)Nc1cccc(F)c1
REMARK SMILES IDX 10 1 8 2 9 3 7 4 6 5 5 6 4 7 3 8 1 9 2 10 64 11 65 14 66 15
REMARK SMILES IDX 71 16 67 17 69 18 68 19 70 20 11 21 12 22 13 23 14 24 15 25
REMARK SMILES IDX 16 26 17 27 63 28 18 29 62 30 19 31 20 32 21 33 56 34 22 35
REMARK SMILES IDX 61 36 55 37 57 38 23 39 60 40 54 41 53 42 24 44 46 45 31 46
REMARK SMILES IDX 45 47 32 48 35 49 44 50 58 51 33 52 34 53 43 55 59 56 36 57
REMARK SMILES IDX 25 58 26 59 30 60 27 61 29 62 28 63 47 64 48 65 52 66 49 67
REMARK SMILES IDX 51 68 50 69 37 70 38 71 42 72 39 73 41 74 40 75
REMARK H PARENT 3 12 64 13 57 43 35 54
REMARK Flexibility Score: inf
ROOT
ATOM      1  O   UNL A   1      33.868  33.332  27.483  1.00  0.00    -0.460 OA
ENDROOT
BRANCH   1   2
ATOM      2  C   UNL A   1      34.209  33.817  28.705  1.00  0.00     0.332 C 
ATOM      3  O   UNL A   1      35.237  33.515  29.308  1.00  0.00    -0.250 OA
BRANCH   2   4
ATOM      4  C   UNL A   1      33.232  34.889  29.244  1.00  0.00     0.282 C 
BRANCH   4   5
ATOM      5  O   UNL A   1      32.847  35.069  30.592  1.00  0.00    -0.368 OA
BRANCH   5   6
ATOM      6  C   UNL A   1      32.431  36.380  30.993  1.00  0.00     0.182 C 
BRANCH   6   7
ATOM      7  C   UNL A   1      33.498  37.240  31.712  1.00  0.00     0.146 C 
BRANCH   7   8
ATOM      8  N   UNL A   1      34.083  36.629  32.880  1.00  0.00    -0.336 N 
ATOM      9  O   UNL A   1      35.065  35.373  34.314  1.00  0.00    -0.249 OA
ATOM     10  C   UNL A   1      34.887  35.591  33.131  1.00  0.00     0.319 C 
ATOM     11  N   UNL A   1      35.538  34.873  32.179  1.00  0.00    -0.308 N 
ATOM     12  H   UNL A   1      33.821  37.096  33.706  1.00  0.00     0.165 HD
ATOM     13  H   UNL A   1      35.466  35.081  31.219  1.00  0.00     0.171 HD
BRANCH  11  14
ATOM     14  C   UNL A   1      36.340  33.786  32.673  1.00  0.00     0.045 A 
ATOM     15  C   UNL A   1      35.833  32.480  32.658  1.00  0.00     0.026 A 
ATOM     16  C   UNL A   1      37.704  33.976  32.929  1.00  0.00     0.065 A 
ATOM     17  C   UNL A   1      36.696  31.380  32.815  1.00  0.00     0.005 A 
ATOM     18  C   UNL A   1      38.545  32.876  33.114  1.00  0.00     0.125 A 
ATOM     19  C   UNL A   1      38.058  31.578  33.037  1.00  0.00     0.039 A 
ATOM     20  F   UNL A   1      39.859  33.069  33.297  1.00  0.00    -0.207 F 
ENDBRANCH  11  14
ENDBRANCH   7   8
ENDBRANCH   6   7
ENDBRANCH   5   6
ENDBRANCH   4   5
ENDBRANCH   2   4
ENDBRANCH   1   2
BRANCH   1  21
ATOM     21  C   UNL A   1      32.618  32.603  27.414  1.00  0.00     0.274 C 
BRANCH  21  22
ATOM     22  C   UNL A   1      32.842  31.080  27.401  1.00  0.00     0.275 C 
BRANCH  22  23
ATOM     23  O   UNL A   1      34.124  30.705  26.837  1.00  0.00    -0.458 OA
BRANCH  23  24
ATOM     24  C   UNL A   1      34.717  29.709  27.527  1.00  0.00     0.338 C 
ATOM     25  O   UNL A   1      34.246  28.587  27.658  1.00  0.00    -0.246 OA
BRANCH  24  26
ATOM     26  C   UNL A   1      36.013  30.013  28.150  1.00  0.00     0.060 A 
ATOM     27  C   UNL A   1      37.093  30.251  27.285  1.00  0.00     0.016 A 
ATOM     28  C   UNL A   1      36.239  29.539  29.442  1.00  0.00     0.016 A 
ATOM     29  C   UNL A   1      38.380  29.838  27.643  1.00  0.00     0.010 A 
ATOM     30  C   UNL A   1      37.532  29.139  29.805  1.00  0.00     0.010 A 
ATOM     31  C   UNL A   1      38.597  29.206  28.883  1.00  0.00    -0.014 A 
BRANCH  31  32
ATOM     32  C   UNL A   1      39.967  28.858  29.329  1.00  0.00     0.031 A 
ATOM     33  C   UNL A   1      40.987  29.806  29.918  1.00  0.00     0.074 A 
ATOM     34  C   UNL A   1      40.293  27.591  29.037  1.00  0.00     0.049 A 
ATOM     35  N   UNL A   1      42.287  29.643  30.045  1.00  0.00    -0.248 NA
ATOM     36  C   UNL A   1      40.524  31.092  30.441  1.00  0.00     0.031 C 
ATOM     37  C   UNL A   1      39.362  26.606  28.475  1.00  0.00     0.029 A 
ATOM     38  N   UNL A   1      41.484  26.937  29.111  1.00  0.00    -0.354 N 
ATOM     39  C   UNL A   1      42.786  30.828  30.595  1.00  0.00     0.074 A 
ATOM     40  C   UNL A   1      41.654  31.705  30.776  1.00  0.00     0.031 C 
ATOM     41  C   UNL A   1      40.031  25.485  28.203  1.00  0.00     0.029 A 
ATOM     42  C   UNL A   1      41.431  25.698  28.535  1.00  0.00     0.049 A 
ATOM     43  H   UNL A   1      42.291  27.312  29.532  1.00  0.00     0.167 HD
ATOM     44  C   UNL A   1      44.064  31.134  30.938  1.00  0.00     0.031 A 
ATOM     45  C   UNL A   1      42.411  24.831  28.251  1.00  0.00     0.031 A 
ATOM     46  C   UNL A   1      45.152  30.187  30.850  1.00  0.00     0.049 A 
ATOM     47  C   UNL A   1      43.795  25.172  28.671  1.00  0.00     0.074 A 
ATOM     48  C   UNL A   1      46.462  30.329  31.278  1.00  0.00     0.029 A 
ATOM     49  N   UNL A   1      45.043  28.910  30.318  1.00  0.00    -0.354 N 
ATOM     50  N   UNL A   1      44.248  26.289  29.185  1.00  0.00    -0.248 NA
ATOM     51  C   UNL A   1      44.794  24.115  28.516  1.00  0.00     0.031 C 
ATOM     52  C   UNL A   1      47.157  29.158  30.956  1.00  0.00     0.029 A 
ATOM     53  C   UNL A   1      46.266  28.263  30.386  1.00  0.00     0.049 A 
ATOM     54  H   UNL A   1      44.218  28.521  29.947  1.00  0.00     0.167 HD
ATOM     55  C   UNL A   1      45.590  26.068  29.436  1.00  0.00     0.074 A 
ATOM     56  C   UNL A   1      45.863  24.696  29.040  1.00  0.00     0.031 C 
ATOM     57  C   UNL A   1      46.514  26.914  29.949  1.00  0.00     0.031 A 
BRANCH  44  58
ATOM     58  C   UNL A   1      44.400  32.525  31.445  1.00  0.00    -0.014 A 
ATOM     59  C   UNL A   1      44.722  33.584  30.580  1.00  0.00     0.009 A 
ATOM     60  C   UNL A   1      44.253  32.815  32.815  1.00  0.00     0.009 A 
ATOM     61  C   UNL A   1      44.909  34.882  31.075  1.00  0.00     0.001 A 
ATOM     62  C   UNL A   1      44.406  34.117  33.303  1.00  0.00     0.001 A 
ATOM     63  C   UNL A   1      44.742  35.150  32.434  1.00  0.00     0.000 A 
ENDBRANCH  44  58
BRANCH  45  64
ATOM     64  C   UNL A   1      42.037  23.562  27.593  1.00  0.00    -0.014 A 
ATOM     65  C   UNL A   1      42.317  23.379  26.234  1.00  0.00     0.009 A 
ATOM     66  C   UNL A   1      41.588  22.473  28.360  1.00  0.00     0.009 A 
ATOM     67  C   UNL A   1      42.155  22.123  25.650  1.00  0.00     0.001 A 
ATOM     68  C   UNL A   1      41.458  21.212  27.779  1.00  0.00     0.001 A 
ATOM     69  C   UNL A   1      41.737  21.040  26.425  1.00  0.00     0.000 A 
ENDBRANCH  45  64
BRANCH  57  70
ATOM     70  C   UNL A   1      47.900  26.360  30.098  1.00  0.00    -0.014 A 
ATOM     71  C   UNL A   1      48.317  25.786  31.308  1.00  0.00     0.009 A 
ATOM     72  C   UNL A   1      48.803  26.441  29.029  1.00  0.00     0.009 A 
ATOM     73  C   UNL A   1      49.633  25.355  31.464  1.00  0.00     0.001 A 
ATOM     74  C   UNL A   1      50.109  25.977  29.176  1.00  0.00     0.001 A 
ATOM     75  C   UNL A   1      50.527  25.450  30.398  1.00  0.00     0.000 A 
ENDBRANCH  57  70
ENDBRANCH  31  32
ENDBRANCH  24  26
ENDBRANCH  23  24
ENDBRANCH  22  23
ENDBRANCH  21  22
ENDBRANCH   1  21
TORSDOF 16
ENDMDL
