MODEL 1
REMARK VINA RESULT:     -10.9      0.000      0.000
REMARK SMILES Cc1ccc(N2CC[C@H]([NH+]3CCOCC3)[C@H](CCC(=O)OCCOC(=O)c3ccc(-c4c5nc(c(-c6ccccc6)c6ccc([nH]6)c(-c6ccccc6)c6nc(c(-c7ccccc7)c7ccc4[nH]7)C=C6)C=C5)cc3)C2)nc1
REMARK SMILES IDX 22 1 21 2 19 3 20 4 18 5 17 6 16 7 6 8 7 9 75 10 8 11 9 12
REMARK SMILES IDX 5 13 1 14 2 15 3 16 77 17 4 18 76 19 10 20 11 21 15 22 12 24
REMARK SMILES IDX 14 25 13 26 23 27 24 28 25 29 26 30 27 31 28 32 74 33 29 34
REMARK SMILES IDX 73 35 30 36 31 37 32 38 67 39 33 40 72 41 66 42 68 43 34 44
REMARK SMILES IDX 71 45 65 46 64 47 35 49 57 50 42 51 56 52 43 53 46 54 55 55
REMARK SMILES IDX 69 56 44 57 45 58 54 60 70 61 47 62 36 63 37 64 41 65 38 66
REMARK SMILES IDX 40 67 39 68 58 69 59 70 63 71 60 72 62 73 61 74 48 75 49 76
REMARK SMILES IDX 53 77 50 78 52 79 51 80
REMARK H PARENT 10 23 68 48 46 59
REMARK Flexibility Score: inf
ROOT
ATOM      1  C   UNL A   1      31.798  29.660  26.860  1.00  0.00     0.274 C 
ENDROOT
BRANCH   1   2
ATOM      2  O   UNL A   1      31.811  28.596  25.893  1.00  0.00    -0.462 OA
BRANCH   2   3
ATOM      3  C   UNL A   1      31.772  27.342  26.410  1.00  0.00     0.305 C 
ATOM      4  O   UNL A   1      30.779  26.793  26.873  1.00  0.00    -0.252 OA
BRANCH   3   5
ATOM      5  C   UNL A   1      33.052  26.600  26.130  1.00  0.00     0.123 C 
BRANCH   5   6
ATOM      6  C   UNL A   1      33.683  26.699  24.753  1.00  0.00     0.023 C 
BRANCH   6   7
ATOM      7  C   UNL A   1      33.974  25.438  23.908  1.00  0.00     0.067 C 
ATOM      8  N   UNL A   1      31.824  25.489  22.647  1.00  0.00    -0.356 N 
ATOM      9  C   UNL A   1      31.371  24.213  23.183  1.00  0.00     0.124 C 
ATOM     10  C   UNL A   1      33.271  25.662  22.527  1.00  0.00     0.127 C 
ATOM     11  C   UNL A   1      31.993  23.949  24.552  1.00  0.00     0.087 C 
ATOM     12  C   UNL A   1      33.523  24.024  24.444  1.00  0.00     0.190 C 
BRANCH   8  13
ATOM     13  C   UNL A   1      30.978  26.569  22.838  1.00  0.00     0.128 A 
ATOM     14  C   UNL A   1      28.088  29.705  23.125  1.00  0.00     0.046 C 
ATOM     15  C   UNL A   1      29.136  28.645  23.025  1.00  0.00    -0.033 A 
ATOM     16  C   UNL A   1      30.375  28.873  22.436  1.00  0.00     0.009 A 
ATOM     17  C   UNL A   1      28.911  27.379  23.537  1.00  0.00     0.117 A 
ATOM     18  C   UNL A   1      31.305  27.831  22.351  1.00  0.00     0.047 A 
ATOM     19  N   UNL A   1      29.787  26.354  23.441  1.00  0.00    -0.239 NA
ENDBRANCH   8  13
BRANCH  12  20
ATOM     20  N   UNL A   1      34.291  23.431  25.558  1.00  0.00    -0.328 N 
ATOM     21  C   UNL A   1      35.765  23.558  25.413  1.00  0.00     0.291 C 
ATOM     22  C   UNL A   1      33.990  22.071  26.013  1.00  0.00     0.291 C 
ATOM     23  H   UNL A   1      33.928  24.034  26.297  1.00  0.00     0.348 HD
ATOM     24  C   UNL A   1      36.500  22.360  24.769  1.00  0.00     0.221 C 
ATOM     25  C   UNL A   1      34.733  20.928  25.316  1.00  0.00     0.221 C 
ATOM     26  O   UNL A   1      36.146  21.119  25.381  1.00  0.00    -0.370 OA
ENDBRANCH  12  20
ENDBRANCH   6   7
ENDBRANCH   5   6
ENDBRANCH   3   5
ENDBRANCH   2   3
ENDBRANCH   1   2
BRANCH   1  27
ATOM     27  C   UNL A   1      33.112  30.435  26.762  1.00  0.00     0.275 C 
BRANCH  27  28
ATOM     28  O   UNL A   1      34.100  29.841  27.628  1.00  0.00    -0.458 OA
BRANCH  28  29
ATOM     29  C   UNL A   1      34.793  30.708  28.403  1.00  0.00     0.338 C 
ATOM     30  O   UNL A   1      34.382  31.721  28.944  1.00  0.00    -0.246 OA
BRANCH  29  31
ATOM     31  C   UNL A   1      36.183  30.245  28.543  1.00  0.00     0.060 A 
ATOM     32  C   UNL A   1      37.052  30.293  27.452  1.00  0.00     0.016 A 
ATOM     33  C   UNL A   1      36.587  29.654  29.739  1.00  0.00     0.016 A 
ATOM     34  C   UNL A   1      38.302  29.690  27.529  1.00  0.00     0.010 A 
ATOM     35  C   UNL A   1      37.884  29.148  29.849  1.00  0.00     0.010 A 
ATOM     36  C   UNL A   1      38.749  29.152  28.741  1.00  0.00    -0.014 A 
BRANCH  36  37
ATOM     37  C   UNL A   1      40.134  28.633  28.865  1.00  0.00     0.031 A 
ATOM     38  C   UNL A   1      41.257  29.551  29.251  1.00  0.00     0.074 A 
ATOM     39  C   UNL A   1      40.382  27.337  28.596  1.00  0.00     0.049 A 
ATOM     40  N   UNL A   1      42.547  29.345  29.191  1.00  0.00    -0.248 NA
ATOM     41  C   UNL A   1      40.881  30.878  29.764  1.00  0.00     0.031 C 
ATOM     42  C   UNL A   1      39.373  26.328  28.262  1.00  0.00     0.029 A 
ATOM     43  N   UNL A   1      41.566  26.644  28.556  1.00  0.00    -0.354 N 
ATOM     44  C   UNL A   1      43.139  30.532  29.606  1.00  0.00     0.074 A 
ATOM     45  C   UNL A   1      42.066  31.451  29.922  1.00  0.00     0.031 C 
ATOM     46  C   UNL A   1      39.976  25.144  28.079  1.00  0.00     0.029 A 
ATOM     47  C   UNL A   1      41.416  25.330  28.184  1.00  0.00     0.049 A 
ATOM     48  H   UNL A   1      42.437  27.049  28.772  1.00  0.00     0.167 HD
ATOM     49  C   UNL A   1      44.457  30.825  29.701  1.00  0.00     0.031 A 
ATOM     50  C   UNL A   1      42.335  24.390  27.898  1.00  0.00     0.031 A 
ATOM     51  C   UNL A   1      45.513  29.893  29.406  1.00  0.00     0.049 A 
ATOM     52  C   UNL A   1      43.786  24.760  27.940  1.00  0.00     0.074 A 
ATOM     53  C   UNL A   1      46.882  30.085  29.482  1.00  0.00     0.029 A 
ATOM     54  N   UNL A   1      45.316  28.589  28.983  1.00  0.00    -0.354 N 
ATOM     55  N   UNL A   1      44.335  25.902  28.279  1.00  0.00    -0.248 NA
ATOM     56  C   UNL A   1      44.743  23.725  27.529  1.00  0.00     0.031 C 
ATOM     57  C   UNL A   1      47.512  28.908  29.063  1.00  0.00     0.029 A 
ATOM     58  C   UNL A   1      46.535  27.970  28.768  1.00  0.00     0.049 A 
ATOM     59  H   UNL A   1      44.436  28.163  28.853  1.00  0.00     0.167 HD
ATOM     60  C   UNL A   1      45.701  25.725  28.120  1.00  0.00     0.074 A 
ATOM     61  C   UNL A   1      45.898  24.357  27.680  1.00  0.00     0.031 C 
ATOM     62  C   UNL A   1      46.703  26.615  28.313  1.00  0.00     0.031 A 
BRANCH  49  63
ATOM     63  C   UNL A   1      44.828  32.226  30.094  1.00  0.00    -0.014 A 
ATOM     64  C   UNL A   1      44.974  33.243  29.139  1.00  0.00     0.009 A 
ATOM     65  C   UNL A   1      45.005  32.538  31.451  1.00  0.00     0.009 A 
ATOM     66  C   UNL A   1      45.320  34.538  29.535  1.00  0.00     0.001 A 
ATOM     67  C   UNL A   1      45.329  33.837  31.846  1.00  0.00     0.001 A 
ATOM     68  C   UNL A   1      45.494  34.834  30.886  1.00  0.00     0.000 A 
ENDBRANCH  49  63
BRANCH  50  69
ATOM     69  C   UNL A   1      41.898  23.037  27.469  1.00  0.00    -0.014 A 
ATOM     70  C   UNL A   1      41.795  22.720  26.108  1.00  0.00     0.009 A 
ATOM     71  C   UNL A   1      41.607  22.047  28.422  1.00  0.00     0.009 A 
ATOM     72  C   UNL A   1      41.400  21.439  25.711  1.00  0.00     0.001 A 
ATOM     73  C   UNL A   1      41.240  20.762  28.022  1.00  0.00     0.001 A 
ATOM     74  C   UNL A   1      41.131  20.460  26.667  1.00  0.00     0.000 A 
ENDBRANCH  50  69
BRANCH  62  75
ATOM     75  C   UNL A   1      48.096  26.127  28.051  1.00  0.00    -0.014 A 
ATOM     76  C   UNL A   1      48.872  25.583  29.086  1.00  0.00     0.009 A 
ATOM     77  C   UNL A   1      48.626  26.190  26.755  1.00  0.00     0.009 A 
ATOM     78  C   UNL A   1      50.168  25.134  28.830  1.00  0.00     0.001 A 
ATOM     79  C   UNL A   1      49.915  25.720  26.498  1.00  0.00     0.001 A 
ATOM     80  C   UNL A   1      50.687  25.201  27.536  1.00  0.00     0.000 A 
ENDBRANCH  62  75
ENDBRANCH  36  37
ENDBRANCH  29  31
ENDBRANCH  28  29
ENDBRANCH  27  28
ENDBRANCH   1  27
TORSDOF 15
ENDMDL
MODEL 2
REMARK VINA RESULT:     -10.8      3.763      8.276
REMARK SMILES Cc1ccc(N2CC[C@H]([NH+]3CCOCC3)[C@H](CCC(=O)OCCOC(=O)c3ccc(-c4c5nc(c(-c6ccccc6)c6ccc([nH]6)c(-c6ccccc6)c6nc(c(-c7ccccc7)c7ccc4[nH]7)C=C6)C=C5)cc3)C2)nc1
REMARK SMILES IDX 22 1 21 2 19 3 20 4 18 5 17 6 16 7 6 8 7 9 75 10 8 11 9 12
REMARK SMILES IDX 5 13 1 14 2 15 3 16 77 17 4 18 76 19 10 20 11 21 15 22 12 24
REMARK SMILES IDX 14 25 13 26 23 27 24 28 25 29 26 30 27 31 28 32 74 33 29 34
REMARK SMILES IDX 73 35 30 36 31 37 32 38 67 39 33 40 72 41 66 42 68 43 34 44
REMARK SMILES IDX 71 45 65 46 64 47 35 49 57 50 42 51 56 52 43 53 46 54 55 55
REMARK SMILES IDX 69 56 44 57 45 58 54 60 70 61 47 62 36 63 37 64 41 65 38 66
REMARK SMILES IDX 40 67 39 68 58 69 59 70 63 71 60 72 62 73 61 74 48 75 49 76
REMARK SMILES IDX 53 77 50 78 52 79 51 80
REMARK H PARENT 10 23 68 48 46 59
REMARK Flexibility Score: inf
ROOT
ATOM      1  C   UNL A   1      32.308  31.444  27.048  1.00  0.00     0.274 C 
ENDROOT
BRANCH   1   2
ATOM      2  O   UNL A   1      33.593  30.833  26.841  1.00  0.00    -0.462 OA
BRANCH   2   3
ATOM      3  C   UNL A   1      33.606  29.477  26.893  1.00  0.00     0.305 C 
ATOM      4  O   UNL A   1      33.205  28.797  27.830  1.00  0.00    -0.252 OA
BRANCH   3   5
ATOM      5  C   UNL A   1      33.954  28.887  25.552  1.00  0.00     0.123 C 
BRANCH   5   6
ATOM      6  C   UNL A   1      32.919  28.899  24.443  1.00  0.00     0.023 C 
BRANCH   6   7
ATOM      7  C   UNL A   1      31.411  28.758  24.747  1.00  0.00     0.067 C 
ATOM      8  N   UNL A   1      31.330  26.286  24.430  1.00  0.00    -0.356 N 
ATOM      9  C   UNL A   1      30.416  26.366  23.300  1.00  0.00     0.124 C 
ATOM     10  C   UNL A   1      31.227  27.356  25.421  1.00  0.00     0.127 C 
ATOM     11  C   UNL A   1      30.570  27.699  22.572  1.00  0.00     0.087 C 
ATOM     12  C   UNL A   1      30.368  28.853  23.565  1.00  0.00     0.190 C 
BRANCH   8  13
ATOM     13  C   UNL A   1      32.521  25.615  24.209  1.00  0.00     0.128 A 
ATOM     14  C   UNL A   1      35.947  23.167  23.471  1.00  0.00     0.046 C 
ATOM     15  C   UNL A   1      34.776  24.046  23.767  1.00  0.00    -0.033 A 
ATOM     16  C   UNL A   1      34.544  24.582  25.030  1.00  0.00     0.009 A 
ATOM     17  C   UNL A   1      33.871  24.376  22.773  1.00  0.00     0.117 A 
ATOM     18  C   UNL A   1      33.415  25.378  25.249  1.00  0.00     0.047 A 
ATOM     19  N   UNL A   1      32.763  25.124  22.972  1.00  0.00    -0.239 NA
ENDBRANCH   8  13
BRANCH  12  20
ATOM     20  N   UNL A   1      30.106  30.185  22.982  1.00  0.00    -0.328 N 
ATOM     21  C   UNL A   1      29.273  31.069  23.840  1.00  0.00     0.291 C 
ATOM     22  C   UNL A   1      29.625  30.299  21.603  1.00  0.00     0.291 C 
ATOM     23  H   UNL A   1      31.076  30.498  22.942  1.00  0.00     0.348 HD
ATOM     24  C   UNL A   1      27.753  31.066  23.561  1.00  0.00     0.221 C 
ATOM     25  C   UNL A   1      28.109  30.262  21.393  1.00  0.00     0.221 C 
ATOM     26  O   UNL A   1      27.459  31.262  22.178  1.00  0.00    -0.370 OA
ENDBRANCH  12  20
ENDBRANCH   6   7
ENDBRANCH   5   6
ENDBRANCH   3   5
ENDBRANCH   2   3
ENDBRANCH   1   2
BRANCH   1  27
ATOM     27  C   UNL A   1      32.462  32.963  26.969  1.00  0.00     0.275 C 
BRANCH  27  28
ATOM     28  O   UNL A   1      32.184  33.554  28.256  1.00  0.00    -0.458 OA
BRANCH  28  29
ATOM     29  C   UNL A   1      33.028  34.540  28.638  1.00  0.00     0.338 C 
ATOM     30  O   UNL A   1      32.816  35.741  28.658  1.00  0.00    -0.246 OA
BRANCH  29  31
ATOM     31  C   UNL A   1      34.306  33.956  29.076  1.00  0.00     0.060 A 
ATOM     32  C   UNL A   1      34.335  33.035  30.123  1.00  0.00     0.016 A 
ATOM     33  C   UNL A   1      35.495  34.419  28.513  1.00  0.00     0.016 A 
ATOM     34  C   UNL A   1      35.550  32.623  30.659  1.00  0.00     0.010 A 
ATOM     35  C   UNL A   1      36.713  33.918  28.978  1.00  0.00     0.010 A 
ATOM     36  C   UNL A   1      36.751  33.024  30.063  1.00  0.00    -0.014 A 
BRANCH  36  37
ATOM     37  C   UNL A   1      38.045  32.478  30.542  1.00  0.00     0.031 A 
ATOM     38  C   UNL A   1      38.634  31.253  29.906  1.00  0.00     0.074 A 
ATOM     39  C   UNL A   1      38.672  33.070  31.578  1.00  0.00     0.049 A 
ATOM     40  N   UNL A   1      39.620  30.501  30.323  1.00  0.00    -0.248 NA
ATOM     41  C   UNL A   1      38.031  30.809  28.639  1.00  0.00     0.031 C 
ATOM     42  C   UNL A   1      38.233  34.296  32.250  1.00  0.00     0.029 A 
ATOM     43  N   UNL A   1      39.814  32.716  32.250  1.00  0.00    -0.354 N 
ATOM     44  C   UNL A   1      39.721  29.466  29.401  1.00  0.00     0.074 A 
ATOM     45  C   UNL A   1      38.701  29.691  28.399  1.00  0.00     0.031 C 
ATOM     46  C   UNL A   1      39.108  34.607  33.218  1.00  0.00     0.029 A 
ATOM     47  C   UNL A   1      40.109  33.553  33.300  1.00  0.00     0.049 A 
ATOM     48  H   UNL A   1      40.367  31.939  32.006  1.00  0.00     0.167 HD
ATOM     49  C   UNL A   1      40.582  28.421  29.403  1.00  0.00     0.031 A 
ATOM     50  C   UNL A   1      41.044  33.455  34.262  1.00  0.00     0.031 A 
ATOM     51  C   UNL A   1      41.607  28.222  30.393  1.00  0.00     0.049 A 
ATOM     52  C   UNL A   1      41.936  32.252  34.284  1.00  0.00     0.074 A 
ATOM     53  C   UNL A   1      42.539  27.203  30.481  1.00  0.00     0.029 A 
ATOM     54  N   UNL A   1      41.836  29.067  31.468  1.00  0.00    -0.354 N 
ATOM     55  N   UNL A   1      41.988  31.249  33.440  1.00  0.00    -0.248 NA
ATOM     56  C   UNL A   1      42.876  32.148  35.407  1.00  0.00     0.031 C 
ATOM     57  C   UNL A   1      43.306  27.409  31.633  1.00  0.00     0.029 A 
ATOM     58  C   UNL A   1      42.878  28.580  32.238  1.00  0.00     0.049 A 
ATOM     59  H   UNL A   1      41.333  29.892  31.655  1.00  0.00     0.167 HD
ATOM     60  C   UNL A   1      42.962  30.394  33.930  1.00  0.00     0.074 A 
ATOM     61  C   UNL A   1      43.495  31.009  35.131  1.00  0.00     0.031 C 
ATOM     62  C   UNL A   1      43.376  29.202  33.438  1.00  0.00     0.031 A 
BRANCH  49  63
ATOM     63  C   UNL A   1      40.415  27.386  28.328  1.00  0.00    -0.014 A 
ATOM     64  C   UNL A   1      41.084  27.488  27.099  1.00  0.00     0.009 A 
ATOM     65  C   UNL A   1      39.594  26.272  28.564  1.00  0.00     0.009 A 
ATOM     66  C   UNL A   1      40.908  26.509  26.117  1.00  0.00     0.001 A 
ATOM     67  C   UNL A   1      39.437  25.285  27.590  1.00  0.00     0.001 A 
ATOM     68  C   UNL A   1      40.088  25.409  26.364  1.00  0.00     0.000 A 
ENDBRANCH  49  63
BRANCH  50  69
ATOM     69  C   UNL A   1      41.122  34.491  35.323  1.00  0.00    -0.014 A 
ATOM     70  C   UNL A   1      40.328  34.392  36.474  1.00  0.00     0.009 A 
ATOM     71  C   UNL A   1      42.011  35.571  35.201  1.00  0.00     0.009 A 
ATOM     72  C   UNL A   1      40.419  35.359  37.478  1.00  0.00     0.001 A 
ATOM     73  C   UNL A   1      42.120  36.520  36.217  1.00  0.00     0.001 A 
ATOM     74  C   UNL A   1      41.319  36.417  37.353  1.00  0.00     0.000 A 
ENDBRANCH  50  69
BRANCH  62  75
ATOM     75  C   UNL A   1      44.456  28.497  34.200  1.00  0.00    -0.014 A 
ATOM     76  C   UNL A   1      44.138  27.582  35.216  1.00  0.00     0.009 A 
ATOM     77  C   UNL A   1      45.802  28.733  33.885  1.00  0.00     0.009 A 
ATOM     78  C   UNL A   1      45.154  26.935  35.921  1.00  0.00     0.001 A 
ATOM     79  C   UNL A   1      46.814  28.067  34.578  1.00  0.00     0.001 A 
ATOM     80  C   UNL A   1      46.490  27.176  35.599  1.00  0.00     0.000 A 
ENDBRANCH  62  75
ENDBRANCH  36  37
ENDBRANCH  29  31
ENDBRANCH  28  29
ENDBRANCH  27  28
ENDBRANCH   1  27
TORSDOF 15
ENDMDL
MODEL 3
REMARK VINA RESULT:     -10.7      1.960      7.860
REMARK SMILES Cc1ccc(N2CC[C@H]([NH+]3CCOCC3)[C@H](CCC(=O)OCCOC(=O)c3ccc(-c4c5nc(c(-c6ccccc6)c6ccc([nH]6)c(-c6ccccc6)c6nc(c(-c7ccccc7)c7ccc4[nH]7)C=C6)C=C5)cc3)C2)nc1
REMARK SMILES IDX 22 1 21 2 19 3 20 4 18 5 17 6 16 7 6 8 7 9 75 10 8 11 9 12
REMARK SMILES IDX 5 13 1 14 2 15 3 16 77 17 4 18 76 19 10 20 11 21 15 22 12 24
REMARK SMILES IDX 14 25 13 26 23 27 24 28 25 29 26 30 27 31 28 32 74 33 29 34
REMARK SMILES IDX 73 35 30 36 31 37 32 38 67 39 33 40 72 41 66 42 68 43 34 44
REMARK SMILES IDX 71 45 65 46 64 47 35 49 57 50 42 51 56 52 43 53 46 54 55 55
REMARK SMILES IDX 69 56 44 57 45 58 54 60 70 61 47 62 36 63 37 64 41 65 38 66
REMARK SMILES IDX 40 67 39 68 58 69 59 70 63 71 60 72 62 73 61 74 48 75 49 76
REMARK SMILES IDX 53 77 50 78 52 79 51 80
REMARK H PARENT 10 23 68 48 46 59
REMARK Flexibility Score: inf
ROOT
ATOM      1  C   UNL A   1      38.117  20.752  25.119  1.00  0.00     0.274 C 
ENDROOT
BRANCH   1   2
ATOM      2  O   UNL A   1      37.168  21.638  25.737  1.00  0.00    -0.462 OA
BRANCH   2   3
ATOM      3  C   UNL A   1      37.215  22.926  25.312  1.00  0.00     0.305 C 
ATOM      4  O   UNL A   1      37.747  23.854  25.910  1.00  0.00    -0.252 OA
BRANCH   3   5
ATOM      5  C   UNL A   1      36.739  23.045  23.888  1.00  0.00     0.123 C 
BRANCH   5   6
ATOM      6  C   UNL A   1      35.253  22.963  23.592  1.00  0.00     0.023 C 
BRANCH   6   7
ATOM      7  C   UNL A   1      34.224  23.781  24.404  1.00  0.00     0.067 C 
ATOM      8  N   UNL A   1      32.684  21.869  24.839  1.00  0.00    -0.356 N 
ATOM      9  C   UNL A   1      31.581  22.467  24.100  1.00  0.00     0.124 C 
ATOM     10  C   UNL A   1      33.622  22.800  25.466  1.00  0.00     0.127 C 
ATOM     11  C   UNL A   1      32.102  23.410  23.019  1.00  0.00     0.087 C 
ATOM     12  C   UNL A   1      33.015  24.468  23.656  1.00  0.00     0.190 C 
BRANCH   8  13
ATOM     13  C   UNL A   1      33.079  20.605  24.435  1.00  0.00     0.128 A 
ATOM     14  C   UNL A   1      33.955  16.541  23.441  1.00  0.00     0.046 C 
ATOM     15  C   UNL A   1      33.700  17.970  23.794  1.00  0.00    -0.033 A 
ATOM     16  C   UNL A   1      34.565  18.708  24.596  1.00  0.00     0.009 A 
ATOM     17  C   UNL A   1      32.579  18.627  23.315  1.00  0.00     0.117 A 
ATOM     18  C   UNL A   1      34.257  20.035  24.910  1.00  0.00     0.047 A 
ATOM     19  N   UNL A   1      32.253  19.900  23.628  1.00  0.00    -0.239 NA
ENDBRANCH   8  13
BRANCH  12  20
ATOM     20  N   UNL A   1      33.299  25.669  22.843  1.00  0.00    -0.328 N 
ATOM     21  C   UNL A   1      33.636  26.876  23.642  1.00  0.00     0.291 C 
ATOM     22  C   UNL A   1      32.375  26.066  21.777  1.00  0.00     0.291 C 
ATOM     23  H   UNL A   1      34.113  25.299  22.351  1.00  0.00     0.348 HD
ATOM     24  C   UNL A   1      32.468  27.835  23.966  1.00  0.00     0.221 C 
ATOM     25  C   UNL A   1      31.225  26.997  22.170  1.00  0.00     0.221 C 
ATOM     26  O   UNL A   1      31.715  28.179  22.802  1.00  0.00    -0.370 OA
ENDBRANCH  12  20
ENDBRANCH   6   7
ENDBRANCH   5   6
ENDBRANCH   3   5
ENDBRANCH   2   3
ENDBRANCH   1   2
BRANCH   1  27
ATOM     27  C   UNL A   1      39.362  20.664  26.002  1.00  0.00     0.275 C 
BRANCH  27  28
ATOM     28  O   UNL A   1      40.025  19.400  25.794  1.00  0.00    -0.458 OA
BRANCH  28  29
ATOM     29  C   UNL A   1      41.367  19.409  25.975  1.00  0.00     0.338 C 
ATOM     30  O   UNL A   1      42.154  18.498  25.784  1.00  0.00    -0.246 OA
BRANCH  29  31
ATOM     31  C   UNL A   1      41.794  20.739  26.438  1.00  0.00     0.060 A 
ATOM     32  C   UNL A   1      42.070  21.749  25.515  1.00  0.00     0.016 A 
ATOM     33  C   UNL A   1      42.031  20.944  27.797  1.00  0.00     0.016 A 
ATOM     34  C   UNL A   1      42.648  22.941  25.936  1.00  0.00     0.010 A 
ATOM     35  C   UNL A   1      42.506  22.184  28.229  1.00  0.00     0.010 A 
ATOM     36  C   UNL A   1      42.829  23.190  27.301  1.00  0.00    -0.014 A 
BRANCH  36  37
ATOM     37  C   UNL A   1      43.314  24.513  27.765  1.00  0.00     0.031 A 
ATOM     38  C   UNL A   1      42.342  25.557  28.234  1.00  0.00     0.074 A 
ATOM     39  C   UNL A   1      44.633  24.785  27.729  1.00  0.00     0.049 A 
ATOM     40  N   UNL A   1      42.544  26.830  28.457  1.00  0.00    -0.248 NA
ATOM     41  C   UNL A   1      40.961  25.113  28.476  1.00  0.00     0.031 C 
ATOM     42  C   UNL A   1      45.687  23.841  27.345  1.00  0.00     0.029 A 
ATOM     43  N   UNL A   1      45.315  25.940  28.017  1.00  0.00    -0.354 N 
ATOM     44  C   UNL A   1      41.307  27.351  28.813  1.00  0.00     0.074 A 
ATOM     45  C   UNL A   1      40.361  26.255  28.784  1.00  0.00     0.031 C 
ATOM     46  C   UNL A   1      46.880  24.446  27.448  1.00  0.00     0.029 A 
ATOM     47  C   UNL A   1      46.669  25.841  27.806  1.00  0.00     0.049 A 
ATOM     48  H   UNL A   1      44.877  26.760  28.342  1.00  0.00     0.167 HD
ATOM     49  C   UNL A   1      40.992  28.631  29.124  1.00  0.00     0.031 A 
ATOM     50  C   UNL A   1      47.632  26.780  27.837  1.00  0.00     0.031 A 
ATOM     51  C   UNL A   1      41.947  29.707  29.172  1.00  0.00     0.049 A 
ATOM     52  C   UNL A   1      47.247  28.202  28.112  1.00  0.00     0.074 A 
ATOM     53  C   UNL A   1      41.735  31.037  29.487  1.00  0.00     0.029 A 
ATOM     54  N   UNL A   1      43.299  29.571  28.900  1.00  0.00    -0.354 N 
ATOM     55  N   UNL A   1      46.065  28.696  28.392  1.00  0.00    -0.248 NA
ATOM     56  C   UNL A   1      48.321  29.200  28.042  1.00  0.00     0.031 C 
ATOM     57  C   UNL A   1      42.953  31.715  29.366  1.00  0.00     0.029 A 
ATOM     58  C   UNL A   1      43.931  30.797  29.016  1.00  0.00     0.049 A 
ATOM     59  H   UNL A   1      43.745  28.726  28.661  1.00  0.00     0.167 HD
ATOM     60  C   UNL A   1      46.251  30.062  28.530  1.00  0.00     0.074 A 
ATOM     61  C   UNL A   1      47.665  30.316  28.329  1.00  0.00     0.031 C 
ATOM     62  C   UNL A   1      45.334  31.025  28.792  1.00  0.00     0.031 A 
BRANCH  49  63
ATOM     63  C   UNL A   1      39.547  28.944  29.386  1.00  0.00    -0.014 A 
ATOM     64  C   UNL A   1      38.969  28.749  30.649  1.00  0.00     0.009 A 
ATOM     65  C   UNL A   1      38.758  29.472  28.351  1.00  0.00     0.009 A 
ATOM     66  C   UNL A   1      37.621  29.049  30.862  1.00  0.00     0.001 A 
ATOM     67  C   UNL A   1      37.417  29.791  28.573  1.00  0.00     0.001 A 
ATOM     68  C   UNL A   1      36.848  29.572  29.826  1.00  0.00     0.000 A 
ENDBRANCH  49  63
BRANCH  50  69
ATOM     69  C   UNL A   1      49.035  26.409  27.521  1.00  0.00    -0.014 A 
ATOM     70  C   UNL A   1      49.906  25.990  28.535  1.00  0.00     0.009 A 
ATOM     71  C   UNL A   1      49.500  26.447  26.196  1.00  0.00     0.009 A 
ATOM     72  C   UNL A   1      51.220  25.625  28.229  1.00  0.00     0.001 A 
ATOM     73  C   UNL A   1      50.803  26.055  25.890  1.00  0.00     0.001 A 
ATOM     74  C   UNL A   1      51.665  25.650  26.907  1.00  0.00     0.000 A 
ENDBRANCH  50  69
BRANCH  62  75
ATOM     75  C   UNL A   1      45.842  32.432  28.877  1.00  0.00    -0.014 A 
ATOM     76  C   UNL A   1      45.910  33.240  27.732  1.00  0.00     0.009 A 
ATOM     77  C   UNL A   1      46.234  32.960  30.116  1.00  0.00     0.009 A 
ATOM     78  C   UNL A   1      46.387  34.549  27.824  1.00  0.00     0.001 A 
ATOM     79  C   UNL A   1      46.691  34.276  30.207  1.00  0.00     0.001 A 
ATOM     80  C   UNL A   1      46.775  35.065  29.061  1.00  0.00     0.000 A 
ENDBRANCH  62  75
ENDBRANCH  36  37
ENDBRANCH  29  31
ENDBRANCH  28  29
ENDBRANCH  27  28
ENDBRANCH   1  27
TORSDOF 15
ENDMDL
