MODEL 1
REMARK VINA RESULT:      -8.7      0.000      0.000
REMARK SMILES CC(C)Cc1ccc([C@@H](C)C(=O)OCCOC(=O)c2ccc(-c3c4nc(c(-c5ccccc5)c5ccc([nH]5)c(-c5ccccc5)c5nc(c(-c6ccccc6)c6ccc3[nH]6)C=C5)C=C4)cc2)cc1
REMARK SMILES IDX 14 1 13 2 11 3 12 4 9 5 10 6 8 7 5 8 6 9 68 10 7 11 67 12
REMARK SMILES IDX 4 13 2 14 1 15 3 16 15 17 16 18 17 19 18 20 19 21 20 22
REMARK SMILES IDX 66 23 21 24 65 25 22 26 23 27 24 28 59 29 25 30 64 31 58 32
REMARK SMILES IDX 60 33 26 34 63 35 57 36 56 37 27 39 49 40 34 41 48 42 35 43
REMARK SMILES IDX 38 44 47 45 61 46 36 47 37 48 46 50 62 51 39 52 28 53 29 54
REMARK SMILES IDX 33 55 30 56 32 57 31 58 50 59 51 60 55 61 52 62 54 63 53 64
REMARK SMILES IDX 40 65 41 66 45 67 42 68 44 69 43 70
REMARK H PARENT 60 38 38 49
REMARK Flexibility Score: inf
ROOT
ATOM      1  C   UNL A   1      42.349  19.770  26.249  1.00  0.00     0.274 C 
ENDROOT
BRANCH   1   2
ATOM      2  O   UNL A   1      43.026  20.648  25.330  1.00  0.00    -0.462 OA
BRANCH   2   3
ATOM      3  C   UNL A   1      44.380  20.554  25.280  1.00  0.00     0.313 C 
ATOM      4  O   UNL A   1      45.006  19.507  25.426  1.00  0.00    -0.252 OA
BRANCH   3   5
ATOM      5  C   UNL A   1      45.080  21.891  25.084  1.00  0.00     0.126 C 
ATOM      6  C   UNL A   1      46.349  21.700  24.256  1.00  0.00     0.025 C 
BRANCH   5   7
ATOM      7  C   UNL A   1      45.329  22.705  26.344  1.00  0.00    -0.034 A 
ATOM      8  C   UNL A   1      45.650  24.311  28.645  1.00  0.00    -0.048 A 
ATOM      9  C   UNL A   1      46.547  24.413  27.575  1.00  0.00     0.004 A 
ATOM     10  C   UNL A   1      44.622  23.369  28.579  1.00  0.00     0.004 A 
ATOM     11  C   UNL A   1      46.387  23.620  26.437  1.00  0.00     0.005 A 
ATOM     12  C   UNL A   1      44.458  22.582  27.439  1.00  0.00     0.005 A 
BRANCH   8  13
ATOM     13  C   UNL A   1      45.741  25.265  29.812  1.00  0.00     0.038 C 
BRANCH  13  14
ATOM     14  C   UNL A   1      44.447  25.280  30.652  1.00  0.00    -0.013 C 
ATOM     15  C   UNL A   1      44.693  24.857  32.105  1.00  0.00     0.008 C 
ATOM     16  C   UNL A   1      43.815  26.672  30.621  1.00  0.00     0.008 C 
ENDBRANCH  13  14
ENDBRANCH   8  13
ENDBRANCH   5   7
ENDBRANCH   3   5
ENDBRANCH   2   3
ENDBRANCH   1   2
BRANCH   1  17
ATOM     17  C   UNL A   1      40.881  19.582  25.862  1.00  0.00     0.275 C 
BRANCH  17  18
ATOM     18  O   UNL A   1      40.014  20.304  26.758  1.00  0.00    -0.458 OA
BRANCH  18  19
ATOM     19  C   UNL A   1      39.299  21.297  26.182  1.00  0.00     0.338 C 
ATOM     20  O   UNL A   1      38.391  21.192  25.377  1.00  0.00    -0.246 OA
BRANCH  19  21
ATOM     21  C   UNL A   1      39.702  22.592  26.747  1.00  0.00     0.060 A 
ATOM     22  C   UNL A   1      39.194  23.749  26.151  1.00  0.00     0.016 A 
ATOM     23  C   UNL A   1      40.661  22.677  27.756  1.00  0.00     0.016 A 
ATOM     24  C   UNL A   1      39.673  24.999  26.529  1.00  0.00     0.010 A 
ATOM     25  C   UNL A   1      41.134  23.936  28.146  1.00  0.00     0.010 A 
ATOM     26  C   UNL A   1      40.665  25.101  27.512  1.00  0.00    -0.014 A 
BRANCH  26  27
ATOM     27  C   UNL A   1      41.263  26.427  27.800  1.00  0.00     0.031 A 
ATOM     28  C   UNL A   1      42.575  26.805  27.171  1.00  0.00     0.074 A 
ATOM     29  C   UNL A   1      40.608  27.309  28.577  1.00  0.00     0.049 A 
ATOM     30  N   UNL A   1      43.258  27.915  27.293  1.00  0.00    -0.248 NA
ATOM     31  C   UNL A   1      43.201  25.805  26.292  1.00  0.00     0.031 C 
ATOM     32  C   UNL A   1      39.313  27.077  29.218  1.00  0.00     0.029 A 
ATOM     33  N   UNL A   1      40.945  28.585  28.951  1.00  0.00    -0.354 N 
ATOM     34  C   UNL A   1      44.404  27.739  26.527  1.00  0.00     0.074 A 
ATOM     35  C   UNL A   1      44.330  26.412  25.953  1.00  0.00     0.031 C 
ATOM     36  C   UNL A   1      38.961  28.180  29.900  1.00  0.00     0.029 A 
ATOM     37  C   UNL A   1      40.015  29.182  29.767  1.00  0.00     0.049 A 
ATOM     38  H   UNL A   1      41.775  29.030  28.663  1.00  0.00     0.167 HD
ATOM     39  C   UNL A   1      45.426  28.602  26.320  1.00  0.00     0.031 A 
ATOM     40  C   UNL A   1      40.019  30.395  30.350  1.00  0.00     0.031 A 
ATOM     41  C   UNL A   1      45.497  29.929  26.868  1.00  0.00     0.049 A 
ATOM     42  C   UNL A   1      41.175  31.327  30.114  1.00  0.00     0.074 A 
ATOM     43  C   UNL A   1      46.484  30.884  26.690  1.00  0.00     0.029 A 
ATOM     44  N   UNL A   1      44.542  30.490  27.700  1.00  0.00    -0.354 N 
ATOM     45  N   UNL A   1      42.240  31.151  29.371  1.00  0.00    -0.248 NA
ATOM     46  C   UNL A   1      41.123  32.629  30.795  1.00  0.00     0.031 C 
ATOM     47  C   UNL A   1      46.141  32.013  27.443  1.00  0.00     0.029 A 
ATOM     48  C   UNL A   1      44.924  31.771  28.058  1.00  0.00     0.049 A 
ATOM     49  H   UNL A   1      43.715  30.043  27.994  1.00  0.00     0.167 HD
ATOM     50  C   UNL A   1      42.973  32.326  29.478  1.00  0.00     0.074 A 
ATOM     51  C   UNL A   1      42.223  33.213  30.344  1.00  0.00     0.031 C 
ATOM     52  C   UNL A   1      44.164  32.641  28.915  1.00  0.00     0.031 A 
BRANCH  39  53
ATOM     53  C   UNL A   1      46.574  28.125  25.479  1.00  0.00    -0.014 A 
ATOM     54  C   UNL A   1      46.535  28.206  24.079  1.00  0.00     0.009 A 
ATOM     55  C   UNL A   1      47.728  27.627  26.103  1.00  0.00     0.009 A 
ATOM     56  C   UNL A   1      47.626  27.776  23.320  1.00  0.00     0.001 A 
ATOM     57  C   UNL A   1      48.823  27.217  25.342  1.00  0.00     0.001 A 
ATOM     58  C   UNL A   1      48.769  27.286  23.951  1.00  0.00     0.000 A 
ENDBRANCH  39  53
BRANCH  40  59
ATOM     59  C   UNL A   1      38.898  30.803  31.233  1.00  0.00    -0.014 A 
ATOM     60  C   UNL A   1      38.911  30.487  32.599  1.00  0.00     0.009 A 
ATOM     61  C   UNL A   1      37.788  31.478  30.701  1.00  0.00     0.009 A 
ATOM     62  C   UNL A   1      37.823  30.814  33.410  1.00  0.00     0.001 A 
ATOM     63  C   UNL A   1      36.713  31.826  31.520  1.00  0.00     0.001 A 
ATOM     64  C   UNL A   1      36.726  31.484  32.870  1.00  0.00     0.000 A 
ENDBRANCH  40  59
BRANCH  52  65
ATOM     65  C   UNL A   1      44.707  34.012  29.192  1.00  0.00    -0.014 A 
ATOM     66  C   UNL A   1      44.372  35.103  28.374  1.00  0.00     0.009 A 
ATOM     67  C   UNL A   1      45.545  34.219  30.298  1.00  0.00     0.009 A 
ATOM     68  C   UNL A   1      44.898  36.368  28.639  1.00  0.00     0.001 A 
ATOM     69  C   UNL A   1      46.050  35.490  30.573  1.00  0.00     0.001 A 
ATOM     70  C   UNL A   1      45.734  36.561  29.739  1.00  0.00     0.000 A 
ENDBRANCH  52  65
ENDBRANCH  26  27
ENDBRANCH  19  21
ENDBRANCH  18  19
ENDBRANCH  17  18
ENDBRANCH   1  17
TORSDOF 14
ENDMDL
MODEL 2
REMARK VINA RESULT:      -8.5      2.244      3.139
REMARK SMILES CC(C)Cc1ccc([C@@H](C)C(=O)OCCOC(=O)c2ccc(-c3c4nc(c(-c5ccccc5)c5ccc([nH]5)c(-c5ccccc5)c5nc(c(-c6ccccc6)c6ccc3[nH]6)C=C5)C=C4)cc2)cc1
REMARK SMILES IDX 14 1 13 2 11 3 12 4 9 5 10 6 8 7 5 8 6 9 68 10 7 11 67 12
REMARK SMILES IDX 4 13 2 14 1 15 3 16 15 17 16 18 17 19 18 20 19 21 20 22
REMARK SMILES IDX 66 23 21 24 65 25 22 26 23 27 24 28 59 29 25 30 64 31 58 32
REMARK SMILES IDX 60 33 26 34 63 35 57 36 56 37 27 39 49 40 34 41 48 42 35 43
REMARK SMILES IDX 38 44 47 45 61 46 36 47 37 48 46 50 62 51 39 52 28 53 29 54
REMARK SMILES IDX 33 55 30 56 32 57 31 58 50 59 51 60 55 61 52 62 54 63 53 64
REMARK SMILES IDX 40 65 41 66 45 67 42 68 44 69 43 70
REMARK H PARENT 60 38 38 49
REMARK Flexibility Score: inf
ROOT
ATOM      1  C   UNL A   1      42.102  20.488  26.025  1.00  0.00     0.274 C 
ENDROOT
BRANCH   1   2
ATOM      2  O   UNL A   1      42.423  21.653  25.242  1.00  0.00    -0.462 OA
BRANCH   2   3
ATOM      3  C   UNL A   1      43.692  22.127  25.345  1.00  0.00     0.313 C 
ATOM      4  O   UNL A   1      44.694  21.499  25.013  1.00  0.00    -0.252 OA
BRANCH   3   5
ATOM      5  C   UNL A   1      43.780  23.510  25.974  1.00  0.00     0.126 C 
ATOM      6  C   UNL A   1      44.812  24.357  25.233  1.00  0.00     0.025 C 
BRANCH   5   7
ATOM      7  C   UNL A   1      43.977  23.546  27.482  1.00  0.00    -0.034 A 
ATOM      8  C   UNL A   1      44.235  23.750  30.287  1.00  0.00    -0.048 A 
ATOM      9  C   UNL A   1      45.305  24.083  29.448  1.00  0.00     0.004 A 
ATOM     10  C   UNL A   1      43.054  23.268  29.719  1.00  0.00     0.004 A 
ATOM     11  C   UNL A   1      45.176  23.984  28.061  1.00  0.00     0.005 A 
ATOM     12  C   UNL A   1      42.924  23.176  28.332  1.00  0.00     0.005 A 
BRANCH   8  13
ATOM     13  C   UNL A   1      44.327  23.990  31.774  1.00  0.00     0.038 C 
BRANCH  13  14
ATOM     14  C   UNL A   1      45.039  25.319  32.105  1.00  0.00    -0.013 C 
ATOM     15  C   UNL A   1      44.068  26.381  32.634  1.00  0.00     0.008 C 
ATOM     16  C   UNL A   1      46.150  25.082  33.128  1.00  0.00     0.008 C 
ENDBRANCH  13  14
ENDBRANCH   8  13
ENDBRANCH   5   7
ENDBRANCH   3   5
ENDBRANCH   2   3
ENDBRANCH   1   2
BRANCH   1  17
ATOM     17  C   UNL A   1      40.640  20.504  26.474  1.00  0.00     0.275 C 
BRANCH  17  18
ATOM     18  O   UNL A   1      40.315  21.744  27.132  1.00  0.00    -0.458 OA
BRANCH  18  19
ATOM     19  C   UNL A   1      39.465  22.545  26.450  1.00  0.00     0.338 C 
ATOM     20  O   UNL A   1      38.661  22.224  25.594  1.00  0.00    -0.246 OA
BRANCH  19  21
ATOM     21  C   UNL A   1      39.560  23.920  26.962  1.00  0.00     0.060 A 
ATOM     22  C   UNL A   1      40.206  24.868  26.165  1.00  0.00     0.016 A 
ATOM     23  C   UNL A   1      39.141  24.244  28.252  1.00  0.00     0.016 A 
ATOM     24  C   UNL A   1      40.478  26.136  26.668  1.00  0.00     0.010 A 
ATOM     25  C   UNL A   1      39.404  25.525  28.754  1.00  0.00     0.010 A 
ATOM     26  C   UNL A   1      40.101  26.467  27.976  1.00  0.00    -0.014 A 
BRANCH  26  27
ATOM     27  C   UNL A   1      40.524  27.771  28.541  1.00  0.00     0.031 A 
ATOM     28  C   UNL A   1      41.973  28.008  28.866  1.00  0.00     0.074 A 
ATOM     29  C   UNL A   1      39.624  28.757  28.713  1.00  0.00     0.049 A 
ATOM     30  N   UNL A   1      42.543  29.077  29.361  1.00  0.00    -0.248 NA
ATOM     31  C   UNL A   1      42.901  26.897  28.600  1.00  0.00     0.031 C 
ATOM     32  C   UNL A   1      38.197  28.665  28.404  1.00  0.00     0.029 A 
ATOM     33  N   UNL A   1      39.786  30.035  29.183  1.00  0.00    -0.354 N 
ATOM     34  C   UNL A   1      43.890  28.761  29.489  1.00  0.00     0.074 A 
ATOM     35  C   UNL A   1      44.051  27.398  29.030  1.00  0.00     0.031 C 
ATOM     36  C   UNL A   1      37.614  29.843  28.685  1.00  0.00     0.029 A 
ATOM     37  C   UNL A   1      38.619  30.758  29.219  1.00  0.00     0.049 A 
ATOM     38  H   UNL A   1      40.655  30.399  29.468  1.00  0.00     0.167 HD
ATOM     39  C   UNL A   1      44.901  29.535  29.947  1.00  0.00     0.031 A 
ATOM     40  C   UNL A   1      38.386  32.014  29.644  1.00  0.00     0.031 A 
ATOM     41  C   UNL A   1      44.754  30.897  30.385  1.00  0.00     0.049 A 
ATOM     42  C   UNL A   1      39.527  32.844  30.162  1.00  0.00     0.074 A 
ATOM     43  C   UNL A   1      45.729  31.766  30.842  1.00  0.00     0.029 A 
ATOM     44  N   UNL A   1      43.554  31.587  30.419  1.00  0.00    -0.354 N 
ATOM     45  N   UNL A   1      40.797  32.537  30.258  1.00  0.00    -0.248 NA
ATOM     46  C   UNL A   1      39.198  34.201  30.627  1.00  0.00     0.031 C 
ATOM     47  C   UNL A   1      45.113  32.975  31.184  1.00  0.00     0.029 A 
ATOM     48  C   UNL A   1      43.761  32.866  30.905  1.00  0.00     0.049 A 
ATOM     49  H   UNL A   1      42.683  31.222  30.140  1.00  0.00     0.167 HD
ATOM     50  C   UNL A   1      41.421  33.666  30.772  1.00  0.00     0.074 A 
ATOM     51  C   UNL A   1      40.393  34.671  30.952  1.00  0.00     0.031 C 
ATOM     52  C   UNL A   1      42.729  33.854  31.073  1.00  0.00     0.031 A 
BRANCH  39  53
ATOM     53  C   UNL A   1      46.265  28.914  30.026  1.00  0.00    -0.014 A 
ATOM     54  C   UNL A   1      47.118  28.885  28.913  1.00  0.00     0.009 A 
ATOM     55  C   UNL A   1      46.717  28.389  31.247  1.00  0.00     0.009 A 
ATOM     56  C   UNL A   1      48.392  28.322  29.018  1.00  0.00     0.001 A 
ATOM     57  C   UNL A   1      47.997  27.845  31.353  1.00  0.00     0.001 A 
ATOM     58  C   UNL A   1      48.832  27.806  30.237  1.00  0.00     0.000 A 
ENDBRANCH  39  53
BRANCH  40  59
ATOM     59  C   UNL A   1      37.009  32.568  29.617  1.00  0.00    -0.014 A 
ATOM     60  C   UNL A   1      36.582  33.374  28.552  1.00  0.00     0.009 A 
ATOM     61  C   UNL A   1      36.126  32.320  30.680  1.00  0.00     0.009 A 
ATOM     62  C   UNL A   1      35.309  33.946  28.565  1.00  0.00     0.001 A 
ATOM     63  C   UNL A   1      34.845  32.873  30.679  1.00  0.00     0.001 A 
ATOM     64  C   UNL A   1      34.441  33.693  29.628  1.00  0.00     0.000 A 
ENDBRANCH  40  59
BRANCH  52  65
ATOM     65  C   UNL A   1      43.120  35.205  31.595  1.00  0.00    -0.014 A 
ATOM     66  C   UNL A   1      43.044  35.502  32.965  1.00  0.00     0.009 A 
ATOM     67  C   UNL A   1      43.590  36.185  30.708  1.00  0.00     0.009 A 
ATOM     68  C   UNL A   1      43.398  36.769  33.430  1.00  0.00     0.001 A 
ATOM     69  C   UNL A   1      43.965  37.443  31.180  1.00  0.00     0.001 A 
ATOM     70  C   UNL A   1      43.861  37.737  32.539  1.00  0.00     0.000 A 
ENDBRANCH  52  65
ENDBRANCH  26  27
ENDBRANCH  19  21
ENDBRANCH  18  19
ENDBRANCH  17  18
ENDBRANCH   1  17
TORSDOF 14
ENDMDL
MODEL 3
REMARK VINA RESULT:      -8.5      4.470     10.656
REMARK SMILES CC(C)Cc1ccc([C@@H](C)C(=O)OCCOC(=O)c2ccc(-c3c4nc(c(-c5ccccc5)c5ccc([nH]5)c(-c5ccccc5)c5nc(c(-c6ccccc6)c6ccc3[nH]6)C=C5)C=C4)cc2)cc1
REMARK SMILES IDX 14 1 13 2 11 3 12 4 9 5 10 6 8 7 5 8 6 9 68 10 7 11 67 12
REMARK SMILES IDX 4 13 2 14 1 15 3 16 15 17 16 18 17 19 18 20 19 21 20 22
REMARK SMILES IDX 66 23 21 24 65 25 22 26 23 27 24 28 59 29 25 30 64 31 58 32
REMARK SMILES IDX 60 33 26 34 63 35 57 36 56 37 27 39 49 40 34 41 48 42 35 43
REMARK SMILES IDX 38 44 47 45 61 46 36 47 37 48 46 50 62 51 39 52 28 53 29 54
REMARK SMILES IDX 33 55 30 56 32 57 31 58 50 59 51 60 55 61 52 62 54 63 53 64
REMARK SMILES IDX 40 65 41 66 45 67 42 68 44 69 43 70
REMARK H PARENT 60 38 38 49
REMARK Flexibility Score: inf
ROOT
ATOM      1  C   UNL A   1      33.218  34.425  29.062  1.00  0.00     0.274 C 
ENDROOT
BRANCH   1   2
ATOM      2  O   UNL A   1      34.431  34.586  29.823  1.00  0.00    -0.462 OA
BRANCH   2   3
ATOM      3  C   UNL A   1      34.434  34.078  31.082  1.00  0.00     0.313 C 
ATOM      4  O   UNL A   1      33.617  34.375  31.950  1.00  0.00    -0.252 OA
BRANCH   3   5
ATOM      5  C   UNL A   1      35.595  33.133  31.359  1.00  0.00     0.126 C 
ATOM      6  C   UNL A   1      35.561  32.676  32.816  1.00  0.00     0.025 C 
BRANCH   5   7
ATOM      7  C   UNL A   1      36.971  33.626  30.940  1.00  0.00    -0.034 A 
ATOM      8  C   UNL A   1      39.578  34.373  30.149  1.00  0.00    -0.048 A 
ATOM      9  C   UNL A   1      39.137  34.604  31.458  1.00  0.00     0.004 A 
ATOM     10  C   UNL A   1      38.693  33.813  29.226  1.00  0.00     0.004 A 
ATOM     11  C   UNL A   1      37.849  34.232  31.848  1.00  0.00     0.005 A 
ATOM     12  C   UNL A   1      37.408  33.435  29.619  1.00  0.00     0.005 A 
BRANCH   8  13
ATOM     13  C   UNL A   1      41.012  34.646  29.767  1.00  0.00     0.038 C 
BRANCH  13  14
ATOM     14  C   UNL A   1      42.008  34.026  30.769  1.00  0.00    -0.013 C 
ATOM     15  C   UNL A   1      42.646  32.739  30.232  1.00  0.00     0.008 C 
ATOM     16  C   UNL A   1      43.102  35.035  31.119  1.00  0.00     0.008 C 
ENDBRANCH  13  14
ENDBRANCH   8  13
ENDBRANCH   5   7
ENDBRANCH   3   5
ENDBRANCH   2   3
ENDBRANCH   1   2
BRANCH   1  17
ATOM     17  C   UNL A   1      33.448  33.554  27.826  1.00  0.00     0.275 C 
BRANCH  17  18
ATOM     18  O   UNL A   1      34.597  32.702  28.000  1.00  0.00    -0.458 OA
BRANCH  18  19
ATOM     19  C   UNL A   1      34.331  31.376  27.987  1.00  0.00     0.338 C 
ATOM     20  O   UNL A   1      33.283  30.829  27.697  1.00  0.00    -0.246 OA
BRANCH  19  21
ATOM     21  C   UNL A   1      35.556  30.621  28.286  1.00  0.00     0.060 A 
ATOM     22  C   UNL A   1      35.628  29.959  29.514  1.00  0.00     0.016 A 
ATOM     23  C   UNL A   1      36.662  30.667  27.439  1.00  0.00     0.016 A 
ATOM     24  C   UNL A   1      36.822  29.375  29.925  1.00  0.00     0.010 A 
ATOM     25  C   UNL A   1      37.860  30.068  27.847  1.00  0.00     0.010 A 
ATOM     26  C   UNL A   1      37.955  29.446  29.105  1.00  0.00    -0.014 A 
BRANCH  26  27
ATOM     27  C   UNL A   1      39.252  28.944  29.619  1.00  0.00     0.031 A 
ATOM     28  C   UNL A   1      39.886  29.602  30.813  1.00  0.00     0.074 A 
ATOM     29  C   UNL A   1      39.831  27.868  29.055  1.00  0.00     0.049 A 
ATOM     30  N   UNL A   1      41.010  29.310  31.416  1.00  0.00    -0.248 NA
ATOM     31  C   UNL A   1      39.162  30.739  31.405  1.00  0.00     0.031 C 
ATOM     32  C   UNL A   1      39.301  27.120  27.915  1.00  0.00     0.029 A 
ATOM     33  N   UNL A   1      40.995  27.217  29.374  1.00  0.00    -0.354 N 
ATOM     34  C   UNL A   1      41.141  30.239  32.441  1.00  0.00     0.074 A 
ATOM     35  C   UNL A   1      39.988  31.111  32.373  1.00  0.00     0.031 C 
ATOM     36  C   UNL A   1      40.135  26.102  27.637  1.00  0.00     0.029 A 
ATOM     37  C   UNL A   1      41.267  26.147  28.557  1.00  0.00     0.049 A 
ATOM     38  H   UNL A   1      41.580  27.490  30.118  1.00  0.00     0.167 HD
ATOM     39  C   UNL A   1      42.131  30.356  33.356  1.00  0.00     0.031 A 
ATOM     40  C   UNL A   1      42.318  25.305  28.546  1.00  0.00     0.031 A 
ATOM     41  C   UNL A   1      43.269  29.481  33.445  1.00  0.00     0.049 A 
ATOM     42  C   UNL A   1      43.410  25.470  29.565  1.00  0.00     0.074 A 
ATOM     43  C   UNL A   1      44.310  29.510  34.357  1.00  0.00     0.029 A 
ATOM     44  N   UNL A   1      43.515  28.420  32.590  1.00  0.00    -0.354 N 
ATOM     45  N   UNL A   1      43.508  26.340  30.539  1.00  0.00    -0.248 NA
ATOM     46  C   UNL A   1      44.536  24.527  29.484  1.00  0.00     0.031 C 
ATOM     47  C   UNL A   1      45.204  28.484  34.034  1.00  0.00     0.029 A 
ATOM     48  C   UNL A   1      44.698  27.796  32.942  1.00  0.00     0.049 A 
ATOM     49  H   UNL A   1      42.934  28.150  31.842  1.00  0.00     0.167 HD
ATOM     50  C   UNL A   1      44.692  26.038  31.199  1.00  0.00     0.074 A 
ATOM     51  C   UNL A   1      45.269  24.893  30.525  1.00  0.00     0.031 C 
ATOM     52  C   UNL A   1      45.255  26.656  32.265  1.00  0.00     0.031 A 
BRANCH  39  53
ATOM     53  C   UNL A   1      42.043  31.497  34.328  1.00  0.00    -0.014 A 
ATOM     54  C   UNL A   1      42.585  32.755  34.025  1.00  0.00     0.009 A 
ATOM     55  C   UNL A   1      41.368  31.318  35.545  1.00  0.00     0.009 A 
ATOM     56  C   UNL A   1      42.469  33.807  34.937  1.00  0.00     0.001 A 
ATOM     57  C   UNL A   1      41.237  32.377  36.444  1.00  0.00     0.001 A 
ATOM     58  C   UNL A   1      41.793  33.619  36.142  1.00  0.00     0.000 A 
ENDBRANCH  39  53
BRANCH  40  59
ATOM     59  C   UNL A   1      42.404  24.233  27.523  1.00  0.00    -0.014 A 
ATOM     60  C   UNL A   1      43.032  24.468  26.291  1.00  0.00     0.009 A 
ATOM     61  C   UNL A   1      41.822  22.978  27.762  1.00  0.00     0.009 A 
ATOM     62  C   UNL A   1      43.050  23.477  25.307  1.00  0.00     0.001 A 
ATOM     63  C   UNL A   1      41.864  21.981  26.786  1.00  0.00     0.001 A 
ATOM     64  C   UNL A   1      42.468  22.234  25.557  1.00  0.00     0.000 A 
ENDBRANCH  40  59
BRANCH  52  65
ATOM     65  C   UNL A   1      46.541  26.082  32.783  1.00  0.00    -0.014 A 
ATOM     66  C   UNL A   1      46.544  25.105  33.791  1.00  0.00     0.009 A 
ATOM     67  C   UNL A   1      47.762  26.509  32.242  1.00  0.00     0.009 A 
ATOM     68  C   UNL A   1      47.750  24.593  34.271  1.00  0.00     0.001 A 
ATOM     69  C   UNL A   1      48.966  25.979  32.709  1.00  0.00     0.001 A 
ATOM     70  C   UNL A   1      48.959  25.028  33.728  1.00  0.00     0.000 A 
ENDBRANCH  52  65
ENDBRANCH  26  27
ENDBRANCH  19  21
ENDBRANCH  18  19
ENDBRANCH  17  18
ENDBRANCH   1  17
TORSDOF 14
ENDMDL
