MODEL 1
REMARK VINA RESULT:     -10.4      0.000      0.000
REMARK SMILES CC(=O)c1nnn(-c2ccc(C(=O)OCCOC(=O)c3ccc(-c4c5nc(c(-c6ccccc6)c6ccc([nH]6)c(-c6ccccc6)c6nc(c(-c7ccccc7)c7ccc4[nH]7)C=C6)C=C5)cc3)cc2)c1C
REMARK SMILES IDX 15 1 14 2 12 3 13 4 11 5 8 6 9 7 69 8 10 9 68 10 7 11 4 12
REMARK SMILES IDX 5 13 70 14 6 15 71 16 2 17 1 18 3 19 16 20 17 21 18 22 19 23
REMARK SMILES IDX 20 24 21 25 67 26 22 27 66 28 23 29 24 30 25 31 60 32 26 33
REMARK SMILES IDX 65 34 59 35 61 36 27 37 64 38 58 39 57 40 28 42 50 43 35 44
REMARK SMILES IDX 49 45 36 46 39 47 48 48 62 49 37 50 38 51 47 53 63 54 40 55
REMARK SMILES IDX 29 56 30 57 34 58 31 59 33 60 32 61 51 62 52 63 56 64 53 65
REMARK SMILES IDX 55 66 54 67 41 68 42 69 46 70 43 71 45 72 44 73
REMARK H PARENT 61 41 39 52
REMARK Flexibility Score: inf
ROOT
ATOM      1  C   UNL A   1      33.638  35.419  28.878  1.00  0.00     0.275 C 
ENDROOT
BRANCH   1   2
ATOM      2  O   UNL A   1      32.709  34.970  29.874  1.00  0.00    -0.458 OA
BRANCH   2   3
ATOM      3  C   UNL A   1      32.870  35.515  31.112  1.00  0.00     0.338 C 
ATOM      4  O   UNL A   1      32.167  36.354  31.629  1.00  0.00    -0.246 OA
BRANCH   3   5
ATOM      5  C   UNL A   1      34.026  34.878  31.797  1.00  0.00     0.060 A 
ATOM      6  C   UNL A   1      35.968  33.611  33.317  1.00  0.00     0.067 A 
ATOM      7  C   UNL A   1      35.098  32.832  32.552  1.00  0.00     0.029 A 
ATOM      8  C   UNL A   1      35.967  35.008  33.214  1.00  0.00     0.029 A 
ATOM      9  C   UNL A   1      34.106  33.475  31.810  1.00  0.00     0.018 A 
ATOM     10  C   UNL A   1      34.999  35.642  32.446  1.00  0.00     0.018 A 
BRANCH   6  11
ATOM     11  N   UNL A   1      36.735  33.005  34.328  1.00  0.00    -0.217 N 
ATOM     12  C   UNL A   1      38.229  31.865  35.435  1.00  0.00     0.151 A 
ATOM     13  N   UNL A   1      37.277  32.344  36.306  1.00  0.00    -0.126 NA
ATOM     14  C   UNL A   1      37.943  32.336  34.162  1.00  0.00     0.073 A 
ATOM     15  N   UNL A   1      36.450  33.134  35.636  1.00  0.00    -0.061 NA
ATOM     16  C   UNL A   1      38.659  32.299  32.862  1.00  0.00     0.069 C 
BRANCH  12  17
ATOM     17  C   UNL A   1      39.338  31.045  35.908  1.00  0.00     0.181 C 
ATOM     18  C   UNL A   1      40.729  31.627  35.912  1.00  0.00     0.095 C 
ATOM     19  O   UNL A   1      39.159  29.894  36.309  1.00  0.00    -0.293 OA
ENDBRANCH  12  17
ENDBRANCH   6  11
ENDBRANCH   3   5
ENDBRANCH   2   3
ENDBRANCH   1   2
BRANCH   1  20
ATOM     20  C   UNL A   1      34.042  34.276  27.956  1.00  0.00     0.275 C 
BRANCH  20  21
ATOM     21  O   UNL A   1      35.079  33.470  28.517  1.00  0.00    -0.458 OA
BRANCH  21  22
ATOM     22  C   UNL A   1      34.882  32.136  28.411  1.00  0.00     0.338 C 
ATOM     23  O   UNL A   1      33.844  31.556  28.140  1.00  0.00    -0.246 OA
BRANCH  22  24
ATOM     24  C   UNL A   1      36.062  31.435  28.923  1.00  0.00     0.060 A 
ATOM     25  C   UNL A   1      37.173  32.199  29.290  1.00  0.00     0.016 A 
ATOM     26  C   UNL A   1      36.141  30.042  28.775  1.00  0.00     0.016 A 
ATOM     27  C   UNL A   1      38.399  31.573  29.395  1.00  0.00     0.010 A 
ATOM     28  C   UNL A   1      37.367  29.424  28.862  1.00  0.00     0.010 A 
ATOM     29  C   UNL A   1      38.493  30.202  29.120  1.00  0.00    -0.014 A 
BRANCH  29  30
ATOM     30  C   UNL A   1      39.779  29.554  29.289  1.00  0.00     0.031 A 
ATOM     31  C   UNL A   1      40.149  29.379  30.714  1.00  0.00     0.074 A 
ATOM     32  C   UNL A   1      40.485  29.026  28.271  1.00  0.00     0.049 A 
ATOM     33  N   UNL A   1      41.155  29.896  31.334  1.00  0.00    -0.248 NA
ATOM     34  C   UNL A   1      39.199  28.667  31.588  1.00  0.00     0.031 C 
ATOM     35  C   UNL A   1      40.076  28.874  26.873  1.00  0.00     0.029 A 
ATOM     36  N   UNL A   1      41.690  28.394  28.307  1.00  0.00    -0.354 N 
ATOM     37  C   UNL A   1      41.075  29.419  32.639  1.00  0.00     0.074 A 
ATOM     38  C   UNL A   1      39.773  28.823  32.780  1.00  0.00     0.031 C 
ATOM     39  C   UNL A   1      40.899  27.990  26.263  1.00  0.00     0.029 A 
ATOM     40  C   UNL A   1      41.958  27.615  27.188  1.00  0.00     0.049 A 
ATOM     41  H   UNL A   1      42.318  28.480  29.061  1.00  0.00     0.167 HD
ATOM     42  C   UNL A   1      42.188  29.309  33.414  1.00  0.00     0.031 A 
ATOM     43  C   UNL A   1      42.935  26.679  27.066  1.00  0.00     0.031 A 
ATOM     44  C   UNL A   1      43.267  30.120  32.910  1.00  0.00     0.049 A 
ATOM     45  C   UNL A   1      43.925  26.917  28.141  1.00  0.00     0.074 A 
ATOM     46  C   UNL A   1      43.429  31.466  32.648  1.00  0.00     0.029 A 
ATOM     47  N   UNL A   1      44.268  29.476  32.223  1.00  0.00    -0.354 N 
ATOM     48  N   UNL A   1      44.731  27.937  28.165  1.00  0.00    -0.248 NA
ATOM     49  C   UNL A   1      43.720  26.251  29.418  1.00  0.00     0.031 C 
ATOM     50  C   UNL A   1      44.206  31.517  31.454  1.00  0.00     0.029 A 
ATOM     51  C   UNL A   1      44.537  30.210  31.098  1.00  0.00     0.049 A 
ATOM     52  H   UNL A   1      44.711  28.639  32.490  1.00  0.00     0.167 HD
ATOM     53  C   UNL A   1      44.763  28.323  29.498  1.00  0.00     0.074 A 
ATOM     54  C   UNL A   1      44.209  27.189  30.235  1.00  0.00     0.031 C 
ATOM     55  C   UNL A   1      44.964  29.628  29.847  1.00  0.00     0.031 A 
BRANCH  42  56
ATOM     56  C   UNL A   1      42.428  28.124  34.320  1.00  0.00    -0.014 A 
ATOM     57  C   UNL A   1      42.890  26.927  33.744  1.00  0.00     0.009 A 
ATOM     58  C   UNL A   1      41.935  28.040  35.637  1.00  0.00     0.009 A 
ATOM     59  C   UNL A   1      42.763  25.703  34.411  1.00  0.00     0.001 A 
ATOM     60  C   UNL A   1      41.849  26.827  36.322  1.00  0.00     0.001 A 
ATOM     61  C   UNL A   1      42.232  25.652  35.695  1.00  0.00     0.000 A 
ENDBRANCH  42  56
BRANCH  43  62
ATOM     62  C   UNL A   1      42.952  25.434  26.266  1.00  0.00    -0.014 A 
ATOM     63  C   UNL A   1      43.978  25.197  25.336  1.00  0.00     0.009 A 
ATOM     64  C   UNL A   1      42.123  24.352  26.612  1.00  0.00     0.009 A 
ATOM     65  C   UNL A   1      44.194  23.916  24.808  1.00  0.00     0.001 A 
ATOM     66  C   UNL A   1      42.335  23.074  26.081  1.00  0.00     0.001 A 
ATOM     67  C   UNL A   1      43.382  22.853  25.193  1.00  0.00     0.000 A 
ENDBRANCH  43  62
BRANCH  55  68
ATOM     68  C   UNL A   1      45.432  30.589  28.782  1.00  0.00    -0.014 A 
ATOM     69  C   UNL A   1      46.786  30.806  28.469  1.00  0.00     0.009 A 
ATOM     70  C   UNL A   1      44.458  31.189  27.971  1.00  0.00     0.009 A 
ATOM     71  C   UNL A   1      47.147  31.632  27.399  1.00  0.00     0.001 A 
ATOM     72  C   UNL A   1      44.818  31.992  26.888  1.00  0.00     0.001 A 
ATOM     73  C   UNL A   1      46.163  32.220  26.607  1.00  0.00     0.000 A 
ENDBRANCH  55  68
ENDBRANCH  29  30
ENDBRANCH  22  24
ENDBRANCH  21  22
ENDBRANCH  20  21
ENDBRANCH   1  20
TORSDOF 13
ENDMDL
MODEL 2
REMARK VINA RESULT:      -9.8      5.276     11.122
REMARK SMILES CC(=O)c1nnn(-c2ccc(C(=O)OCCOC(=O)c3ccc(-c4c5nc(c(-c6ccccc6)c6ccc([nH]6)c(-c6ccccc6)c6nc(c(-c7ccccc7)c7ccc4[nH]7)C=C6)C=C5)cc3)cc2)c1C
REMARK SMILES IDX 15 1 14 2 12 3 13 4 11 5 8 6 9 7 69 8 10 9 68 10 7 11 4 12
REMARK SMILES IDX 5 13 70 14 6 15 71 16 2 17 1 18 3 19 16 20 17 21 18 22 19 23
REMARK SMILES IDX 20 24 21 25 67 26 22 27 66 28 23 29 24 30 25 31 60 32 26 33
REMARK SMILES IDX 65 34 59 35 61 36 27 37 64 38 58 39 57 40 28 42 50 43 35 44
REMARK SMILES IDX 49 45 36 46 39 47 48 48 62 49 37 50 38 51 47 53 63 54 40 55
REMARK SMILES IDX 29 56 30 57 34 58 31 59 33 60 32 61 51 62 52 63 56 64 53 65
REMARK SMILES IDX 55 66 54 67 41 68 42 69 46 70 43 71 45 72 44 73
REMARK H PARENT 61 41 39 52
REMARK Flexibility Score: inf
ROOT
ATOM      1  C   UNL A   1      42.271  19.899  26.425  1.00  0.00     0.275 C 
ENDROOT
BRANCH   1   2
ATOM      2  O   UNL A   1      41.260  20.691  25.785  1.00  0.00    -0.458 OA
BRANCH   2   3
ATOM      3  C   UNL A   1      40.662  21.625  26.575  1.00  0.00     0.338 C 
ATOM      4  O   UNL A   1      41.180  22.255  27.469  1.00  0.00    -0.246 OA
BRANCH   3   5
ATOM      5  C   UNL A   1      39.253  21.824  26.142  1.00  0.00     0.060 A 
ATOM      6  C   UNL A   1      36.745  22.209  25.024  1.00  0.00     0.067 A 
ATOM      7  C   UNL A   1      37.313  20.935  24.977  1.00  0.00     0.029 A 
ATOM      8  C   UNL A   1      37.351  23.246  25.746  1.00  0.00     0.029 A 
ATOM      9  C   UNL A   1      38.587  20.755  25.519  1.00  0.00     0.018 A 
ATOM     10  C   UNL A   1      38.605  23.050  26.312  1.00  0.00     0.018 A 
BRANCH   6  11
ATOM     11  N   UNL A   1      35.645  22.509  24.200  1.00  0.00    -0.217 N 
ATOM     12  C   UNL A   1      33.672  22.589  23.275  1.00  0.00     0.151 A 
ATOM     13  N   UNL A   1      34.560  23.328  22.528  1.00  0.00    -0.126 NA
ATOM     14  C   UNL A   1      34.329  22.108  24.398  1.00  0.00     0.073 A 
ATOM     15  N   UNL A   1      35.720  23.370  23.169  1.00  0.00    -0.061 NA
ATOM     16  C   UNL A   1      33.891  21.398  25.626  1.00  0.00     0.069 C 
BRANCH  12  17
ATOM     17  C   UNL A   1      32.278  22.450  22.868  1.00  0.00     0.181 C 
ATOM     18  C   UNL A   1      31.868  21.240  22.067  1.00  0.00     0.095 C 
ATOM     19  O   UNL A   1      31.434  23.294  23.171  1.00  0.00    -0.293 OA
ENDBRANCH  12  17
ENDBRANCH   6  11
ENDBRANCH   3   5
ENDBRANCH   2   3
ENDBRANCH   1   2
BRANCH   1  20
ATOM     20  C   UNL A   1      43.334  19.462  25.426  1.00  0.00     0.275 C 
BRANCH  20  21
ATOM     21  O   UNL A   1      43.771  20.539  24.596  1.00  0.00    -0.458 OA
BRANCH  21  22
ATOM     22  C   UNL A   1      45.000  21.021  24.888  1.00  0.00     0.338 C 
ATOM     23  O   UNL A   1      46.040  20.392  24.998  1.00  0.00    -0.246 OA
BRANCH  22  24
ATOM     24  C   UNL A   1      44.880  22.417  25.313  1.00  0.00     0.060 A 
ATOM     25  C   UNL A   1      45.707  22.862  26.348  1.00  0.00     0.016 A 
ATOM     26  C   UNL A   1      43.782  23.170  24.871  1.00  0.00     0.016 A 
ATOM     27  C   UNL A   1      45.359  24.016  27.021  1.00  0.00     0.010 A 
ATOM     28  C   UNL A   1      43.426  24.309  25.556  1.00  0.00     0.010 A 
ATOM     29  C   UNL A   1      44.188  24.694  26.657  1.00  0.00    -0.014 A 
BRANCH  29  30
ATOM     30  C   UNL A   1      43.869  25.932  27.340  1.00  0.00     0.031 A 
ATOM     31  C   UNL A   1      44.818  27.025  27.017  1.00  0.00     0.074 A 
ATOM     32  C   UNL A   1      42.748  26.116  28.063  1.00  0.00     0.049 A 
ATOM     33  N   UNL A   1      45.612  27.642  27.825  1.00  0.00    -0.248 NA
ATOM     34  C   UNL A   1      45.015  27.365  25.596  1.00  0.00     0.031 C 
ATOM     35  C   UNL A   1      41.604  25.211  28.198  1.00  0.00     0.029 A 
ATOM     36  N   UNL A   1      42.342  27.225  28.739  1.00  0.00    -0.354 N 
ATOM     37  C   UNL A   1      46.276  28.586  27.049  1.00  0.00     0.074 A 
ATOM     38  C   UNL A   1      46.004  28.254  25.675  1.00  0.00     0.031 C 
ATOM     39  C   UNL A   1      40.551  25.899  28.699  1.00  0.00     0.029 A 
ATOM     40  C   UNL A   1      40.983  27.247  29.034  1.00  0.00     0.049 A 
ATOM     41  H   UNL A   1      42.956  27.950  28.997  1.00  0.00     0.167 HD
ATOM     42  C   UNL A   1      46.770  29.726  27.603  1.00  0.00     0.031 A 
ATOM     43  C   UNL A   1      40.261  28.319  29.449  1.00  0.00     0.031 A 
ATOM     44  C   UNL A   1      46.915  29.603  29.031  1.00  0.00     0.049 A 
ATOM     45  C   UNL A   1      41.212  29.340  29.946  1.00  0.00     0.074 A 
ATOM     46  C   UNL A   1      47.607  28.747  29.866  1.00  0.00     0.029 A 
ATOM     47  N   UNL A   1      45.961  30.208  29.813  1.00  0.00    -0.354 N 
ATOM     48  N   UNL A   1      41.894  29.214  31.046  1.00  0.00    -0.248 NA
ATOM     49  C   UNL A   1      41.732  30.310  28.994  1.00  0.00     0.031 C 
ATOM     50  C   UNL A   1      46.734  28.529  30.972  1.00  0.00     0.029 A 
ATOM     51  C   UNL A   1      45.599  29.318  30.789  1.00  0.00     0.049 A 
ATOM     52  H   UNL A   1      45.602  31.116  29.693  1.00  0.00     0.167 HD
ATOM     53  C   UNL A   1      43.148  29.721  30.737  1.00  0.00     0.074 A 
ATOM     54  C   UNL A   1      42.958  30.474  29.498  1.00  0.00     0.031 C 
ATOM     55  C   UNL A   1      44.270  29.243  31.351  1.00  0.00     0.031 A 
BRANCH  42  56
ATOM     56  C   UNL A   1      46.663  31.069  26.919  1.00  0.00    -0.014 A 
ATOM     57  C   UNL A   1      47.784  31.918  26.935  1.00  0.00     0.009 A 
ATOM     58  C   UNL A   1      45.438  31.652  26.538  1.00  0.00     0.009 A 
ATOM     59  C   UNL A   1      47.662  33.290  26.690  1.00  0.00     0.001 A 
ATOM     60  C   UNL A   1      45.321  33.012  26.248  1.00  0.00     0.001 A 
ATOM     61  C   UNL A   1      46.428  33.839  26.358  1.00  0.00     0.000 A 
ENDBRANCH  42  56
BRANCH  43  62
ATOM     62  C   UNL A   1      38.837  28.646  29.210  1.00  0.00    -0.014 A 
ATOM     63  C   UNL A   1      37.940  28.759  30.286  1.00  0.00     0.009 A 
ATOM     64  C   UNL A   1      38.415  29.123  27.956  1.00  0.00     0.009 A 
ATOM     65  C   UNL A   1      36.688  29.368  30.122  1.00  0.00     0.001 A 
ATOM     66  C   UNL A   1      37.163  29.726  27.790  1.00  0.00     0.001 A 
ATOM     67  C   UNL A   1      36.307  29.865  28.878  1.00  0.00     0.000 A 
ENDBRANCH  43  62
BRANCH  55  68
ATOM     68  C   UNL A   1      44.101  28.367  32.567  1.00  0.00    -0.014 A 
ATOM     69  C   UNL A   1      43.872  26.981  32.503  1.00  0.00     0.009 A 
ATOM     70  C   UNL A   1      44.322  28.947  33.825  1.00  0.00     0.009 A 
ATOM     71  C   UNL A   1      43.829  26.211  33.671  1.00  0.00     0.001 A 
ATOM     72  C   UNL A   1      44.306  28.175  34.987  1.00  0.00     0.001 A 
ATOM     73  C   UNL A   1      44.050  26.807  34.910  1.00  0.00     0.000 A 
ENDBRANCH  55  68
ENDBRANCH  29  30
ENDBRANCH  22  24
ENDBRANCH  21  22
ENDBRANCH  20  21
ENDBRANCH   1  20
TORSDOF 13
ENDMDL
MODEL 3
REMARK VINA RESULT:      -9.7      5.320      9.986
REMARK SMILES CC(=O)c1nnn(-c2ccc(C(=O)OCCOC(=O)c3ccc(-c4c5nc(c(-c6ccccc6)c6ccc([nH]6)c(-c6ccccc6)c6nc(c(-c7ccccc7)c7ccc4[nH]7)C=C6)C=C5)cc3)cc2)c1C
REMARK SMILES IDX 15 1 14 2 12 3 13 4 11 5 8 6 9 7 69 8 10 9 68 10 7 11 4 12
REMARK SMILES IDX 5 13 70 14 6 15 71 16 2 17 1 18 3 19 16 20 17 21 18 22 19 23
REMARK SMILES IDX 20 24 21 25 67 26 22 27 66 28 23 29 24 30 25 31 60 32 26 33
REMARK SMILES IDX 65 34 59 35 61 36 27 37 64 38 58 39 57 40 28 42 50 43 35 44
REMARK SMILES IDX 49 45 36 46 39 47 48 48 62 49 37 50 38 51 47 53 63 54 40 55
REMARK SMILES IDX 29 56 30 57 34 58 31 59 33 60 32 61 51 62 52 63 56 64 53 65
REMARK SMILES IDX 55 66 54 67 41 68 42 69 46 70 43 71 45 72 44 73
REMARK H PARENT 61 41 39 52
REMARK Flexibility Score: inf
ROOT
ATOM      1  C   UNL A   1      38.056  19.798  24.953  1.00  0.00     0.275 C 
ENDROOT
BRANCH   1   2
ATOM      2  O   UNL A   1      36.979  20.708  25.216  1.00  0.00    -0.458 OA
BRANCH   2   3
ATOM      3  C   UNL A   1      35.728  20.199  25.046  1.00  0.00     0.338 C 
ATOM      4  O   UNL A   1      35.447  19.085  24.666  1.00  0.00    -0.246 OA
BRANCH   3   5
ATOM      5  C   UNL A   1      34.714  21.203  25.463  1.00  0.00     0.060 A 
ATOM      6  C   UNL A   1      32.965  23.281  26.022  1.00  0.00     0.067 A 
ATOM      7  C   UNL A   1      32.755  22.516  24.873  1.00  0.00     0.029 A 
ATOM      8  C   UNL A   1      33.946  22.927  26.958  1.00  0.00     0.029 A 
ATOM      9  C   UNL A   1      33.655  21.489  24.585  1.00  0.00     0.018 A 
ATOM     10  C   UNL A   1      34.816  21.880  26.681  1.00  0.00     0.018 A 
BRANCH   6  11
ATOM     11  N   UNL A   1      32.309  24.518  26.162  1.00  0.00    -0.217 N 
ATOM     12  C   UNL A   1      31.802  26.639  26.173  1.00  0.00     0.151 A 
ATOM     13  N   UNL A   1      30.786  25.920  26.759  1.00  0.00    -0.126 NA
ATOM     14  C   UNL A   1      32.766  25.752  25.715  1.00  0.00     0.073 A 
ATOM     15  N   UNL A   1      31.054  24.628  26.632  1.00  0.00    -0.061 NA
ATOM     16  C   UNL A   1      33.989  25.895  24.885  1.00  0.00     0.069 C 
BRANCH  12  17
ATOM     17  C   UNL A   1      31.735  28.092  26.070  1.00  0.00     0.181 C 
ATOM     18  C   UNL A   1      31.815  28.918  27.329  1.00  0.00     0.095 C 
ATOM     19  O   UNL A   1      31.621  28.653  24.980  1.00  0.00    -0.293 OA
ENDBRANCH  12  17
ENDBRANCH   6  11
ENDBRANCH   3   5
ENDBRANCH   2   3
ENDBRANCH   1   2
BRANCH   1  20
ATOM     20  C   UNL A   1      39.387  20.382  25.407  1.00  0.00     0.275 C 
BRANCH  20  21
ATOM     21  O   UNL A   1      40.253  19.390  25.960  1.00  0.00    -0.458 OA
BRANCH  21  22
ATOM     22  C   UNL A   1      41.570  19.596  25.736  1.00  0.00     0.338 C 
ATOM     23  O   UNL A   1      42.343  18.877  25.123  1.00  0.00    -0.246 OA
BRANCH  22  24
ATOM     24  C   UNL A   1      42.028  20.717  26.561  1.00  0.00     0.060 A 
ATOM     25  C   UNL A   1      41.495  20.846  27.846  1.00  0.00     0.016 A 
ATOM     26  C   UNL A   1      42.757  21.751  25.957  1.00  0.00     0.016 A 
ATOM     27  C   UNL A   1      41.597  22.067  28.483  1.00  0.00     0.010 A 
ATOM     28  C   UNL A   1      42.841  22.973  26.585  1.00  0.00     0.010 A 
ATOM     29  C   UNL A   1      42.215  23.135  27.818  1.00  0.00    -0.014 A 
BRANCH  29  30
ATOM     30  C   UNL A   1      42.359  24.393  28.525  1.00  0.00     0.031 A 
ATOM     31  C   UNL A   1      41.298  25.369  28.179  1.00  0.00     0.074 A 
ATOM     32  C   UNL A   1      43.261  24.598  29.504  1.00  0.00     0.049 A 
ATOM     33  N   UNL A   1      41.441  26.518  27.609  1.00  0.00    -0.248 NA
ATOM     34  C   UNL A   1      39.896  24.947  28.348  1.00  0.00     0.031 C 
ATOM     35  C   UNL A   1      44.149  23.617  30.131  1.00  0.00     0.029 A 
ATOM     36  N   UNL A   1      43.484  25.724  30.235  1.00  0.00    -0.354 N 
ATOM     37  C   UNL A   1      40.160  27.054  27.520  1.00  0.00     0.074 A 
ATOM     38  C   UNL A   1      39.245  25.984  27.822  1.00  0.00     0.031 C 
ATOM     39  C   UNL A   1      44.625  24.127  31.291  1.00  0.00     0.029 A 
ATOM     40  C   UNL A   1      44.177  25.505  31.421  1.00  0.00     0.049 A 
ATOM     41  H   UNL A   1      43.181  26.617  29.951  1.00  0.00     0.167 HD
ATOM     42  C   UNL A   1      39.965  28.399  27.475  1.00  0.00     0.031 A 
ATOM     43  C   UNL A   1      44.304  26.372  32.457  1.00  0.00     0.031 A 
ATOM     44  C   UNL A   1      41.165  29.096  27.089  1.00  0.00     0.049 A 
ATOM     45  C   UNL A   1      43.960  27.724  31.961  1.00  0.00     0.074 A 
ATOM     46  C   UNL A   1      42.002  29.054  25.990  1.00  0.00     0.029 A 
ATOM     47  N   UNL A   1      41.879  29.718  28.085  1.00  0.00    -0.354 N 
ATOM     48  N   UNL A   1      44.705  28.402  31.139  1.00  0.00    -0.248 NA
ATOM     49  C   UNL A   1      42.569  28.146  32.038  1.00  0.00     0.031 C 
ATOM     50  C   UNL A   1      43.314  29.212  26.523  1.00  0.00     0.029 A 
ATOM     51  C   UNL A   1      43.201  29.418  27.897  1.00  0.00     0.049 A 
ATOM     52  H   UNL A   1      41.506  30.276  28.805  1.00  0.00     0.167 HD
ATOM     53  C   UNL A   1      43.806  29.005  30.271  1.00  0.00     0.074 A 
ATOM     54  C   UNL A   1      42.508  28.898  30.935  1.00  0.00     0.031 C 
ATOM     55  C   UNL A   1      44.150  29.271  28.977  1.00  0.00     0.031 A 
BRANCH  42  56
ATOM     56  C   UNL A   1      38.848  29.080  28.232  1.00  0.00    -0.014 A 
ATOM     57  C   UNL A   1      38.769  28.885  29.622  1.00  0.00     0.009 A 
ATOM     58  C   UNL A   1      37.715  29.638  27.609  1.00  0.00     0.009 A 
ATOM     59  C   UNL A   1      37.585  29.135  30.326  1.00  0.00     0.001 A 
ATOM     60  C   UNL A   1      36.547  29.931  28.315  1.00  0.00     0.001 A 
ATOM     61  C   UNL A   1      36.471  29.646  29.670  1.00  0.00     0.000 A 
ENDBRANCH  42  56
BRANCH  43  62
ATOM     62  C   UNL A   1      44.441  26.096  33.906  1.00  0.00    -0.014 A 
ATOM     63  C   UNL A   1      45.621  26.435  34.589  1.00  0.00     0.009 A 
ATOM     64  C   UNL A   1      43.315  25.759  34.677  1.00  0.00     0.009 A 
ATOM     65  C   UNL A   1      45.658  26.479  35.989  1.00  0.00     0.001 A 
ATOM     66  C   UNL A   1      43.352  25.798  36.075  1.00  0.00     0.001 A 
ATOM     67  C   UNL A   1      44.519  26.175  36.732  1.00  0.00     0.000 A 
ENDBRANCH  43  62
BRANCH  55  68
ATOM     68  C   UNL A   1      45.603  29.165  28.587  1.00  0.00    -0.014 A 
ATOM     69  C   UNL A   1      46.510  30.237  28.657  1.00  0.00     0.009 A 
ATOM     70  C   UNL A   1      46.102  27.892  28.272  1.00  0.00     0.009 A 
ATOM     71  C   UNL A   1      47.868  30.043  28.381  1.00  0.00     0.001 A 
ATOM     72  C   UNL A   1      47.461  27.693  28.022  1.00  0.00     0.001 A 
ATOM     73  C   UNL A   1      48.343  28.771  28.068  1.00  0.00     0.000 A 
ENDBRANCH  55  68
ENDBRANCH  29  30
ENDBRANCH  22  24
ENDBRANCH  21  22
ENDBRANCH  20  21
ENDBRANCH   1  20
TORSDOF 13
ENDMDL
