MODEL 1
REMARK VINA RESULT:     -12.0      0.000      0.000
REMARK SMILES Cc1ccccc1C[N@@H+]1[C@@H](C(=O)OCCOC(=O)c2ccc(-c3c4nc(c(-c5ccccc5)c5ccc([nH]5)c(-c5ccccc5)c5nc(c(-c6ccccc6)c6ccc3[nH]6)C=C5)C=C4)cc2)C[C@H]2CCCC[C@@H]21
REMARK SMILES IDX 14 1 13 2 11 3 12 4 10 5 9 6 73 7 67 9 68 10 72 11 69 12
REMARK SMILES IDX 71 13 70 14 8 15 7 16 1 17 2 18 3 19 4 20 6 21 5 22 15 23
REMARK SMILES IDX 16 24 17 25 18 26 19 27 20 28 66 29 21 30 65 31 22 32 23 33
REMARK SMILES IDX 24 34 59 35 25 36 64 37 58 38 60 39 26 40 63 41 57 42 56 43
REMARK SMILES IDX 27 45 49 46 34 47 48 48 35 49 38 50 47 51 61 52 36 53 37 54
REMARK SMILES IDX 46 56 62 57 39 58 28 59 29 60 33 61 30 62 32 63 31 64 50 65
REMARK SMILES IDX 51 66 55 67 52 68 54 69 53 70 40 71 41 72 45 73 42 74 44 75
REMARK SMILES IDX 43 76
REMARK H PARENT 9 8 60 44 38 55
REMARK Flexibility Score: inf
ROOT
ATOM      1  C   UNL A   1      32.624  30.799  26.309  1.00  0.00     0.274 C 
ENDROOT
BRANCH   1   2
ATOM      2  O   UNL A   1      32.213  29.469  26.605  1.00  0.00    -0.458 OA
BRANCH   2   3
ATOM      3  C   UNL A   1      33.149  28.486  26.434  1.00  0.00     0.365 C 
ATOM      4  O   UNL A   1      34.012  28.226  27.242  1.00  0.00    -0.245 OA
BRANCH   3   5
ATOM      5  C   UNL A   1      32.879  27.764  25.081  1.00  0.00     0.296 C 
ATOM      6  N   UNL A   1      31.500  27.204  25.056  1.00  0.00    -0.317 N 
ATOM      7  C   UNL A   1      31.668  25.925  25.742  1.00  0.00     0.188 C 
ATOM      8  H   UNL A   1      30.800  27.765  25.542  1.00  0.00     0.349 HD
ATOM      9  C   UNL A   1      33.842  26.571  24.942  1.00  0.00     0.087 C 
ATOM     10  C   UNL A   1      32.961  25.355  25.161  1.00  0.00     0.054 C 
ATOM     11  C   UNL A   1      30.593  24.856  25.813  1.00  0.00     0.065 C 
ATOM     12  C   UNL A   1      33.524  24.288  26.081  1.00  0.00     0.010 C 
ATOM     13  C   UNL A   1      31.111  23.690  26.674  1.00  0.00     0.006 C 
ATOM     14  C   UNL A   1      32.486  23.172  26.223  1.00  0.00     0.001 C 
BRANCH   6  15
ATOM     15  C   UNL A   1      30.802  27.268  23.754  1.00  0.00     0.300 C 
BRANCH  15  16
ATOM     16  C   UNL A   1      29.656  28.256  23.568  1.00  0.00     0.009 A 
ATOM     17  C   UNL A   1      27.749  26.546  23.947  1.00  0.00     0.045 C 
ATOM     18  C   UNL A   1      28.293  27.885  23.520  1.00  0.00    -0.042 A 
ATOM     19  C   UNL A   1      27.339  28.823  23.073  1.00  0.00     0.004 A 
ATOM     20  C   UNL A   1      27.699  30.132  22.768  1.00  0.00     0.000 A 
ATOM     21  C   UNL A   1      29.968  29.620  23.388  1.00  0.00     0.010 A 
ATOM     22  C   UNL A   1      29.007  30.544  22.970  1.00  0.00     0.001 A 
ENDBRANCH  15  16
ENDBRANCH   6  15
ENDBRANCH   3   5
ENDBRANCH   2   3
ENDBRANCH   1   2
BRANCH   1  23
ATOM     23  C   UNL A   1      31.638  31.797  26.933  1.00  0.00     0.275 C 
BRANCH  23  24
ATOM     24  O   UNL A   1      32.064  33.189  27.118  1.00  0.00    -0.458 OA
BRANCH  24  25
ATOM     25  C   UNL A   1      32.835  33.787  28.064  1.00  0.00     0.338 C 
ATOM     26  O   UNL A   1      32.412  34.706  28.754  1.00  0.00    -0.246 OA
BRANCH  25  27
ATOM     27  C   UNL A   1      34.186  33.256  28.313  1.00  0.00     0.060 A 
ATOM     28  C   UNL A   1      35.302  33.874  27.723  1.00  0.00     0.016 A 
ATOM     29  C   UNL A   1      34.353  32.222  29.219  1.00  0.00     0.016 A 
ATOM     30  C   UNL A   1      36.589  33.560  28.168  1.00  0.00     0.010 A 
ATOM     31  C   UNL A   1      35.598  32.024  29.765  1.00  0.00     0.010 A 
ATOM     32  C   UNL A   1      36.726  32.671  29.232  1.00  0.00    -0.014 A 
BRANCH  32  33
ATOM     33  C   UNL A   1      37.986  32.070  29.649  1.00  0.00     0.031 A 
ATOM     34  C   UNL A   1      38.553  30.807  29.152  1.00  0.00     0.074 A 
ATOM     35  C   UNL A   1      38.682  32.882  30.475  1.00  0.00     0.049 A 
ATOM     36  N   UNL A   1      39.543  30.219  29.734  1.00  0.00    -0.248 NA
ATOM     37  C   UNL A   1      38.082  30.073  27.985  1.00  0.00     0.031 C 
ATOM     38  C   UNL A   1      40.062  32.844  30.915  1.00  0.00     0.029 A 
ATOM     39  N   UNL A   1      38.102  33.891  31.255  1.00  0.00    -0.354 N 
ATOM     40  C   UNL A   1      40.033  29.256  28.882  1.00  0.00     0.074 A 
ATOM     41  C   UNL A   1      39.037  29.142  27.843  1.00  0.00     0.031 C 
ATOM     42  C   UNL A   1      40.152  33.548  32.062  1.00  0.00     0.029 A 
ATOM     43  C   UNL A   1      38.791  33.893  32.465  1.00  0.00     0.049 A 
ATOM     44  H   UNL A   1      37.356  34.480  30.999  1.00  0.00     0.167 HD
ATOM     45  C   UNL A   1      41.290  28.776  29.100  1.00  0.00     0.031 A 
ATOM     46  C   UNL A   1      38.133  33.419  33.565  1.00  0.00     0.031 A 
ATOM     47  C   UNL A   1      41.836  29.283  30.361  1.00  0.00     0.049 A 
ATOM     48  C   UNL A   1      38.783  32.177  34.141  1.00  0.00     0.074 A 
ATOM     49  C   UNL A   1      42.767  30.256  30.689  1.00  0.00     0.029 A 
ATOM     50  N   UNL A   1      41.162  28.983  31.535  1.00  0.00    -0.354 N 
ATOM     51  N   UNL A   1      39.649  31.436  33.504  1.00  0.00    -0.248 NA
ATOM     52  C   UNL A   1      38.470  31.643  35.461  1.00  0.00     0.031 C 
ATOM     53  C   UNL A   1      42.617  30.559  32.074  1.00  0.00     0.029 A 
ATOM     54  C   UNL A   1      41.618  29.752  32.587  1.00  0.00     0.049 A 
ATOM     55  H   UNL A   1      40.450  28.307  31.609  1.00  0.00     0.167 HD
ATOM     56  C   UNL A   1      40.064  30.407  34.302  1.00  0.00     0.074 A 
ATOM     57  C   UNL A   1      39.251  30.548  35.499  1.00  0.00     0.031 C 
ATOM     58  C   UNL A   1      41.042  29.538  33.909  1.00  0.00     0.031 A 
BRANCH  45  59
ATOM     59  C   UNL A   1      42.124  28.035  28.079  1.00  0.00    -0.014 A 
ATOM     60  C   UNL A   1      42.737  26.817  28.443  1.00  0.00     0.009 A 
ATOM     61  C   UNL A   1      42.389  28.486  26.776  1.00  0.00     0.009 A 
ATOM     62  C   UNL A   1      43.619  26.136  27.594  1.00  0.00     0.001 A 
ATOM     63  C   UNL A   1      43.286  27.818  25.925  1.00  0.00     0.001 A 
ATOM     64  C   UNL A   1      43.911  26.648  26.339  1.00  0.00     0.000 A 
ENDBRANCH  45  59
BRANCH  46  65
ATOM     65  C   UNL A   1      36.654  33.707  33.581  1.00  0.00    -0.014 A 
ATOM     66  C   UNL A   1      36.223  35.056  33.604  1.00  0.00     0.009 A 
ATOM     67  C   UNL A   1      35.690  32.727  33.309  1.00  0.00     0.009 A 
ATOM     68  C   UNL A   1      34.912  35.416  33.271  1.00  0.00     0.001 A 
ATOM     69  C   UNL A   1      34.364  33.089  33.007  1.00  0.00     0.001 A 
ATOM     70  C   UNL A   1      33.983  34.430  32.959  1.00  0.00     0.000 A 
ENDBRANCH  46  65
BRANCH  58  71
ATOM     71  C   UNL A   1      41.561  28.366  34.706  1.00  0.00    -0.014 A 
ATOM     72  C   UNL A   1      41.262  27.029  34.435  1.00  0.00     0.009 A 
ATOM     73  C   UNL A   1      42.344  28.613  35.859  1.00  0.00     0.009 A 
ATOM     74  C   UNL A   1      41.802  25.992  35.208  1.00  0.00     0.001 A 
ATOM     75  C   UNL A   1      42.864  27.587  36.649  1.00  0.00     0.001 A 
ATOM     76  C   UNL A   1      42.610  26.270  36.307  1.00  0.00     0.000 A 
ENDBRANCH  58  71
ENDBRANCH  32  33
ENDBRANCH  25  27
ENDBRANCH  24  25
ENDBRANCH  23  24
ENDBRANCH   1  23
TORSDOF 13
ENDMDL
MODEL 2
REMARK VINA RESULT:     -11.8      2.910      4.808
REMARK SMILES Cc1ccccc1C[N@@H+]1[C@@H](C(=O)OCCOC(=O)c2ccc(-c3c4nc(c(-c5ccccc5)c5ccc([nH]5)c(-c5ccccc5)c5nc(c(-c6ccccc6)c6ccc3[nH]6)C=C5)C=C4)cc2)C[C@H]2CCCC[C@@H]21
REMARK SMILES IDX 14 1 13 2 11 3 12 4 10 5 9 6 73 7 67 9 68 10 72 11 69 12
REMARK SMILES IDX 71 13 70 14 8 15 7 16 1 17 2 18 3 19 4 20 6 21 5 22 15 23
REMARK SMILES IDX 16 24 17 25 18 26 19 27 20 28 66 29 21 30 65 31 22 32 23 33
REMARK SMILES IDX 24 34 59 35 25 36 64 37 58 38 60 39 26 40 63 41 57 42 56 43
REMARK SMILES IDX 27 45 49 46 34 47 48 48 35 49 38 50 47 51 61 52 36 53 37 54
REMARK SMILES IDX 46 56 62 57 39 58 28 59 29 60 33 61 30 62 32 63 31 64 50 65
REMARK SMILES IDX 51 66 55 67 52 68 54 69 53 70 40 71 41 72 45 73 42 74 44 75
REMARK SMILES IDX 43 76
REMARK H PARENT 9 8 60 44 38 55
REMARK Flexibility Score: inf
ROOT
ATOM      1  C   UNL A   1      32.935  29.344  27.040  1.00  0.00     0.274 C 
ENDROOT
BRANCH   1   2
ATOM      2  O   UNL A   1      32.731  29.010  25.672  1.00  0.00    -0.458 OA
BRANCH   2   3
ATOM      3  C   UNL A   1      33.320  27.857  25.229  1.00  0.00     0.365 C 
ATOM      4  O   UNL A   1      33.960  27.111  25.934  1.00  0.00    -0.245 OA
BRANCH   3   5
ATOM      5  C   UNL A   1      32.988  27.671  23.718  1.00  0.00     0.296 C 
ATOM      6  N   UNL A   1      31.671  26.997  23.555  1.00  0.00    -0.317 N 
ATOM      7  C   UNL A   1      32.021  25.585  23.685  1.00  0.00     0.188 C 
ATOM      8  H   UNL A   1      30.973  27.244  24.257  1.00  0.00     0.349 HD
ATOM      9  C   UNL A   1      34.039  26.745  23.079  1.00  0.00     0.087 C 
ATOM     10  C   UNL A   1      33.299  25.439  22.860  1.00  0.00     0.054 C 
ATOM     11  C   UNL A   1      31.062  24.445  23.397  1.00  0.00     0.065 C 
ATOM     12  C   UNL A   1      34.044  24.181  23.266  1.00  0.00     0.010 C 
ATOM     13  C   UNL A   1      31.766  23.114  23.713  1.00  0.00     0.006 C 
ATOM     14  C   UNL A   1      33.133  22.976  23.024  1.00  0.00     0.001 C 
BRANCH   6  15
ATOM     15  C   UNL A   1      30.847  27.461  22.418  1.00  0.00     0.300 C 
BRANCH  15  16
ATOM     16  C   UNL A   1      29.722  28.460  22.668  1.00  0.00     0.009 A 
ATOM     17  C   UNL A   1      28.128  26.795  23.847  1.00  0.00     0.045 C 
ATOM     18  C   UNL A   1      28.454  28.109  23.185  1.00  0.00    -0.042 A 
ATOM     19  C   UNL A   1      27.402  29.045  23.121  1.00  0.00     0.004 A 
ATOM     20  C   UNL A   1      27.609  30.337  22.645  1.00  0.00     0.000 A 
ATOM     21  C   UNL A   1      29.936  29.811  22.323  1.00  0.00     0.010 A 
ATOM     22  C   UNL A   1      28.888  30.734  22.289  1.00  0.00     0.001 A 
ENDBRANCH  15  16
ENDBRANCH   6  15
ENDBRANCH   3   5
ENDBRANCH   2   3
ENDBRANCH   1   2
BRANCH   1  23
ATOM     23  C   UNL A   1      33.618  30.716  27.142  1.00  0.00     0.275 C 
BRANCH  23  24
ATOM     24  O   UNL A   1      35.068  30.769  27.357  1.00  0.00    -0.458 OA
BRANCH  24  25
ATOM     25  C   UNL A   1      35.827  30.637  28.476  1.00  0.00     0.338 C 
ATOM     26  O   UNL A   1      35.525  31.186  29.529  1.00  0.00    -0.246 OA
BRANCH  25  27
ATOM     27  C   UNL A   1      36.997  29.744  28.435  1.00  0.00     0.060 A 
ATOM     28  C   UNL A   1      37.838  29.743  27.309  1.00  0.00     0.016 A 
ATOM     29  C   UNL A   1      37.322  28.998  29.555  1.00  0.00     0.016 A 
ATOM     30  C   UNL A   1      39.087  29.118  27.372  1.00  0.00     0.010 A 
ATOM     31  C   UNL A   1      38.604  28.519  29.674  1.00  0.00     0.010 A 
ATOM     32  C   UNL A   1      39.487  28.554  28.581  1.00  0.00    -0.014 A 
BRANCH  32  33
ATOM     33  C   UNL A   1      40.638  27.675  28.741  1.00  0.00     0.031 A 
ATOM     34  C   UNL A   1      40.662  26.223  28.501  1.00  0.00     0.074 A 
ATOM     35  C   UNL A   1      41.766  28.367  29.016  1.00  0.00     0.049 A 
ATOM     36  N   UNL A   1      41.640  25.477  28.891  1.00  0.00    -0.248 NA
ATOM     37  C   UNL A   1      39.620  25.463  27.826  1.00  0.00     0.031 C 
ATOM     38  C   UNL A   1      43.160  27.974  28.987  1.00  0.00     0.029 A 
ATOM     39  N   UNL A   1      41.782  29.644  29.592  1.00  0.00    -0.354 N 
ATOM     40  C   UNL A   1      41.526  24.257  28.265  1.00  0.00     0.074 A 
ATOM     41  C   UNL A   1      40.206  24.264  27.681  1.00  0.00     0.031 C 
ATOM     42  C   UNL A   1      43.849  28.826  29.774  1.00  0.00     0.029 A 
ATOM     43  C   UNL A   1      42.870  29.666  30.460  1.00  0.00     0.049 A 
ATOM     44  H   UNL A   1      41.150  30.379  29.417  1.00  0.00     0.167 HD
ATOM     45  C   UNL A   1      42.623  23.450  28.210  1.00  0.00     0.031 A 
ATOM     46  C   UNL A   1      42.605  29.661  31.801  1.00  0.00     0.031 A 
ATOM     47  C   UNL A   1      43.719  23.996  29.016  1.00  0.00     0.049 A 
ATOM     48  C   UNL A   1      43.129  28.418  32.492  1.00  0.00     0.074 A 
ATOM     49  C   UNL A   1      44.897  24.661  28.719  1.00  0.00     0.029 A 
ATOM     50  N   UNL A   1      43.508  24.172  30.376  1.00  0.00    -0.354 N 
ATOM     51  N   UNL A   1      43.483  27.325  31.873  1.00  0.00    -0.248 NA
ATOM     52  C   UNL A   1      43.244  28.290  33.940  1.00  0.00     0.031 C 
ATOM     53  C   UNL A   1      45.374  25.269  29.919  1.00  0.00     0.029 A 
ATOM     54  C   UNL A   1      44.500  24.948  30.941  1.00  0.00     0.049 A 
ATOM     55  H   UNL A   1      42.748  23.792  30.873  1.00  0.00     0.167 HD
ATOM     56  C   UNL A   1      43.932  26.400  32.773  1.00  0.00     0.074 A 
ATOM     57  C   UNL A   1      43.707  27.033  34.062  1.00  0.00     0.031 C 
ATOM     58  C   UNL A   1      44.454  25.201  32.376  1.00  0.00     0.031 A 
BRANCH  45  59
ATOM     59  C   UNL A   1      42.801  22.291  27.256  1.00  0.00    -0.014 A 
ATOM     60  C   UNL A   1      42.051  21.113  27.457  1.00  0.00     0.009 A 
ATOM     61  C   UNL A   1      43.704  22.264  26.182  1.00  0.00     0.009 A 
ATOM     62  C   UNL A   1      42.246  19.957  26.689  1.00  0.00     0.001 A 
ATOM     63  C   UNL A   1      43.919  21.103  25.419  1.00  0.00     0.001 A 
ATOM     64  C   UNL A   1      43.198  19.945  25.680  1.00  0.00     0.000 A 
ENDBRANCH  45  59
BRANCH  46  65
ATOM     65  C   UNL A   1      41.357  30.409  32.195  1.00  0.00    -0.014 A 
ATOM     66  C   UNL A   1      41.235  31.771  31.826  1.00  0.00     0.009 A 
ATOM     67  C   UNL A   1      40.207  29.764  32.670  1.00  0.00     0.009 A 
ATOM     68  C   UNL A   1      39.998  32.428  31.836  1.00  0.00     0.001 A 
ATOM     69  C   UNL A   1      38.971  30.436  32.710  1.00  0.00     0.001 A 
ATOM     70  C   UNL A   1      38.862  31.754  32.268  1.00  0.00     0.000 A 
ENDBRANCH  46  65
BRANCH  58  71
ATOM     71  C   UNL A   1      44.963  24.109  33.286  1.00  0.00    -0.014 A 
ATOM     72  C   UNL A   1      44.229  22.979  33.654  1.00  0.00     0.009 A 
ATOM     73  C   UNL A   1      46.238  24.252  33.884  1.00  0.00     0.009 A 
ATOM     74  C   UNL A   1      44.780  21.995  34.486  1.00  0.00     0.001 A 
ATOM     75  C   UNL A   1      46.782  23.290  34.734  1.00  0.00     0.001 A 
ATOM     76  C   UNL A   1      46.058  22.145  35.018  1.00  0.00     0.000 A 
ENDBRANCH  58  71
ENDBRANCH  32  33
ENDBRANCH  25  27
ENDBRANCH  24  25
ENDBRANCH  23  24
ENDBRANCH   1  23
TORSDOF 13
ENDMDL
MODEL 3
REMARK VINA RESULT:     -11.7      4.455     10.234
REMARK SMILES Cc1ccccc1C[N@@H+]1[C@@H](C(=O)OCCOC(=O)c2ccc(-c3c4nc(c(-c5ccccc5)c5ccc([nH]5)c(-c5ccccc5)c5nc(c(-c6ccccc6)c6ccc3[nH]6)C=C5)C=C4)cc2)C[C@H]2CCCC[C@@H]21
REMARK SMILES IDX 14 1 13 2 11 3 12 4 10 5 9 6 73 7 67 9 68 10 72 11 69 12
REMARK SMILES IDX 71 13 70 14 8 15 7 16 1 17 2 18 3 19 4 20 6 21 5 22 15 23
REMARK SMILES IDX 16 24 17 25 18 26 19 27 20 28 66 29 21 30 65 31 22 32 23 33
REMARK SMILES IDX 24 34 59 35 25 36 64 37 58 38 60 39 26 40 63 41 57 42 56 43
REMARK SMILES IDX 27 45 49 46 34 47 48 48 35 49 38 50 47 51 61 52 36 53 37 54
REMARK SMILES IDX 46 56 62 57 39 58 28 59 29 60 33 61 30 62 32 63 31 64 50 65
REMARK SMILES IDX 51 66 55 67 52 68 54 69 53 70 40 71 41 72 45 73 42 74 44 75
REMARK SMILES IDX 43 76
REMARK H PARENT 9 8 60 44 38 55
REMARK Flexibility Score: inf
ROOT
ATOM      1  C   UNL A   1      37.751  20.800  25.535  1.00  0.00     0.274 C 
ENDROOT
BRANCH   1   2
ATOM      2  O   UNL A   1      37.882  22.124  25.030  1.00  0.00    -0.458 OA
BRANCH   2   3
ATOM      3  C   UNL A   1      36.809  22.627  24.346  1.00  0.00     0.365 C 
ATOM      4  O   UNL A   1      36.883  23.134  23.250  1.00  0.00    -0.245 OA
BRANCH   3   5
ATOM      5  C   UNL A   1      35.520  22.391  25.188  1.00  0.00     0.296 C 
ATOM      6  N   UNL A   1      34.323  22.338  24.305  1.00  0.00    -0.317 N 
ATOM      7  C   UNL A   1      33.993  23.751  24.136  1.00  0.00     0.188 C 
ATOM      8  H   UNL A   1      34.482  21.911  23.392  1.00  0.00     0.349 HD
ATOM      9  C   UNL A   1      35.312  23.583  26.140  1.00  0.00     0.087 C 
ATOM     10  C   UNL A   1      34.144  24.340  25.538  1.00  0.00     0.054 C 
ATOM     11  C   UNL A   1      32.721  24.250  23.477  1.00  0.00     0.065 C 
ATOM     12  C   UNL A   1      34.302  25.847  25.459  1.00  0.00     0.010 C 
ATOM     13  C   UNL A   1      32.763  25.787  23.420  1.00  0.00     0.006 C 
ATOM     14  C   UNL A   1      33.060  26.433  24.783  1.00  0.00     0.001 C 
BRANCH   6  15
ATOM     15  C   UNL A   1      33.278  21.367  24.695  1.00  0.00     0.300 C 
BRANCH  15  16
ATOM     16  C   UNL A   1      33.253  19.991  24.039  1.00  0.00     0.009 A 
ATOM     17  C   UNL A   1      31.816  20.681  21.998  1.00  0.00     0.045 C 
ATOM     18  C   UNL A   1      32.475  19.671  22.902  1.00  0.00    -0.042 A 
ATOM     19  C   UNL A   1      32.308  18.319  22.541  1.00  0.00     0.004 A 
ATOM     20  C   UNL A   1      32.967  17.300  23.223  1.00  0.00     0.000 A 
ATOM     21  C   UNL A   1      34.014  18.956  24.621  1.00  0.00     0.010 A 
ATOM     22  C   UNL A   1      33.857  17.623  24.235  1.00  0.00     0.001 A 
ENDBRANCH  15  16
ENDBRANCH   6  15
ENDBRANCH   3   5
ENDBRANCH   2   3
ENDBRANCH   1   2
BRANCH   1  23
ATOM     23  C   UNL A   1      38.793  19.887  24.871  1.00  0.00     0.275 C 
BRANCH  23  24
ATOM     24  O   UNL A   1      39.752  19.174  25.722  1.00  0.00    -0.458 OA
BRANCH  24  25
ATOM     25  C   UNL A   1      41.052  19.420  26.031  1.00  0.00     0.338 C 
ATOM     26  O   UNL A   1      41.934  18.599  25.810  1.00  0.00    -0.246 OA
BRANCH  25  27
ATOM     27  C   UNL A   1      41.412  20.742  26.572  1.00  0.00     0.060 A 
ATOM     28  C   UNL A   1      41.867  21.752  25.707  1.00  0.00     0.016 A 
ATOM     29  C   UNL A   1      41.188  21.012  27.911  1.00  0.00     0.016 A 
ATOM     30  C   UNL A   1      41.941  23.074  26.157  1.00  0.00     0.010 A 
ATOM     31  C   UNL A   1      41.111  22.324  28.311  1.00  0.00     0.010 A 
ATOM     32  C   UNL A   1      41.507  23.361  27.449  1.00  0.00    -0.014 A 
BRANCH  32  33
ATOM     33  C   UNL A   1      41.738  24.625  28.135  1.00  0.00     0.031 A 
ATOM     34  C   UNL A   1      40.759  25.710  28.314  1.00  0.00     0.074 A 
ATOM     35  C   UNL A   1      42.949  24.658  28.735  1.00  0.00     0.049 A 
ATOM     36  N   UNL A   1      41.101  26.887  28.715  1.00  0.00    -0.248 NA
ATOM     37  C   UNL A   1      39.329  25.604  28.060  1.00  0.00     0.031 C 
ATOM     38  C   UNL A   1      43.500  25.556  29.730  1.00  0.00     0.029 A 
ATOM     39  N   UNL A   1      44.039  23.870  28.344  1.00  0.00    -0.354 N 
ATOM     40  C   UNL A   1      39.960  27.567  29.074  1.00  0.00     0.074 A 
ATOM     41  C   UNL A   1      38.876  26.761  28.565  1.00  0.00     0.031 C 
ATOM     42  C   UNL A   1      44.844  25.483  29.657  1.00  0.00     0.029 A 
ATOM     43  C   UNL A   1      45.170  24.669  28.488  1.00  0.00     0.049 A 
ATOM     44  H   UNL A   1      44.011  22.936  28.031  1.00  0.00     0.167 HD
ATOM     45  C   UNL A   1      40.082  28.662  29.876  1.00  0.00     0.031 A 
ATOM     46  C   UNL A   1      45.778  25.111  27.346  1.00  0.00     0.031 A 
ATOM     47  C   UNL A   1      41.490  29.016  30.073  1.00  0.00     0.049 A 
ATOM     48  C   UNL A   1      45.738  26.619  27.211  1.00  0.00     0.074 A 
ATOM     49  C   UNL A   1      42.389  28.859  31.115  1.00  0.00     0.029 A 
ATOM     50  N   UNL A   1      42.246  29.342  28.957  1.00  0.00    -0.354 N 
ATOM     51  N   UNL A   1      44.944  27.399  27.894  1.00  0.00    -0.248 NA
ATOM     52  C   UNL A   1      46.552  27.364  26.258  1.00  0.00     0.031 C 
ATOM     53  C   UNL A   1      43.703  29.062  30.598  1.00  0.00     0.029 A 
ATOM     54  C   UNL A   1      43.594  29.369  29.254  1.00  0.00     0.049 A 
ATOM     55  H   UNL A   1      41.869  29.530  28.067  1.00  0.00     0.167 HD
ATOM     56  C   UNL A   1      45.168  28.705  27.560  1.00  0.00     0.074 A 
ATOM     57  C   UNL A   1      46.145  28.626  26.487  1.00  0.00     0.031 C 
ATOM     58  C   UNL A   1      44.533  29.732  28.201  1.00  0.00     0.031 A 
BRANCH  45  59
ATOM     59  C   UNL A   1      38.957  29.283  30.673  1.00  0.00    -0.014 A 
ATOM     60  C   UNL A   1      38.750  28.871  32.007  1.00  0.00     0.009 A 
ATOM     61  C   UNL A   1      38.044  30.227  30.177  1.00  0.00     0.009 A 
ATOM     62  C   UNL A   1      37.659  29.311  32.769  1.00  0.00     0.001 A 
ATOM     63  C   UNL A   1      36.937  30.659  30.929  1.00  0.00     0.001 A 
ATOM     64  C   UNL A   1      36.738  30.191  32.221  1.00  0.00     0.000 A 
ENDBRANCH  45  59
BRANCH  46  65
ATOM     65  C   UNL A   1      45.728  24.138  26.196  1.00  0.00    -0.014 A 
ATOM     66  C   UNL A   1      46.075  22.785  26.432  1.00  0.00     0.009 A 
ATOM     67  C   UNL A   1      45.107  24.440  24.976  1.00  0.00     0.009 A 
ATOM     68  C   UNL A   1      45.726  21.768  25.535  1.00  0.00     0.001 A 
ATOM     69  C   UNL A   1      44.787  23.420  24.061  1.00  0.00     0.001 A 
ATOM     70  C   UNL A   1      45.069  22.086  24.352  1.00  0.00     0.000 A 
ENDBRANCH  46  65
BRANCH  58  71
ATOM     71  C   UNL A   1      44.699  31.202  27.900  1.00  0.00    -0.014 A 
ATOM     72  C   UNL A   1      45.193  32.145  28.805  1.00  0.00     0.009 A 
ATOM     73  C   UNL A   1      44.259  31.702  26.651  1.00  0.00     0.009 A 
ATOM     74  C   UNL A   1      45.339  33.491  28.445  1.00  0.00     0.001 A 
ATOM     75  C   UNL A   1      44.377  33.045  26.295  1.00  0.00     0.001 A 
ATOM     76  C   UNL A   1      44.941  33.939  27.187  1.00  0.00     0.000 A 
ENDBRANCH  58  71
ENDBRANCH  32  33
ENDBRANCH  25  27
ENDBRANCH  24  25
ENDBRANCH  23  24
ENDBRANCH   1  23
TORSDOF 13
ENDMDL
