MODEL 1
REMARK VINA RESULT:      -9.7      0.000      0.000
REMARK SMILES C[C@@H](C(=O)OCCOC(=O)c1ccc(-c2c3nc(c(-c4ccccc4)c4ccc([nH]4)c(-c4ccccc4)c4nc(c(-c5ccccc5)c5ccc2[nH]5)C=C4)C=C3)cc1)c1cccn(C(F)F)c1=O
REMARK SMILES IDX 6 1 5 2 3 3 4 4 2 5 1 6 59 7 60 8 67 9 61 10 63 11 68 12
REMARK SMILES IDX 62 13 64 14 65 15 66 16 7 17 8 18 9 19 10 20 11 21 12 22
REMARK SMILES IDX 58 23 13 24 57 25 14 26 15 27 16 28 51 29 17 30 56 31 50 32
REMARK SMILES IDX 52 33 18 34 55 35 49 36 48 37 19 39 41 40 26 41 40 42 27 43
REMARK SMILES IDX 30 44 39 45 53 46 28 47 29 48 38 50 54 51 31 52 20 53 21 54
REMARK SMILES IDX 25 55 22 56 24 57 23 58 42 59 43 60 47 61 44 62 46 63 45 64
REMARK SMILES IDX 32 65 33 66 37 67 34 68 36 69 35 70
REMARK H PARENT 52 38 30 49
REMARK Flexibility Score: inf
ROOT
ATOM      1  C   UNL A   1      34.389  34.464  32.390  1.00  0.00     0.274 C 
ENDROOT
BRANCH   1   2
ATOM      2  O   UNL A   1      33.848  33.996  31.138  1.00  0.00    -0.462 OA
BRANCH   2   3
ATOM      3  C   UNL A   1      33.559  34.962  30.217  1.00  0.00     0.313 C 
ATOM      4  O   UNL A   1      32.668  35.788  30.372  1.00  0.00    -0.252 OA
BRANCH   3   5
ATOM      5  C   UNL A   1      34.476  34.851  28.975  1.00  0.00     0.132 C 
ATOM      6  C   UNL A   1      34.314  36.110  28.113  1.00  0.00     0.025 C 
BRANCH   5   7
ATOM      7  C   UNL A   1      34.188  33.561  28.214  1.00  0.00     0.032 A 
ATOM      8  C   UNL A   1      32.987  33.100  27.812  1.00  0.00     0.012 A 
ATOM      9  C   UNL A   1      35.379  32.669  27.981  1.00  0.00     0.259 A 
ATOM     10  C   UNL A   1      32.818  31.748  27.330  1.00  0.00     0.019 A 
ATOM     11  N   UNL A   1      35.088  31.332  27.801  1.00  0.00    -0.258 N 
ATOM     12  O   UNL A   1      36.517  33.130  28.002  1.00  0.00    -0.269 OA
ATOM     13  C   UNL A   1      33.837  30.887  27.425  1.00  0.00     0.095 A 
BRANCH  11  14
ATOM     14  C   UNL A   1      36.120  30.400  28.145  1.00  0.00     0.451 C 
ATOM     15  F   UNL A   1      35.819  29.884  29.362  1.00  0.00    -0.185 F 
ATOM     16  F   UNL A   1      36.134  29.354  27.281  1.00  0.00    -0.185 F 
ENDBRANCH  11  14
ENDBRANCH   5   7
ENDBRANCH   3   5
ENDBRANCH   2   3
ENDBRANCH   1   2
BRANCH   1  17
ATOM     17  C   UNL A   1      34.578  33.353  33.432  1.00  0.00     0.275 C 
BRANCH  17  18
ATOM     18  O   UNL A   1      35.401  32.271  32.949  1.00  0.00    -0.458 OA
BRANCH  18  19
ATOM     19  C   UNL A   1      36.617  32.158  33.537  1.00  0.00     0.338 C 
ATOM     20  O   UNL A   1      36.858  32.255  34.733  1.00  0.00    -0.246 OA
BRANCH  19  21
ATOM     21  C   UNL A   1      37.628  31.704  32.558  1.00  0.00     0.060 A 
ATOM     22  C   UNL A   1      38.628  30.852  33.034  1.00  0.00     0.016 A 
ATOM     23  C   UNL A   1      37.637  32.103  31.218  1.00  0.00     0.016 A 
ATOM     24  C   UNL A   1      39.610  30.366  32.176  1.00  0.00     0.010 A 
ATOM     25  C   UNL A   1      38.650  31.641  30.360  1.00  0.00     0.010 A 
ATOM     26  C   UNL A   1      39.639  30.763  30.833  1.00  0.00    -0.014 A 
BRANCH  26  27
ATOM     27  C   UNL A   1      40.774  30.299  29.996  1.00  0.00     0.031 A 
ATOM     28  C   UNL A   1      40.635  29.025  29.218  1.00  0.00     0.074 A 
ATOM     29  C   UNL A   1      41.866  31.069  29.819  1.00  0.00     0.049 A 
ATOM     30  N   UNL A   1      41.476  28.471  28.382  1.00  0.00    -0.248 NA
ATOM     31  C   UNL A   1      39.389  28.270  29.417  1.00  0.00     0.031 C 
ATOM     32  C   UNL A   1      42.091  32.352  30.468  1.00  0.00     0.029 A 
ATOM     33  N   UNL A   1      42.953  30.918  28.992  1.00  0.00    -0.354 N 
ATOM     34  C   UNL A   1      40.885  27.277  27.995  1.00  0.00     0.074 A 
ATOM     35  C   UNL A   1      39.599  27.206  28.655  1.00  0.00     0.031 C 
ATOM     36  C   UNL A   1      43.177  32.933  29.929  1.00  0.00     0.029 A 
ATOM     37  C   UNL A   1      43.791  32.011  28.978  1.00  0.00     0.049 A 
ATOM     38  H   UNL A   1      43.117  30.107  28.459  1.00  0.00     0.167 HD
ATOM     39  C   UNL A   1      41.394  26.307  27.200  1.00  0.00     0.031 A 
ATOM     40  C   UNL A   1      44.931  32.234  28.294  1.00  0.00     0.031 A 
ATOM     41  C   UNL A   1      42.690  26.364  26.576  1.00  0.00     0.049 A 
ATOM     42  C   UNL A   1      45.491  31.119  27.447  1.00  0.00     0.074 A 
ATOM     43  C   UNL A   1      43.315  25.402  25.801  1.00  0.00     0.029 A 
ATOM     44  N   UNL A   1      43.563  27.437  26.663  1.00  0.00    -0.354 N 
ATOM     45  N   UNL A   1      44.952  29.966  27.130  1.00  0.00    -0.248 NA
ATOM     46  C   UNL A   1      46.844  31.317  26.904  1.00  0.00     0.031 C 
ATOM     47  C   UNL A   1      44.592  25.869  25.472  1.00  0.00     0.029 A 
ATOM     48  C   UNL A   1      44.732  27.152  25.977  1.00  0.00     0.049 A 
ATOM     49  H   UNL A   1      43.380  28.277  27.141  1.00  0.00     0.167 HD
ATOM     50  C   UNL A   1      45.900  29.301  26.364  1.00  0.00     0.074 A 
ATOM     51  C   UNL A   1      47.028  30.197  26.218  1.00  0.00     0.031 C 
ATOM     52  C   UNL A   1      45.851  28.049  25.844  1.00  0.00     0.031 A 
BRANCH  39  53
ATOM     53  C   UNL A   1      40.587  25.048  27.063  1.00  0.00    -0.014 A 
ATOM     54  C   UNL A   1      39.368  25.017  26.369  1.00  0.00     0.009 A 
ATOM     55  C   UNL A   1      41.068  23.865  27.648  1.00  0.00     0.009 A 
ATOM     56  C   UNL A   1      38.629  23.833  26.299  1.00  0.00     0.001 A 
ATOM     57  C   UNL A   1      40.344  22.678  27.549  1.00  0.00     0.001 A 
ATOM     58  C   UNL A   1      39.120  22.665  26.884  1.00  0.00     0.000 A 
ENDBRANCH  39  53
BRANCH  40  59
ATOM     59  C   UNL A   1      45.682  33.516  28.433  1.00  0.00    -0.014 A 
ATOM     60  C   UNL A   1      46.610  33.700  29.472  1.00  0.00     0.009 A 
ATOM     61  C   UNL A   1      45.429  34.592  27.566  1.00  0.00     0.009 A 
ATOM     62  C   UNL A   1      47.244  34.934  29.652  1.00  0.00     0.001 A 
ATOM     63  C   UNL A   1      46.096  35.809  27.720  1.00  0.00     0.001 A 
ATOM     64  C   UNL A   1      46.992  35.985  28.772  1.00  0.00     0.000 A 
ENDBRANCH  40  59
BRANCH  52  65
ATOM     65  C   UNL A   1      47.040  27.583  25.051  1.00  0.00    -0.014 A 
ATOM     66  C   UNL A   1      47.179  27.892  23.689  1.00  0.00     0.009 A 
ATOM     67  C   UNL A   1      48.061  26.862  25.690  1.00  0.00     0.009 A 
ATOM     68  C   UNL A   1      48.299  27.456  22.975  1.00  0.00     0.001 A 
ATOM     69  C   UNL A   1      49.193  26.456  24.983  1.00  0.00     0.001 A 
ATOM     70  C   UNL A   1      49.306  26.745  23.624  1.00  0.00     0.000 A 
ENDBRANCH  52  65
ENDBRANCH  26  27
ENDBRANCH  19  21
ENDBRANCH  18  19
ENDBRANCH  17  18
ENDBRANCH   1  17
TORSDOF 13
ENDMDL
MODEL 2
REMARK VINA RESULT:      -9.5      4.254      8.805
REMARK SMILES C[C@@H](C(=O)OCCOC(=O)c1ccc(-c2c3nc(c(-c4ccccc4)c4ccc([nH]4)c(-c4ccccc4)c4nc(c(-c5ccccc5)c5ccc2[nH]5)C=C4)C=C3)cc1)c1cccn(C(F)F)c1=O
REMARK SMILES IDX 6 1 5 2 3 3 4 4 2 5 1 6 59 7 60 8 67 9 61 10 63 11 68 12
REMARK SMILES IDX 62 13 64 14 65 15 66 16 7 17 8 18 9 19 10 20 11 21 12 22
REMARK SMILES IDX 58 23 13 24 57 25 14 26 15 27 16 28 51 29 17 30 56 31 50 32
REMARK SMILES IDX 52 33 18 34 55 35 49 36 48 37 19 39 41 40 26 41 40 42 27 43
REMARK SMILES IDX 30 44 39 45 53 46 28 47 29 48 38 50 54 51 31 52 20 53 21 54
REMARK SMILES IDX 25 55 22 56 24 57 23 58 42 59 43 60 47 61 44 62 46 63 45 64
REMARK SMILES IDX 32 65 33 66 37 67 34 68 36 69 35 70
REMARK H PARENT 52 38 30 49
REMARK Flexibility Score: inf
ROOT
ATOM      1  C   UNL A   1      34.442  20.814  25.357  1.00  0.00     0.274 C 
ENDROOT
BRANCH   1   2
ATOM      2  O   UNL A   1      34.137  22.180  25.008  1.00  0.00    -0.462 OA
BRANCH   2   3
ATOM      3  C   UNL A   1      33.720  22.387  23.725  1.00  0.00     0.313 C 
ATOM      4  O   UNL A   1      32.830  21.731  23.197  1.00  0.00    -0.252 OA
BRANCH   3   5
ATOM      5  C   UNL A   1      34.525  23.520  23.045  1.00  0.00     0.132 C 
ATOM      6  C   UNL A   1      36.019  23.176  23.088  1.00  0.00     0.025 C 
BRANCH   5   7
ATOM      7  C   UNL A   1      34.200  24.864  23.688  1.00  0.00     0.032 A 
ATOM      8  C   UNL A   1      34.361  25.212  24.981  1.00  0.00     0.012 A 
ATOM      9  C   UNL A   1      33.536  25.870  22.785  1.00  0.00     0.259 A 
ATOM     10  C   UNL A   1      33.779  26.421  25.517  1.00  0.00     0.019 A 
ATOM     11  N   UNL A   1      32.775  26.827  23.426  1.00  0.00    -0.258 N 
ATOM     12  O   UNL A   1      33.651  25.784  21.565  1.00  0.00    -0.269 OA
ATOM     13  C   UNL A   1      32.938  27.134  24.761  1.00  0.00     0.095 A 
BRANCH  11  14
ATOM     14  C   UNL A   1      31.710  27.412  22.667  1.00  0.00     0.451 C 
ATOM     15  F   UNL A   1      30.551  26.842  23.081  1.00  0.00    -0.185 F 
ATOM     16  F   UNL A   1      31.599  28.738  22.933  1.00  0.00    -0.185 F 
ENDBRANCH  11  14
ENDBRANCH   5   7
ENDBRANCH   3   5
ENDBRANCH   2   3
ENDBRANCH   1   2
BRANCH   1  17
ATOM     17  C   UNL A   1      35.929  20.461  25.218  1.00  0.00     0.275 C 
BRANCH  17  18
ATOM     18  O   UNL A   1      36.795  21.458  25.800  1.00  0.00    -0.458 OA
BRANCH  18  19
ATOM     19  C   UNL A   1      38.114  21.150  25.804  1.00  0.00     0.338 C 
ATOM     20  O   UNL A   1      38.620  20.112  25.399  1.00  0.00    -0.246 OA
BRANCH  19  21
ATOM     21  C   UNL A   1      38.922  22.327  26.192  1.00  0.00     0.060 A 
ATOM     22  C   UNL A   1      38.347  23.583  25.983  1.00  0.00     0.016 A 
ATOM     23  C   UNL A   1      40.212  22.235  26.721  1.00  0.00     0.016 A 
ATOM     24  C   UNL A   1      39.032  24.742  26.334  1.00  0.00     0.010 A 
ATOM     25  C   UNL A   1      40.919  23.407  27.043  1.00  0.00     0.010 A 
ATOM     26  C   UNL A   1      40.329  24.668  26.857  1.00  0.00    -0.014 A 
BRANCH  26  27
ATOM     27  C   UNL A   1      41.051  25.942  27.109  1.00  0.00     0.031 A 
ATOM     28  C   UNL A   1      40.533  26.879  28.158  1.00  0.00     0.074 A 
ATOM     29  C   UNL A   1      42.229  26.201  26.510  1.00  0.00     0.049 A 
ATOM     30  N   UNL A   1      41.040  28.010  28.578  1.00  0.00    -0.248 NA
ATOM     31  C   UNL A   1      39.272  26.497  28.812  1.00  0.00     0.031 C 
ATOM     32  C   UNL A   1      42.865  25.342  25.521  1.00  0.00     0.029 A 
ATOM     33  N   UNL A   1      43.130  27.222  26.693  1.00  0.00    -0.354 N 
ATOM     34  C   UNL A   1      40.136  28.503  29.508  1.00  0.00     0.074 A 
ATOM     35  C   UNL A   1      39.070  27.529  29.619  1.00  0.00     0.031 C 
ATOM     36  C   UNL A   1      44.105  25.799  25.274  1.00  0.00     0.029 A 
ATOM     37  C   UNL A   1      44.308  27.050  25.999  1.00  0.00     0.049 A 
ATOM     38  H   UNL A   1      42.953  28.002  27.267  1.00  0.00     0.167 HD
ATOM     39  C   UNL A   1      40.169  29.683  30.169  1.00  0.00     0.031 A 
ATOM     40  C   UNL A   1      45.411  27.822  25.939  1.00  0.00     0.031 A 
ATOM     41  C   UNL A   1      41.211  30.665  30.026  1.00  0.00     0.049 A 
ATOM     42  C   UNL A   1      45.402  29.148  26.657  1.00  0.00     0.074 A 
ATOM     43  C   UNL A   1      41.300  31.917  30.611  1.00  0.00     0.029 A 
ATOM     44  N   UNL A   1      42.340  30.512  29.237  1.00  0.00    -0.354 N 
ATOM     45  N   UNL A   1      44.514  29.634  27.491  1.00  0.00    -0.248 NA
ATOM     46  C   UNL A   1      46.526  30.057  26.382  1.00  0.00     0.031 C 
ATOM     47  C   UNL A   1      42.452  32.545  30.125  1.00  0.00     0.029 A 
ATOM     48  C   UNL A   1      43.119  31.655  29.298  1.00  0.00     0.049 A 
ATOM     49  H   UNL A   1      42.556  29.709  28.710  1.00  0.00     0.167 HD
ATOM     50  C   UNL A   1      44.966  30.902  27.830  1.00  0.00     0.074 A 
ATOM     51  C   UNL A   1      46.231  31.093  27.153  1.00  0.00     0.031 C 
ATOM     52  C   UNL A   1      44.374  31.836  28.615  1.00  0.00     0.031 A 
BRANCH  39  53
ATOM     53  C   UNL A   1      38.977  30.021  31.016  1.00  0.00    -0.014 A 
ATOM     54  C   UNL A   1      38.926  29.721  32.385  1.00  0.00     0.009 A 
ATOM     55  C   UNL A   1      37.875  30.657  30.417  1.00  0.00     0.009 A 
ATOM     56  C   UNL A   1      37.781  30.018  33.129  1.00  0.00     0.001 A 
ATOM     57  C   UNL A   1      36.746  30.980  31.169  1.00  0.00     0.001 A 
ATOM     58  C   UNL A   1      36.696  30.651  32.522  1.00  0.00     0.000 A 
ENDBRANCH  39  53
BRANCH  40  59
ATOM     59  C   UNL A   1      46.590  27.427  25.113  1.00  0.00    -0.014 A 
ATOM     60  C   UNL A   1      46.785  27.970  23.831  1.00  0.00     0.009 A 
ATOM     61  C   UNL A   1      47.495  26.457  25.572  1.00  0.00     0.009 A 
ATOM     62  C   UNL A   1      47.840  27.531  23.024  1.00  0.00     0.001 A 
ATOM     63  C   UNL A   1      48.574  26.052  24.782  1.00  0.00     0.001 A 
ATOM     64  C   UNL A   1      48.738  26.578  23.503  1.00  0.00     0.000 A 
ENDBRANCH  40  59
BRANCH  52  65
ATOM     65  C   UNL A   1      45.099  33.141  28.803  1.00  0.00    -0.014 A 
ATOM     66  C   UNL A   1      44.862  34.239  27.962  1.00  0.00     0.009 A 
ATOM     67  C   UNL A   1      46.002  33.286  29.869  1.00  0.00     0.009 A 
ATOM     68  C   UNL A   1      45.540  35.444  28.163  1.00  0.00     0.001 A 
ATOM     69  C   UNL A   1      46.653  34.500  30.087  1.00  0.00     0.001 A 
ATOM     70  C   UNL A   1      46.430  35.574  29.228  1.00  0.00     0.000 A 
ENDBRANCH  52  65
ENDBRANCH  26  27
ENDBRANCH  19  21
ENDBRANCH  18  19
ENDBRANCH  17  18
ENDBRANCH   1  17
TORSDOF 13
ENDMDL
MODEL 3
REMARK VINA RESULT:      -9.4      4.225      9.073
REMARK SMILES C[C@@H](C(=O)OCCOC(=O)c1ccc(-c2c3nc(c(-c4ccccc4)c4ccc([nH]4)c(-c4ccccc4)c4nc(c(-c5ccccc5)c5ccc2[nH]5)C=C4)C=C3)cc1)c1cccn(C(F)F)c1=O
REMARK SMILES IDX 6 1 5 2 3 3 4 4 2 5 1 6 59 7 60 8 67 9 61 10 63 11 68 12
REMARK SMILES IDX 62 13 64 14 65 15 66 16 7 17 8 18 9 19 10 20 11 21 12 22
REMARK SMILES IDX 58 23 13 24 57 25 14 26 15 27 16 28 51 29 17 30 56 31 50 32
REMARK SMILES IDX 52 33 18 34 55 35 49 36 48 37 19 39 41 40 26 41 40 42 27 43
REMARK SMILES IDX 30 44 39 45 53 46 28 47 29 48 38 50 54 51 31 52 20 53 21 54
REMARK SMILES IDX 25 55 22 56 24 57 23 58 42 59 43 60 47 61 44 62 46 63 45 64
REMARK SMILES IDX 32 65 33 66 37 67 34 68 36 69 35 70
REMARK H PARENT 52 38 30 49
REMARK Flexibility Score: inf
ROOT
ATOM      1  C   UNL A   1      35.201  20.483  25.078  1.00  0.00     0.274 C 
ENDROOT
BRANCH   1   2
ATOM      2  O   UNL A   1      34.821  21.874  25.043  1.00  0.00    -0.462 OA
BRANCH   2   3
ATOM      3  C   UNL A   1      34.104  22.267  23.949  1.00  0.00     0.313 C 
ATOM      4  O   UNL A   1      33.092  21.690  23.569  1.00  0.00    -0.252 OA
BRANCH   3   5
ATOM      5  C   UNL A   1      34.749  23.495  23.263  1.00  0.00     0.132 C 
ATOM      6  C   UNL A   1      36.276  23.346  23.290  1.00  0.00     0.025 C 
BRANCH   5   7
ATOM      7  C   UNL A   1      34.261  24.786  23.913  1.00  0.00     0.032 A 
ATOM      8  C   UNL A   1      34.473  25.194  25.180  1.00  0.00     0.012 A 
ATOM      9  C   UNL A   1      33.362  25.640  23.058  1.00  0.00     0.259 A 
ATOM     10  C   UNL A   1      33.745  26.305  25.749  1.00  0.00     0.019 A 
ATOM     11  N   UNL A   1      32.510  26.476  23.751  1.00  0.00    -0.258 N 
ATOM     12  O   UNL A   1      33.383  25.537  21.834  1.00  0.00    -0.269 OA
ATOM     13  C   UNL A   1      32.734  26.847  25.060  1.00  0.00     0.095 A 
BRANCH  11  14
ATOM     14  C   UNL A   1      31.300  26.853  23.083  1.00  0.00     0.451 C 
ATOM     15  F   UNL A   1      30.447  27.334  24.021  1.00  0.00    -0.185 F 
ATOM     16  F   UNL A   1      31.524  27.871  22.214  1.00  0.00    -0.185 F 
ENDBRANCH  11  14
ENDBRANCH   5   7
ENDBRANCH   3   5
ENDBRANCH   2   3
ENDBRANCH   1   2
BRANCH   1  17
ATOM     17  C   UNL A   1      36.719  20.259  25.054  1.00  0.00     0.275 C 
BRANCH  17  18
ATOM     18  O   UNL A   1      37.452  21.347  25.657  1.00  0.00    -0.458 OA
BRANCH  18  19
ATOM     19  C   UNL A   1      38.728  21.062  26.009  1.00  0.00     0.338 C 
ATOM     20  O   UNL A   1      39.326  20.016  25.794  1.00  0.00    -0.246 OA
BRANCH  19  21
ATOM     21  C   UNL A   1      39.405  22.268  26.534  1.00  0.00     0.060 A 
ATOM     22  C   UNL A   1      38.913  23.504  26.105  1.00  0.00     0.016 A 
ATOM     23  C   UNL A   1      40.502  22.221  27.398  1.00  0.00     0.016 A 
ATOM     24  C   UNL A   1      39.482  24.688  26.563  1.00  0.00     0.010 A 
ATOM     25  C   UNL A   1      41.100  23.417  27.832  1.00  0.00     0.010 A 
ATOM     26  C   UNL A   1      40.587  24.659  27.422  1.00  0.00    -0.014 A 
BRANCH  26  27
ATOM     27  C   UNL A   1      41.219  25.953  27.787  1.00  0.00     0.031 A 
ATOM     28  C   UNL A   1      42.513  26.342  27.137  1.00  0.00     0.074 A 
ATOM     29  C   UNL A   1      40.584  26.834  28.583  1.00  0.00     0.049 A 
ATOM     30  N   UNL A   1      43.202  27.447  27.266  1.00  0.00    -0.248 NA
ATOM     31  C   UNL A   1      43.115  25.352  26.232  1.00  0.00     0.031 C 
ATOM     32  C   UNL A   1      39.298  26.599  29.224  1.00  0.00     0.029 A 
ATOM     33  N   UNL A   1      40.899  28.126  28.933  1.00  0.00    -0.354 N 
ATOM     34  C   UNL A   1      44.345  27.266  26.500  1.00  0.00     0.074 A 
ATOM     35  C   UNL A   1      44.237  25.963  25.879  1.00  0.00     0.031 C 
ATOM     36  C   UNL A   1      38.870  27.743  29.785  1.00  0.00     0.029 A 
ATOM     37  C   UNL A   1      39.906  28.762  29.644  1.00  0.00     0.049 A 
ATOM     38  H   UNL A   1      41.753  28.556  28.697  1.00  0.00     0.167 HD
ATOM     39  C   UNL A   1      45.408  28.093  26.369  1.00  0.00     0.031 A 
ATOM     40  C   UNL A   1      39.849  30.013  30.143  1.00  0.00     0.031 A 
ATOM     41  C   UNL A   1      45.528  29.372  27.018  1.00  0.00     0.049 A 
ATOM     42  C   UNL A   1      41.064  30.896  30.013  1.00  0.00     0.074 A 
ATOM     43  C   UNL A   1      46.595  30.254  26.992  1.00  0.00     0.029 A 
ATOM     44  N   UNL A   1      44.553  29.947  27.818  1.00  0.00    -0.354 N 
ATOM     45  N   UNL A   1      42.168  30.694  29.334  1.00  0.00    -0.248 NA
ATOM     46  C   UNL A   1      41.046  32.161  30.764  1.00  0.00     0.031 C 
ATOM     47  C   UNL A   1      46.289  31.334  27.827  1.00  0.00     0.029 A 
ATOM     48  C   UNL A   1      45.003  31.161  28.312  1.00  0.00     0.049 A 
ATOM     49  H   UNL A   1      43.672  29.552  28.008  1.00  0.00     0.167 HD
ATOM     50  C   UNL A   1      42.975  31.797  29.584  1.00  0.00     0.074 A 
ATOM     51  C   UNL A   1      42.216  32.689  30.434  1.00  0.00     0.031 C 
ATOM     52  C   UNL A   1      44.241  32.038  29.163  1.00  0.00     0.031 A 
BRANCH  39  53
ATOM     53  C   UNL A   1      46.577  27.576  25.581  1.00  0.00    -0.014 A 
ATOM     54  C   UNL A   1      47.562  26.761  26.158  1.00  0.00     0.009 A 
ATOM     55  C   UNL A   1      46.687  27.920  24.223  1.00  0.00     0.009 A 
ATOM     56  C   UNL A   1      48.655  26.334  25.399  1.00  0.00     0.001 A 
ATOM     57  C   UNL A   1      47.763  27.466  23.460  1.00  0.00     0.001 A 
ATOM     58  C   UNL A   1      48.750  26.682  24.051  1.00  0.00     0.000 A 
ENDBRANCH  39  53
BRANCH  40  59
ATOM     59  C   UNL A   1      38.649  30.498  30.888  1.00  0.00    -0.014 A 
ATOM     60  C   UNL A   1      38.515  30.265  32.268  1.00  0.00     0.009 A 
ATOM     61  C   UNL A   1      37.598  31.140  30.214  1.00  0.00     0.009 A 
ATOM     62  C   UNL A   1      37.351  30.641  32.945  1.00  0.00     0.001 A 
ATOM     63  C   UNL A   1      36.454  31.553  30.900  1.00  0.00     0.001 A 
ATOM     64  C   UNL A   1      36.324  31.291  32.262  1.00  0.00     0.000 A 
ENDBRANCH  40  59
BRANCH  52  65
ATOM     65  C   UNL A   1      44.879  33.329  29.599  1.00  0.00    -0.014 A 
ATOM     66  C   UNL A   1      45.652  33.406  30.767  1.00  0.00     0.009 A 
ATOM     67  C   UNL A   1      44.739  34.476  28.801  1.00  0.00     0.009 A 
ATOM     68  C   UNL A   1      46.244  34.615  31.146  1.00  0.00     0.001 A 
ATOM     69  C   UNL A   1      45.357  35.672  29.164  1.00  0.00     0.001 A 
ATOM     70  C   UNL A   1      46.100  35.743  30.341  1.00  0.00     0.000 A 
ENDBRANCH  52  65
ENDBRANCH  26  27
ENDBRANCH  19  21
ENDBRANCH  18  19
ENDBRANCH  17  18
ENDBRANCH   1  17
TORSDOF 13
ENDMDL
