MODEL 1
REMARK VINA RESULT:     -11.7      0.000      0.000
REMARK SMILES Cc1ccc(-c2nn(-c3ccccc3)cc2[C@@H]2[NH2+][C@H](C(=O)OCCOC(=O)c3ccc(-c4c5nc(c(-c6ccccc6)c6ccc([nH]6)c(-c6ccccc6)c6nc(c(-c7ccccc7)c7ccc4[nH]7)C=C6)C=C5)cc3)CS2)cc1
REMARK SMILES IDX 23 1 22 2 20 3 21 4 19 5 17 6 18 7 77 8 76 11 16 12 6 13
REMARK SMILES IDX 7 14 8 15 15 16 5 17 1 18 2 19 3 20 79 21 4 22 78 23 9 24
REMARK SMILES IDX 10 25 14 26 11 27 13 28 12 29 24 30 25 31 26 32 27 33 28 34
REMARK SMILES IDX 29 35 75 36 30 37 74 38 31 39 32 40 33 41 68 42 34 43 73 44
REMARK SMILES IDX 67 45 69 46 35 47 72 48 66 49 65 50 36 52 58 53 43 54 57 55
REMARK SMILES IDX 44 56 47 57 56 58 70 59 45 60 46 61 55 63 71 64 48 65 37 66
REMARK SMILES IDX 38 67 42 68 39 69 41 70 40 71 59 72 60 73 64 74 61 75 63 76
REMARK SMILES IDX 62 77 49 78 50 79 54 80 51 81 53 82 52 83
REMARK H PARENT 18 9 18 10 69 51 47 62
REMARK Flexibility Score: inf
ROOT
ATOM      1  C   UNL A   1      31.462  31.230  26.126  1.00  0.00     0.274 C 
ENDROOT
BRANCH   1   2
ATOM      2  O   UNL A   1      32.003  30.206  25.283  1.00  0.00    -0.458 OA
BRANCH   2   3
ATOM      3  C   UNL A   1      32.035  28.963  25.847  1.00  0.00     0.365 C 
ATOM      4  O   UNL A   1      31.079  28.438  26.399  1.00  0.00    -0.245 OA
BRANCH   3   5
ATOM      5  C   UNL A   1      33.417  28.314  25.719  1.00  0.00     0.304 C 
ATOM      6  C   UNL A   1      33.193  27.196  23.608  1.00  0.00     0.278 C 
ATOM      7  N   UNL A   1      33.311  26.985  25.065  1.00  0.00    -0.319 N 
ATOM      8  S   UNL A   1      34.423  28.473  23.232  1.00  0.00    -0.087 SA
ATOM      9  H   UNL A   1      34.145  26.433  25.268  1.00  0.00     0.348 HD
ATOM     10  H   UNL A   1      32.496  26.483  25.416  1.00  0.00     0.348 HD
ATOM     11  C   UNL A   1      34.419  29.151  24.919  1.00  0.00     0.153 C 
BRANCH   6  12
ATOM     12  C   UNL A   1      31.783  27.582  23.262  1.00  0.00     0.067 A 
ATOM     13  C   UNL A   1      30.594  26.920  23.680  1.00  0.00     0.103 A 
ATOM     14  N   UNL A   1      29.497  27.654  23.446  1.00  0.00    -0.167 NA
ATOM     15  N   UNL A   1      29.957  28.754  22.794  1.00  0.00    -0.240 N 
ATOM     16  C   UNL A   1      31.291  28.606  22.472  1.00  0.00     0.126 A 
BRANCH  13  17
ATOM     17  C   UNL A   1      30.550  25.553  24.163  1.00  0.00     0.003 A 
ATOM     18  C   UNL A   1      31.425  21.571  25.518  1.00  0.00     0.044 C 
ATOM     19  C   UNL A   1      31.069  22.946  25.038  1.00  0.00    -0.051 A 
ATOM     20  C   UNL A   1      30.689  23.941  25.953  1.00  0.00     0.004 A 
ATOM     21  C   UNL A   1      31.135  23.254  23.677  1.00  0.00     0.004 A 
ATOM     22  C   UNL A   1      30.429  25.244  25.518  1.00  0.00     0.011 A 
ATOM     23  C   UNL A   1      30.875  24.550  23.242  1.00  0.00     0.011 A 
ENDBRANCH  13  17
BRANCH  15  24
ATOM     24  C   UNL A   1      29.141  29.902  22.568  1.00  0.00     0.065 A 
ATOM     25  C   UNL A   1      28.826  30.757  23.632  1.00  0.00     0.028 A 
ATOM     26  C   UNL A   1      28.705  30.233  21.277  1.00  0.00     0.028 A 
ATOM     27  C   UNL A   1      28.117  31.940  23.395  1.00  0.00     0.002 A 
ATOM     28  C   UNL A   1      28.001  31.417  21.043  1.00  0.00     0.002 A 
ATOM     29  C   UNL A   1      27.712  32.272  22.101  1.00  0.00     0.000 A 
ENDBRANCH  15  24
ENDBRANCH   6  12
ENDBRANCH   3   5
ENDBRANCH   2   3
ENDBRANCH   1   2
BRANCH   1  30
ATOM     30  C   UNL A   1      32.466  31.700  27.186  1.00  0.00     0.275 C 
BRANCH  30  31
ATOM     31  O   UNL A   1      32.570  33.131  27.462  1.00  0.00    -0.458 OA
BRANCH  31  32
ATOM     32  C   UNL A   1      33.303  33.821  28.377  1.00  0.00     0.338 C 
ATOM     33  O   UNL A   1      32.906  34.859  28.870  1.00  0.00    -0.246 OA
BRANCH  32  34
ATOM     34  C   UNL A   1      34.583  33.242  28.828  1.00  0.00     0.060 A 
ATOM     35  C   UNL A   1      34.612  32.379  29.939  1.00  0.00     0.016 A 
ATOM     36  C   UNL A   1      35.733  33.494  28.101  1.00  0.00     0.016 A 
ATOM     37  C   UNL A   1      35.784  31.680  30.247  1.00  0.00     0.010 A 
ATOM     38  C   UNL A   1      36.818  32.672  28.287  1.00  0.00     0.010 A 
ATOM     39  C   UNL A   1      36.877  31.793  29.385  1.00  0.00    -0.014 A 
BRANCH  39  40
ATOM     40  C   UNL A   1      38.218  31.271  29.655  1.00  0.00     0.031 A 
ATOM     41  C   UNL A   1      38.697  29.907  29.346  1.00  0.00     0.074 A 
ATOM     42  C   UNL A   1      39.023  32.209  30.201  1.00  0.00     0.049 A 
ATOM     43  N   UNL A   1      39.708  29.347  29.921  1.00  0.00    -0.248 NA
ATOM     44  C   UNL A   1      38.083  29.028  28.362  1.00  0.00     0.031 C 
ATOM     45  C   UNL A   1      40.445  32.214  30.479  1.00  0.00     0.029 A 
ATOM     46  N   UNL A   1      38.554  33.375  30.820  1.00  0.00    -0.354 N 
ATOM     47  C   UNL A   1      40.041  28.212  29.206  1.00  0.00     0.074 A 
ATOM     48  C   UNL A   1      38.947  28.006  28.298  1.00  0.00     0.031 C 
ATOM     49  C   UNL A   1      40.673  33.123  31.452  1.00  0.00     0.029 A 
ATOM     50  C   UNL A   1      39.372  33.608  31.915  1.00  0.00     0.049 A 
ATOM     51  H   UNL A   1      37.789  33.925  30.532  1.00  0.00     0.167 HD
ATOM     52  C   UNL A   1      41.283  27.671  29.363  1.00  0.00     0.031 A 
ATOM     53  C   UNL A   1      38.830  33.409  33.154  1.00  0.00     0.031 A 
ATOM     54  C   UNL A   1      41.988  28.342  30.448  1.00  0.00     0.049 A 
ATOM     55  C   UNL A   1      39.538  32.292  33.871  1.00  0.00     0.074 A 
ATOM     56  C   UNL A   1      42.885  29.396  30.455  1.00  0.00     0.029 A 
ATOM     57  N   UNL A   1      41.500  28.216  31.742  1.00  0.00    -0.354 N 
ATOM     58  N   UNL A   1      40.074  31.263  33.276  1.00  0.00    -0.248 NA
ATOM     59  C   UNL A   1      39.713  32.273  35.318  1.00  0.00     0.031 C 
ATOM     60  C   UNL A   1      42.815  30.002  31.737  1.00  0.00     0.029 A 
ATOM     61  C   UNL A   1      41.918  29.285  32.510  1.00  0.00     0.049 A 
ATOM     62  H   UNL A   1      40.938  27.475  32.063  1.00  0.00     0.167 HD
ATOM     63  C   UNL A   1      40.724  30.505  34.207  1.00  0.00     0.074 A 
ATOM     64  C   UNL A   1      40.443  31.157  35.475  1.00  0.00     0.031 C 
ATOM     65  C   UNL A   1      41.473  29.414  33.887  1.00  0.00     0.031 A 
BRANCH  52  66
ATOM     66  C   UNL A   1      41.975  26.758  28.375  1.00  0.00    -0.014 A 
ATOM     67  C   UNL A   1      42.761  27.338  27.354  1.00  0.00     0.009 A 
ATOM     68  C   UNL A   1      41.865  25.358  28.338  1.00  0.00     0.009 A 
ATOM     69  C   UNL A   1      43.335  26.583  26.322  1.00  0.00     0.001 A 
ATOM     70  C   UNL A   1      42.425  24.597  27.297  1.00  0.00     0.001 A 
ATOM     71  C   UNL A   1      43.150  25.210  26.282  1.00  0.00     0.000 A 
ENDBRANCH  52  66
BRANCH  53  72
ATOM     72  C   UNL A   1      37.350  33.675  33.266  1.00  0.00    -0.014 A 
ATOM     73  C   UNL A   1      36.821  34.872  32.728  1.00  0.00     0.009 A 
ATOM     74  C   UNL A   1      36.438  32.686  33.661  1.00  0.00     0.009 A 
ATOM     75  C   UNL A   1      35.446  35.034  32.509  1.00  0.00     0.001 A 
ATOM     76  C   UNL A   1      35.057  32.861  33.465  1.00  0.00     0.001 A 
ATOM     77  C   UNL A   1      34.564  34.021  32.867  1.00  0.00     0.000 A 
ENDBRANCH  53  72
BRANCH  65  78
ATOM     78  C   UNL A   1      41.934  28.396  34.886  1.00  0.00    -0.014 A 
ATOM     79  C   UNL A   1      41.473  27.073  34.892  1.00  0.00     0.009 A 
ATOM     80  C   UNL A   1      42.992  28.719  35.759  1.00  0.00     0.009 A 
ATOM     81  C   UNL A   1      41.998  26.131  35.779  1.00  0.00     0.001 A 
ATOM     82  C   UNL A   1      43.554  27.768  36.609  1.00  0.00     0.001 A 
ATOM     83  C   UNL A   1      43.043  26.476  36.631  1.00  0.00     0.000 A 
ENDBRANCH  65  78
ENDBRANCH  39  40
ENDBRANCH  32  34
ENDBRANCH  31  32
ENDBRANCH  30  31
ENDBRANCH   1  30
TORSDOF 14
ENDMDL
MODEL 2
REMARK VINA RESULT:     -11.7      2.394      4.062
REMARK SMILES Cc1ccc(-c2nn(-c3ccccc3)cc2[C@@H]2[NH2+][C@H](C(=O)OCCOC(=O)c3ccc(-c4c5nc(c(-c6ccccc6)c6ccc([nH]6)c(-c6ccccc6)c6nc(c(-c7ccccc7)c7ccc4[nH]7)C=C6)C=C5)cc3)CS2)cc1
REMARK SMILES IDX 23 1 22 2 20 3 21 4 19 5 17 6 18 7 77 8 76 11 16 12 6 13
REMARK SMILES IDX 7 14 8 15 15 16 5 17 1 18 2 19 3 20 79 21 4 22 78 23 9 24
REMARK SMILES IDX 10 25 14 26 11 27 13 28 12 29 24 30 25 31 26 32 27 33 28 34
REMARK SMILES IDX 29 35 75 36 30 37 74 38 31 39 32 40 33 41 68 42 34 43 73 44
REMARK SMILES IDX 67 45 69 46 35 47 72 48 66 49 65 50 36 52 58 53 43 54 57 55
REMARK SMILES IDX 44 56 47 57 56 58 70 59 45 60 46 61 55 63 71 64 48 65 37 66
REMARK SMILES IDX 38 67 42 68 39 69 41 70 40 71 59 72 60 73 64 74 61 75 63 76
REMARK SMILES IDX 62 77 49 78 50 79 54 80 51 81 53 82 52 83
REMARK H PARENT 18 9 18 10 69 51 47 62
REMARK Flexibility Score: inf
ROOT
ATOM      1  C   UNL A   1      32.249  30.342  26.918  1.00  0.00     0.274 C 
ENDROOT
BRANCH   1   2
ATOM      2  O   UNL A   1      32.409  29.531  25.747  1.00  0.00    -0.458 OA
BRANCH   2   3
ATOM      3  C   UNL A   1      32.493  28.190  25.991  1.00  0.00     0.365 C 
ATOM      4  O   UNL A   1      31.576  27.518  26.441  1.00  0.00    -0.245 OA
BRANCH   3   5
ATOM      5  C   UNL A   1      33.878  27.634  25.647  1.00  0.00     0.304 C 
ATOM      6  C   UNL A   1      33.441  26.630  23.512  1.00  0.00     0.278 C 
ATOM      7  N   UNL A   1      33.758  26.342  24.926  1.00  0.00    -0.319 N 
ATOM      8  S   UNL A   1      34.544  27.998  23.069  1.00  0.00    -0.087 SA
ATOM      9  H   UNL A   1      34.639  25.830  24.985  1.00  0.00     0.348 HD
ATOM     10  H   UNL A   1      33.023  25.772  25.343  1.00  0.00     0.348 HD
ATOM     11  C   UNL A   1      34.724  28.575  24.784  1.00  0.00     0.153 C 
BRANCH   6  12
ATOM     12  C   UNL A   1      31.981  26.950  23.373  1.00  0.00     0.067 A 
ATOM     13  C   UNL A   1      30.889  26.139  23.792  1.00  0.00     0.103 A 
ATOM     14  N   UNL A   1      29.728  26.810  23.789  1.00  0.00    -0.167 NA
ATOM     15  N   UNL A   1      30.044  28.031  23.281  1.00  0.00    -0.240 N 
ATOM     16  C   UNL A   1      31.341  28.042  22.811  1.00  0.00     0.126 A 
BRANCH  13  17
ATOM     17  C   UNL A   1      30.985  24.714  24.049  1.00  0.00     0.003 A 
ATOM     18  C   UNL A   1      32.261  20.689  24.838  1.00  0.00     0.044 C 
ATOM     19  C   UNL A   1      31.768  22.075  24.549  1.00  0.00    -0.051 A 
ATOM     20  C   UNL A   1      31.201  22.853  25.570  1.00  0.00     0.004 A 
ATOM     21  C   UNL A   1      31.890  22.610  23.264  1.00  0.00     0.004 A 
ATOM     22  C   UNL A   1      30.810  24.172  25.322  1.00  0.00     0.011 A 
ATOM     23  C   UNL A   1      31.498  23.922  23.015  1.00  0.00     0.011 A 
ENDBRANCH  13  17
BRANCH  15  24
ATOM     24  C   UNL A   1      29.136  29.130  23.325  1.00  0.00     0.065 A 
ATOM     25  C   UNL A   1      27.759  28.906  23.197  1.00  0.00     0.028 A 
ATOM     26  C   UNL A   1      29.594  30.433  23.566  1.00  0.00     0.028 A 
ATOM     27  C   UNL A   1      26.859  29.967  23.348  1.00  0.00     0.002 A 
ATOM     28  C   UNL A   1      28.692  31.489  23.720  1.00  0.00     0.002 A 
ATOM     29  C   UNL A   1      27.325  31.255  23.616  1.00  0.00     0.000 A 
ENDBRANCH  15  24
ENDBRANCH   6  12
ENDBRANCH   3   5
ENDBRANCH   2   3
ENDBRANCH   1   2
BRANCH   1  30
ATOM     30  C   UNL A   1      33.553  31.039  27.324  1.00  0.00     0.275 C 
BRANCH  30  31
ATOM     31  O   UNL A   1      34.639  30.228  27.868  1.00  0.00    -0.458 OA
BRANCH  31  32
ATOM     32  C   UNL A   1      35.719  30.559  28.626  1.00  0.00     0.338 C 
ATOM     33  O   UNL A   1      35.686  31.467  29.434  1.00  0.00    -0.246 OA
BRANCH  32  34
ATOM     34  C   UNL A   1      36.939  29.738  28.501  1.00  0.00     0.060 A 
ATOM     35  C   UNL A   1      37.753  29.858  27.360  1.00  0.00     0.016 A 
ATOM     36  C   UNL A   1      37.310  28.916  29.549  1.00  0.00     0.016 A 
ATOM     37  C   UNL A   1      39.003  29.230  27.328  1.00  0.00     0.010 A 
ATOM     38  C   UNL A   1      38.606  28.459  29.596  1.00  0.00     0.010 A 
ATOM     39  C   UNL A   1      39.449  28.568  28.473  1.00  0.00    -0.014 A 
BRANCH  39  40
ATOM     40  C   UNL A   1      40.643  27.723  28.544  1.00  0.00     0.031 A 
ATOM     41  C   UNL A   1      40.678  26.256  28.362  1.00  0.00     0.074 A 
ATOM     42  C   UNL A   1      41.762  28.448  28.759  1.00  0.00     0.049 A 
ATOM     43  N   UNL A   1      41.625  25.496  28.801  1.00  0.00    -0.248 NA
ATOM     44  C   UNL A   1      39.649  25.491  27.675  1.00  0.00     0.031 C 
ATOM     45  C   UNL A   1      43.165  28.084  28.738  1.00  0.00     0.029 A 
ATOM     46  N   UNL A   1      41.760  29.753  29.268  1.00  0.00    -0.354 N 
ATOM     47  C   UNL A   1      41.485  24.249  28.221  1.00  0.00     0.074 A 
ATOM     48  C   UNL A   1      40.190  24.268  27.599  1.00  0.00     0.031 C 
ATOM     49  C   UNL A   1      43.837  28.984  29.488  1.00  0.00     0.029 A 
ATOM     50  C   UNL A   1      42.846  29.855  30.123  1.00  0.00     0.049 A 
ATOM     51  H   UNL A   1      41.110  30.463  29.059  1.00  0.00     0.167 HD
ATOM     52  C   UNL A   1      42.554  23.402  28.206  1.00  0.00     0.031 A 
ATOM     53  C   UNL A   1      42.583  29.937  31.462  1.00  0.00     0.031 A 
ATOM     54  C   UNL A   1      43.641  23.952  29.005  1.00  0.00     0.049 A 
ATOM     55  C   UNL A   1      43.141  28.742  32.188  1.00  0.00     0.074 A 
ATOM     56  C   UNL A   1      44.747  24.710  28.663  1.00  0.00     0.029 A 
ATOM     57  N   UNL A   1      43.460  24.094  30.374  1.00  0.00    -0.354 N 
ATOM     58  N   UNL A   1      43.245  27.551  31.666  1.00  0.00    -0.248 NA
ATOM     59  C   UNL A   1      43.645  28.816  33.553  1.00  0.00     0.031 C 
ATOM     60  C   UNL A   1      45.137  25.434  29.820  1.00  0.00     0.029 A 
ATOM     61  C   UNL A   1      44.301  25.073  30.863  1.00  0.00     0.049 A 
ATOM     62  H   UNL A   1      42.824  23.574  30.917  1.00  0.00     0.167 HD
ATOM     63  C   UNL A   1      43.889  26.737  32.553  1.00  0.00     0.074 A 
ATOM     64  C   UNL A   1      44.090  27.562  33.732  1.00  0.00     0.031 C 
ATOM     65  C   UNL A   1      44.244  25.455  32.263  1.00  0.00     0.031 A 
BRANCH  52  66
ATOM     66  C   UNL A   1      42.741  22.240  27.254  1.00  0.00    -0.014 A 
ATOM     67  C   UNL A   1      42.003  21.056  27.479  1.00  0.00     0.009 A 
ATOM     68  C   UNL A   1      43.639  22.203  26.176  1.00  0.00     0.009 A 
ATOM     69  C   UNL A   1      42.203  19.889  26.730  1.00  0.00     0.001 A 
ATOM     70  C   UNL A   1      43.855  21.030  25.429  1.00  0.00     0.001 A 
ATOM     71  C   UNL A   1      43.145  19.869  25.714  1.00  0.00     0.000 A 
ENDBRANCH  52  66
BRANCH  53  72
ATOM     72  C   UNL A   1      41.288  30.614  31.830  1.00  0.00    -0.014 A 
ATOM     73  C   UNL A   1      40.959  31.850  31.226  1.00  0.00     0.009 A 
ATOM     74  C   UNL A   1      40.279  29.961  32.555  1.00  0.00     0.009 A 
ATOM     75  C   UNL A   1      39.656  32.366  31.269  1.00  0.00     0.001 A 
ATOM     76  C   UNL A   1      38.980  30.494  32.620  1.00  0.00     0.001 A 
ATOM     77  C   UNL A   1      38.662  31.679  31.957  1.00  0.00     0.000 A 
ENDBRANCH  53  72
BRANCH  65  78
ATOM     78  C   UNL A   1      44.662  24.452  33.296  1.00  0.00    -0.014 A 
ATOM     79  C   UNL A   1      43.793  23.477  33.803  1.00  0.00     0.009 A 
ATOM     80  C   UNL A   1      46.019  24.366  33.663  1.00  0.00     0.009 A 
ATOM     81  C   UNL A   1      44.246  22.501  34.693  1.00  0.00     0.001 A 
ATOM     82  C   UNL A   1      46.485  23.362  34.510  1.00  0.00     0.001 A 
ATOM     83  C   UNL A   1      45.593  22.438  35.039  1.00  0.00     0.000 A 
ENDBRANCH  65  78
ENDBRANCH  39  40
ENDBRANCH  32  34
ENDBRANCH  31  32
ENDBRANCH  30  31
ENDBRANCH   1  30
TORSDOF 14
ENDMDL
MODEL 3
REMARK VINA RESULT:     -11.1      6.027     10.741
REMARK SMILES Cc1ccc(-c2nn(-c3ccccc3)cc2[C@@H]2[NH2+][C@H](C(=O)OCCOC(=O)c3ccc(-c4c5nc(c(-c6ccccc6)c6ccc([nH]6)c(-c6ccccc6)c6nc(c(-c7ccccc7)c7ccc4[nH]7)C=C6)C=C5)cc3)CS2)cc1
REMARK SMILES IDX 23 1 22 2 20 3 21 4 19 5 17 6 18 7 77 8 76 11 16 12 6 13
REMARK SMILES IDX 7 14 8 15 15 16 5 17 1 18 2 19 3 20 79 21 4 22 78 23 9 24
REMARK SMILES IDX 10 25 14 26 11 27 13 28 12 29 24 30 25 31 26 32 27 33 28 34
REMARK SMILES IDX 29 35 75 36 30 37 74 38 31 39 32 40 33 41 68 42 34 43 73 44
REMARK SMILES IDX 67 45 69 46 35 47 72 48 66 49 65 50 36 52 58 53 43 54 57 55
REMARK SMILES IDX 44 56 47 57 56 58 70 59 45 60 46 61 55 63 71 64 48 65 37 66
REMARK SMILES IDX 38 67 42 68 39 69 41 70 40 71 59 72 60 73 64 74 61 75 63 76
REMARK SMILES IDX 62 77 49 78 50 79 54 80 51 81 53 82 52 83
REMARK H PARENT 18 9 18 10 69 51 47 62
REMARK Flexibility Score: inf
ROOT
ATOM      1  C   UNL A   1      38.500  30.355  34.275  1.00  0.00     0.274 C 
ENDROOT
BRANCH   1   2
ATOM      2  O   UNL A   1      38.495  30.681  32.879  1.00  0.00    -0.458 OA
BRANCH   2   3
ATOM      3  C   UNL A   1      37.267  30.620  32.286  1.00  0.00     0.365 C 
ATOM      4  O   UNL A   1      36.842  29.639  31.692  1.00  0.00    -0.245 OA
BRANCH   3   5
ATOM      5  C   UNL A   1      36.492  31.932  32.442  1.00  0.00     0.304 C 
ATOM      6  C   UNL A   1      37.378  33.197  30.606  1.00  0.00     0.278 C 
ATOM      7  N   UNL A   1      37.347  33.091  32.079  1.00  0.00    -0.319 N 
ATOM      8  S   UNL A   1      35.658  32.942  30.095  1.00  0.00    -0.087 SA
ATOM      9  H   UNL A   1      36.959  33.945  32.479  1.00  0.00     0.348 HD
ATOM     10  H   UNL A   1      38.291  32.960  32.443  1.00  0.00     0.348 HD
ATOM     11  C   UNL A   1      35.221  32.003  31.590  1.00  0.00     0.153 C 
BRANCH   6  12
ATOM     12  C   UNL A   1      38.340  32.191  30.043  1.00  0.00     0.067 A 
ATOM     13  C   UNL A   1      39.736  32.109  30.307  1.00  0.00     0.103 A 
ATOM     14  N   UNL A   1      40.264  30.951  29.886  1.00  0.00    -0.167 NA
ATOM     15  N   UNL A   1      39.236  30.314  29.266  1.00  0.00    -0.240 N 
ATOM     16  C   UNL A   1      38.145  31.151  29.149  1.00  0.00     0.126 A 
BRANCH  13  17
ATOM     17  C   UNL A   1      40.531  33.204  30.831  1.00  0.00     0.003 A 
ATOM     18  C   UNL A   1      43.591  35.734  32.470  1.00  0.00     0.044 C 
ATOM     19  C   UNL A   1      42.487  34.889  31.908  1.00  0.00    -0.051 A 
ATOM     20  C   UNL A   1      42.176  34.946  30.541  1.00  0.00     0.004 A 
ATOM     21  C   UNL A   1      41.776  34.020  32.740  1.00  0.00     0.004 A 
ATOM     22  C   UNL A   1      41.198  34.105  30.001  1.00  0.00     0.011 A 
ATOM     23  C   UNL A   1      40.801  33.185  32.204  1.00  0.00     0.011 A 
ENDBRANCH  13  17
BRANCH  15  24
ATOM     24  C   UNL A   1      39.313  28.944  28.878  1.00  0.00     0.065 A 
ATOM     25  C   UNL A   1      40.035  28.580  27.733  1.00  0.00     0.028 A 
ATOM     26  C   UNL A   1      38.736  27.938  29.667  1.00  0.00     0.028 A 
ATOM     27  C   UNL A   1      40.203  27.229  27.411  1.00  0.00     0.002 A 
ATOM     28  C   UNL A   1      38.910  26.590  29.343  1.00  0.00     0.002 A 
ATOM     29  C   UNL A   1      39.647  26.236  28.218  1.00  0.00     0.000 A 
ENDBRANCH  15  24
ENDBRANCH   6  12
ENDBRANCH   3   5
ENDBRANCH   2   3
ENDBRANCH   1   2
BRANCH   1  30
ATOM     30  C   UNL A   1      39.862  30.620  34.928  1.00  0.00     0.275 C 
BRANCH  30  31
ATOM     31  O   UNL A   1      41.048  29.996  34.346  1.00  0.00    -0.458 OA
BRANCH  31  32
ATOM     32  C   UNL A   1      41.444  28.696  34.285  1.00  0.00     0.338 C 
ATOM     33  O   UNL A   1      41.188  27.902  35.169  1.00  0.00    -0.246 OA
BRANCH  32  34
ATOM     34  C   UNL A   1      42.143  28.235  33.070  1.00  0.00     0.060 A 
ATOM     35  C   UNL A   1      43.295  27.435  33.184  1.00  0.00     0.016 A 
ATOM     36  C   UNL A   1      41.610  28.530  31.829  1.00  0.00     0.016 A 
ATOM     37  C   UNL A   1      43.844  26.837  32.043  1.00  0.00     0.010 A 
ATOM     38  C   UNL A   1      42.031  27.797  30.744  1.00  0.00     0.010 A 
ATOM     39  C   UNL A   1      43.176  26.983  30.825  1.00  0.00    -0.014 A 
BRANCH  39  40
ATOM     40  C   UNL A   1      43.705  26.572  29.523  1.00  0.00     0.031 A 
ATOM     41  C   UNL A   1      44.117  25.203  29.147  1.00  0.00     0.074 A 
ATOM     42  C   UNL A   1      43.744  27.601  28.648  1.00  0.00     0.049 A 
ATOM     43  N   UNL A   1      44.921  24.931  28.174  1.00  0.00    -0.248 NA
ATOM     44  C   UNL A   1      43.672  23.998  29.830  1.00  0.00     0.031 C 
ATOM     45  C   UNL A   1      44.024  27.647  27.227  1.00  0.00     0.029 A 
ATOM     46  N   UNL A   1      43.699  28.949  29.027  1.00  0.00    -0.354 N 
ATOM     47  C   UNL A   1      44.862  23.572  27.929  1.00  0.00     0.074 A 
ATOM     48  C   UNL A   1      44.142  23.021  29.043  1.00  0.00     0.031 C 
ATOM     49  C   UNL A   1      44.433  28.898  26.926  1.00  0.00     0.029 A 
ATOM     50  C   UNL A   1      44.562  29.633  28.185  1.00  0.00     0.049 A 
ATOM     51  H   UNL A   1      43.158  29.337  29.752  1.00  0.00     0.167 HD
ATOM     52  C   UNL A   1      45.300  23.096  26.728  1.00  0.00     0.031 A 
ATOM     53  C   UNL A   1      45.724  30.105  28.730  1.00  0.00     0.031 A 
ATOM     54  C   UNL A   1      45.936  24.164  25.968  1.00  0.00     0.049 A 
ATOM     55  C   UNL A   1      46.917  29.439  28.099  1.00  0.00     0.074 A 
ATOM     56  C   UNL A   1      45.452  25.023  24.997  1.00  0.00     0.029 A 
ATOM     57  N   UNL A   1      47.112  24.722  26.453  1.00  0.00    -0.354 N 
ATOM     58  N   UNL A   1      46.917  28.216  27.643  1.00  0.00    -0.248 NA
ATOM     59  C   UNL A   1      48.192  30.119  27.913  1.00  0.00     0.031 C 
ATOM     60  C   UNL A   1      46.270  26.183  25.013  1.00  0.00     0.029 A 
ATOM     61  C   UNL A   1      47.270  25.999  25.953  1.00  0.00     0.049 A 
ATOM     62  H   UNL A   1      47.739  24.273  27.065  1.00  0.00     0.167 HD
ATOM     63  C   UNL A   1      48.117  27.971  27.041  1.00  0.00     0.074 A 
ATOM     64  C   UNL A   1      48.895  29.178  27.265  1.00  0.00     0.031 C 
ATOM     65  C   UNL A   1      48.394  26.816  26.376  1.00  0.00     0.031 A 
BRANCH  52  66
ATOM     66  C   UNL A   1      44.905  21.771  26.112  1.00  0.00    -0.014 A 
ATOM     67  C   UNL A   1      45.877  21.045  25.389  1.00  0.00     0.009 A 
ATOM     68  C   UNL A   1      43.619  21.207  26.141  1.00  0.00     0.009 A 
ATOM     69  C   UNL A   1      45.573  19.877  24.678  1.00  0.00     0.001 A 
ATOM     70  C   UNL A   1      43.304  20.042  25.418  1.00  0.00     0.001 A 
ATOM     71  C   UNL A   1      44.278  19.383  24.677  1.00  0.00     0.000 A 
ENDBRANCH  52  66
BRANCH  53  72
ATOM     72  C   UNL A   1      45.650  30.490  30.186  1.00  0.00    -0.014 A 
ATOM     73  C   UNL A   1      44.737  31.492  30.589  1.00  0.00     0.009 A 
ATOM     74  C   UNL A   1      46.266  29.734  31.194  1.00  0.00     0.009 A 
ATOM     75  C   UNL A   1      44.388  31.670  31.935  1.00  0.00     0.001 A 
ATOM     76  C   UNL A   1      45.934  29.932  32.546  1.00  0.00     0.001 A 
ATOM     77  C   UNL A   1      44.978  30.879  32.913  1.00  0.00     0.000 A 
ENDBRANCH  53  72
BRANCH  65  78
ATOM     78  C   UNL A   1      49.776  26.391  25.981  1.00  0.00    -0.014 A 
ATOM     79  C   UNL A   1      50.392  26.816  24.797  1.00  0.00     0.009 A 
ATOM     80  C   UNL A   1      50.563  25.670  26.901  1.00  0.00     0.009 A 
ATOM     81  C   UNL A   1      51.717  26.475  24.512  1.00  0.00     0.001 A 
ATOM     82  C   UNL A   1      51.901  25.374  26.643  1.00  0.00     0.001 A 
ATOM     83  C   UNL A   1      52.472  25.763  25.438  1.00  0.00     0.000 A 
ENDBRANCH  65  78
ENDBRANCH  39  40
ENDBRANCH  32  34
ENDBRANCH  31  32
ENDBRANCH  30  31
ENDBRANCH   1  30
TORSDOF 14
ENDMDL
