MODEL 1
REMARK VINA RESULT:     -12.8      0.000      0.000
REMARK SMILES COc1cccc(-c2nn(-c3cc4c(cc3C(N)=O)OCO4)cc2C(=O)OCCOC(=O)c2ccc(-c3c4nc(c(-c5ccccc5)c5ccc([nH]5)c(-c5ccccc5)c5nc(c(-c6ccccc6)c6ccc3[nH]6)C=C5)C=C4)cc2)c1
REMARK SMILES IDX 28 1 27 2 25 3 26 4 24 5 8 6 9 7 10 8 23 9 7 10 3 11 4 12
REMARK SMILES IDX 81 13 5 14 6 15 2 16 1 17 11 18 12 19 16 20 13 21 15 22
REMARK SMILES IDX 14 23 22 24 20 25 21 26 17 27 18 28 19 29 29 32 30 33 31 34
REMARK SMILES IDX 32 35 33 36 34 37 80 38 35 39 79 40 36 41 37 42 38 43 73 44
REMARK SMILES IDX 39 45 78 46 72 47 74 48 40 49 77 50 71 51 70 52 41 54 63 55
REMARK SMILES IDX 48 56 62 57 49 58 52 59 61 60 75 61 50 62 51 63 60 65 76 66
REMARK SMILES IDX 53 67 42 68 43 69 47 70 44 71 46 72 45 73 64 74 65 75 69 76
REMARK SMILES IDX 66 77 68 78 67 79 54 80 55 81 59 82 56 83 58 84 57 85
REMARK H PARENT 18 30 18 31 74 53 52 64
REMARK Flexibility Score: inf
ROOT
ATOM      1  C   UNL A   1      36.646  20.722  24.953  1.00  0.00     0.275 C 
ENDROOT
BRANCH   1   2
ATOM      2  O   UNL A   1      36.888  22.139  24.902  1.00  0.00    -0.458 OA
BRANCH   2   3
ATOM      3  C   UNL A   1      36.302  22.868  23.899  1.00  0.00     0.342 C 
ATOM      4  O   UNL A   1      36.734  22.933  22.752  1.00  0.00    -0.246 OA
BRANCH   3   5
ATOM      5  C   UNL A   1      35.107  23.552  24.353  1.00  0.00     0.106 A 
ATOM      6  C   UNL A   1      33.734  23.163  24.369  1.00  0.00     0.107 A 
ATOM      7  N   UNL A   1      32.950  24.169  24.809  1.00  0.00    -0.167 NA
ATOM      8  N   UNL A   1      33.789  25.229  24.859  1.00  0.00    -0.239 N 
ATOM      9  C   UNL A   1      35.093  24.822  24.893  1.00  0.00     0.131 A 
BRANCH   6  10
ATOM     10  C   UNL A   1      33.157  21.866  24.034  1.00  0.00     0.007 A 
ATOM     11  C   UNL A   1      32.495  19.615  24.652  1.00  0.00     0.119 A 
ATOM     12  C   UNL A   1      31.974  19.430  23.366  1.00  0.00     0.046 A 
ATOM     13  C   UNL A   1      33.072  20.842  24.992  1.00  0.00     0.056 A 
ATOM     14  C   UNL A   1      32.071  20.436  22.407  1.00  0.00     0.005 A 
ATOM     15  C   UNL A   1      32.688  21.641  22.736  1.00  0.00     0.011 A 
BRANCH  11  16
ATOM     16  O   UNL A   1      32.386  18.511  25.453  1.00  0.00    -0.497 OA
ATOM     17  C   UNL A   1      32.750  17.256  24.900  1.00  0.00     0.278 C 
ENDBRANCH  11  16
ENDBRANCH   6  10
BRANCH   8  18
ATOM     18  C   UNL A   1      33.328  26.564  24.948  1.00  0.00     0.081 A 
ATOM     19  C   UNL A   1      33.038  27.068  26.232  1.00  0.00     0.079 A 
ATOM     20  C   UNL A   1      33.174  27.383  23.787  1.00  0.00     0.069 A 
ATOM     21  C   UNL A   1      32.670  28.392  26.328  1.00  0.00     0.167 A 
ATOM     22  C   UNL A   1      32.907  28.752  23.957  1.00  0.00     0.066 A 
ATOM     23  C   UNL A   1      32.635  29.211  25.226  1.00  0.00     0.166 A 
ATOM     24  O   UNL A   1      32.296  29.048  27.460  1.00  0.00    -0.454 OA
ATOM     25  O   UNL A   1      32.234  30.477  25.528  1.00  0.00    -0.454 OA
ATOM     26  C   UNL A   1      31.825  30.292  26.898  1.00  0.00     0.468 C 
BRANCH  20  27
ATOM     27  C   UNL A   1      33.044  26.803  22.397  1.00  0.00     0.251 C 
ATOM     28  N   UNL A   1      31.827  26.857  21.775  1.00  0.00    -0.366 N 
ATOM     29  O   UNL A   1      33.931  26.199  21.812  1.00  0.00    -0.269 OA
ATOM     30  H   UNL A   1      31.077  27.331  22.201  1.00  0.00     0.159 HD
ATOM     31  H   UNL A   1      31.702  26.423  20.900  1.00  0.00     0.159 HD
ENDBRANCH  20  27
ENDBRANCH   8  18
ENDBRANCH   3   5
ENDBRANCH   2   3
ENDBRANCH   1   2
BRANCH   1  32
ATOM     32  C   UNL A   1      37.940  19.913  24.975  1.00  0.00     0.275 C 
BRANCH  32  33
ATOM     33  O   UNL A   1      39.026  20.724  25.408  1.00  0.00    -0.458 OA
BRANCH  33  34
ATOM     34  C   UNL A   1      40.122  20.018  25.755  1.00  0.00     0.338 C 
ATOM     35  O   UNL A   1      40.287  18.812  25.656  1.00  0.00    -0.246 OA
BRANCH  34  36
ATOM     36  C   UNL A   1      41.101  20.896  26.388  1.00  0.00     0.060 A 
ATOM     37  C   UNL A   1      41.135  20.859  27.785  1.00  0.00     0.016 A 
ATOM     38  C   UNL A   1      41.736  21.899  25.646  1.00  0.00     0.016 A 
ATOM     39  C   UNL A   1      41.638  21.941  28.458  1.00  0.00     0.010 A 
ATOM     40  C   UNL A   1      42.235  22.986  26.318  1.00  0.00     0.010 A 
ATOM     41  C   UNL A   1      42.078  23.026  27.704  1.00  0.00    -0.014 A 
BRANCH  41  42
ATOM     42  C   UNL A   1      42.292  24.263  28.415  1.00  0.00     0.031 A 
ATOM     43  C   UNL A   1      41.280  25.307  28.136  1.00  0.00     0.074 A 
ATOM     44  C   UNL A   1      43.311  24.346  29.292  1.00  0.00     0.049 A 
ATOM     45  N   UNL A   1      41.472  26.508  27.705  1.00  0.00    -0.248 NA
ATOM     46  C   UNL A   1      39.862  24.915  28.227  1.00  0.00     0.031 C 
ATOM     47  C   UNL A   1      44.176  23.266  29.786  1.00  0.00     0.029 A 
ATOM     48  N   UNL A   1      43.683  25.397  30.057  1.00  0.00    -0.354 N 
ATOM     49  C   UNL A   1      40.208  27.087  27.630  1.00  0.00     0.074 A 
ATOM     50  C   UNL A   1      39.253  26.026  27.819  1.00  0.00     0.031 C 
ATOM     51  C   UNL A   1      44.729  23.650  30.957  1.00  0.00     0.029 A 
ATOM     52  C   UNL A   1      44.351  25.030  31.215  1.00  0.00     0.049 A 
ATOM     53  H   UNL A   1      43.500  26.334  29.815  1.00  0.00     0.167 HD
ATOM     54  C   UNL A   1      40.037  28.435  27.667  1.00  0.00     0.031 A 
ATOM     55  C   UNL A   1      44.435  25.767  32.351  1.00  0.00     0.031 A 
ATOM     56  C   UNL A   1      41.236  29.142  27.313  1.00  0.00     0.049 A 
ATOM     57  C   UNL A   1      44.098  27.171  31.988  1.00  0.00     0.074 A 
ATOM     58  C   UNL A   1      42.027  29.184  26.182  1.00  0.00     0.029 A 
ATOM     59  N   UNL A   1      42.009  29.644  28.333  1.00  0.00    -0.354 N 
ATOM     60  N   UNL A   1      44.837  27.898  31.197  1.00  0.00    -0.248 NA
ATOM     61  C   UNL A   1      42.699  27.576  32.075  1.00  0.00     0.031 C 
ATOM     62  C   UNL A   1      43.364  29.215  26.677  1.00  0.00     0.029 A 
ATOM     63  C   UNL A   1      43.302  29.266  28.071  1.00  0.00     0.049 A 
ATOM     64  H   UNL A   1      41.695  30.172  29.102  1.00  0.00     0.167 HD
ATOM     65  C   UNL A   1      43.938  28.564  30.372  1.00  0.00     0.074 A 
ATOM     66  C   UNL A   1      42.632  28.385  31.011  1.00  0.00     0.031 C 
ATOM     67  C   UNL A   1      44.266  28.932  29.096  1.00  0.00     0.031 A 
BRANCH  54  68
ATOM     68  C   UNL A   1      38.913  29.076  28.435  1.00  0.00    -0.014 A 
ATOM     69  C   UNL A   1      38.813  28.842  29.815  1.00  0.00     0.009 A 
ATOM     70  C   UNL A   1      37.792  29.651  27.803  1.00  0.00     0.009 A 
ATOM     71  C   UNL A   1      37.624  29.100  30.508  1.00  0.00     0.001 A 
ATOM     72  C   UNL A   1      36.620  29.947  28.498  1.00  0.00     0.001 A 
ATOM     73  C   UNL A   1      36.526  29.643  29.848  1.00  0.00     0.000 A 
ENDBRANCH  54  68
BRANCH  55  74
ATOM     74  C   UNL A   1      44.352  25.231  33.733  1.00  0.00    -0.014 A 
ATOM     75  C   UNL A   1      45.234  25.649  34.740  1.00  0.00     0.009 A 
ATOM     76  C   UNL A   1      43.245  24.449  34.128  1.00  0.00     0.009 A 
ATOM     77  C   UNL A   1      45.012  25.301  36.082  1.00  0.00     0.001 A 
ATOM     78  C   UNL A   1      43.027  24.097  35.463  1.00  0.00     0.001 A 
ATOM     79  C   UNL A   1      43.907  24.531  36.444  1.00  0.00     0.000 A 
ENDBRANCH  55  74
BRANCH  67  80
ATOM     80  C   UNL A   1      45.686  28.718  28.626  1.00  0.00    -0.014 A 
ATOM     81  C   UNL A   1      46.134  27.498  28.085  1.00  0.00     0.009 A 
ATOM     82  C   UNL A   1      46.533  29.830  28.535  1.00  0.00     0.009 A 
ATOM     83  C   UNL A   1      47.399  27.393  27.496  1.00  0.00     0.001 A 
ATOM     84  C   UNL A   1      47.789  29.730  27.932  1.00  0.00     0.001 A 
ATOM     85  C   UNL A   1      48.224  28.511  27.415  1.00  0.00     0.000 A 
ENDBRANCH  67  80
ENDBRANCH  41  42
ENDBRANCH  34  36
ENDBRANCH  33  34
ENDBRANCH  32  33
ENDBRANCH   1  32
TORSDOF 15
ENDMDL
MODEL 2
REMARK VINA RESULT:     -12.1      1.582      2.087
REMARK SMILES COc1cccc(-c2nn(-c3cc4c(cc3C(N)=O)OCO4)cc2C(=O)OCCOC(=O)c2ccc(-c3c4nc(c(-c5ccccc5)c5ccc([nH]5)c(-c5ccccc5)c5nc(c(-c6ccccc6)c6ccc3[nH]6)C=C5)C=C4)cc2)c1
REMARK SMILES IDX 28 1 27 2 25 3 26 4 24 5 8 6 9 7 10 8 23 9 7 10 3 11 4 12
REMARK SMILES IDX 81 13 5 14 6 15 2 16 1 17 11 18 12 19 16 20 13 21 15 22
REMARK SMILES IDX 14 23 22 24 20 25 21 26 17 27 18 28 19 29 29 32 30 33 31 34
REMARK SMILES IDX 32 35 33 36 34 37 80 38 35 39 79 40 36 41 37 42 38 43 73 44
REMARK SMILES IDX 39 45 78 46 72 47 74 48 40 49 77 50 71 51 70 52 41 54 63 55
REMARK SMILES IDX 48 56 62 57 49 58 52 59 61 60 75 61 50 62 51 63 60 65 76 66
REMARK SMILES IDX 53 67 42 68 43 69 47 70 44 71 46 72 45 73 64 74 65 75 69 76
REMARK SMILES IDX 66 77 68 78 67 79 54 80 55 81 59 82 56 83 58 84 57 85
REMARK H PARENT 18 30 18 31 74 53 52 64
REMARK Flexibility Score: inf
ROOT
ATOM      1  C   UNL A   1      37.531  21.859  24.799  1.00  0.00     0.275 C 
ENDROOT
BRANCH   1   2
ATOM      2  O   UNL A   1      36.095  21.842  24.705  1.00  0.00    -0.458 OA
BRANCH   2   3
ATOM      3  C   UNL A   1      35.497  22.549  23.694  1.00  0.00     0.342 C 
ATOM      4  O   UNL A   1      36.073  22.907  22.670  1.00  0.00    -0.246 OA
BRANCH   3   5
ATOM      5  C   UNL A   1      34.101  22.821  23.973  1.00  0.00     0.106 A 
ATOM      6  C   UNL A   1      32.943  21.988  23.939  1.00  0.00     0.107 A 
ATOM      7  N   UNL A   1      31.825  22.701  24.194  1.00  0.00    -0.167 NA
ATOM      8  N   UNL A   1      32.254  23.984  24.173  1.00  0.00    -0.239 N 
ATOM      9  C   UNL A   1      33.607  24.053  24.350  1.00  0.00     0.131 A 
BRANCH   6  10
ATOM     10  C   UNL A   1      32.869  20.547  23.726  1.00  0.00     0.007 A 
ATOM     11  C   UNL A   1      33.237  18.269  24.478  1.00  0.00     0.119 A 
ATOM     12  C   UNL A   1      32.636  17.800  23.304  1.00  0.00     0.046 A 
ATOM     13  C   UNL A   1      33.338  19.647  24.697  1.00  0.00     0.056 A 
ATOM     14  C   UNL A   1      32.186  18.688  22.330  1.00  0.00     0.005 A 
ATOM     15  C   UNL A   1      32.329  20.059  22.532  1.00  0.00     0.011 A 
BRANCH  11  16
ATOM     16  O   UNL A   1      33.689  17.274  25.300  1.00  0.00    -0.497 OA
ATOM     17  C   UNL A   1      34.819  16.528  24.873  1.00  0.00     0.278 C 
ENDBRANCH  11  16
ENDBRANCH   6  10
BRANCH   8  18
ATOM     18  C   UNL A   1      31.368  25.082  24.065  1.00  0.00     0.081 A 
ATOM     19  C   UNL A   1      31.540  25.953  22.970  1.00  0.00     0.079 A 
ATOM     20  C   UNL A   1      30.322  25.298  25.016  1.00  0.00     0.069 A 
ATOM     21  C   UNL A   1      30.627  26.972  22.817  1.00  0.00     0.167 A 
ATOM     22  C   UNL A   1      29.356  26.281  24.745  1.00  0.00     0.066 A 
ATOM     23  C   UNL A   1      29.554  27.110  23.664  1.00  0.00     0.166 A 
ATOM     24  O   UNL A   1      30.652  27.946  21.868  1.00  0.00    -0.454 OA
ATOM     25  O   UNL A   1      28.778  28.184  23.353  1.00  0.00    -0.454 OA
ATOM     26  C   UNL A   1      29.605  28.813  22.354  1.00  0.00     0.468 C 
BRANCH  20  27
ATOM     27  C   UNL A   1      30.348  24.691  26.399  1.00  0.00     0.251 C 
ATOM     28  N   UNL A   1      31.553  24.550  27.032  1.00  0.00    -0.366 N 
ATOM     29  O   UNL A   1      29.372  24.227  26.971  1.00  0.00    -0.269 OA
ATOM     30  H   UNL A   1      32.371  24.906  26.616  1.00  0.00     0.159 HD
ATOM     31  H   UNL A   1      31.601  24.093  27.903  1.00  0.00     0.159 HD
ENDBRANCH  20  27
ENDBRANCH   8  18
ENDBRANCH   3   5
ENDBRANCH   2   3
ENDBRANCH   1   2
BRANCH   1  32
ATOM     32  C   UNL A   1      38.113  20.469  25.035  1.00  0.00     0.275 C 
BRANCH  32  33
ATOM     33  O   UNL A   1      38.899  20.453  26.222  1.00  0.00    -0.458 OA
BRANCH  33  34
ATOM     34  C   UNL A   1      40.143  19.966  26.038  1.00  0.00     0.338 C 
ATOM     35  O   UNL A   1      40.452  18.889  25.553  1.00  0.00    -0.246 OA
BRANCH  34  36
ATOM     36  C   UNL A   1      41.126  20.881  26.609  1.00  0.00     0.060 A 
ATOM     37  C   UNL A   1      41.219  20.879  28.004  1.00  0.00     0.016 A 
ATOM     38  C   UNL A   1      41.706  21.881  25.818  1.00  0.00     0.016 A 
ATOM     39  C   UNL A   1      41.723  21.988  28.630  1.00  0.00     0.010 A 
ATOM     40  C   UNL A   1      42.205  22.995  26.443  1.00  0.00     0.010 A 
ATOM     41  C   UNL A   1      42.105  23.065  27.833  1.00  0.00    -0.014 A 
BRANCH  41  42
ATOM     42  C   UNL A   1      42.319  24.323  28.507  1.00  0.00     0.031 A 
ATOM     43  C   UNL A   1      41.293  25.350  28.214  1.00  0.00     0.074 A 
ATOM     44  C   UNL A   1      43.349  24.439  29.365  1.00  0.00     0.049 A 
ATOM     45  N   UNL A   1      41.467  26.540  27.746  1.00  0.00    -0.248 NA
ATOM     46  C   UNL A   1      39.880  24.949  28.337  1.00  0.00     0.031 C 
ATOM     47  C   UNL A   1      44.232  23.382  29.875  1.00  0.00     0.029 A 
ATOM     48  N   UNL A   1      43.724  25.515  30.095  1.00  0.00    -0.354 N 
ATOM     49  C   UNL A   1      40.197  27.105  27.675  1.00  0.00     0.074 A 
ATOM     50  C   UNL A   1      39.254  26.042  27.907  1.00  0.00     0.031 C 
ATOM     51  C   UNL A   1      44.799  23.803  31.027  1.00  0.00     0.029 A 
ATOM     52  C   UNL A   1      44.412  25.187  31.252  1.00  0.00     0.049 A 
ATOM     53  H   UNL A   1      43.528  26.443  29.829  1.00  0.00     0.167 HD
ATOM     54  C   UNL A   1      40.014  28.452  27.675  1.00  0.00     0.031 A 
ATOM     55  C   UNL A   1      44.506  25.956  32.366  1.00  0.00     0.031 A 
ATOM     56  C   UNL A   1      41.201  29.160  27.283  1.00  0.00     0.049 A 
ATOM     57  C   UNL A   1      44.151  27.346  31.968  1.00  0.00     0.074 A 
ATOM     58  C   UNL A   1      41.975  29.177  26.140  1.00  0.00     0.029 A 
ATOM     59  N   UNL A   1      41.985  29.697  28.278  1.00  0.00    -0.354 N 
ATOM     60  N   UNL A   1      44.872  28.057  31.145  1.00  0.00    -0.248 NA
ATOM     61  C   UNL A   1      42.750  27.741  32.065  1.00  0.00     0.031 C 
ATOM     62  C   UNL A   1      43.318  29.233  26.614  1.00  0.00     0.029 A 
ATOM     63  C   UNL A   1      43.277  29.323  28.007  1.00  0.00     0.049 A 
ATOM     64  H   UNL A   1      41.678  30.244  29.036  1.00  0.00     0.167 HD
ATOM     65  C   UNL A   1      43.954  28.691  30.317  1.00  0.00     0.074 A 
ATOM     66  C   UNL A   1      42.660  28.519  30.980  1.00  0.00     0.031 C 
ATOM     67  C   UNL A   1      44.259  29.026  29.026  1.00  0.00     0.031 A 
BRANCH  54  68
ATOM     68  C   UNL A   1      38.897  29.105  28.443  1.00  0.00    -0.014 A 
ATOM     69  C   UNL A   1      38.809  28.894  29.828  1.00  0.00     0.009 A 
ATOM     70  C   UNL A   1      37.768  29.668  27.811  1.00  0.00     0.009 A 
ATOM     71  C   UNL A   1      37.626  29.163  30.526  1.00  0.00     0.001 A 
ATOM     72  C   UNL A   1      36.602  29.974  28.511  1.00  0.00     0.001 A 
ATOM     73  C   UNL A   1      36.521  29.693  29.867  1.00  0.00     0.000 A 
ENDBRANCH  54  68
BRANCH  55  74
ATOM     74  C   UNL A   1      44.449  25.458  33.763  1.00  0.00    -0.014 A 
ATOM     75  C   UNL A   1      43.247  25.036  34.346  1.00  0.00     0.009 A 
ATOM     76  C   UNL A   1      45.640  25.191  34.472  1.00  0.00     0.009 A 
ATOM     77  C   UNL A   1      43.241  24.370  35.583  1.00  0.00     0.001 A 
ATOM     78  C   UNL A   1      45.635  24.536  35.707  1.00  0.00     0.001 A 
ATOM     79  C   UNL A   1      44.433  24.116  36.259  1.00  0.00     0.000 A 
ENDBRANCH  55  74
BRANCH  67  80
ATOM     80  C   UNL A   1      45.674  28.812  28.540  1.00  0.00    -0.014 A 
ATOM     81  C   UNL A   1      46.128  27.578  28.037  1.00  0.00     0.009 A 
ATOM     82  C   UNL A   1      46.506  29.929  28.394  1.00  0.00     0.009 A 
ATOM     83  C   UNL A   1      47.384  27.465  27.432  1.00  0.00     0.001 A 
ATOM     84  C   UNL A   1      47.753  29.822  27.775  1.00  0.00     0.001 A 
ATOM     85  C   UNL A   1      48.195  28.590  27.295  1.00  0.00     0.000 A 
ENDBRANCH  67  80
ENDBRANCH  41  42
ENDBRANCH  34  36
ENDBRANCH  33  34
ENDBRANCH  32  33
ENDBRANCH   1  32
TORSDOF 15
ENDMDL
MODEL 3
REMARK VINA RESULT:     -12.1      2.527      7.722
REMARK SMILES COc1cccc(-c2nn(-c3cc4c(cc3C(N)=O)OCO4)cc2C(=O)OCCOC(=O)c2ccc(-c3c4nc(c(-c5ccccc5)c5ccc([nH]5)c(-c5ccccc5)c5nc(c(-c6ccccc6)c6ccc3[nH]6)C=C5)C=C4)cc2)c1
REMARK SMILES IDX 28 1 27 2 25 3 26 4 24 5 8 6 9 7 10 8 23 9 7 10 3 11 4 12
REMARK SMILES IDX 81 13 5 14 6 15 2 16 1 17 11 18 12 19 16 20 13 21 15 22
REMARK SMILES IDX 14 23 22 24 20 25 21 26 17 27 18 28 19 29 29 32 30 33 31 34
REMARK SMILES IDX 32 35 33 36 34 37 80 38 35 39 79 40 36 41 37 42 38 43 73 44
REMARK SMILES IDX 39 45 78 46 72 47 74 48 40 49 77 50 71 51 70 52 41 54 63 55
REMARK SMILES IDX 48 56 62 57 49 58 52 59 61 60 75 61 50 62 51 63 60 65 76 66
REMARK SMILES IDX 53 67 42 68 43 69 47 70 44 71 46 72 45 73 64 74 65 75 69 76
REMARK SMILES IDX 66 77 68 78 67 79 54 80 55 81 59 82 56 83 58 84 57 85
REMARK H PARENT 18 30 18 31 74 53 52 64
REMARK Flexibility Score: inf
ROOT
ATOM      1  C   UNL A   1      33.359  29.056  25.891  1.00  0.00     0.275 C 
ENDROOT
BRANCH   1   2
ATOM      2  O   UNL A   1      32.579  29.272  24.702  1.00  0.00    -0.458 OA
BRANCH   2   3
ATOM      3  C   UNL A   1      32.919  28.590  23.562  1.00  0.00     0.342 C 
ATOM      4  O   UNL A   1      33.776  28.964  22.765  1.00  0.00    -0.246 OA
BRANCH   3   5
ATOM      5  C   UNL A   1      32.151  27.371  23.409  1.00  0.00     0.106 A 
ATOM      6  C   UNL A   1      30.757  27.141  23.211  1.00  0.00     0.107 A 
ATOM      7  N   UNL A   1      30.477  25.821  23.210  1.00  0.00    -0.167 NA
ATOM      8  N   UNL A   1      31.636  25.250  23.614  1.00  0.00    -0.239 N 
ATOM      9  C   UNL A   1      32.690  26.100  23.438  1.00  0.00     0.131 A 
BRANCH   6  10
ATOM     10  C   UNL A   1      29.702  28.121  22.974  1.00  0.00     0.007 A 
ATOM     11  C   UNL A   1      28.952  30.267  22.126  1.00  0.00     0.119 A 
ATOM     12  C   UNL A   1      27.638  29.928  22.473  1.00  0.00     0.046 A 
ATOM     13  C   UNL A   1      29.984  29.353  22.361  1.00  0.00     0.056 A 
ATOM     14  C   UNL A   1      27.356  28.715  23.097  1.00  0.00     0.005 A 
ATOM     15  C   UNL A   1      28.394  27.826  23.371  1.00  0.00     0.011 A 
BRANCH  11  16
ATOM     16  O   UNL A   1      29.073  31.519  21.588  1.00  0.00    -0.497 OA
ATOM     17  C   UNL A   1      28.097  31.927  20.642  1.00  0.00     0.278 C 
ENDBRANCH  11  16
ENDBRANCH   6  10
BRANCH   8  18
ATOM     18  C   UNL A   1      31.708  23.913  24.072  1.00  0.00     0.081 A 
ATOM     19  C   UNL A   1      31.999  22.913  23.122  1.00  0.00     0.079 A 
ATOM     20  C   UNL A   1      31.510  23.581  25.449  1.00  0.00     0.069 A 
ATOM     21  C   UNL A   1      32.152  21.624  23.581  1.00  0.00     0.167 A 
ATOM     22  C   UNL A   1      31.791  22.272  25.875  1.00  0.00     0.066 A 
ATOM     23  C   UNL A   1      32.079  21.322  24.920  1.00  0.00     0.166 A 
ATOM     24  O   UNL A   1      32.377  20.516  22.824  1.00  0.00    -0.454 OA
ATOM     25  O   UNL A   1      32.244  19.994  25.167  1.00  0.00    -0.454 OA
ATOM     26  C   UNL A   1      32.218  19.482  23.819  1.00  0.00     0.468 C 
BRANCH  20  27
ATOM     27  C   UNL A   1      30.787  24.498  26.408  1.00  0.00     0.251 C 
ATOM     28  N   UNL A   1      29.496  24.202  26.752  1.00  0.00    -0.366 N 
ATOM     29  O   UNL A   1      31.240  25.549  26.837  1.00  0.00    -0.269 OA
ATOM     30  H   UNL A   1      29.081  23.368  26.434  1.00  0.00     0.159 HD
ATOM     31  H   UNL A   1      28.983  24.823  27.318  1.00  0.00     0.159 HD
ENDBRANCH  20  27
ENDBRANCH   8  18
ENDBRANCH   3   5
ENDBRANCH   2   3
ENDBRANCH   1   2
BRANCH   1  32
ATOM     32  C   UNL A   1      33.560  30.337  26.694  1.00  0.00     0.275 C 
BRANCH  32  33
ATOM     33  O   UNL A   1      34.458  30.112  27.775  1.00  0.00    -0.458 OA
BRANCH  33  34
ATOM     34  C   UNL A   1      35.241  31.175  28.055  1.00  0.00     0.338 C 
ATOM     35  O   UNL A   1      35.145  32.304  27.603  1.00  0.00    -0.246 OA
BRANCH  34  36
ATOM     36  C   UNL A   1      36.334  30.769  28.933  1.00  0.00     0.060 A 
ATOM     37  C   UNL A   1      37.456  31.604  28.931  1.00  0.00     0.016 A 
ATOM     38  C   UNL A   1      36.351  29.488  29.498  1.00  0.00     0.016 A 
ATOM     39  C   UNL A   1      38.663  31.083  29.314  1.00  0.00     0.010 A 
ATOM     40  C   UNL A   1      37.560  28.962  29.877  1.00  0.00     0.010 A 
ATOM     41  C   UNL A   1      38.702  29.738  29.677  1.00  0.00    -0.014 A 
BRANCH  41  42
ATOM     42  C   UNL A   1      40.007  29.129  29.759  1.00  0.00     0.031 A 
ATOM     43  C   UNL A   1      40.556  29.052  31.132  1.00  0.00     0.074 A 
ATOM     44  C   UNL A   1      40.571  28.637  28.640  1.00  0.00     0.049 A 
ATOM     45  N   UNL A   1      41.679  29.515  31.569  1.00  0.00    -0.248 NA
ATOM     46  C   UNL A   1      39.679  28.501  32.181  1.00  0.00     0.031 C 
ATOM     47  C   UNL A   1      39.962  28.463  27.315  1.00  0.00     0.029 A 
ATOM     48  N   UNL A   1      41.772  28.030  28.496  1.00  0.00    -0.354 N 
ATOM     49  C   UNL A   1      41.732  29.165  32.915  1.00  0.00     0.074 A 
ATOM     50  C   UNL A   1      40.423  28.679  33.270  1.00  0.00     0.031 C 
ATOM     51  C   UNL A   1      40.666  27.537  26.628  1.00  0.00     0.029 A 
ATOM     52  C   UNL A   1      41.826  27.159  27.419  1.00  0.00     0.049 A 
ATOM     53  H   UNL A   1      42.535  28.192  29.097  1.00  0.00     0.167 HD
ATOM     54  C   UNL A   1      42.912  29.065  33.582  1.00  0.00     0.031 A 
ATOM     55  C   UNL A   1      42.676  26.110  27.287  1.00  0.00     0.031 A 
ATOM     56  C   UNL A   1      43.966  29.790  32.928  1.00  0.00     0.049 A 
ATOM     57  C   UNL A   1      43.796  26.333  28.242  1.00  0.00     0.074 A 
ATOM     58  C   UNL A   1      44.159  31.118  32.603  1.00  0.00     0.029 A 
ATOM     59  N   UNL A   1      44.841  29.078  32.142  1.00  0.00    -0.354 N 
ATOM     60  N   UNL A   1      44.643  27.319  28.128  1.00  0.00    -0.248 NA
ATOM     61  C   UNL A   1      43.659  25.786  29.587  1.00  0.00     0.031 C 
ATOM     62  C   UNL A   1      44.746  31.091  31.304  1.00  0.00     0.029 A 
ATOM     63  C   UNL A   1      44.943  29.754  30.952  1.00  0.00     0.049 A 
ATOM     64  H   UNL A   1      45.305  28.245  32.386  1.00  0.00     0.167 HD
ATOM     65  C   UNL A   1      44.818  27.796  29.421  1.00  0.00     0.074 A 
ATOM     66  C   UNL A   1      44.246  26.764  30.288  1.00  0.00     0.031 C 
ATOM     67  C   UNL A   1      45.121  29.106  29.671  1.00  0.00     0.031 A 
BRANCH  54  68
ATOM     68  C   UNL A   1      43.179  27.965  34.573  1.00  0.00    -0.014 A 
ATOM     69  C   UNL A   1      43.395  26.661  34.100  1.00  0.00     0.009 A 
ATOM     70  C   UNL A   1      42.928  28.109  35.953  1.00  0.00     0.009 A 
ATOM     71  C   UNL A   1      43.290  25.556  34.953  1.00  0.00     0.001 A 
ATOM     72  C   UNL A   1      42.864  27.013  36.813  1.00  0.00     0.001 A 
ATOM     73  C   UNL A   1      43.015  25.732  36.306  1.00  0.00     0.000 A 
ENDBRANCH  54  68
BRANCH  55  74
ATOM     74  C   UNL A   1      42.323  24.782  26.727  1.00  0.00    -0.014 A 
ATOM     75  C   UNL A   1      42.958  24.271  25.586  1.00  0.00     0.009 A 
ATOM     76  C   UNL A   1      41.491  23.901  27.452  1.00  0.00     0.009 A 
ATOM     77  C   UNL A   1      42.772  22.935  25.195  1.00  0.00     0.001 A 
ATOM     78  C   UNL A   1      41.299  22.573  27.060  1.00  0.00     0.001 A 
ATOM     79  C   UNL A   1      41.948  22.086  25.933  1.00  0.00     0.000 A 
ENDBRANCH  55  74
BRANCH  67  80
ATOM     80  C   UNL A   1      45.395  30.020  28.499  1.00  0.00    -0.014 A 
ATOM     81  C   UNL A   1      44.370  30.628  27.751  1.00  0.00     0.009 A 
ATOM     82  C   UNL A   1      46.713  30.439  28.274  1.00  0.00     0.009 A 
ATOM     83  C   UNL A   1      44.660  31.605  26.792  1.00  0.00     0.001 A 
ATOM     84  C   UNL A   1      47.002  31.427  27.329  1.00  0.00     0.001 A 
ATOM     85  C   UNL A   1      45.977  32.008  26.586  1.00  0.00     0.000 A 
ENDBRANCH  67  80
ENDBRANCH  41  42
ENDBRANCH  34  36
ENDBRANCH  33  34
ENDBRANCH  32  33
ENDBRANCH   1  32
TORSDOF 15
ENDMDL
