MODEL 1
REMARK VINA RESULT:     -11.6      0.000      0.000
REMARK SMILES COc1ccccc1[C@@H]1CN(C(=O)CCc2cc(Cl)no2)C[C@H]1C(=O)OCCOC(=O)c1ccc(-c2c3nc(c(-c4ccccc4)c4ccc([nH]4)c(-c4ccccc4)c4nc(c(-c5ccccc5)c5ccc2[nH]5)C=C4)C=C3)cc1
REMARK SMILES IDX 27 1 26 2 24 3 25 4 23 5 9 6 10 7 11 8 22 9 8 10 3 11 4 12
REMARK SMILES IDX 5 13 7 14 6 15 2 16 1 17 12 18 13 19 14 20 15 21 16 22 17 23
REMARK SMILES IDX 21 24 18 25 20 26 19 27 28 28 29 29 30 30 31 31 32 32 33 33
REMARK SMILES IDX 79 34 34 35 78 36 35 37 36 38 37 39 72 40 38 41 77 42 71 43
REMARK SMILES IDX 73 44 39 45 76 46 70 47 69 48 40 50 62 51 47 52 61 53 48 54
REMARK SMILES IDX 51 55 60 56 74 57 49 58 50 59 59 61 75 62 52 63 41 64 42 65
REMARK SMILES IDX 46 66 43 67 45 68 44 69 63 70 64 71 68 72 65 73 67 74 66 75
REMARK SMILES IDX 53 76 54 77 58 78 55 79 57 80 56 81
REMARK H PARENT 73 49 51 60
REMARK Flexibility Score: inf
ROOT
ATOM      1  C   UNL A   1      34.946  29.357  27.443  1.00  0.00     0.274 C 
ENDROOT
BRANCH   1   2
ATOM      2  O   UNL A   1      34.175  28.926  26.299  1.00  0.00    -0.462 OA
BRANCH   2   3
ATOM      3  C   UNL A   1      32.984  28.335  26.582  1.00  0.00     0.311 C 
ATOM      4  O   UNL A   1      32.330  28.559  27.596  1.00  0.00    -0.252 OA
BRANCH   3   5
ATOM      5  C   UNL A   1      32.543  27.296  25.571  1.00  0.00     0.128 C 
ATOM      6  C   UNL A   1      31.997  25.942  26.069  1.00  0.00     0.058 C 
ATOM      7  C   UNL A   1      30.814  25.637  25.166  1.00  0.00     0.129 C 
ATOM      8  N   UNL A   1      30.408  26.879  24.567  1.00  0.00    -0.341 N 
ATOM      9  C   UNL A   1      31.414  27.912  24.740  1.00  0.00     0.135 C 
BRANCH   6  10
ATOM     10  C   UNL A   1      32.868  24.682  26.149  1.00  0.00    -0.000 A 
ATOM     11  C   UNL A   1      32.571  23.414  26.690  1.00  0.00     0.122 A 
ATOM     12  C   UNL A   1      33.571  22.413  26.716  1.00  0.00     0.047 A 
ATOM     13  C   UNL A   1      34.871  22.645  26.276  1.00  0.00     0.004 A 
ATOM     14  C   UNL A   1      34.223  24.895  25.763  1.00  0.00     0.008 A 
ATOM     15  C   UNL A   1      35.205  23.903  25.819  1.00  0.00     0.001 A 
BRANCH  11  16
ATOM     16  O   UNL A   1      31.505  23.007  27.440  1.00  0.00    -0.496 OA
ATOM     17  C   UNL A   1      30.238  22.760  26.878  1.00  0.00     0.278 C 
ENDBRANCH  11  16
ENDBRANCH   6  10
BRANCH   8  18
ATOM     18  C   UNL A   1      29.297  27.071  23.780  1.00  0.00     0.223 C 
ATOM     19  O   UNL A   1      28.310  26.338  23.869  1.00  0.00    -0.275 OA
BRANCH  18  20
ATOM     20  C   UNL A   1      29.321  28.202  22.762  1.00  0.00     0.108 C 
BRANCH  20  21
ATOM     21  C   UNL A   1      28.069  29.079  22.785  1.00  0.00     0.088 C 
BRANCH  21  22
ATOM     22  C   UNL A   1      28.344  30.540  22.729  1.00  0.00     0.138 A 
ATOM     23  C   UNL A   1      28.988  31.444  23.545  1.00  0.00     0.089 A 
ATOM     24  O   UNL A   1      27.846  31.202  21.645  1.00  0.00    -0.360 OA
ATOM     25  C   UNL A   1      28.785  32.682  22.910  1.00  0.00     0.172 A 
ATOM     26  N   UNL A   1      28.131  32.554  21.755  1.00  0.00    -0.068 NA
ATOM     27  Cl  UNL A   1      29.269  34.194  23.494  1.00  0.00    -0.058 Cl
ENDBRANCH  21  22
ENDBRANCH  20  21
ENDBRANCH  18  20
ENDBRANCH   8  18
ENDBRANCH   3   5
ENDBRANCH   2   3
ENDBRANCH   1   2
BRANCH   1  28
ATOM     28  C   UNL A   1      34.972  30.878  27.624  1.00  0.00     0.275 C 
BRANCH  28  29
ATOM     29  O   UNL A   1      36.195  31.366  28.188  1.00  0.00    -0.458 OA
BRANCH  29  30
ATOM     30  C   UNL A   1      36.163  31.365  29.537  1.00  0.00     0.338 C 
ATOM     31  O   UNL A   1      35.405  32.017  30.232  1.00  0.00    -0.246 OA
BRANCH  30  32
ATOM     32  C   UNL A   1      37.302  30.670  30.131  1.00  0.00     0.060 A 
ATOM     33  C   UNL A   1      38.571  31.199  29.872  1.00  0.00     0.016 A 
ATOM     34  C   UNL A   1      37.126  29.354  30.553  1.00  0.00     0.016 A 
ATOM     35  C   UNL A   1      39.658  30.353  29.839  1.00  0.00     0.010 A 
ATOM     36  C   UNL A   1      38.218  28.511  30.541  1.00  0.00     0.010 A 
ATOM     37  C   UNL A   1      39.455  28.999  30.099  1.00  0.00    -0.014 A 
BRANCH  37  38
ATOM     38  C   UNL A   1      40.590  28.099  29.968  1.00  0.00     0.031 A 
ATOM     39  C   UNL A   1      41.423  27.955  31.190  1.00  0.00     0.074 A 
ATOM     40  C   UNL A   1      40.734  27.301  28.893  1.00  0.00     0.049 A 
ATOM     41  N   UNL A   1      42.712  27.976  31.295  1.00  0.00    -0.248 NA
ATOM     42  C   UNL A   1      40.713  27.828  32.475  1.00  0.00     0.031 C 
ATOM     43  C   UNL A   1      39.804  27.148  27.769  1.00  0.00     0.029 A 
ATOM     44  N   UNL A   1      41.650  26.315  28.676  1.00  0.00    -0.354 N 
ATOM     45  C   UNL A   1      42.984  27.713  32.636  1.00  0.00     0.074 A 
ATOM     46  C   UNL A   1      41.724  27.748  33.334  1.00  0.00     0.031 C 
ATOM     47  C   UNL A   1      40.042  25.963  27.168  1.00  0.00     0.029 A 
ATOM     48  C   UNL A   1      41.196  25.341  27.797  1.00  0.00     0.049 A 
ATOM     49  H   UNL A   1      42.540  26.296  29.099  1.00  0.00     0.167 HD
ATOM     50  C   UNL A   1      44.194  27.265  33.064  1.00  0.00     0.031 A 
ATOM     51  C   UNL A   1      41.655  24.071  27.688  1.00  0.00     0.031 A 
ATOM     52  C   UNL A   1      45.249  27.541  32.132  1.00  0.00     0.049 A 
ATOM     53  C   UNL A   1      42.980  24.001  28.347  1.00  0.00     0.074 A 
ATOM     54  C   UNL A   1      45.749  28.689  31.549  1.00  0.00     0.029 A 
ATOM     55  N   UNL A   1      45.756  26.498  31.396  1.00  0.00    -0.354 N 
ATOM     56  N   UNL A   1      44.056  24.562  27.878  1.00  0.00    -0.248 NA
ATOM     57  C   UNL A   1      43.033  23.638  29.756  1.00  0.00     0.031 C 
ATOM     58  C   UNL A   1      46.107  28.303  30.225  1.00  0.00     0.029 A 
ATOM     59  C   UNL A   1      45.835  26.941  30.100  1.00  0.00     0.049 A 
ATOM     60  H   UNL A   1      46.013  25.609  31.732  1.00  0.00     0.167 HD
ATOM     61  C   UNL A   1      44.738  25.012  28.998  1.00  0.00     0.074 A 
ATOM     62  C   UNL A   1      44.126  24.311  30.123  1.00  0.00     0.031 C 
ATOM     63  C   UNL A   1      45.534  26.122  28.948  1.00  0.00     0.031 A 
BRANCH  50  64
ATOM     64  C   UNL A   1      44.326  26.247  34.165  1.00  0.00    -0.014 A 
ATOM     65  C   UNL A   1      43.724  24.988  34.011  1.00  0.00     0.009 A 
ATOM     66  C   UNL A   1      44.784  26.582  35.455  1.00  0.00     0.009 A 
ATOM     67  C   UNL A   1      43.543  24.134  35.107  1.00  0.00     0.001 A 
ATOM     68  C   UNL A   1      44.648  25.714  36.539  1.00  0.00     0.001 A 
ATOM     69  C   UNL A   1      44.002  24.500  36.369  1.00  0.00     0.000 A 
ENDBRANCH  50  64
BRANCH  51  70
ATOM     70  C   UNL A   1      40.897  22.861  27.294  1.00  0.00    -0.014 A 
ATOM     71  C   UNL A   1      39.625  22.970  26.713  1.00  0.00     0.009 A 
ATOM     72  C   UNL A   1      41.510  21.593  27.284  1.00  0.00     0.009 A 
ATOM     73  C   UNL A   1      39.002  21.859  26.129  1.00  0.00     0.001 A 
ATOM     74  C   UNL A   1      40.884  20.480  26.716  1.00  0.00     0.001 A 
ATOM     75  C   UNL A   1      39.634  20.616  26.126  1.00  0.00     0.000 A 
ENDBRANCH  51  70
BRANCH  63  76
ATOM     76  C   UNL A   1      45.848  26.723  27.600  1.00  0.00    -0.014 A 
ATOM     77  C   UNL A   1      47.017  26.410  26.884  1.00  0.00     0.009 A 
ATOM     78  C   UNL A   1      44.862  27.488  26.957  1.00  0.00     0.009 A 
ATOM     79  C   UNL A   1      47.209  26.879  25.581  1.00  0.00     0.001 A 
ATOM     80  C   UNL A   1      45.043  27.935  25.646  1.00  0.00     0.001 A 
ATOM     81  C   UNL A   1      46.219  27.637  24.961  1.00  0.00     0.000 A 
ENDBRANCH  63  76
ENDBRANCH  37  38
ENDBRANCH  30  32
ENDBRANCH  29  30
ENDBRANCH  28  29
ENDBRANCH   1  28
TORSDOF 17
ENDMDL
MODEL 2
REMARK VINA RESULT:     -11.6      4.825      9.434
REMARK SMILES COc1ccccc1[C@@H]1CN(C(=O)CCc2cc(Cl)no2)C[C@H]1C(=O)OCCOC(=O)c1ccc(-c2c3nc(c(-c4ccccc4)c4ccc([nH]4)c(-c4ccccc4)c4nc(c(-c5ccccc5)c5ccc2[nH]5)C=C4)C=C3)cc1
REMARK SMILES IDX 27 1 26 2 24 3 25 4 23 5 9 6 10 7 11 8 22 9 8 10 3 11 4 12
REMARK SMILES IDX 5 13 7 14 6 15 2 16 1 17 12 18 13 19 14 20 15 21 16 22 17 23
REMARK SMILES IDX 21 24 18 25 20 26 19 27 28 28 29 29 30 30 31 31 32 32 33 33
REMARK SMILES IDX 79 34 34 35 78 36 35 37 36 38 37 39 72 40 38 41 77 42 71 43
REMARK SMILES IDX 73 44 39 45 76 46 70 47 69 48 40 50 62 51 47 52 61 53 48 54
REMARK SMILES IDX 51 55 60 56 74 57 49 58 50 59 59 61 75 62 52 63 41 64 42 65
REMARK SMILES IDX 46 66 43 67 45 68 44 69 63 70 64 71 68 72 65 73 67 74 66 75
REMARK SMILES IDX 53 76 54 77 58 78 55 79 57 80 56 81
REMARK H PARENT 73 49 51 60
REMARK Flexibility Score: inf
ROOT
ATOM      1  C   UNL A   1      38.106  21.986  25.688  1.00  0.00     0.274 C 
ENDROOT
BRANCH   1   2
ATOM      2  O   UNL A   1      37.436  23.246  25.460  1.00  0.00    -0.462 OA
BRANCH   2   3
ATOM      3  C   UNL A   1      36.615  23.288  24.377  1.00  0.00     0.311 C 
ATOM      4  O   UNL A   1      37.010  23.272  23.215  1.00  0.00    -0.252 OA
BRANCH   3   5
ATOM      5  C   UNL A   1      35.144  23.436  24.709  1.00  0.00     0.128 C 
ATOM      6  C   UNL A   1      34.222  24.194  23.732  1.00  0.00     0.058 C 
ATOM      7  C   UNL A   1      32.940  23.380  23.690  1.00  0.00     0.129 C 
ATOM      8  N   UNL A   1      33.258  22.062  24.168  1.00  0.00    -0.341 N 
ATOM      9  C   UNL A   1      34.553  22.030  24.825  1.00  0.00     0.135 C 
BRANCH   6  10
ATOM     10  C   UNL A   1      33.842  25.666  23.930  1.00  0.00    -0.000 A 
ATOM     11  C   UNL A   1      33.509  26.647  22.973  1.00  0.00     0.122 A 
ATOM     12  C   UNL A   1      33.260  27.976  23.391  1.00  0.00     0.047 A 
ATOM     13  C   UNL A   1      33.387  28.377  24.718  1.00  0.00     0.004 A 
ATOM     14  C   UNL A   1      34.016  26.130  25.265  1.00  0.00     0.008 A 
ATOM     15  C   UNL A   1      33.792  27.451  25.658  1.00  0.00     0.001 A 
BRANCH  11  16
ATOM     16  O   UNL A   1      33.598  26.612  21.612  1.00  0.00    -0.496 OA
ATOM     17  C   UNL A   1      32.749  25.816  20.820  1.00  0.00     0.278 C 
ENDBRANCH  11  16
ENDBRANCH   6  10
BRANCH   8  18
ATOM     18  C   UNL A   1      32.411  20.979  24.175  1.00  0.00     0.223 C 
ATOM     19  O   UNL A   1      31.776  20.663  25.183  1.00  0.00    -0.275 OA
BRANCH  18  20
ATOM     20  C   UNL A   1      32.293  20.149  22.904  1.00  0.00     0.108 C 
BRANCH  20  21
ATOM     21  C   UNL A   1      31.800  18.722  23.143  1.00  0.00     0.088 C 
BRANCH  21  22
ATOM     22  C   UNL A   1      32.865  17.767  23.550  1.00  0.00     0.138 A 
ATOM     23  C   UNL A   1      33.498  17.457  24.734  1.00  0.00     0.089 A 
ATOM     24  O   UNL A   1      33.395  17.000  22.554  1.00  0.00    -0.360 OA
ATOM     25  C   UNL A   1      34.472  16.513  24.363  1.00  0.00     0.172 A 
ATOM     26  N   UNL A   1      34.405  16.202  23.068  1.00  0.00    -0.068 NA
ATOM     27  Cl  UNL A   1      35.633  15.824  25.383  1.00  0.00    -0.058 Cl
ENDBRANCH  21  22
ENDBRANCH  20  21
ENDBRANCH  18  20
ENDBRANCH   8  18
ENDBRANCH   3   5
ENDBRANCH   2   3
ENDBRANCH   1   2
BRANCH   1  28
ATOM     28  C   UNL A   1      39.595  22.136  26.014  1.00  0.00     0.275 C 
BRANCH  28  29
ATOM     29  O   UNL A   1      39.843  22.811  27.254  1.00  0.00    -0.458 OA
BRANCH  29  30
ATOM     30  C   UNL A   1      40.707  23.837  27.104  1.00  0.00     0.338 C 
ATOM     31  O   UNL A   1      41.652  23.866  26.337  1.00  0.00    -0.246 OA
BRANCH  30  32
ATOM     32  C   UNL A   1      40.554  24.860  28.134  1.00  0.00     0.060 A 
ATOM     33  C   UNL A   1      39.337  25.549  28.167  1.00  0.00     0.016 A 
ATOM     34  C   UNL A   1      41.704  25.371  28.734  1.00  0.00     0.016 A 
ATOM     35  C   UNL A   1      39.312  26.848  28.625  1.00  0.00     0.010 A 
ATOM     36  C   UNL A   1      41.674  26.665  29.213  1.00  0.00     0.010 A 
ATOM     37  C   UNL A   1      40.502  27.420  29.072  1.00  0.00    -0.014 A 
BRANCH  37  38
ATOM     38  C   UNL A   1      40.484  28.820  29.465  1.00  0.00     0.031 A 
ATOM     39  C   UNL A   1      41.613  29.634  28.945  1.00  0.00     0.074 A 
ATOM     40  C   UNL A   1      39.410  29.368  30.065  1.00  0.00     0.049 A 
ATOM     41  N   UNL A   1      42.351  30.488  29.577  1.00  0.00    -0.248 NA
ATOM     42  C   UNL A   1      42.004  29.418  27.541  1.00  0.00     0.031 C 
ATOM     43  C   UNL A   1      38.126  28.720  30.351  1.00  0.00     0.029 A 
ATOM     44  N   UNL A   1      39.176  30.675  30.372  1.00  0.00    -0.354 N 
ATOM     45  C   UNL A   1      43.202  31.032  28.617  1.00  0.00     0.074 A 
ATOM     46  C   UNL A   1      43.028  30.257  27.415  1.00  0.00     0.031 C 
ATOM     47  C   UNL A   1      37.184  29.676  30.504  1.00  0.00     0.029 A 
ATOM     48  C   UNL A   1      37.823  30.980  30.434  1.00  0.00     0.049 A 
ATOM     49  H   UNL A   1      39.891  31.334  30.531  1.00  0.00     0.167 HD
ATOM     50  C   UNL A   1      43.839  32.219  28.792  1.00  0.00     0.031 A 
ATOM     51  C   UNL A   1      37.262  32.207  30.306  1.00  0.00     0.031 A 
ATOM     52  C   UNL A   1      43.936  32.599  30.172  1.00  0.00     0.049 A 
ATOM     53  C   UNL A   1      38.323  33.222  30.507  1.00  0.00     0.074 A 
ATOM     54  C   UNL A   1      44.471  32.012  31.303  1.00  0.00     0.029 A 
ATOM     55  N   UNL A   1      43.126  33.611  30.627  1.00  0.00    -0.354 N 
ATOM     56  N   UNL A   1      38.890  33.464  31.652  1.00  0.00    -0.248 NA
ATOM     57  C   UNL A   1      39.049  33.703  29.340  1.00  0.00     0.031 C 
ATOM     58  C   UNL A   1      43.581  32.366  32.357  1.00  0.00     0.029 A 
ATOM     59  C   UNL A   1      42.585  33.174  31.809  1.00  0.00     0.049 A 
ATOM     60  H   UNL A   1      42.966  34.479  30.191  1.00  0.00     0.167 HD
ATOM     61  C   UNL A   1      40.216  33.727  31.343  1.00  0.00     0.074 A 
ATOM     62  C   UNL A   1      40.227  33.979  29.904  1.00  0.00     0.031 C 
ATOM     63  C   UNL A   1      41.224  33.432  32.217  1.00  0.00     0.031 A 
BRANCH  50  64
ATOM     64  C   UNL A   1      44.034  33.196  27.664  1.00  0.00    -0.014 A 
ATOM     65  C   UNL A   1      43.350  34.422  27.692  1.00  0.00     0.009 A 
ATOM     66  C   UNL A   1      44.648  32.836  26.448  1.00  0.00     0.009 A 
ATOM     67  C   UNL A   1      43.242  35.217  26.544  1.00  0.00     0.001 A 
ATOM     68  C   UNL A   1      44.583  33.648  25.315  1.00  0.00     0.001 A 
ATOM     69  C   UNL A   1      43.856  34.828  25.357  1.00  0.00     0.000 A 
ENDBRANCH  50  64
BRANCH  51  70
ATOM     70  C   UNL A   1      35.932  32.545  29.751  1.00  0.00    -0.014 A 
ATOM     71  C   UNL A   1      35.231  33.671  30.205  1.00  0.00     0.009 A 
ATOM     72  C   UNL A   1      35.434  31.887  28.609  1.00  0.00     0.009 A 
ATOM     73  C   UNL A   1      34.090  34.130  29.533  1.00  0.00     0.001 A 
ATOM     74  C   UNL A   1      34.287  32.333  27.946  1.00  0.00     0.001 A 
ATOM     75  C   UNL A   1      33.622  33.464  28.402  1.00  0.00     0.000 A 
ENDBRANCH  51  70
BRANCH  63  76
ATOM     76  C   UNL A   1      40.860  33.026  33.624  1.00  0.00    -0.014 A 
ATOM     77  C   UNL A   1      40.524  31.705  33.970  1.00  0.00     0.009 A 
ATOM     78  C   UNL A   1      41.028  33.959  34.660  1.00  0.00     0.009 A 
ATOM     79  C   UNL A   1      40.325  31.338  35.304  1.00  0.00     0.001 A 
ATOM     80  C   UNL A   1      40.854  33.586  35.995  1.00  0.00     0.001 A 
ATOM     81  C   UNL A   1      40.495  32.279  36.316  1.00  0.00     0.000 A 
ENDBRANCH  63  76
ENDBRANCH  37  38
ENDBRANCH  30  32
ENDBRANCH  29  30
ENDBRANCH  28  29
ENDBRANCH   1  28
TORSDOF 17
ENDMDL
MODEL 3
REMARK VINA RESULT:     -11.5      3.975      8.352
REMARK SMILES COc1ccccc1[C@@H]1CN(C(=O)CCc2cc(Cl)no2)C[C@H]1C(=O)OCCOC(=O)c1ccc(-c2c3nc(c(-c4ccccc4)c4ccc([nH]4)c(-c4ccccc4)c4nc(c(-c5ccccc5)c5ccc2[nH]5)C=C4)C=C3)cc1
REMARK SMILES IDX 27 1 26 2 24 3 25 4 23 5 9 6 10 7 11 8 22 9 8 10 3 11 4 12
REMARK SMILES IDX 5 13 7 14 6 15 2 16 1 17 12 18 13 19 14 20 15 21 16 22 17 23
REMARK SMILES IDX 21 24 18 25 20 26 19 27 28 28 29 29 30 30 31 31 32 32 33 33
REMARK SMILES IDX 79 34 34 35 78 36 35 37 36 38 37 39 72 40 38 41 77 42 71 43
REMARK SMILES IDX 73 44 39 45 76 46 70 47 69 48 40 50 62 51 47 52 61 53 48 54
REMARK SMILES IDX 51 55 60 56 74 57 49 58 50 59 59 61 75 62 52 63 41 64 42 65
REMARK SMILES IDX 46 66 43 67 45 68 44 69 63 70 64 71 68 72 65 73 67 74 66 75
REMARK SMILES IDX 53 76 54 77 58 78 55 79 57 80 56 81
REMARK H PARENT 73 49 51 60
REMARK Flexibility Score: inf
ROOT
ATOM      1  C   UNL A   1      38.224  21.849  25.652  1.00  0.00     0.274 C 
ENDROOT
BRANCH   1   2
ATOM      2  O   UNL A   1      36.847  22.044  25.258  1.00  0.00    -0.462 OA
BRANCH   2   3
ATOM      3  C   UNL A   1      36.316  23.259  25.557  1.00  0.00     0.311 C 
ATOM      4  O   UNL A   1      36.977  24.226  25.925  1.00  0.00    -0.252 OA
BRANCH   3   5
ATOM      5  C   UNL A   1      34.804  23.321  25.476  1.00  0.00     0.128 C 
ATOM      6  C   UNL A   1      34.136  24.477  24.705  1.00  0.00     0.058 C 
ATOM      7  C   UNL A   1      32.992  23.832  23.942  1.00  0.00     0.129 C 
ATOM      8  N   UNL A   1      33.272  22.424  23.868  1.00  0.00    -0.341 N 
ATOM      9  C   UNL A   1      34.326  22.039  24.790  1.00  0.00     0.135 C 
BRANCH   6  10
ATOM     10  C   UNL A   1      33.592  25.728  25.405  1.00  0.00    -0.000 A 
ATOM     11  C   UNL A   1      32.572  25.850  26.370  1.00  0.00     0.122 A 
ATOM     12  C   UNL A   1      32.188  27.133  26.826  1.00  0.00     0.047 A 
ATOM     13  C   UNL A   1      32.743  28.303  26.314  1.00  0.00     0.004 A 
ATOM     14  C   UNL A   1      34.092  26.949  24.868  1.00  0.00     0.008 A 
ATOM     15  C   UNL A   1      33.685  28.210  25.311  1.00  0.00     0.001 A 
BRANCH  11  16
ATOM     16  O   UNL A   1      31.674  24.925  26.819  1.00  0.00    -0.496 OA
ATOM     17  C   UNL A   1      30.441  24.696  26.180  1.00  0.00     0.278 C 
ENDBRANCH  11  16
ENDBRANCH   6  10
BRANCH   8  18
ATOM     18  C   UNL A   1      32.552  21.494  23.156  1.00  0.00     0.223 C 
ATOM     19  O   UNL A   1      32.180  21.713  22.002  1.00  0.00    -0.275 OA
BRANCH  18  20
ATOM     20  C   UNL A   1      32.193  20.182  23.841  1.00  0.00     0.108 C 
BRANCH  20  21
ATOM     21  C   UNL A   1      32.331  18.957  22.936  1.00  0.00     0.088 C 
BRANCH  21  22
ATOM     22  C   UNL A   1      33.215  17.891  23.479  1.00  0.00     0.138 A 
ATOM     23  C   UNL A   1      33.934  17.718  24.641  1.00  0.00     0.089 A 
ATOM     24  O   UNL A   1      33.416  16.811  22.671  1.00  0.00    -0.360 OA
ATOM     25  C   UNL A   1      34.618  16.505  24.442  1.00  0.00     0.172 A 
ATOM     26  N   UNL A   1      34.296  15.931  23.282  1.00  0.00    -0.068 NA
ATOM     27  Cl  UNL A   1      35.742  15.809  25.496  1.00  0.00    -0.058 Cl
ENDBRANCH  21  22
ENDBRANCH  20  21
ENDBRANCH  18  20
ENDBRANCH   8  18
ENDBRANCH   3   5
ENDBRANCH   2   3
ENDBRANCH   1   2
BRANCH   1  28
ATOM     28  C   UNL A   1      38.759  20.449  25.334  1.00  0.00     0.275 C 
BRANCH  28  29
ATOM     29  O   UNL A   1      39.501  19.863  26.409  1.00  0.00    -0.458 OA
BRANCH  29  30
ATOM     30  C   UNL A   1      40.807  19.718  26.100  1.00  0.00     0.338 C 
ATOM     31  O   UNL A   1      41.293  18.789  25.480  1.00  0.00    -0.246 OA
BRANCH  30  32
ATOM     32  C   UNL A   1      41.663  20.682  26.786  1.00  0.00     0.060 A 
ATOM     33  C   UNL A   1      41.436  20.869  28.153  1.00  0.00     0.016 A 
ATOM     34  C   UNL A   1      42.344  21.626  26.018  1.00  0.00     0.016 A 
ATOM     35  C   UNL A   1      41.712  22.095  28.719  1.00  0.00     0.010 A 
ATOM     36  C   UNL A   1      42.640  22.845  26.590  1.00  0.00     0.010 A 
ATOM     37  C   UNL A   1      42.241  23.098  27.909  1.00  0.00    -0.014 A 
BRANCH  37  38
ATOM     38  C   UNL A   1      42.440  24.415  28.493  1.00  0.00     0.031 A 
ATOM     39  C   UNL A   1      41.391  25.415  28.163  1.00  0.00     0.074 A 
ATOM     40  C   UNL A   1      43.382  24.634  29.430  1.00  0.00     0.049 A 
ATOM     41  N   UNL A   1      41.536  26.644  27.789  1.00  0.00    -0.248 NA
ATOM     42  C   UNL A   1      39.991  24.955  28.203  1.00  0.00     0.031 C 
ATOM     43  C   UNL A   1      44.270  23.641  30.044  1.00  0.00     0.029 A 
ATOM     44  N   UNL A   1      43.609  25.756  30.169  1.00  0.00    -0.354 N 
ATOM     45  C   UNL A   1      40.247  27.162  27.693  1.00  0.00     0.074 A 
ATOM     46  C   UNL A   1      39.338  26.055  27.841  1.00  0.00     0.031 C 
ATOM     47  C   UNL A   1      44.709  24.126  31.225  1.00  0.00     0.029 A 
ATOM     48  C   UNL A   1      44.219  25.485  31.386  1.00  0.00     0.049 A 
ATOM     49  H   UNL A   1      43.365  26.663  29.871  1.00  0.00     0.167 HD
ATOM     50  C   UNL A   1      39.990  28.497  27.716  1.00  0.00     0.031 A 
ATOM     51  C   UNL A   1      44.210  26.272  32.490  1.00  0.00     0.031 A 
ATOM     52  C   UNL A   1      41.137  29.289  27.374  1.00  0.00     0.049 A 
ATOM     53  C   UNL A   1      43.812  27.639  32.078  1.00  0.00     0.074 A 
ATOM     54  C   UNL A   1      41.980  29.351  26.281  1.00  0.00     0.029 A 
ATOM     55  N   UNL A   1      41.781  29.969  28.379  1.00  0.00    -0.354 N 
ATOM     56  N   UNL A   1      44.560  28.431  31.368  1.00  0.00    -0.248 NA
ATOM     57  C   UNL A   1      42.399  27.988  32.119  1.00  0.00     0.031 C 
ATOM     58  C   UNL A   1      43.269  29.618  26.825  1.00  0.00     0.029 A 
ATOM     59  C   UNL A   1      43.122  29.737  28.207  1.00  0.00     0.049 A 
ATOM     60  H   UNL A   1      41.363  30.515  29.083  1.00  0.00     0.167 HD
ATOM     61  C   UNL A   1      43.676  29.103  30.537  1.00  0.00     0.074 A 
ATOM     62  C   UNL A   1      42.358  28.879  31.126  1.00  0.00     0.031 C 
ATOM     63  C   UNL A   1      44.051  29.529  29.294  1.00  0.00     0.031 A 
BRANCH  50  64
ATOM     64  C   UNL A   1      38.787  29.069  28.417  1.00  0.00    -0.014 A 
ATOM     65  C   UNL A   1      37.958  29.971  27.731  1.00  0.00     0.009 A 
ATOM     66  C   UNL A   1      38.603  28.965  29.810  1.00  0.00     0.009 A 
ATOM     67  C   UNL A   1      37.030  30.765  28.417  1.00  0.00     0.001 A 
ATOM     68  C   UNL A   1      37.646  29.720  30.490  1.00  0.00     0.001 A 
ATOM     69  C   UNL A   1      36.878  30.640  29.795  1.00  0.00     0.000 A 
ENDBRANCH  50  64
BRANCH  51  70
ATOM     70  C   UNL A   1      44.256  25.849  33.908  1.00  0.00    -0.014 A 
ATOM     71  C   UNL A   1      43.074  25.605  34.621  1.00  0.00     0.009 A 
ATOM     72  C   UNL A   1      45.470  25.467  34.512  1.00  0.00     0.009 A 
ATOM     73  C   UNL A   1      43.106  24.987  35.879  1.00  0.00     0.001 A 
ATOM     74  C   UNL A   1      45.505  24.865  35.772  1.00  0.00     0.001 A 
ATOM     75  C   UNL A   1      44.320  24.613  36.451  1.00  0.00     0.000 A 
ENDBRANCH  51  70
BRANCH  63  76
ATOM     76  C   UNL A   1      45.512  29.466  28.922  1.00  0.00    -0.014 A 
ATOM     77  C   UNL A   1      46.111  28.308  28.396  1.00  0.00     0.009 A 
ATOM     78  C   UNL A   1      46.263  30.651  28.938  1.00  0.00     0.009 A 
ATOM     79  C   UNL A   1      47.431  28.326  27.936  1.00  0.00     0.001 A 
ATOM     80  C   UNL A   1      47.574  30.676  28.455  1.00  0.00     0.001 A 
ATOM     81  C   UNL A   1      48.160  29.512  27.961  1.00  0.00     0.000 A 
ENDBRANCH  63  76
ENDBRANCH  37  38
ENDBRANCH  30  32
ENDBRANCH  29  30
ENDBRANCH  28  29
ENDBRANCH   1  28
TORSDOF 17
ENDMDL
