MODEL 1
REMARK VINA RESULT:     -12.5      0.000      0.000
REMARK SMILES C[C@H](C(=O)Nc1ccc(C(F)(F)F)cc1)n1nc(C(=O)OCCOC(=O)c2ccc(-c3c4nc(c(-c5ccccc5)c5ccc([nH]5)c(-c5ccccc5)c5nc(c(-c6ccccc6)c6ccc3[nH]6)C=C5)C=C4)cc2)c2ccccc2c1=O
REMARK SMILES IDX 22 1 21 2 19 3 20 4 18 5 16 6 17 7 81 8 80 9 82 10 75 11
REMARK SMILES IDX 79 12 76 13 78 14 77 15 2 16 1 17 3 18 4 19 5 20 6 22 7 23
REMARK SMILES IDX 15 24 8 25 14 26 9 27 10 28 11 29 12 30 13 31 23 32 24 33
REMARK SMILES IDX 25 34 26 35 27 36 28 37 74 38 29 39 73 40 30 41 31 42 32 43
REMARK SMILES IDX 67 44 33 45 72 46 66 47 68 48 34 49 71 50 65 51 64 52 35 54
REMARK SMILES IDX 57 55 42 56 56 57 43 58 46 59 55 60 69 61 44 62 45 63 54 65
REMARK SMILES IDX 70 66 47 67 36 68 37 69 41 70 38 71 40 72 39 73 58 74 59 75
REMARK SMILES IDX 63 76 60 77 62 78 61 79 48 80 49 81 53 82 50 83 52 84 51 85
REMARK H PARENT 5 21 68 53 46 64
REMARK Flexibility Score: inf
ROOT
ATOM      1  C   UNL A   1      38.219  20.929  25.393  1.00  0.00     0.275 C 
ENDROOT
BRANCH   1   2
ATOM      2  O   UNL A   1      36.883  20.522  25.055  1.00  0.00    -0.457 OA
BRANCH   2   3
ATOM      3  C   UNL A   1      36.077  21.534  24.700  1.00  0.00     0.359 C 
ATOM      4  O   UNL A   1      36.408  22.588  24.183  1.00  0.00    -0.244 OA
BRANCH   3   5
ATOM      5  C   UNL A   1      34.670  21.370  25.241  1.00  0.00     0.176 A 
ATOM      6  N   UNL A   1      33.180  23.023  24.965  1.00  0.00    -0.216 N 
ATOM      7  N   UNL A   1      34.195  22.469  25.727  1.00  0.00    -0.161 NA
ATOM      8  C   UNL A   1      32.732  22.426  23.769  1.00  0.00     0.275 A 
ATOM      9  C   UNL A   1      32.911  20.956  23.701  1.00  0.00     0.051 A 
ATOM     10  O   UNL A   1      32.208  22.998  22.823  1.00  0.00    -0.267 OA
ATOM     11  C   UNL A   1      33.795  20.389  24.603  1.00  0.00     0.022 A 
ATOM     12  C   UNL A   1      32.163  20.138  22.854  1.00  0.00     0.014 A 
ATOM     13  C   UNL A   1      33.806  19.017  24.838  1.00  0.00     0.011 A 
ATOM     14  C   UNL A   1      32.214  18.752  23.024  1.00  0.00     0.001 A 
ATOM     15  C   UNL A   1      32.990  18.197  24.050  1.00  0.00     0.001 A 
BRANCH   6  16
ATOM     16  C   UNL A   1      32.842  24.380  25.406  1.00  0.00     0.197 C 
ATOM     17  C   UNL A   1      34.098  25.079  25.930  1.00  0.00     0.044 C 
BRANCH  16  18
ATOM     18  C   UNL A   1      31.701  24.493  26.413  1.00  0.00     0.249 C 
ATOM     19  O   UNL A   1      31.612  23.714  27.370  1.00  0.00    -0.272 OA
ATOM     20  N   UNL A   1      30.788  25.511  26.333  1.00  0.00    -0.324 N 
ATOM     21  H   UNL A   1      30.140  25.520  27.074  1.00  0.00     0.170 HD
BRANCH  20  22
ATOM     22  C   UNL A   1      30.593  26.545  25.402  1.00  0.00     0.041 A 
ATOM     23  C   UNL A   1      29.621  26.321  24.423  1.00  0.00     0.027 A 
ATOM     24  C   UNL A   1      31.298  27.749  25.381  1.00  0.00     0.027 A 
ATOM     25  C   UNL A   1      29.288  27.316  23.501  1.00  0.00     0.015 A 
ATOM     26  C   UNL A   1      30.978  28.746  24.448  1.00  0.00     0.015 A 
ATOM     27  C   UNL A   1      29.950  28.551  23.515  1.00  0.00     0.056 A 
BRANCH  27  28
ATOM     28  C   UNL A   1      29.554  29.629  22.537  1.00  0.00     0.416 C 
ATOM     29  F   UNL A   1      29.312  30.824  23.144  1.00  0.00    -0.166 F 
ATOM     30  F   UNL A   1      30.527  29.872  21.612  1.00  0.00    -0.166 F 
ATOM     31  F   UNL A   1      28.431  29.335  21.824  1.00  0.00    -0.166 F 
ENDBRANCH  27  28
ENDBRANCH  20  22
ENDBRANCH  16  18
ENDBRANCH   6  16
ENDBRANCH   3   5
ENDBRANCH   2   3
ENDBRANCH   1   2
BRANCH   1  32
ATOM     32  C   UNL A   1      39.150  19.727  25.277  1.00  0.00     0.275 C 
BRANCH  32  33
ATOM     33  O   UNL A   1      40.026  19.633  26.422  1.00  0.00    -0.458 OA
BRANCH  33  34
ATOM     34  C   UNL A   1      41.346  19.719  26.151  1.00  0.00     0.338 C 
ATOM     35  O   UNL A   1      42.037  18.919  25.534  1.00  0.00    -0.246 OA
BRANCH  34  36
ATOM     36  C   UNL A   1      41.897  20.997  26.614  1.00  0.00     0.060 A 
ATOM     37  C   UNL A   1      41.926  21.280  27.975  1.00  0.00     0.016 A 
ATOM     38  C   UNL A   1      42.172  21.998  25.686  1.00  0.00     0.016 A 
ATOM     39  C   UNL A   1      42.122  22.584  28.409  1.00  0.00     0.010 A 
ATOM     40  C   UNL A   1      42.504  23.280  26.138  1.00  0.00     0.010 A 
ATOM     41  C   UNL A   1      42.454  23.598  27.506  1.00  0.00    -0.014 A 
BRANCH  41  42
ATOM     42  C   UNL A   1      42.764  24.969  27.997  1.00  0.00     0.031 A 
ATOM     43  C   UNL A   1      44.163  25.345  28.407  1.00  0.00     0.074 A 
ATOM     44  C   UNL A   1      41.778  25.885  28.096  1.00  0.00     0.049 A 
ATOM     45  N   UNL A   1      44.572  26.388  29.086  1.00  0.00    -0.248 NA
ATOM     46  C   UNL A   1      45.241  24.422  28.018  1.00  0.00     0.031 C 
ATOM     47  C   UNL A   1      40.385  25.688  27.684  1.00  0.00     0.029 A 
ATOM     48  N   UNL A   1      41.795  27.168  28.584  1.00  0.00    -0.354 N 
ATOM     49  C   UNL A   1      45.940  26.214  29.263  1.00  0.00     0.074 A 
ATOM     50  C   UNL A   1      46.291  24.966  28.620  1.00  0.00     0.031 C 
ATOM     51  C   UNL A   1      39.696  26.814  27.897  1.00  0.00     0.029 A 
ATOM     52  C   UNL A   1      40.556  27.764  28.586  1.00  0.00     0.049 A 
ATOM     53  H   UNL A   1      42.612  27.618  28.900  1.00  0.00     0.167 HD
ATOM     54  C   UNL A   1      46.815  27.019  29.914  1.00  0.00     0.031 A 
ATOM     55  C   UNL A   1      40.122  28.904  29.151  1.00  0.00     0.031 A 
ATOM     56  C   UNL A   1      46.456  28.271  30.532  1.00  0.00     0.049 A 
ATOM     57  C   UNL A   1      41.086  29.739  29.934  1.00  0.00     0.074 A 
ATOM     58  C   UNL A   1      47.270  29.167  31.205  1.00  0.00     0.029 A 
ATOM     59  N   UNL A   1      45.177  28.806  30.550  1.00  0.00    -0.354 N 
ATOM     60  N   UNL A   1      42.363  29.536  30.149  1.00  0.00    -0.248 NA
ATOM     61  C   UNL A   1      40.545  30.947  30.568  1.00  0.00     0.031 C 
ATOM     62  C   UNL A   1      46.472  30.212  31.681  1.00  0.00     0.029 A 
ATOM     63  C   UNL A   1      45.172  30.004  31.247  1.00  0.00     0.049 A 
ATOM     64  H   UNL A   1      44.387  28.396  30.128  1.00  0.00     0.167 HD
ATOM     65  C   UNL A   1      42.783  30.594  30.941  1.00  0.00     0.074 A 
ATOM     66  C   UNL A   1      41.629  31.449  31.143  1.00  0.00     0.031 C 
ATOM     67  C   UNL A   1      44.013  30.833  31.459  1.00  0.00     0.031 A 
BRANCH  54  68
ATOM     68  C   UNL A   1      48.238  26.539  30.046  1.00  0.00    -0.014 A 
ATOM     69  C   UNL A   1      49.225  26.867  29.103  1.00  0.00     0.009 A 
ATOM     70  C   UNL A   1      48.602  25.760  31.159  1.00  0.00     0.009 A 
ATOM     71  C   UNL A   1      50.531  26.388  29.248  1.00  0.00     0.001 A 
ATOM     72  C   UNL A   1      49.914  25.312  31.319  1.00  0.00     0.001 A 
ATOM     73  C   UNL A   1      50.875  25.616  30.357  1.00  0.00     0.000 A 
ENDBRANCH  54  68
BRANCH  55  74
ATOM     74  C   UNL A   1      38.679  29.253  29.065  1.00  0.00    -0.014 A 
ATOM     75  C   UNL A   1      37.826  29.062  30.159  1.00  0.00     0.009 A 
ATOM     76  C   UNL A   1      38.164  29.845  27.897  1.00  0.00     0.009 A 
ATOM     77  C   UNL A   1      36.488  29.455  30.087  1.00  0.00     0.001 A 
ATOM     78  C   UNL A   1      36.837  30.270  27.841  1.00  0.00     0.001 A 
ATOM     79  C   UNL A   1      35.998  30.070  28.935  1.00  0.00     0.000 A 
ENDBRANCH  55  74
BRANCH  67  80
ATOM     80  C   UNL A   1      44.171  32.081  32.279  1.00  0.00    -0.014 A 
ATOM     81  C   UNL A   1      43.991  32.065  33.670  1.00  0.00     0.009 A 
ATOM     82  C   UNL A   1      44.525  33.285  31.651  1.00  0.00     0.009 A 
ATOM     83  C   UNL A   1      44.128  33.241  34.412  1.00  0.00     0.001 A 
ATOM     84  C   UNL A   1      44.691  34.451  32.399  1.00  0.00     0.001 A 
ATOM     85  C   UNL A   1      44.482  34.430  33.777  1.00  0.00     0.000 A 
ENDBRANCH  67  80
ENDBRANCH  41  42
ENDBRANCH  34  36
ENDBRANCH  33  34
ENDBRANCH  32  33
ENDBRANCH   1  32
TORSDOF 15
ENDMDL
MODEL 2
REMARK VINA RESULT:     -12.5      0.797      5.737
REMARK SMILES C[C@H](C(=O)Nc1ccc(C(F)(F)F)cc1)n1nc(C(=O)OCCOC(=O)c2ccc(-c3c4nc(c(-c5ccccc5)c5ccc([nH]5)c(-c5ccccc5)c5nc(c(-c6ccccc6)c6ccc3[nH]6)C=C5)C=C4)cc2)c2ccccc2c1=O
REMARK SMILES IDX 22 1 21 2 19 3 20 4 18 5 16 6 17 7 81 8 80 9 82 10 75 11
REMARK SMILES IDX 79 12 76 13 78 14 77 15 2 16 1 17 3 18 4 19 5 20 6 22 7 23
REMARK SMILES IDX 15 24 8 25 14 26 9 27 10 28 11 29 12 30 13 31 23 32 24 33
REMARK SMILES IDX 25 34 26 35 27 36 28 37 74 38 29 39 73 40 30 41 31 42 32 43
REMARK SMILES IDX 67 44 33 45 72 46 66 47 68 48 34 49 71 50 65 51 64 52 35 54
REMARK SMILES IDX 57 55 42 56 56 57 43 58 46 59 55 60 69 61 44 62 45 63 54 65
REMARK SMILES IDX 70 66 47 67 36 68 37 69 41 70 38 71 40 72 39 73 58 74 59 75
REMARK SMILES IDX 63 76 60 77 62 78 61 79 48 80 49 81 53 82 50 83 52 84 51 85
REMARK H PARENT 5 21 68 53 46 64
REMARK Flexibility Score: inf
ROOT
ATOM      1  C   UNL A   1      38.270  20.624  24.968  1.00  0.00     0.275 C 
ENDROOT
BRANCH   1   2
ATOM      2  O   UNL A   1      36.873  20.291  24.990  1.00  0.00    -0.457 OA
BRANCH   2   3
ATOM      3  C   UNL A   1      36.062  21.317  24.689  1.00  0.00     0.359 C 
ATOM      4  O   UNL A   1      36.388  22.397  24.224  1.00  0.00    -0.244 OA
BRANCH   3   5
ATOM      5  C   UNL A   1      34.658  21.121  25.227  1.00  0.00     0.176 A 
ATOM      6  N   UNL A   1      33.135  22.743  24.954  1.00  0.00    -0.216 N 
ATOM      7  N   UNL A   1      34.160  22.208  25.716  1.00  0.00    -0.161 NA
ATOM      8  C   UNL A   1      32.701  22.141  23.754  1.00  0.00     0.275 A 
ATOM      9  C   UNL A   1      32.911  20.676  23.682  1.00  0.00     0.051 A 
ATOM     10  O   UNL A   1      32.166  22.705  22.810  1.00  0.00    -0.267 OA
ATOM     11  C   UNL A   1      33.805  20.124  24.584  1.00  0.00     0.022 A 
ATOM     12  C   UNL A   1      32.182  19.845  22.831  1.00  0.00     0.014 A 
ATOM     13  C   UNL A   1      33.845  18.752  24.814  1.00  0.00     0.011 A 
ATOM     14  C   UNL A   1      32.261  18.460  22.996  1.00  0.00     0.001 A 
ATOM     15  C   UNL A   1      33.048  17.918  24.022  1.00  0.00     0.001 A 
BRANCH   6  16
ATOM     16  C   UNL A   1      32.767  24.092  25.398  1.00  0.00     0.197 C 
ATOM     17  C   UNL A   1      34.002  24.805  25.953  1.00  0.00     0.044 C 
BRANCH  16  18
ATOM     18  C   UNL A   1      31.605  24.178  26.384  1.00  0.00     0.249 C 
ATOM     19  O   UNL A   1      31.478  23.356  27.298  1.00  0.00    -0.272 OA
ATOM     20  N   UNL A   1      30.715  25.219  26.334  1.00  0.00    -0.324 N 
ATOM     21  H   UNL A   1      30.049  25.205  27.060  1.00  0.00     0.170 HD
BRANCH  20  22
ATOM     22  C   UNL A   1      30.563  26.302  25.452  1.00  0.00     0.041 A 
ATOM     23  C   UNL A   1      29.620  26.141  24.433  1.00  0.00     0.027 A 
ATOM     24  C   UNL A   1      31.283  27.495  25.515  1.00  0.00     0.027 A 
ATOM     25  C   UNL A   1      29.330  27.187  23.553  1.00  0.00     0.015 A 
ATOM     26  C   UNL A   1      31.006  28.543  24.626  1.00  0.00     0.015 A 
ATOM     27  C   UNL A   1      30.007  28.410  23.651  1.00  0.00     0.056 A 
BRANCH  27  28
ATOM     28  C   UNL A   1      29.657  29.542  22.718  1.00  0.00     0.416 C 
ATOM     29  F   UNL A   1      28.539  29.289  21.982  1.00  0.00    -0.166 F 
ATOM     30  F   UNL A   1      29.407  30.705  23.385  1.00  0.00    -0.166 F 
ATOM     31  F   UNL A   1      30.639  29.835  21.820  1.00  0.00    -0.166 F 
ENDBRANCH  27  28
ENDBRANCH  20  22
ENDBRANCH  16  18
ENDBRANCH   6  16
ENDBRANCH   3   5
ENDBRANCH   2   3
ENDBRANCH   1   2
BRANCH   1  32
ATOM     32  C   UNL A   1      39.079  19.406  25.405  1.00  0.00     0.275 C 
BRANCH  32  33
ATOM     33  O   UNL A   1      40.023  19.752  26.442  1.00  0.00    -0.458 OA
BRANCH  33  34
ATOM     34  C   UNL A   1      41.301  19.911  26.035  1.00  0.00     0.338 C 
ATOM     35  O   UNL A   1      41.928  19.212  25.250  1.00  0.00    -0.246 OA
BRANCH  34  36
ATOM     36  C   UNL A   1      41.878  21.143  26.582  1.00  0.00     0.060 A 
ATOM     37  C   UNL A   1      42.097  21.249  27.952  1.00  0.00     0.016 A 
ATOM     38  C   UNL A   1      41.990  22.266  25.768  1.00  0.00     0.016 A 
ATOM     39  C   UNL A   1      42.319  22.495  28.524  1.00  0.00     0.010 A 
ATOM     40  C   UNL A   1      42.350  23.493  26.335  1.00  0.00     0.010 A 
ATOM     41  C   UNL A   1      42.491  23.630  27.727  1.00  0.00    -0.014 A 
BRANCH  41  42
ATOM     42  C   UNL A   1      42.832  24.939  28.349  1.00  0.00     0.031 A 
ATOM     43  C   UNL A   1      41.766  25.967  28.622  1.00  0.00     0.074 A 
ATOM     44  C   UNL A   1      44.115  25.221  28.656  1.00  0.00     0.049 A 
ATOM     45  N   UNL A   1      41.898  27.236  28.915  1.00  0.00    -0.248 NA
ATOM     46  C   UNL A   1      40.369  25.513  28.539  1.00  0.00     0.031 C 
ATOM     47  C   UNL A   1      45.251  24.307  28.505  1.00  0.00     0.029 A 
ATOM     48  N   UNL A   1      44.685  26.367  29.156  1.00  0.00    -0.354 N 
ATOM     49  C   UNL A   1      40.608  27.747  28.986  1.00  0.00     0.074 A 
ATOM     50  C   UNL A   1      39.706  26.650  28.705  1.00  0.00     0.031 C 
ATOM     51  C   UNL A   1      46.365  24.908  28.936  1.00  0.00     0.029 A 
ATOM     52  C   UNL A   1      46.052  26.290  29.263  1.00  0.00     0.049 A 
ATOM     53  H   UNL A   1      44.165  27.164  29.412  1.00  0.00     0.167 HD
ATOM     54  C   UNL A   1      40.217  29.019  29.248  1.00  0.00     0.031 A 
ATOM     55  C   UNL A   1      46.976  27.235  29.510  1.00  0.00     0.031 A 
ATOM     56  C   UNL A   1      41.125  30.098  29.548  1.00  0.00     0.049 A 
ATOM     57  C   UNL A   1      46.531  28.648  29.718  1.00  0.00     0.074 A 
ATOM     58  C   UNL A   1      40.830  31.419  29.841  1.00  0.00     0.029 A 
ATOM     59  N   UNL A   1      42.506  29.979  29.596  1.00  0.00    -0.354 N 
ATOM     60  N   UNL A   1      45.314  29.135  29.722  1.00  0.00    -0.248 NA
ATOM     61  C   UNL A   1      47.586  29.645  29.936  1.00  0.00     0.031 C 
ATOM     62  C   UNL A   1      42.035  32.111  30.006  1.00  0.00     0.029 A 
ATOM     63  C   UNL A   1      43.079  31.208  29.884  1.00  0.00     0.049 A 
ATOM     64  H   UNL A   1      43.006  29.144  29.448  1.00  0.00     0.167 HD
ATOM     65  C   UNL A   1      45.454  30.496  29.946  1.00  0.00     0.074 A 
ATOM     66  C   UNL A   1      46.873  30.751  30.102  1.00  0.00     0.031 C 
ATOM     67  C   UNL A   1      44.493  31.450  30.013  1.00  0.00     0.031 A 
BRANCH  54  68
ATOM     68  C   UNL A   1      38.744  29.327  29.163  1.00  0.00    -0.014 A 
ATOM     69  C   UNL A   1      37.896  29.226  30.277  1.00  0.00     0.009 A 
ATOM     70  C   UNL A   1      38.200  29.754  27.938  1.00  0.00     0.009 A 
ATOM     71  C   UNL A   1      36.531  29.503  30.155  1.00  0.00     0.001 A 
ATOM     72  C   UNL A   1      36.843  30.063  27.828  1.00  0.00     0.001 A 
ATOM     73  C   UNL A   1      36.007  29.925  28.933  1.00  0.00     0.000 A 
ENDBRANCH  54  68
BRANCH  55  74
ATOM     74  C   UNL A   1      48.417  26.869  29.472  1.00  0.00    -0.014 A 
ATOM     75  C   UNL A   1      49.068  26.392  30.618  1.00  0.00     0.009 A 
ATOM     76  C   UNL A   1      49.131  26.934  28.262  1.00  0.00     0.009 A 
ATOM     77  C   UNL A   1      50.403  25.990  30.552  1.00  0.00     0.001 A 
ATOM     78  C   UNL A   1      50.454  26.496  28.192  1.00  0.00     0.001 A 
ATOM     79  C   UNL A   1      51.091  26.029  29.340  1.00  0.00     0.000 A 
ENDBRANCH  55  74
BRANCH  67  80
ATOM     80  C   UNL A   1      44.952  32.855  30.283  1.00  0.00    -0.014 A 
ATOM     81  C   UNL A   1      45.112  33.329  31.594  1.00  0.00     0.009 A 
ATOM     82  C   UNL A   1      45.245  33.709  29.209  1.00  0.00     0.009 A 
ATOM     83  C   UNL A   1      45.524  34.643  31.824  1.00  0.00     0.001 A 
ATOM     84  C   UNL A   1      45.687  35.012  29.442  1.00  0.00     0.001 A 
ATOM     85  C   UNL A   1      45.816  35.481  30.748  1.00  0.00     0.000 A 
ENDBRANCH  67  80
ENDBRANCH  41  42
ENDBRANCH  34  36
ENDBRANCH  33  34
ENDBRANCH  32  33
ENDBRANCH   1  32
TORSDOF 15
ENDMDL
MODEL 3
REMARK VINA RESULT:     -12.5      2.483      3.724
REMARK SMILES C[C@H](C(=O)Nc1ccc(C(F)(F)F)cc1)n1nc(C(=O)OCCOC(=O)c2ccc(-c3c4nc(c(-c5ccccc5)c5ccc([nH]5)c(-c5ccccc5)c5nc(c(-c6ccccc6)c6ccc3[nH]6)C=C5)C=C4)cc2)c2ccccc2c1=O
REMARK SMILES IDX 22 1 21 2 19 3 20 4 18 5 16 6 17 7 81 8 80 9 82 10 75 11
REMARK SMILES IDX 79 12 76 13 78 14 77 15 2 16 1 17 3 18 4 19 5 20 6 22 7 23
REMARK SMILES IDX 15 24 8 25 14 26 9 27 10 28 11 29 12 30 13 31 23 32 24 33
REMARK SMILES IDX 25 34 26 35 27 36 28 37 74 38 29 39 73 40 30 41 31 42 32 43
REMARK SMILES IDX 67 44 33 45 72 46 66 47 68 48 34 49 71 50 65 51 64 52 35 54
REMARK SMILES IDX 57 55 42 56 56 57 43 58 46 59 55 60 69 61 44 62 45 63 54 65
REMARK SMILES IDX 70 66 47 67 36 68 37 69 41 70 38 71 40 72 39 73 58 74 59 75
REMARK SMILES IDX 63 76 60 77 62 78 61 79 48 80 49 81 53 82 50 83 52 84 51 85
REMARK H PARENT 5 21 68 53 46 64
REMARK Flexibility Score: inf
ROOT
ATOM      1  C   UNL A   1      37.898  22.149  25.643  1.00  0.00     0.275 C 
ENDROOT
BRANCH   1   2
ATOM      2  O   UNL A   1      37.251  21.490  24.543  1.00  0.00    -0.457 OA
BRANCH   2   3
ATOM      3  C   UNL A   1      36.163  22.129  24.087  1.00  0.00     0.359 C 
ATOM      4  O   UNL A   1      36.127  22.989  23.222  1.00  0.00    -0.244 OA
BRANCH   3   5
ATOM      5  C   UNL A   1      34.938  21.867  24.940  1.00  0.00     0.176 A 
ATOM      6  N   UNL A   1      33.214  23.299  24.866  1.00  0.00    -0.216 N 
ATOM      7  N   UNL A   1      34.432  22.954  25.425  1.00  0.00    -0.161 NA
ATOM      8  C   UNL A   1      32.607  22.524  23.855  1.00  0.00     0.275 A 
ATOM      9  C   UNL A   1      32.966  21.086  23.874  1.00  0.00     0.051 A 
ATOM     10  O   UNL A   1      31.823  22.923  23.006  1.00  0.00    -0.267 OA
ATOM     11  C   UNL A   1      34.089  20.728  24.600  1.00  0.00     0.022 A 
ATOM     12  C   UNL A   1      32.173  20.098  23.288  1.00  0.00     0.014 A 
ATOM     13  C   UNL A   1      34.336  19.401  24.942  1.00  0.00     0.011 A 
ATOM     14  C   UNL A   1      32.447  18.755  23.560  1.00  0.00     0.001 A 
ATOM     15  C   UNL A   1      33.491  18.411  24.429  1.00  0.00     0.001 A 
BRANCH   6  16
ATOM     16  C   UNL A   1      32.796  24.650  25.254  1.00  0.00     0.197 C 
ATOM     17  C   UNL A   1      34.010  25.444  25.739  1.00  0.00     0.044 C 
BRANCH  16  18
ATOM     18  C   UNL A   1      31.656  24.733  26.266  1.00  0.00     0.249 C 
ATOM     19  O   UNL A   1      31.596  23.960  27.229  1.00  0.00    -0.272 OA
ATOM     20  N   UNL A   1      30.710  25.721  26.182  1.00  0.00    -0.324 N 
ATOM     21  H   UNL A   1      30.065  25.715  26.926  1.00  0.00     0.170 HD
BRANCH  20  22
ATOM     22  C   UNL A   1      30.477  26.741  25.245  1.00  0.00     0.041 A 
ATOM     23  C   UNL A   1      29.475  26.498  24.302  1.00  0.00     0.027 A 
ATOM     24  C   UNL A   1      31.174  27.948  25.183  1.00  0.00     0.027 A 
ATOM     25  C   UNL A   1      29.105  27.478  23.378  1.00  0.00     0.015 A 
ATOM     26  C   UNL A   1      30.817  28.931  24.248  1.00  0.00     0.015 A 
ATOM     27  C   UNL A   1      29.760  28.716  23.352  1.00  0.00     0.056 A 
BRANCH  27  28
ATOM     28  C   UNL A   1      29.325  29.779  22.373  1.00  0.00     0.416 C 
ATOM     29  F   UNL A   1      28.173  29.454  21.724  1.00  0.00    -0.166 F 
ATOM     30  F   UNL A   1      29.085  30.976  22.981  1.00  0.00    -0.166 F 
ATOM     31  F   UNL A   1      30.244  30.035  21.401  1.00  0.00    -0.166 F 
ENDBRANCH  27  28
ENDBRANCH  20  22
ENDBRANCH  16  18
ENDBRANCH   6  16
ENDBRANCH   3   5
ENDBRANCH   2   3
ENDBRANCH   1   2
BRANCH   1  32
ATOM     32  C   UNL A   1      39.252  21.491  25.891  1.00  0.00     0.275 C 
BRANCH  32  33
ATOM     33  O   UNL A   1      39.977  22.169  26.940  1.00  0.00    -0.458 OA
BRANCH  33  34
ATOM     34  C   UNL A   1      40.984  22.968  26.527  1.00  0.00     0.338 C 
ATOM     35  O   UNL A   1      41.843  22.717  25.692  1.00  0.00    -0.246 OA
BRANCH  34  36
ATOM     36  C   UNL A   1      40.890  24.296  27.142  1.00  0.00     0.060 A 
ATOM     37  C   UNL A   1      41.975  25.163  27.074  1.00  0.00     0.016 A 
ATOM     38  C   UNL A   1      39.814  24.588  27.976  1.00  0.00     0.016 A 
ATOM     39  C   UNL A   1      42.037  26.264  27.918  1.00  0.00     0.010 A 
ATOM     40  C   UNL A   1      39.824  25.772  28.721  1.00  0.00     0.010 A 
ATOM     41  C   UNL A   1      40.950  26.612  28.724  1.00  0.00    -0.014 A 
BRANCH  41  42
ATOM     42  C   UNL A   1      40.991  27.854  29.545  1.00  0.00     0.031 A 
ATOM     43  C   UNL A   1      42.039  28.042  30.610  1.00  0.00     0.074 A 
ATOM     44  C   UNL A   1      40.068  28.818  29.348  1.00  0.00     0.049 A 
ATOM     45  N   UNL A   1      42.081  28.922  31.579  1.00  0.00    -0.248 NA
ATOM     46  C   UNL A   1      43.177  27.111  30.594  1.00  0.00     0.031 C 
ATOM     47  C   UNL A   1      39.026  28.807  28.317  1.00  0.00     0.029 A 
ATOM     48  N   UNL A   1      39.851  29.999  30.016  1.00  0.00    -0.354 N 
ATOM     49  C   UNL A   1      43.212  28.611  32.326  1.00  0.00     0.074 A 
ATOM     50  C   UNL A   1      43.826  27.461  31.698  1.00  0.00     0.031 C 
ATOM     51  C   UNL A   1      38.312  29.934  28.394  1.00  0.00     0.029 A 
ATOM     52  C   UNL A   1      38.750  30.684  29.561  1.00  0.00     0.049 A 
ATOM     53  H   UNL A   1      40.427  30.322  30.747  1.00  0.00     0.167 HD
ATOM     54  C   UNL A   1      43.681  29.223  33.441  1.00  0.00     0.031 A 
ATOM     55  C   UNL A   1      38.099  31.747  30.064  1.00  0.00     0.031 A 
ATOM     56  C   UNL A   1      43.071  30.382  34.044  1.00  0.00     0.049 A 
ATOM     57  C   UNL A   1      38.586  32.361  31.339  1.00  0.00     0.074 A 
ATOM     58  C   UNL A   1      43.476  31.085  35.166  1.00  0.00     0.029 A 
ATOM     59  N   UNL A   1      41.928  31.009  33.573  1.00  0.00    -0.354 N 
ATOM     60  N   UNL A   1      39.618  32.022  32.073  1.00  0.00    -0.248 NA
ATOM     61  C   UNL A   1      37.808  33.488  31.866  1.00  0.00     0.031 C 
ATOM     62  C   UNL A   1      42.544  32.100  35.408  1.00  0.00     0.029 A 
ATOM     63  C   UNL A   1      41.595  32.073  34.398  1.00  0.00     0.049 A 
ATOM     64  H   UNL A   1      41.426  30.740  32.770  1.00  0.00     0.167 HD
ATOM     65  C   UNL A   1      39.618  32.897  33.148  1.00  0.00     0.074 A 
ATOM     66  C   UNL A   1      38.498  33.799  32.954  1.00  0.00     0.031 C 
ATOM     67  C   UNL A   1      40.466  32.946  34.205  1.00  0.00     0.031 A 
BRANCH  54  68
ATOM     68  C   UNL A   1      44.882  28.614  34.117  1.00  0.00    -0.014 A 
ATOM     69  C   UNL A   1      44.759  27.612  35.093  1.00  0.00     0.009 A 
ATOM     70  C   UNL A   1      46.171  29.038  33.745  1.00  0.00     0.009 A 
ATOM     71  C   UNL A   1      45.895  27.083  35.713  1.00  0.00     0.001 A 
ATOM     72  C   UNL A   1      47.305  28.483  34.341  1.00  0.00     0.001 A 
ATOM     73  C   UNL A   1      47.166  27.515  35.333  1.00  0.00     0.000 A 
ENDBRANCH  54  68
BRANCH  55  74
ATOM     74  C   UNL A   1      36.859  32.222  29.394  1.00  0.00    -0.014 A 
ATOM     75  C   UNL A   1      35.616  31.651  29.693  1.00  0.00     0.009 A 
ATOM     76  C   UNL A   1      36.912  33.303  28.495  1.00  0.00     0.009 A 
ATOM     77  C   UNL A   1      34.452  32.151  29.106  1.00  0.00     0.001 A 
ATOM     78  C   UNL A   1      35.743  33.823  27.939  1.00  0.00     0.001 A 
ATOM     79  C   UNL A   1      34.514  33.243  28.241  1.00  0.00     0.000 A 
ENDBRANCH  55  74
BRANCH  67  80
ATOM     80  C   UNL A   1      40.221  34.026  35.220  1.00  0.00    -0.014 A 
ATOM     81  C   UNL A   1      39.461  33.780  36.374  1.00  0.00     0.009 A 
ATOM     82  C   UNL A   1      40.775  35.301  35.027  1.00  0.00     0.009 A 
ATOM     83  C   UNL A   1      39.232  34.802  37.298  1.00  0.00     0.001 A 
ATOM     84  C   UNL A   1      40.569  36.311  35.967  1.00  0.00     0.001 A 
ATOM     85  C   UNL A   1      39.790  36.064  37.096  1.00  0.00     0.000 A 
ENDBRANCH  67  80
ENDBRANCH  41  42
ENDBRANCH  34  36
ENDBRANCH  33  34
ENDBRANCH  32  33
ENDBRANCH   1  32
TORSDOF 15
ENDMDL
