MODEL 1
REMARK VINA RESULT:     -11.6      0.000      0.000
REMARK SMILES Cc1ccc2oc(C(=O)N[C@@H]3C=C[C@H](C(=O)OCCOC(=O)c4ccc(-c5c6nc(c(-c7ccccc7)c7ccc([nH]7)c(-c7ccccc7)c7nc(c(-c8ccccc8)c8ccc5[nH]8)C=C7)C=C6)cc4)C3)cc2c1
REMARK SMILES IDX 18 1 17 2 15 3 16 4 14 5 11 6 12 7 71 8 13 9 10 10 8 11 9 12
REMARK SMILES IDX 7 14 1 15 2 16 3 17 74 18 4 19 73 20 5 21 72 22 6 23 19 24
REMARK SMILES IDX 20 25 21 26 22 27 23 28 24 29 70 30 25 31 69 32 26 33 27 34
REMARK SMILES IDX 28 35 63 36 29 37 68 38 62 39 64 40 30 41 67 42 61 43 60 44
REMARK SMILES IDX 31 46 53 47 38 48 52 49 39 50 42 51 51 52 65 53 40 54 41 55
REMARK SMILES IDX 50 57 66 58 43 59 32 60 33 61 37 62 34 63 36 64 35 65 54 66
REMARK SMILES IDX 55 67 59 68 56 69 58 70 57 71 44 72 45 73 49 74 46 75 48 76
REMARK SMILES IDX 47 77
REMARK H PARENT 10 13 64 45 42 56
REMARK Flexibility Score: inf
ROOT
ATOM      1  C   UNL A   1      32.666  29.262  24.431  1.00  0.00     0.274 C 
ENDROOT
BRANCH   1   2
ATOM      2  O   UNL A   1      32.989  27.895  24.794  1.00  0.00    -0.462 OA
BRANCH   2   3
ATOM      3  C   UNL A   1      31.951  27.028  24.644  1.00  0.00     0.312 C 
ATOM      4  O   UNL A   1      31.292  26.952  23.613  1.00  0.00    -0.252 OA
BRANCH   3   5
ATOM      5  C   UNL A   1      31.644  26.189  25.896  1.00  0.00     0.124 C 
ATOM      6  C   UNL A   1      32.431  23.906  25.379  1.00  0.00     0.106 C 
ATOM      7  C   UNL A   1      30.950  23.970  25.412  1.00  0.00    -0.006 C 
ATOM      8  C   UNL A   1      32.799  25.198  26.130  1.00  0.00     0.048 C 
ATOM      9  C   UNL A   1      30.514  25.198  25.759  1.00  0.00    -0.014 C 
BRANCH   6  10
ATOM     10  N   UNL A   1      33.090  23.695  24.082  1.00  0.00    -0.343 N 
ATOM     11  C   UNL A   1      34.301  23.355  23.498  1.00  0.00     0.287 C 
ATOM     12  O   UNL A   1      34.267  23.331  22.262  1.00  0.00    -0.266 OA
ATOM     13  H   UNL A   1      32.432  23.853  23.367  1.00  0.00     0.164 HD
BRANCH  11  14
ATOM     14  C   UNL A   1      35.520  23.079  24.238  1.00  0.00     0.192 A 
ATOM     15  C   UNL A   1      40.576  21.085  26.771  1.00  0.00     0.044 C 
ATOM     16  C   UNL A   1      39.442  21.978  26.368  1.00  0.00    -0.050 A 
ATOM     17  C   UNL A   1      39.247  23.275  26.874  1.00  0.00     0.007 A 
ATOM     18  C   UNL A   1      38.528  21.457  25.459  1.00  0.00     0.015 A 
ATOM     19  C   UNL A   1      38.140  24.076  26.498  1.00  0.00     0.048 A 
ATOM     20  C   UNL A   1      37.430  22.235  25.104  1.00  0.00     0.021 A 
ATOM     21  C   UNL A   1      37.237  23.504  25.606  1.00  0.00     0.135 A 
ATOM     22  C   UNL A   1      36.365  22.007  24.250  1.00  0.00     0.065 A 
ATOM     23  O   UNL A   1      36.077  24.037  25.085  1.00  0.00    -0.451 OA
ENDBRANCH  11  14
ENDBRANCH   6  10
ENDBRANCH   3   5
ENDBRANCH   2   3
ENDBRANCH   1   2
BRANCH   1  24
ATOM     24  C   UNL A   1      31.642  29.902  25.378  1.00  0.00     0.275 C 
BRANCH  24  25
ATOM     25  O   UNL A   1      32.142  29.969  26.727  1.00  0.00    -0.458 OA
BRANCH  25  26
ATOM     26  C   UNL A   1      32.785  31.114  27.054  1.00  0.00     0.338 C 
ATOM     27  O   UNL A   1      32.293  32.225  27.154  1.00  0.00    -0.246 OA
BRANCH  26  28
ATOM     28  C   UNL A   1      34.203  30.864  27.392  1.00  0.00     0.060 A 
ATOM     29  C   UNL A   1      34.648  29.566  27.598  1.00  0.00     0.016 A 
ATOM     30  C   UNL A   1      35.032  31.928  27.740  1.00  0.00     0.016 A 
ATOM     31  C   UNL A   1      35.804  29.331  28.338  1.00  0.00     0.010 A 
ATOM     32  C   UNL A   1      36.280  31.680  28.330  1.00  0.00     0.010 A 
ATOM     33  C   UNL A   1      36.654  30.379  28.709  1.00  0.00    -0.014 A 
BRANCH  33  34
ATOM     34  C   UNL A   1      37.880  30.116  29.525  1.00  0.00     0.031 A 
ATOM     35  C   UNL A   1      39.050  29.369  28.924  1.00  0.00     0.074 A 
ATOM     36  C   UNL A   1      37.987  30.564  30.795  1.00  0.00     0.049 A 
ATOM     37  N   UNL A   1      40.076  28.816  29.523  1.00  0.00    -0.248 NA
ATOM     38  C   UNL A   1      39.058  29.206  27.460  1.00  0.00     0.031 C 
ATOM     39  C   UNL A   1      36.994  31.370  31.510  1.00  0.00     0.029 A 
ATOM     40  N   UNL A   1      39.001  30.417  31.713  1.00  0.00    -0.354 N 
ATOM     41  C   UNL A   1      40.792  28.161  28.526  1.00  0.00     0.074 A 
ATOM     42  C   UNL A   1      40.096  28.400  27.281  1.00  0.00     0.031 C 
ATOM     43  C   UNL A   1      37.475  31.706  32.714  1.00  0.00     0.029 A 
ATOM     44  C   UNL A   1      38.742  31.021  32.921  1.00  0.00     0.049 A 
ATOM     45  H   UNL A   1      39.833  29.926  31.523  1.00  0.00     0.167 HD
ATOM     46  C   UNL A   1      41.918  27.415  28.642  1.00  0.00     0.031 A 
ATOM     47  C   UNL A   1      39.399  30.975  34.094  1.00  0.00     0.031 A 
ATOM     48  C   UNL A   1      42.649  27.239  29.870  1.00  0.00     0.049 A 
ATOM     49  C   UNL A   1      40.617  30.110  34.215  1.00  0.00     0.074 A 
ATOM     50  C   UNL A   1      43.802  26.505  30.093  1.00  0.00     0.029 A 
ATOM     51  N   UNL A   1      42.310  27.828  31.079  1.00  0.00    -0.354 N 
ATOM     52  N   UNL A   1      41.217  29.400  33.292  1.00  0.00    -0.248 NA
ATOM     53  C   UNL A   1      41.226  30.015  35.548  1.00  0.00     0.031 C 
ATOM     54  C   UNL A   1      44.140  26.621  31.446  1.00  0.00     0.029 A 
ATOM     55  C   UNL A   1      43.225  27.466  32.053  1.00  0.00     0.049 A 
ATOM     56  H   UNL A   1      41.533  28.416  31.223  1.00  0.00     0.167 HD
ATOM     57  C   UNL A   1      42.278  28.775  33.931  1.00  0.00     0.074 A 
ATOM     58  C   UNL A   1      42.254  29.211  35.313  1.00  0.00     0.031 C 
ATOM     59  C   UNL A   1      43.186  27.909  33.421  1.00  0.00     0.031 A 
BRANCH  46  60
ATOM     60  C   UNL A   1      42.401  26.683  27.420  1.00  0.00    -0.014 A 
ATOM     61  C   UNL A   1      43.271  27.273  26.492  1.00  0.00     0.009 A 
ATOM     62  C   UNL A   1      41.997  25.352  27.217  1.00  0.00     0.009 A 
ATOM     63  C   UNL A   1      43.700  26.557  25.371  1.00  0.00     0.001 A 
ATOM     64  C   UNL A   1      42.449  24.629  26.112  1.00  0.00     0.001 A 
ATOM     65  C   UNL A   1      43.293  25.235  25.184  1.00  0.00     0.000 A 
ENDBRANCH  46  60
BRANCH  47  66
ATOM     66  C   UNL A   1      38.858  31.703  35.274  1.00  0.00    -0.014 A 
ATOM     67  C   UNL A   1      38.148  31.020  36.271  1.00  0.00     0.009 A 
ATOM     68  C   UNL A   1      39.066  33.085  35.416  1.00  0.00     0.009 A 
ATOM     69  C   UNL A   1      37.653  31.707  37.383  1.00  0.00     0.001 A 
ATOM     70  C   UNL A   1      38.602  33.762  36.544  1.00  0.00     0.001 A 
ATOM     71  C   UNL A   1      37.890  33.074  37.523  1.00  0.00     0.000 A 
ENDBRANCH  47  66
BRANCH  59  72
ATOM     72  C   UNL A   1      44.247  27.411  34.358  1.00  0.00    -0.014 A 
ATOM     73  C   UNL A   1      44.091  26.202  35.055  1.00  0.00     0.009 A 
ATOM     74  C   UNL A   1      45.425  28.154  34.529  1.00  0.00     0.009 A 
ATOM     75  C   UNL A   1      45.083  25.766  35.934  1.00  0.00     0.001 A 
ATOM     76  C   UNL A   1      46.425  27.700  35.390  1.00  0.00     0.001 A 
ATOM     77  C   UNL A   1      46.249  26.512  36.098  1.00  0.00     0.000 A 
ENDBRANCH  59  72
ENDBRANCH  33  34
ENDBRANCH  26  28
ENDBRANCH  25  26
ENDBRANCH  24  25
ENDBRANCH   1  24
TORSDOF 13
ENDMDL
MODEL 2
REMARK VINA RESULT:     -11.6      3.734      6.915
REMARK SMILES Cc1ccc2oc(C(=O)N[C@@H]3C=C[C@H](C(=O)OCCOC(=O)c4ccc(-c5c6nc(c(-c7ccccc7)c7ccc([nH]7)c(-c7ccccc7)c7nc(c(-c8ccccc8)c8ccc5[nH]8)C=C7)C=C6)cc4)C3)cc2c1
REMARK SMILES IDX 18 1 17 2 15 3 16 4 14 5 11 6 12 7 71 8 13 9 10 10 8 11 9 12
REMARK SMILES IDX 7 14 1 15 2 16 3 17 74 18 4 19 73 20 5 21 72 22 6 23 19 24
REMARK SMILES IDX 20 25 21 26 22 27 23 28 24 29 70 30 25 31 69 32 26 33 27 34
REMARK SMILES IDX 28 35 63 36 29 37 68 38 62 39 64 40 30 41 67 42 61 43 60 44
REMARK SMILES IDX 31 46 53 47 38 48 52 49 39 50 42 51 51 52 65 53 40 54 41 55
REMARK SMILES IDX 50 57 66 58 43 59 32 60 33 61 37 62 34 63 36 64 35 65 54 66
REMARK SMILES IDX 55 67 59 68 56 69 58 70 57 71 44 72 45 73 49 74 46 75 48 76
REMARK SMILES IDX 47 77
REMARK H PARENT 10 13 64 45 42 56
REMARK Flexibility Score: inf
ROOT
ATOM      1  C   UNL A   1      32.656  29.979  25.920  1.00  0.00     0.274 C 
ENDROOT
BRANCH   1   2
ATOM      2  O   UNL A   1      32.906  28.622  25.468  1.00  0.00    -0.462 OA
BRANCH   2   3
ATOM      3  C   UNL A   1      31.782  27.860  25.376  1.00  0.00     0.312 C 
ATOM      4  O   UNL A   1      31.200  27.411  26.358  1.00  0.00    -0.252 OA
BRANCH   3   5
ATOM      5  C   UNL A   1      31.335  27.567  23.933  1.00  0.00     0.124 C 
ATOM      6  C   UNL A   1      30.266  25.342  24.005  1.00  0.00     0.106 C 
ATOM      7  C   UNL A   1      31.572  25.289  23.305  1.00  0.00    -0.006 C 
ATOM      8  C   UNL A   1      29.972  26.853  23.966  1.00  0.00     0.048 C 
ATOM      9  C   UNL A   1      32.131  26.512  23.204  1.00  0.00    -0.014 C 
BRANCH   6  10
ATOM     10  N   UNL A   1      30.151  24.689  25.317  1.00  0.00    -0.343 N 
ATOM     11  C   UNL A   1      30.855  23.935  26.242  1.00  0.00     0.287 C 
ATOM     12  O   UNL A   1      30.199  23.646  27.250  1.00  0.00    -0.266 OA
ATOM     13  H   UNL A   1      29.243  24.842  25.665  1.00  0.00     0.164 HD
BRANCH  11  14
ATOM     14  C   UNL A   1      32.224  23.484  26.063  1.00  0.00     0.192 A 
ATOM     15  C   UNL A   1      38.129  22.485  25.759  1.00  0.00     0.044 C 
ATOM     16  C   UNL A   1      36.646  22.279  25.700  1.00  0.00    -0.050 A 
ATOM     17  C   UNL A   1      36.035  21.104  25.230  1.00  0.00     0.007 A 
ATOM     18  C   UNL A   1      35.851  23.340  26.118  1.00  0.00     0.015 A 
ATOM     19  C   UNL A   1      34.627  20.961  25.154  1.00  0.00     0.048 A 
ATOM     20  C   UNL A   1      34.468  23.209  26.026  1.00  0.00     0.021 A 
ATOM     21  C   UNL A   1      33.871  22.057  25.558  1.00  0.00     0.135 A 
ATOM     22  C   UNL A   1      33.428  24.064  26.346  1.00  0.00     0.065 A 
ATOM     23  O   UNL A   1      32.500  22.206  25.577  1.00  0.00    -0.451 OA
ENDBRANCH  11  14
ENDBRANCH   6  10
ENDBRANCH   3   5
ENDBRANCH   2   3
ENDBRANCH   1   2
BRANCH   1  24
ATOM     24  C   UNL A   1      33.159  30.231  27.347  1.00  0.00     0.275 C 
BRANCH  24  25
ATOM     25  O   UNL A   1      34.198  31.228  27.371  1.00  0.00    -0.458 OA
BRANCH  25  26
ATOM     26  C   UNL A   1      34.936  31.272  28.505  1.00  0.00     0.338 C 
ATOM     27  O   UNL A   1      34.700  31.927  29.506  1.00  0.00    -0.246 OA
BRANCH  26  28
ATOM     28  C   UNL A   1      36.071  30.325  28.452  1.00  0.00     0.060 A 
ATOM     29  C   UNL A   1      36.492  29.682  29.607  1.00  0.00     0.016 A 
ATOM     30  C   UNL A   1      36.865  30.256  27.309  1.00  0.00     0.016 A 
ATOM     31  C   UNL A   1      37.784  29.167  29.690  1.00  0.00     0.010 A 
ATOM     32  C   UNL A   1      38.094  29.581  27.350  1.00  0.00     0.010 A 
ATOM     33  C   UNL A   1      38.609  29.091  28.563  1.00  0.00    -0.014 A 
BRANCH  33  34
ATOM     34  C   UNL A   1      40.003  28.559  28.670  1.00  0.00     0.031 A 
ATOM     35  C   UNL A   1      41.128  29.461  29.128  1.00  0.00     0.074 A 
ATOM     36  C   UNL A   1      40.286  27.267  28.397  1.00  0.00     0.049 A 
ATOM     37  N   UNL A   1      42.424  29.281  29.039  1.00  0.00    -0.248 NA
ATOM     38  C   UNL A   1      40.749  30.740  29.751  1.00  0.00     0.031 C 
ATOM     39  C   UNL A   1      39.315  26.236  28.020  1.00  0.00     0.029 A 
ATOM     40  N   UNL A   1      41.483  26.591  28.412  1.00  0.00    -0.354 N 
ATOM     41  C   UNL A   1      43.006  30.457  29.500  1.00  0.00     0.074 A 
ATOM     42  C   UNL A   1      41.925  31.338  29.887  1.00  0.00     0.031 C 
ATOM     43  C   UNL A   1      39.938  25.054  27.914  1.00  0.00     0.029 A 
ATOM     44  C   UNL A   1      41.370  25.264  28.067  1.00  0.00     0.049 A 
ATOM     45  H   UNL A   1      42.340  27.016  28.647  1.00  0.00     0.167 HD
ATOM     46  C   UNL A   1      44.319  30.779  29.579  1.00  0.00     0.031 A 
ATOM     47  C   UNL A   1      42.306  24.328  27.823  1.00  0.00     0.031 A 
ATOM     48  C   UNL A   1      45.394  29.874  29.261  1.00  0.00     0.049 A 
ATOM     49  C   UNL A   1      43.753  24.714  27.872  1.00  0.00     0.074 A 
ATOM     50  C   UNL A   1      46.759  30.102  29.311  1.00  0.00     0.029 A 
ATOM     51  N   UNL A   1      45.223  28.557  28.863  1.00  0.00    -0.354 N 
ATOM     52  N   UNL A   1      44.288  25.866  28.195  1.00  0.00    -0.248 NA
ATOM     53  C   UNL A   1      44.723  23.680  27.488  1.00  0.00     0.031 C 
ATOM     54  C   UNL A   1      47.413  28.932  28.906  1.00  0.00     0.029 A 
ATOM     55  C   UNL A   1      46.456  27.964  28.652  1.00  0.00     0.049 A 
ATOM     56  H   UNL A   1      44.353  28.111  28.746  1.00  0.00     0.167 HD
ATOM     57  C   UNL A   1      45.658  25.694  28.058  1.00  0.00     0.074 A 
ATOM     58  C   UNL A   1      45.872  24.321  27.648  1.00  0.00     0.031 C 
ATOM     59  C   UNL A   1      46.650  26.598  28.245  1.00  0.00     0.031 A 
BRANCH  46  60
ATOM     60  C   UNL A   1      44.673  32.188  29.970  1.00  0.00    -0.014 A 
ATOM     61  C   UNL A   1      44.764  33.223  29.029  1.00  0.00     0.009 A 
ATOM     62  C   UNL A   1      44.883  32.487  31.328  1.00  0.00     0.009 A 
ATOM     63  C   UNL A   1      45.091  34.520  29.435  1.00  0.00     0.001 A 
ATOM     64  C   UNL A   1      45.182  33.788  31.734  1.00  0.00     0.001 A 
ATOM     65  C   UNL A   1      45.296  34.802  30.786  1.00  0.00     0.000 A 
ENDBRANCH  46  60
BRANCH  47  66
ATOM     66  C   UNL A   1      41.893  22.957  27.417  1.00  0.00    -0.014 A 
ATOM     67  C   UNL A   1      41.911  22.576  26.068  1.00  0.00     0.009 A 
ATOM     68  C   UNL A   1      41.496  22.017  28.383  1.00  0.00     0.009 A 
ATOM     69  C   UNL A   1      41.535  21.283  25.695  1.00  0.00     0.001 A 
ATOM     70  C   UNL A   1      41.155  20.717  28.011  1.00  0.00     0.001 A 
ATOM     71  C   UNL A   1      41.167  20.352  26.667  1.00  0.00     0.000 A 
ENDBRANCH  47  66
BRANCH  59  72
ATOM     72  C   UNL A   1      48.055  26.111  28.044  1.00  0.00    -0.014 A 
ATOM     73  C   UNL A   1      48.810  25.611  29.116  1.00  0.00     0.009 A 
ATOM     74  C   UNL A   1      48.622  26.139  26.761  1.00  0.00     0.009 A 
ATOM     75  C   UNL A   1      50.121  25.179  28.910  1.00  0.00     0.001 A 
ATOM     76  C   UNL A   1      49.923  25.683  26.555  1.00  0.00     0.001 A 
ATOM     77  C   UNL A   1      50.675  25.212  27.631  1.00  0.00     0.000 A 
ENDBRANCH  59  72
ENDBRANCH  33  34
ENDBRANCH  26  28
ENDBRANCH  25  26
ENDBRANCH  24  25
ENDBRANCH   1  24
TORSDOF 13
ENDMDL
MODEL 3
REMARK VINA RESULT:     -11.4      3.282      6.883
REMARK SMILES Cc1ccc2oc(C(=O)N[C@@H]3C=C[C@H](C(=O)OCCOC(=O)c4ccc(-c5c6nc(c(-c7ccccc7)c7ccc([nH]7)c(-c7ccccc7)c7nc(c(-c8ccccc8)c8ccc5[nH]8)C=C7)C=C6)cc4)C3)cc2c1
REMARK SMILES IDX 18 1 17 2 15 3 16 4 14 5 11 6 12 7 71 8 13 9 10 10 8 11 9 12
REMARK SMILES IDX 7 14 1 15 2 16 3 17 74 18 4 19 73 20 5 21 72 22 6 23 19 24
REMARK SMILES IDX 20 25 21 26 22 27 23 28 24 29 70 30 25 31 69 32 26 33 27 34
REMARK SMILES IDX 28 35 63 36 29 37 68 38 62 39 64 40 30 41 67 42 61 43 60 44
REMARK SMILES IDX 31 46 53 47 38 48 52 49 39 50 42 51 51 52 65 53 40 54 41 55
REMARK SMILES IDX 50 57 66 58 43 59 32 60 33 61 37 62 34 63 36 64 35 65 54 66
REMARK SMILES IDX 55 67 59 68 56 69 58 70 57 71 44 72 45 73 49 74 46 75 48 76
REMARK SMILES IDX 47 77
REMARK H PARENT 10 13 64 45 42 56
REMARK Flexibility Score: inf
ROOT
ATOM      1  C   UNL A   1      35.483  20.330  25.008  1.00  0.00     0.274 C 
ENDROOT
BRANCH   1   2
ATOM      2  O   UNL A   1      35.161  21.465  25.853  1.00  0.00    -0.462 OA
BRANCH   2   3
ATOM      3  C   UNL A   1      34.289  22.342  25.284  1.00  0.00     0.312 C 
ATOM      4  O   UNL A   1      33.115  22.429  25.627  1.00  0.00    -0.252 OA
BRANCH   3   5
ATOM      5  C   UNL A   1      34.891  23.176  24.141  1.00  0.00     0.124 C 
ATOM      6  C   UNL A   1      33.511  25.221  24.010  1.00  0.00     0.106 C 
ATOM      7  C   UNL A   1      33.268  24.332  22.848  1.00  0.00    -0.006 C 
ATOM      8  C   UNL A   1      34.848  24.665  24.531  1.00  0.00     0.048 C 
ATOM      9  C   UNL A   1      34.066  23.246  22.878  1.00  0.00    -0.014 C 
BRANCH   6  10
ATOM     10  N   UNL A   1      32.438  25.377  25.003  1.00  0.00    -0.343 N 
ATOM     11  C   UNL A   1      31.965  26.219  25.996  1.00  0.00     0.287 C 
ATOM     12  O   UNL A   1      30.935  25.810  26.546  1.00  0.00    -0.266 OA
ATOM     13  H   UNL A   1      31.836  24.600  24.939  1.00  0.00     0.164 HD
BRANCH  11  14
ATOM     14  C   UNL A   1      32.610  27.456  26.401  1.00  0.00     0.192 A 
ATOM     15  C   UNL A   1      34.346  32.933  28.120  1.00  0.00     0.044 C 
ATOM     16  C   UNL A   1      34.370  31.474  27.778  1.00  0.00    -0.050 A 
ATOM     17  C   UNL A   1      35.539  30.695  27.745  1.00  0.00     0.007 A 
ATOM     18  C   UNL A   1      33.152  30.888  27.452  1.00  0.00     0.015 A 
ATOM     19  C   UNL A   1      35.528  29.326  27.380  1.00  0.00     0.048 A 
ATOM     20  C   UNL A   1      33.141  29.548  27.074  1.00  0.00     0.021 A 
ATOM     21  C   UNL A   1      34.291  28.788  27.036  1.00  0.00     0.135 A 
ATOM     22  C   UNL A   1      32.119  28.696  26.695  1.00  0.00     0.065 A 
ATOM     23  O   UNL A   1      33.985  27.506  26.631  1.00  0.00    -0.451 OA
ENDBRANCH  11  14
ENDBRANCH   6  10
ENDBRANCH   3   5
ENDBRANCH   2   3
ENDBRANCH   1   2
BRANCH   1  24
ATOM     24  C   UNL A   1      36.979  19.993  25.009  1.00  0.00     0.275 C 
BRANCH  24  25
ATOM     25  O   UNL A   1      37.787  21.183  25.098  1.00  0.00    -0.458 OA
BRANCH  25  26
ATOM     26  C   UNL A   1      38.923  21.063  25.825  1.00  0.00     0.338 C 
ATOM     27  O   UNL A   1      39.652  20.088  25.885  1.00  0.00    -0.246 OA
BRANCH  26  28
ATOM     28  C   UNL A   1      39.269  22.330  26.505  1.00  0.00     0.060 A 
ATOM     29  C   UNL A   1      38.574  23.492  26.201  1.00  0.00     0.016 A 
ATOM     30  C   UNL A   1      40.434  22.415  27.263  1.00  0.00     0.016 A 
ATOM     31  C   UNL A   1      39.145  24.736  26.457  1.00  0.00     0.010 A 
ATOM     32  C   UNL A   1      40.915  23.668  27.671  1.00  0.00     0.010 A 
ATOM     33  C   UNL A   1      40.319  24.856  27.210  1.00  0.00    -0.014 A 
BRANCH  33  34
ATOM     34  C   UNL A   1      40.937  26.196  27.457  1.00  0.00     0.031 A 
ATOM     35  C   UNL A   1      42.260  26.553  26.818  1.00  0.00     0.074 A 
ATOM     36  C   UNL A   1      40.320  27.124  28.220  1.00  0.00     0.049 A 
ATOM     37  N   UNL A   1      43.081  27.534  27.105  1.00  0.00    -0.248 NA
ATOM     38  C   UNL A   1      42.732  25.684  25.726  1.00  0.00     0.031 C 
ATOM     39  C   UNL A   1      39.004  26.983  28.849  1.00  0.00     0.029 A 
ATOM     40  N   UNL A   1      40.717  28.389  28.586  1.00  0.00    -0.354 N 
ATOM     41  C   UNL A   1      44.201  27.341  26.302  1.00  0.00     0.074 A 
ATOM     42  C   UNL A   1      43.949  26.162  25.503  1.00  0.00     0.031 C 
ATOM     43  C   UNL A   1      38.673  28.133  29.453  1.00  0.00     0.029 A 
ATOM     44  C   UNL A   1      39.808  29.041  29.386  1.00  0.00     0.049 A 
ATOM     45  H   UNL A   1      41.571  28.789  28.301  1.00  0.00     0.167 HD
ATOM     46  C   UNL A   1      45.342  28.071  26.249  1.00  0.00     0.031 A 
ATOM     47  C   UNL A   1      39.893  30.203  30.059  1.00  0.00     0.031 A 
ATOM     48  C   UNL A   1      45.561  29.285  26.993  1.00  0.00     0.049 A 
ATOM     49  C   UNL A   1      41.178  30.974  30.023  1.00  0.00     0.074 A 
ATOM     50  C   UNL A   1      46.679  30.100  27.007  1.00  0.00     0.029 A 
ATOM     51  N   UNL A   1      44.627  29.872  27.833  1.00  0.00    -0.354 N 
ATOM     52  N   UNL A   1      42.273  30.718  29.353  1.00  0.00    -0.248 NA
ATOM     53  C   UNL A   1      41.247  32.176  30.866  1.00  0.00     0.031 C 
ATOM     54  C   UNL A   1      46.436  31.162  27.886  1.00  0.00     0.029 A 
ATOM     55  C   UNL A   1      45.148  31.033  28.379  1.00  0.00     0.049 A 
ATOM     56  H   UNL A   1      43.727  29.516  28.015  1.00  0.00     0.167 HD
ATOM     57  C   UNL A   1      43.163  31.729  29.689  1.00  0.00     0.074 A 
ATOM     58  C   UNL A   1      42.469  32.616  30.601  1.00  0.00     0.031 C 
ATOM     59  C   UNL A   1      44.444  31.902  29.285  1.00  0.00     0.031 A 
BRANCH  46  60
ATOM     60  C   UNL A   1      46.468  27.548  25.400  1.00  0.00    -0.014 A 
ATOM     61  C   UNL A   1      46.692  28.005  24.094  1.00  0.00     0.009 A 
ATOM     62  C   UNL A   1      47.349  26.597  25.945  1.00  0.00     0.009 A 
ATOM     63  C   UNL A   1      47.754  27.497  23.339  1.00  0.00     0.001 A 
ATOM     64  C   UNL A   1      48.425  26.112  25.200  1.00  0.00     0.001 A 
ATOM     65  C   UNL A   1      48.621  26.554  23.894  1.00  0.00     0.000 A 
ENDBRANCH  46  60
BRANCH  47  66
ATOM     66  C   UNL A   1      38.752  30.656  30.901  1.00  0.00    -0.014 A 
ATOM     67  C   UNL A   1      37.789  31.534  30.385  1.00  0.00     0.009 A 
ATOM     68  C   UNL A   1      38.613  30.195  32.221  1.00  0.00     0.009 A 
ATOM     69  C   UNL A   1      36.713  31.946  31.177  1.00  0.00     0.001 A 
ATOM     70  C   UNL A   1      37.519  30.580  32.997  1.00  0.00     0.001 A 
ATOM     71  C   UNL A   1      36.574  31.461  32.477  1.00  0.00     0.000 A 
ENDBRANCH  47  66
BRANCH  59  72
ATOM     72  C   UNL A   1      45.159  33.116  29.800  1.00  0.00    -0.014 A 
ATOM     73  C   UNL A   1      45.877  33.079  31.005  1.00  0.00     0.009 A 
ATOM     74  C   UNL A   1      45.125  34.307  29.059  1.00  0.00     0.009 A 
ATOM     75  C   UNL A   1      46.521  34.225  31.475  1.00  0.00     0.001 A 
ATOM     76  C   UNL A   1      45.791  35.443  29.520  1.00  0.00     0.001 A 
ATOM     77  C   UNL A   1      46.480  35.404  30.731  1.00  0.00     0.000 A 
ENDBRANCH  59  72
ENDBRANCH  33  34
ENDBRANCH  26  28
ENDBRANCH  25  26
ENDBRANCH  24  25
ENDBRANCH   1  24
TORSDOF 13
ENDMDL
