MODEL 1
REMARK VINA RESULT:     -11.2      0.000      0.000
REMARK SMILES COc1cccc(C(=O)Nc2cccc(C(=O)OCCOC(=O)c3ccc(-c4c5nc(c(-c6ccccc6)c6ccc([nH]6)c(-c6ccccc6)c6nc(c(-c7ccccc7)c7ccc4[nH]7)C=C6)C=C5)cc3)c2C)c1
REMARK SMILES IDX 19 1 18 2 16 3 17 4 15 5 11 6 12 7 72 8 13 9 73 10 14 11
REMARK SMILES IDX 10 12 8 13 9 14 7 16 3 17 4 18 74 19 5 20 6 21 2 22 1 23
REMARK SMILES IDX 20 24 21 25 22 26 23 27 24 28 25 29 71 30 26 31 70 32 27 33
REMARK SMILES IDX 28 34 29 35 64 36 30 37 69 38 63 39 65 40 31 41 68 42 62 43
REMARK SMILES IDX 61 44 32 46 54 47 39 48 53 49 40 50 43 51 52 52 66 53 41 54
REMARK SMILES IDX 42 55 51 57 67 58 44 59 33 60 34 61 38 62 35 63 37 64 36 65
REMARK SMILES IDX 55 66 56 67 60 68 57 69 59 70 58 71 45 72 46 73 50 74 47 75
REMARK SMILES IDX 49 76 48 77
REMARK H PARENT 10 15 65 45 43 56
REMARK Flexibility Score: inf
ROOT
ATOM      1  C   UNL A   1      35.309  21.860  26.052  1.00  0.00     0.275 C 
ENDROOT
BRANCH   1   2
ATOM      2  O   UNL A   1      33.919  21.727  25.690  1.00  0.00    -0.458 OA
BRANCH   2   3
ATOM      3  C   UNL A   1      33.088  22.630  26.253  1.00  0.00     0.338 C 
ATOM      4  O   UNL A   1      32.883  22.757  27.451  1.00  0.00    -0.246 OA
BRANCH   3   5
ATOM      5  C   UNL A   1      32.419  23.512  25.262  1.00  0.00     0.065 A 
ATOM      6  C   UNL A   1      32.615  25.152  23.524  1.00  0.00     0.045 A 
ATOM      7  C   UNL A   1      31.422  24.711  22.938  1.00  0.00     0.026 A 
ATOM      8  C   UNL A   1      33.033  24.676  24.783  1.00  0.00    -0.013 A 
ATOM      9  C   UNL A   1      30.745  23.636  23.488  1.00  0.00     0.003 A 
ATOM     10  C   UNL A   1      34.077  25.396  25.591  1.00  0.00     0.047 C 
ATOM     11  C   UNL A   1      31.285  23.003  24.602  1.00  0.00     0.016 A 
BRANCH   6  12
ATOM     12  N   UNL A   1      33.431  25.934  22.696  1.00  0.00    -0.322 N 
ATOM     13  C   UNL A   1      33.400  27.304  22.501  1.00  0.00     0.255 C 
ATOM     14  O   UNL A   1      34.149  27.801  21.660  1.00  0.00    -0.269 OA
ATOM     15  H   UNL A   1      34.117  25.445  22.186  1.00  0.00     0.170 HD
BRANCH  13  16
ATOM     16  C   UNL A   1      32.526  28.211  23.307  1.00  0.00     0.043 A 
ATOM     17  C   UNL A   1      30.494  29.486  23.702  1.00  0.00     0.119 A 
ATOM     18  C   UNL A   1      31.090  30.046  24.836  1.00  0.00     0.046 A 
ATOM     19  C   UNL A   1      31.199  28.533  22.961  1.00  0.00     0.060 A 
ATOM     20  C   UNL A   1      32.371  29.668  25.234  1.00  0.00     0.005 A 
ATOM     21  C   UNL A   1      33.089  28.754  24.469  1.00  0.00     0.014 A 
BRANCH  17  22
ATOM     22  O   UNL A   1      29.247  29.980  23.446  1.00  0.00    -0.497 OA
ATOM     23  C   UNL A   1      28.356  29.242  22.623  1.00  0.00     0.278 C 
ENDBRANCH  17  22
ENDBRANCH  13  16
ENDBRANCH   6  12
ENDBRANCH   3   5
ENDBRANCH   2   3
ENDBRANCH   1   2
BRANCH   1  24
ATOM     24  C   UNL A   1      36.193  21.047  25.108  1.00  0.00     0.275 C 
BRANCH  24  25
ATOM     25  O   UNL A   1      37.443  21.721  24.861  1.00  0.00    -0.458 OA
BRANCH  25  26
ATOM     26  C   UNL A   1      38.474  21.303  25.628  1.00  0.00     0.338 C 
ATOM     27  O   UNL A   1      38.927  20.175  25.721  1.00  0.00    -0.246 OA
BRANCH  26  28
ATOM     28  C   UNL A   1      39.081  22.441  26.331  1.00  0.00     0.060 A 
ATOM     29  C   UNL A   1      38.614  23.719  26.053  1.00  0.00     0.016 A 
ATOM     30  C   UNL A   1      40.236  22.271  27.085  1.00  0.00     0.016 A 
ATOM     31  C   UNL A   1      39.373  24.832  26.381  1.00  0.00     0.010 A 
ATOM     32  C   UNL A   1      40.917  23.401  27.555  1.00  0.00     0.010 A 
ATOM     33  C   UNL A   1      40.517  24.695  27.170  1.00  0.00    -0.014 A 
BRANCH  33  34
ATOM     34  C   UNL A   1      41.288  25.900  27.584  1.00  0.00     0.031 A 
ATOM     35  C   UNL A   1      40.681  26.898  28.532  1.00  0.00     0.074 A 
ATOM     36  C   UNL A   1      42.534  26.102  27.107  1.00  0.00     0.049 A 
ATOM     37  N   UNL A   1      41.087  28.105  28.832  1.00  0.00    -0.248 NA
ATOM     38  C   UNL A   1      39.446  26.492  29.222  1.00  0.00     0.031 C 
ATOM     39  C   UNL A   1      43.278  25.185  26.238  1.00  0.00     0.029 A 
ATOM     40  N   UNL A   1      43.401  27.151  27.290  1.00  0.00    -0.354 N 
ATOM     41  C   UNL A   1      40.125  28.625  29.690  1.00  0.00     0.074 A 
ATOM     42  C   UNL A   1      39.114  27.604  29.862  1.00  0.00     0.031 C 
ATOM     43  C   UNL A   1      44.494  25.691  25.996  1.00  0.00     0.029 A 
ATOM     44  C   UNL A   1      44.575  27.018  26.587  1.00  0.00     0.049 A 
ATOM     45  H   UNL A   1      43.201  27.923  27.867  1.00  0.00     0.167 HD
ATOM     46  C   UNL A   1      40.087  29.849  30.271  1.00  0.00     0.031 A 
ATOM     47  C   UNL A   1      45.581  27.886  26.380  1.00  0.00     0.031 A 
ATOM     48  C   UNL A   1      41.114  30.846  30.115  1.00  0.00     0.049 A 
ATOM     49  C   UNL A   1      45.479  29.261  26.971  1.00  0.00     0.074 A 
ATOM     50  C   UNL A   1      41.178  32.114  30.666  1.00  0.00     0.029 A 
ATOM     51  N   UNL A   1      42.264  30.681  29.357  1.00  0.00    -0.354 N 
ATOM     52  N   UNL A   1      44.539  29.764  27.734  1.00  0.00    -0.248 NA
ATOM     53  C   UNL A   1      46.569  30.194  26.658  1.00  0.00     0.031 C 
ATOM     54  C   UNL A   1      42.339  32.737  30.196  1.00  0.00     0.029 A 
ATOM     55  C   UNL A   1      43.033  31.833  29.406  1.00  0.00     0.049 A 
ATOM     56  H   UNL A   1      42.500  29.865  28.858  1.00  0.00     0.167 HD
ATOM     57  C   UNL A   1      44.934  31.065  28.011  1.00  0.00     0.074 A 
ATOM     58  C   UNL A   1      46.209  31.264  27.351  1.00  0.00     0.031 C 
ATOM     59  C   UNL A   1      44.298  32.011  28.744  1.00  0.00     0.031 A 
BRANCH  46  60
ATOM     60  C   UNL A   1      38.869  30.199  31.082  1.00  0.00    -0.014 A 
ATOM     61  C   UNL A   1      38.788  29.927  32.457  1.00  0.00     0.009 A 
ATOM     62  C   UNL A   1      37.788  30.844  30.457  1.00  0.00     0.009 A 
ATOM     63  C   UNL A   1      37.637  30.260  33.178  1.00  0.00     0.001 A 
ATOM     64  C   UNL A   1      36.654  31.204  31.186  1.00  0.00     0.001 A 
ATOM     65  C   UNL A   1      36.574  30.901  32.544  1.00  0.00     0.000 A 
ENDBRANCH  46  60
BRANCH  47  66
ATOM     66  C   UNL A   1      46.730  27.505  25.518  1.00  0.00    -0.014 A 
ATOM     67  C   UNL A   1      46.769  27.884  24.168  1.00  0.00     0.009 A 
ATOM     68  C   UNL A   1      47.801  26.761  26.042  1.00  0.00     0.009 A 
ATOM     69  C   UNL A   1      47.844  27.509  23.358  1.00  0.00     0.001 A 
ATOM     70  C   UNL A   1      48.892  26.421  25.240  1.00  0.00     0.001 A 
ATOM     71  C   UNL A   1      48.907  26.787  23.896  1.00  0.00     0.000 A 
ENDBRANCH  47  66
BRANCH  59  72
ATOM     72  C   UNL A   1      45.000  33.328  28.908  1.00  0.00    -0.014 A 
ATOM     73  C   UNL A   1      45.917  33.545  29.948  1.00  0.00     0.009 A 
ATOM     74  C   UNL A   1      44.756  34.360  27.988  1.00  0.00     0.009 A 
ATOM     75  C   UNL A   1      46.547  34.785  30.084  1.00  0.00     0.001 A 
ATOM     76  C   UNL A   1      45.411  35.585  28.107  1.00  0.00     0.001 A 
ATOM     77  C   UNL A   1      46.298  35.800  29.161  1.00  0.00     0.000 A 
ENDBRANCH  59  72
ENDBRANCH  33  34
ENDBRANCH  26  28
ENDBRANCH  25  26
ENDBRANCH  24  25
ENDBRANCH   1  24
TORSDOF 14
ENDMDL
MODEL 2
REMARK VINA RESULT:     -11.1      1.794      3.558
REMARK SMILES COc1cccc(C(=O)Nc2cccc(C(=O)OCCOC(=O)c3ccc(-c4c5nc(c(-c6ccccc6)c6ccc([nH]6)c(-c6ccccc6)c6nc(c(-c7ccccc7)c7ccc4[nH]7)C=C6)C=C5)cc3)c2C)c1
REMARK SMILES IDX 19 1 18 2 16 3 17 4 15 5 11 6 12 7 72 8 13 9 73 10 14 11
REMARK SMILES IDX 10 12 8 13 9 14 7 16 3 17 4 18 74 19 5 20 6 21 2 22 1 23
REMARK SMILES IDX 20 24 21 25 22 26 23 27 24 28 25 29 71 30 26 31 70 32 27 33
REMARK SMILES IDX 28 34 29 35 64 36 30 37 69 38 63 39 65 40 31 41 68 42 62 43
REMARK SMILES IDX 61 44 32 46 54 47 39 48 53 49 40 50 43 51 52 52 66 53 41 54
REMARK SMILES IDX 42 55 51 57 67 58 44 59 33 60 34 61 38 62 35 63 37 64 36 65
REMARK SMILES IDX 55 66 56 67 60 68 57 69 59 70 58 71 45 72 46 73 50 74 47 75
REMARK SMILES IDX 49 76 48 77
REMARK H PARENT 10 15 65 45 43 56
REMARK Flexibility Score: inf
ROOT
ATOM      1  C   UNL A   1      35.824  23.359  23.574  1.00  0.00     0.275 C 
ENDROOT
BRANCH   1   2
ATOM      2  O   UNL A   1      34.386  23.465  23.512  1.00  0.00    -0.458 OA
BRANCH   2   3
ATOM      3  C   UNL A   1      33.915  24.649  23.067  1.00  0.00     0.338 C 
ATOM      4  O   UNL A   1      34.022  25.073  21.925  1.00  0.00    -0.246 OA
BRANCH   3   5
ATOM      5  C   UNL A   1      33.210  25.433  24.114  1.00  0.00     0.065 A 
ATOM      6  C   UNL A   1      31.512  25.522  25.803  1.00  0.00     0.045 A 
ATOM      7  C   UNL A   1      32.236  26.485  26.517  1.00  0.00     0.026 A 
ATOM      8  C   UNL A   1      31.905  25.116  24.513  1.00  0.00    -0.013 A 
ATOM      9  C   UNL A   1      33.476  26.892  26.053  1.00  0.00     0.003 A 
ATOM     10  C   UNL A   1      30.961  24.394  23.592  1.00  0.00     0.047 C 
ATOM     11  C   UNL A   1      33.981  26.313  24.895  1.00  0.00     0.016 A 
BRANCH   6  12
ATOM     12  N   UNL A   1      30.506  24.873  26.533  1.00  0.00    -0.322 N 
ATOM     13  C   UNL A   1      30.439  23.545  26.914  1.00  0.00     0.255 C 
ATOM     14  O   UNL A   1      29.424  23.141  27.482  1.00  0.00    -0.269 OA
ATOM     15  H   UNL A   1      29.749  25.438  26.812  1.00  0.00     0.170 HD
BRANCH  13  16
ATOM     16  C   UNL A   1      31.570  22.589  26.705  1.00  0.00     0.043 A 
ATOM     17  C   UNL A   1      32.619  20.655  25.672  1.00  0.00     0.119 A 
ATOM     18  C   UNL A   1      33.693  20.790  26.556  1.00  0.00     0.046 A 
ATOM     19  C   UNL A   1      31.575  21.583  25.718  1.00  0.00     0.060 A 
ATOM     20  C   UNL A   1      33.736  21.835  27.477  1.00  0.00     0.005 A 
ATOM     21  C   UNL A   1      32.675  22.731  27.554  1.00  0.00     0.014 A 
BRANCH  17  22
ATOM     22  O   UNL A   1      32.728  19.569  24.850  1.00  0.00    -0.497 OA
ATOM     23  C   UNL A   1      32.465  19.712  23.462  1.00  0.00     0.278 C 
ENDBRANCH  17  22
ENDBRANCH  13  16
ENDBRANCH   6  12
ENDBRANCH   3   5
ENDBRANCH   2   3
ENDBRANCH   1   2
BRANCH   1  24
ATOM     24  C   UNL A   1      36.243  21.994  24.116  1.00  0.00     0.275 C 
BRANCH  24  25
ATOM     25  O   UNL A   1      36.687  22.094  25.482  1.00  0.00    -0.458 OA
BRANCH  25  26
ATOM     26  C   UNL A   1      37.969  21.720  25.692  1.00  0.00     0.338 C 
ATOM     27  O   UNL A   1      38.522  20.702  25.313  1.00  0.00    -0.246 OA
BRANCH  26  28
ATOM     28  C   UNL A   1      38.696  22.774  26.412  1.00  0.00     0.060 A 
ATOM     29  C   UNL A   1      38.194  24.068  26.379  1.00  0.00     0.016 A 
ATOM     30  C   UNL A   1      39.965  22.532  26.925  1.00  0.00     0.016 A 
ATOM     31  C   UNL A   1      39.006  25.145  26.703  1.00  0.00     0.010 A 
ATOM     32  C   UNL A   1      40.724  23.607  27.403  1.00  0.00     0.010 A 
ATOM     33  C   UNL A   1      40.270  24.932  27.257  1.00  0.00    -0.014 A 
BRANCH  33  34
ATOM     34  C   UNL A   1      41.108  26.090  27.672  1.00  0.00     0.031 A 
ATOM     35  C   UNL A   1      40.570  27.101  28.649  1.00  0.00     0.074 A 
ATOM     36  C   UNL A   1      42.353  26.237  27.174  1.00  0.00     0.049 A 
ATOM     37  N   UNL A   1      41.042  28.281  28.959  1.00  0.00    -0.248 NA
ATOM     38  C   UNL A   1      39.330  26.746  29.358  1.00  0.00     0.031 C 
ATOM     39  C   UNL A   1      43.033  25.299  26.275  1.00  0.00     0.029 A 
ATOM     40  N   UNL A   1      43.275  27.238  27.356  1.00  0.00    -0.354 N 
ATOM     41  C   UNL A   1      40.125  28.835  29.844  1.00  0.00     0.074 A 
ATOM     42  C   UNL A   1      39.068  27.862  30.021  1.00  0.00     0.031 C 
ATOM     43  C   UNL A   1      44.268  25.748  26.017  1.00  0.00     0.029 A 
ATOM     44  C   UNL A   1      44.427  27.059  26.627  1.00  0.00     0.049 A 
ATOM     45  H   UNL A   1      43.125  28.010  27.948  1.00  0.00     0.167 HD
ATOM     46  C   UNL A   1      40.159  30.049  30.445  1.00  0.00     0.031 A 
ATOM     47  C   UNL A   1      45.471  27.880  26.413  1.00  0.00     0.031 A 
ATOM     48  C   UNL A   1      41.232  30.996  30.283  1.00  0.00     0.049 A 
ATOM     49  C   UNL A   1      45.449  29.248  27.027  1.00  0.00     0.074 A 
ATOM     50  C   UNL A   1      41.370  32.250  30.853  1.00  0.00     0.029 A 
ATOM     51  N   UNL A   1      42.357  30.787  29.500  1.00  0.00    -0.354 N 
ATOM     52  N   UNL A   1      44.551  29.785  27.816  1.00  0.00    -0.248 NA
ATOM     53  C   UNL A   1      46.579  30.130  26.707  1.00  0.00     0.031 C 
ATOM     54  C   UNL A   1      42.551  32.821  30.369  1.00  0.00     0.029 A 
ATOM     55  C   UNL A   1      43.183  31.897  29.551  1.00  0.00     0.049 A 
ATOM     56  H   UNL A   1      42.543  29.968  28.983  1.00  0.00     0.167 HD
ATOM     57  C   UNL A   1      45.016  31.059  28.106  1.00  0.00     0.074 A 
ATOM     58  C   UNL A   1      46.287  31.206  27.424  1.00  0.00     0.031 C 
ATOM     59  C   UNL A   1      44.443  32.023  28.866  1.00  0.00     0.031 A 
BRANCH  46  60
ATOM     60  C   UNL A   1      38.976  30.445  31.286  1.00  0.00    -0.014 A 
ATOM     61  C   UNL A   1      38.928  30.193  32.666  1.00  0.00     0.009 A 
ATOM     62  C   UNL A   1      37.898  31.116  30.683  1.00  0.00     0.009 A 
ATOM     63  C   UNL A   1      37.809  30.569  33.416  1.00  0.00     0.001 A 
ATOM     64  C   UNL A   1      36.796  31.518  31.441  1.00  0.00     0.001 A 
ATOM     65  C   UNL A   1      36.748  31.235  32.804  1.00  0.00     0.000 A 
ENDBRANCH  46  60
BRANCH  47  66
ATOM     66  C   UNL A   1      46.582  27.456  25.521  1.00  0.00    -0.014 A 
ATOM     67  C   UNL A   1      46.638  27.892  24.189  1.00  0.00     0.009 A 
ATOM     68  C   UNL A   1      47.601  26.614  26.000  1.00  0.00     0.009 A 
ATOM     69  C   UNL A   1      47.676  27.478  23.352  1.00  0.00     0.001 A 
ATOM     70  C   UNL A   1      48.658  26.233  25.172  1.00  0.00     0.001 A 
ATOM     71  C   UNL A   1      48.689  26.657  23.845  1.00  0.00     0.000 A 
ENDBRANCH  47  66
BRANCH  59  72
ATOM     72  C   UNL A   1      45.213  33.301  29.036  1.00  0.00    -0.014 A 
ATOM     73  C   UNL A   1      46.155  33.458  30.065  1.00  0.00     0.009 A 
ATOM     74  C   UNL A   1      45.009  34.357  28.133  1.00  0.00     0.009 A 
ATOM     75  C   UNL A   1      46.849  34.662  30.207  1.00  0.00     0.001 A 
ATOM     76  C   UNL A   1      45.727  35.545  28.258  1.00  0.00     0.001 A 
ATOM     77  C   UNL A   1      46.638  35.700  29.301  1.00  0.00     0.000 A 
ENDBRANCH  59  72
ENDBRANCH  33  34
ENDBRANCH  26  28
ENDBRANCH  25  26
ENDBRANCH  24  25
ENDBRANCH   1  24
TORSDOF 14
ENDMDL
MODEL 3
REMARK VINA RESULT:     -11.0      2.487      7.111
REMARK SMILES COc1cccc(C(=O)Nc2cccc(C(=O)OCCOC(=O)c3ccc(-c4c5nc(c(-c6ccccc6)c6ccc([nH]6)c(-c6ccccc6)c6nc(c(-c7ccccc7)c7ccc4[nH]7)C=C6)C=C5)cc3)c2C)c1
REMARK SMILES IDX 19 1 18 2 16 3 17 4 15 5 11 6 12 7 72 8 13 9 73 10 14 11
REMARK SMILES IDX 10 12 8 13 9 14 7 16 3 17 4 18 74 19 5 20 6 21 2 22 1 23
REMARK SMILES IDX 20 24 21 25 22 26 23 27 24 28 25 29 71 30 26 31 70 32 27 33
REMARK SMILES IDX 28 34 29 35 64 36 30 37 69 38 63 39 65 40 31 41 68 42 62 43
REMARK SMILES IDX 61 44 32 46 54 47 39 48 53 49 40 50 43 51 52 52 66 53 41 54
REMARK SMILES IDX 42 55 51 57 67 58 44 59 33 60 34 61 38 62 35 63 37 64 36 65
REMARK SMILES IDX 55 66 56 67 60 68 57 69 59 70 58 71 45 72 46 73 50 74 47 75
REMARK SMILES IDX 49 76 48 77
REMARK H PARENT 10 15 65 45 43 56
REMARK Flexibility Score: inf
ROOT
ATOM      1  C   UNL A   1      31.778  30.117  26.851  1.00  0.00     0.275 C 
ENDROOT
BRANCH   1   2
ATOM      2  O   UNL A   1      31.522  30.259  25.438  1.00  0.00    -0.458 OA
BRANCH   2   3
ATOM      3  C   UNL A   1      32.102  29.326  24.652  1.00  0.00     0.338 C 
ATOM      4  O   UNL A   1      33.227  29.395  24.180  1.00  0.00    -0.246 OA
BRANCH   3   5
ATOM      5  C   UNL A   1      31.234  28.147  24.400  1.00  0.00     0.065 A 
ATOM      6  C   UNL A   1      30.221  26.141  25.233  1.00  0.00     0.045 A 
ATOM      7  C   UNL A   1      29.153  26.277  24.337  1.00  0.00     0.026 A 
ATOM      8  C   UNL A   1      31.354  26.973  25.155  1.00  0.00    -0.013 A 
ATOM      9  C   UNL A   1      29.099  27.377  23.499  1.00  0.00     0.003 A 
ATOM     10  C   UNL A   1      32.647  26.611  25.833  1.00  0.00     0.047 C 
ATOM     11  C   UNL A   1      30.102  28.336  23.585  1.00  0.00     0.016 A 
BRANCH   6  12
ATOM     12  N   UNL A   1      29.991  25.264  26.302  1.00  0.00    -0.322 N 
ATOM     13  C   UNL A   1      30.442  23.966  26.463  1.00  0.00     0.255 C 
ATOM     14  O   UNL A   1      30.060  23.321  27.441  1.00  0.00    -0.269 OA
ATOM     15  H   UNL A   1      29.437  25.618  27.035  1.00  0.00     0.170 HD
BRANCH  13  16
ATOM     16  C   UNL A   1      31.415  23.329  25.522  1.00  0.00     0.043 A 
ATOM     17  C   UNL A   1      33.566  22.351  24.952  1.00  0.00     0.119 A 
ATOM     18  C   UNL A   1      33.173  22.318  23.611  1.00  0.00     0.046 A 
ATOM     19  C   UNL A   1      32.668  22.818  25.916  1.00  0.00     0.060 A 
ATOM     20  C   UNL A   1      31.903  22.740  23.225  1.00  0.00     0.005 A 
ATOM     21  C   UNL A   1      31.026  23.248  24.179  1.00  0.00     0.014 A 
BRANCH  17  22
ATOM     22  O   UNL A   1      34.846  21.918  25.152  1.00  0.00    -0.497 OA
ATOM     23  C   UNL A   1      35.151  20.540  25.001  1.00  0.00     0.278 C 
ENDBRANCH  17  22
ENDBRANCH  13  16
ENDBRANCH   6  12
ENDBRANCH   3   5
ENDBRANCH   2   3
ENDBRANCH   1   2
BRANCH   1  24
ATOM     24  C   UNL A   1      32.878  31.078  27.299  1.00  0.00     0.275 C 
BRANCH  24  25
ATOM     25  O   UNL A   1      34.151  30.408  27.375  1.00  0.00    -0.458 OA
BRANCH  25  26
ATOM     26  C   UNL A   1      34.973  30.858  28.348  1.00  0.00     0.338 C 
ATOM     27  O   UNL A   1      34.751  31.733  29.168  1.00  0.00    -0.246 OA
BRANCH  26  28
ATOM     28  C   UNL A   1      36.221  30.084  28.362  1.00  0.00     0.060 A 
ATOM     29  C   UNL A   1      36.657  29.549  29.567  1.00  0.00     0.016 A 
ATOM     30  C   UNL A   1      37.058  30.072  27.252  1.00  0.00     0.016 A 
ATOM     31  C   UNL A   1      37.976  29.148  29.722  1.00  0.00     0.010 A 
ATOM     32  C   UNL A   1      38.339  29.518  27.369  1.00  0.00     0.010 A 
ATOM     33  C   UNL A   1      38.828  29.090  28.618  1.00  0.00    -0.014 A 
BRANCH  33  34
ATOM     34  C   UNL A   1      40.220  28.588  28.775  1.00  0.00     0.031 A 
ATOM     35  C   UNL A   1      41.317  29.522  29.211  1.00  0.00     0.074 A 
ATOM     36  C   UNL A   1      40.505  27.293  28.525  1.00  0.00     0.049 A 
ATOM     37  N   UNL A   1      42.613  29.343  29.187  1.00  0.00    -0.248 NA
ATOM     38  C   UNL A   1      40.903  30.837  29.726  1.00  0.00     0.031 C 
ATOM     39  C   UNL A   1      39.533  26.256  28.164  1.00  0.00     0.029 A 
ATOM     40  N   UNL A   1      41.704  26.623  28.538  1.00  0.00    -0.354 N 
ATOM     41  C   UNL A   1      43.168  30.541  29.618  1.00  0.00     0.074 A 
ATOM     42  C   UNL A   1      42.070  31.441  29.895  1.00  0.00     0.031 C 
ATOM     43  C   UNL A   1      40.165  25.083  28.028  1.00  0.00     0.029 A 
ATOM     44  C   UNL A   1      41.596  25.303  28.170  1.00  0.00     0.049 A 
ATOM     45  H   UNL A   1      42.557  27.047  28.785  1.00  0.00     0.167 HD
ATOM     46  C   UNL A   1      44.477  30.862  29.760  1.00  0.00     0.031 A 
ATOM     47  C   UNL A   1      42.540  24.382  27.908  1.00  0.00     0.031 A 
ATOM     48  C   UNL A   1      45.560  29.947  29.508  1.00  0.00     0.049 A 
ATOM     49  C   UNL A   1      43.982  24.783  27.996  1.00  0.00     0.074 A 
ATOM     50  C   UNL A   1      46.922  30.166  29.628  1.00  0.00     0.029 A 
ATOM     51  N   UNL A   1      45.403  28.632  29.094  1.00  0.00    -0.354 N 
ATOM     52  N   UNL A   1      44.499  25.934  28.350  1.00  0.00    -0.248 NA
ATOM     53  C   UNL A   1      44.973  23.761  27.633  1.00  0.00     0.031 C 
ATOM     54  C   UNL A   1      47.589  29.002  29.232  1.00  0.00     0.029 A 
ATOM     55  C   UNL A   1      46.642  28.035  28.931  1.00  0.00     0.049 A 
ATOM     56  H   UNL A   1      44.537  28.188  28.940  1.00  0.00     0.167 HD
ATOM     57  C   UNL A   1      45.874  25.770  28.273  1.00  0.00     0.074 A 
ATOM     58  C   UNL A   1      46.110  24.401  27.861  1.00  0.00     0.031 C 
ATOM     59  C   UNL A   1      46.855  26.672  28.520  1.00  0.00     0.031 A 
BRANCH  46  60
ATOM     60  C   UNL A   1      44.812  32.276  30.149  1.00  0.00    -0.014 A 
ATOM     61  C   UNL A   1      44.985  32.656  31.489  1.00  0.00     0.009 A 
ATOM     62  C   UNL A   1      44.988  33.243  29.144  1.00  0.00     0.009 A 
ATOM     63  C   UNL A   1      45.288  33.981  31.816  1.00  0.00     0.001 A 
ATOM     64  C   UNL A   1      45.322  34.558  29.472  1.00  0.00     0.001 A 
ATOM     65  C   UNL A   1      45.461  34.929  30.808  1.00  0.00     0.000 A 
ENDBRANCH  46  60
BRANCH  47  66
ATOM     66  C   UNL A   1      42.148  23.017  27.466  1.00  0.00    -0.014 A 
ATOM     67  C   UNL A   1      42.124  22.685  26.104  1.00  0.00     0.009 A 
ATOM     68  C   UNL A   1      41.800  22.034  28.408  1.00  0.00     0.009 A 
ATOM     69  C   UNL A   1      41.740  21.406  25.694  1.00  0.00     0.001 A 
ATOM     70  C   UNL A   1      41.454  20.745  27.998  1.00  0.00     0.001 A 
ATOM     71  C   UNL A   1      41.414  20.436  26.640  1.00  0.00     0.000 A 
ENDBRANCH  47  66
BRANCH  59  72
ATOM     72  C   UNL A   1      48.271  26.186  28.397  1.00  0.00    -0.014 A 
ATOM     73  C   UNL A   1      48.961  25.654  29.496  1.00  0.00     0.009 A 
ATOM     74  C   UNL A   1      48.913  26.241  27.149  1.00  0.00     0.009 A 
ATOM     75  C   UNL A   1      50.282  25.220  29.356  1.00  0.00     0.001 A 
ATOM     76  C   UNL A   1      50.220  25.777  27.005  1.00  0.00     0.001 A 
ATOM     77  C   UNL A   1      50.907  25.277  28.111  1.00  0.00     0.000 A 
ENDBRANCH  59  72
ENDBRANCH  33  34
ENDBRANCH  26  28
ENDBRANCH  25  26
ENDBRANCH  24  25
ENDBRANCH   1  24
TORSDOF 14
ENDMDL
