MODEL 1
REMARK VINA RESULT:      -9.8      0.000      0.000
REMARK SMILES O=C(OCCOC(=O)c1ccc2c(=O)[nH]c(N3CC[NH2+]CC3)nc2c1)c1ccc(-c2c3nc(c(-c4ccccc4)c4ccc([nH]4)c(-c4ccccc4)c4nc(c(-c5ccccc5)c5ccc2[nH]5)C=C4)C=C3)cc1
REMARK SMILES IDX 4 1 3 2 2 3 1 4 26 5 27 6 73 7 28 8 72 9 29 10 30 11 31 12
REMARK SMILES IDX 66 13 32 14 71 15 65 16 67 17 33 18 70 19 64 20 63 21 34 23
REMARK SMILES IDX 56 24 41 25 55 26 42 27 45 28 54 29 68 30 43 31 44 32 53 34
REMARK SMILES IDX 69 35 46 36 35 37 36 38 40 39 37 40 39 41 38 42 57 43 58 44
REMARK SMILES IDX 62 45 59 46 61 47 60 48 47 49 48 50 52 51 49 52 51 53 50 54
REMARK SMILES IDX 5 55 6 56 7 57 8 58 9 59 10 60 25 61 11 62 24 63 12 64 23 65
REMARK SMILES IDX 13 66 16 67 14 68 15 69 17 71 18 72 22 73 19 74 21 75 20 76
REMARK H PARENT 67 22 45 33 15 70 20 77 20 78
REMARK Flexibility Score: inf
ROOT
ATOM      1  C   UNL A   1      33.076  36.329  30.653  1.00  0.00     0.275 C 
ENDROOT
BRANCH   1   2
ATOM      2  O   UNL A   1      32.597  35.136  30.003  1.00  0.00    -0.458 OA
BRANCH   2   3
ATOM      3  C   UNL A   1      33.201  34.347  29.084  1.00  0.00     0.338 C 
ATOM      4  O   UNL A   1      32.613  34.090  28.035  1.00  0.00    -0.246 OA
BRANCH   3   5
ATOM      5  C   UNL A   1      34.494  33.645  29.335  1.00  0.00     0.060 A 
ATOM      6  C   UNL A   1      34.649  32.471  30.073  1.00  0.00     0.016 A 
ATOM      7  C   UNL A   1      35.649  34.259  28.820  1.00  0.00     0.016 A 
ATOM      8  C   UNL A   1      35.906  31.876  30.217  1.00  0.00     0.010 A 
ATOM      9  C   UNL A   1      36.909  33.667  28.954  1.00  0.00     0.010 A 
ATOM     10  C   UNL A   1      37.042  32.467  29.656  1.00  0.00    -0.014 A 
BRANCH  10  11
ATOM     11  C   UNL A   1      38.374  31.893  29.944  1.00  0.00     0.031 A 
ATOM     12  C   UNL A   1      39.319  32.668  30.814  1.00  0.00     0.074 A 
ATOM     13  C   UNL A   1      38.706  30.668  29.499  1.00  0.00     0.049 A 
ATOM     14  N   UNL A   1      40.482  32.310  31.288  1.00  0.00    -0.248 NA
ATOM     15  C   UNL A   1      38.878  34.009  31.234  1.00  0.00     0.031 C 
ATOM     16  C   UNL A   1      37.846  29.798  28.702  1.00  0.00     0.029 A 
ATOM     17  N   UNL A   1      39.862  29.945  29.649  1.00  0.00    -0.354 N 
ATOM     18  C   UNL A   1      40.883  33.353  32.109  1.00  0.00     0.074 A 
ATOM     19  C   UNL A   1      39.884  34.392  32.005  1.00  0.00     0.031 C 
ATOM     20  C   UNL A   1      38.522  28.682  28.378  1.00  0.00     0.029 A 
ATOM     21  C   UNL A   1      39.854  28.751  28.969  1.00  0.00     0.049 A 
ATOM     22  H   UNL A   1      40.623  30.251  30.192  1.00  0.00     0.167 HD
ATOM     23  C   UNL A   1      41.966  33.419  32.917  1.00  0.00     0.031 A 
ATOM     24  C   UNL A   1      40.815  27.818  28.843  1.00  0.00     0.031 A 
ATOM     25  C   UNL A   1      42.987  32.412  32.974  1.00  0.00     0.049 A 
ATOM     26  C   UNL A   1      42.089  27.988  29.625  1.00  0.00     0.074 A 
ATOM     27  C   UNL A   1      44.146  32.394  33.727  1.00  0.00     0.029 A 
ATOM     28  N   UNL A   1      42.973  31.244  32.226  1.00  0.00    -0.354 N 
ATOM     29  N   UNL A   1      42.428  28.951  30.450  1.00  0.00    -0.248 NA
ATOM     30  C   UNL A   1      43.092  26.922  29.498  1.00  0.00     0.031 C 
ATOM     31  C   UNL A   1      44.857  31.233  33.401  1.00  0.00     0.029 A 
ATOM     32  C   UNL A   1      44.115  30.506  32.483  1.00  0.00     0.049 A 
ATOM     33  H   UNL A   1      42.258  30.980  31.604  1.00  0.00     0.167 HD
ATOM     34  C   UNL A   1      43.660  28.584  30.975  1.00  0.00     0.074 A 
ATOM     35  C   UNL A   1      44.004  27.308  30.379  1.00  0.00     0.031 C 
ATOM     36  C   UNL A   1      44.430  29.236  31.879  1.00  0.00     0.031 A 
BRANCH  23  37
ATOM     37  C   UNL A   1      42.075  34.636  33.789  1.00  0.00    -0.014 A 
ATOM     38  C   UNL A   1      41.503  34.646  35.072  1.00  0.00     0.009 A 
ATOM     39  C   UNL A   1      42.721  35.788  33.322  1.00  0.00     0.009 A 
ATOM     40  C   UNL A   1      41.538  35.802  35.854  1.00  0.00     0.001 A 
ATOM     41  C   UNL A   1      42.773  36.937  34.115  1.00  0.00     0.001 A 
ATOM     42  C   UNL A   1      42.173  36.946  35.374  1.00  0.00     0.000 A 
ENDBRANCH  23  37
BRANCH  24  43
ATOM     43  C   UNL A   1      40.611  26.639  27.961  1.00  0.00    -0.014 A 
ATOM     44  C   UNL A   1      41.077  26.632  26.637  1.00  0.00     0.009 A 
ATOM     45  C   UNL A   1      39.912  25.517  28.438  1.00  0.00     0.009 A 
ATOM     46  C   UNL A   1      40.814  25.544  25.799  1.00  0.00     0.001 A 
ATOM     47  C   UNL A   1      39.673  24.421  27.605  1.00  0.00     0.001 A 
ATOM     48  C   UNL A   1      40.114  24.440  26.283  1.00  0.00     0.000 A 
ENDBRANCH  24  43
BRANCH  36  49
ATOM     49  C   UNL A   1      45.695  28.554  32.312  1.00  0.00    -0.014 A 
ATOM     50  C   UNL A   1      45.722  27.706  33.429  1.00  0.00     0.009 A 
ATOM     51  C   UNL A   1      46.869  28.739  31.567  1.00  0.00     0.009 A 
ATOM     52  C   UNL A   1      46.911  27.082  33.810  1.00  0.00     0.001 A 
ATOM     53  C   UNL A   1      48.049  28.091  31.932  1.00  0.00     0.001 A 
ATOM     54  C   UNL A   1      48.071  27.272  33.059  1.00  0.00     0.000 A 
ENDBRANCH  36  49
ENDBRANCH  10  11
ENDBRANCH   3   5
ENDBRANCH   2   3
ENDBRANCH   1   2
BRANCH   1  55
ATOM     55  C   UNL A   1      33.437  36.164  32.130  1.00  0.00     0.275 C 
BRANCH  55  56
ATOM     56  O   UNL A   1      34.486  35.214  32.362  1.00  0.00    -0.458 OA
BRANCH  56  57
ATOM     57  C   UNL A   1      34.117  34.111  33.067  1.00  0.00     0.338 C 
ATOM     58  O   UNL A   1      33.084  33.474  32.951  1.00  0.00    -0.246 OA
BRANCH  57  59
ATOM     59  C   UNL A   1      35.227  33.720  33.953  1.00  0.00     0.062 A 
ATOM     60  C   UNL A   1      35.503  34.453  35.112  1.00  0.00     0.016 A 
ATOM     61  C   UNL A   1      36.029  32.629  33.586  1.00  0.00     0.045 A 
ATOM     62  C   UNL A   1      36.604  34.108  35.892  1.00  0.00     0.017 A 
ATOM     63  C   UNL A   1      37.173  32.318  34.327  1.00  0.00     0.081 A 
ATOM     64  C   UNL A   1      37.439  33.065  35.479  1.00  0.00     0.066 A 
ATOM     65  N   UNL A   1      38.034  31.301  33.871  1.00  0.00    -0.214 NA
ATOM     66  C   UNL A   1      38.653  32.733  36.235  1.00  0.00     0.260 A 
ATOM     67  C   UNL A   1      39.080  31.014  34.581  1.00  0.00     0.206 A 
ATOM     68  O   UNL A   1      38.977  33.336  37.250  1.00  0.00    -0.269 OA
ATOM     69  N   UNL A   1      39.390  31.703  35.721  1.00  0.00    -0.292 N 
ATOM     70  H   UNL A   1      40.203  31.438  36.207  1.00  0.00     0.173 HD
BRANCH  67  71
ATOM     71  N   UNL A   1      39.968  30.023  34.273  1.00  0.00    -0.331 N 
ATOM     72  C   UNL A   1      41.265  29.908  34.946  1.00  0.00     0.181 C 
ATOM     73  C   UNL A   1      39.933  29.399  32.943  1.00  0.00     0.181 C 
ATOM     74  C   UNL A   1      41.690  28.418  34.994  1.00  0.00     0.282 C 
ATOM     75  C   UNL A   1      40.374  27.926  33.035  1.00  0.00     0.282 C 
ATOM     76  N   UNL A   1      41.693  27.748  33.674  1.00  0.00    -0.343 N 
ATOM     77  H   UNL A   1      41.881  26.754  33.797  1.00  0.00     0.346 HD
ATOM     78  H   UNL A   1      42.417  28.158  33.084  1.00  0.00     0.346 HD
ENDBRANCH  67  71
ENDBRANCH  57  59
ENDBRANCH  56  57
ENDBRANCH  55  56
ENDBRANCH   1  55
TORSDOF 12
ENDMDL
MODEL 2
REMARK VINA RESULT:      -9.5      4.168      7.083
REMARK SMILES O=C(OCCOC(=O)c1ccc2c(=O)[nH]c(N3CC[NH2+]CC3)nc2c1)c1ccc(-c2c3nc(c(-c4ccccc4)c4ccc([nH]4)c(-c4ccccc4)c4nc(c(-c5ccccc5)c5ccc2[nH]5)C=C4)C=C3)cc1
REMARK SMILES IDX 4 1 3 2 2 3 1 4 26 5 27 6 73 7 28 8 72 9 29 10 30 11 31 12
REMARK SMILES IDX 66 13 32 14 71 15 65 16 67 17 33 18 70 19 64 20 63 21 34 23
REMARK SMILES IDX 56 24 41 25 55 26 42 27 45 28 54 29 68 30 43 31 44 32 53 34
REMARK SMILES IDX 69 35 46 36 35 37 36 38 40 39 37 40 39 41 38 42 57 43 58 44
REMARK SMILES IDX 62 45 59 46 61 47 60 48 47 49 48 50 52 51 49 52 51 53 50 54
REMARK SMILES IDX 5 55 6 56 7 57 8 58 9 59 10 60 25 61 11 62 24 63 12 64 23 65
REMARK SMILES IDX 13 66 16 67 14 68 15 69 17 71 18 72 22 73 19 74 21 75 20 76
REMARK H PARENT 67 22 45 33 15 70 20 77 20 78
REMARK Flexibility Score: inf
ROOT
ATOM      1  C   UNL A   1      32.379  32.841  26.729  1.00  0.00     0.275 C 
ENDROOT
BRANCH   1   2
ATOM      2  O   UNL A   1      32.073  33.882  27.676  1.00  0.00    -0.458 OA
BRANCH   2   3
ATOM      3  C   UNL A   1      32.895  34.580  28.494  1.00  0.00     0.338 C 
ATOM      4  O   UNL A   1      32.633  35.753  28.751  1.00  0.00    -0.246 OA
BRANCH   3   5
ATOM      5  C   UNL A   1      34.196  34.043  28.994  1.00  0.00     0.060 A 
ATOM      6  C   UNL A   1      35.449  34.318  28.446  1.00  0.00     0.016 A 
ATOM      7  C   UNL A   1      34.128  33.149  30.077  1.00  0.00     0.016 A 
ATOM      8  C   UNL A   1      36.611  33.789  29.017  1.00  0.00     0.010 A 
ATOM      9  C   UNL A   1      35.286  32.621  30.657  1.00  0.00     0.010 A 
ATOM     10  C   UNL A   1      36.538  32.942  30.126  1.00  0.00    -0.014 A 
BRANCH  10  11
ATOM     11  C   UNL A   1      37.768  32.285  30.619  1.00  0.00     0.031 A 
ATOM     12  C   UNL A   1      38.448  32.850  31.831  1.00  0.00     0.074 A 
ATOM     13  C   UNL A   1      38.228  31.162  30.040  1.00  0.00     0.049 A 
ATOM     14  N   UNL A   1      39.464  32.374  32.500  1.00  0.00    -0.248 NA
ATOM     15  C   UNL A   1      37.888  34.095  32.382  1.00  0.00     0.031 C 
ATOM     16  C   UNL A   1      37.612  30.488  28.900  1.00  0.00     0.029 A 
ATOM     17  N   UNL A   1      39.324  30.390  30.329  1.00  0.00    -0.354 N 
ATOM     18  C   UNL A   1      39.625  33.224  33.583  1.00  0.00     0.074 A 
ATOM     19  C   UNL A   1      38.661  34.292  33.438  1.00  0.00     0.031 C 
ATOM     20  C   UNL A   1      38.372  29.437  28.543  1.00  0.00     0.029 A 
ATOM     21  C   UNL A   1      39.512  29.352  29.449  1.00  0.00     0.049 A 
ATOM     22  H   UNL A   1      39.919  30.564  31.094  1.00  0.00     0.167 HD
ATOM     23  C   UNL A   1      40.470  33.102  34.632  1.00  0.00     0.031 A 
ATOM     24  C   UNL A   1      40.494  28.435  29.387  1.00  0.00     0.031 A 
ATOM     25  C   UNL A   1      41.466  32.074  34.744  1.00  0.00     0.049 A 
ATOM     26  C   UNL A   1      41.529  28.413  30.479  1.00  0.00     0.074 A 
ATOM     27  C   UNL A   1      42.400  31.877  35.743  1.00  0.00     0.029 A 
ATOM     28  N   UNL A   1      41.665  31.075  33.802  1.00  0.00    -0.354 N 
ATOM     29  N   UNL A   1      41.630  29.187  31.534  1.00  0.00    -0.248 NA
ATOM     30  C   UNL A   1      42.554  27.365  30.400  1.00  0.00     0.031 C 
ATOM     31  C   UNL A   1      43.194  30.783  35.384  1.00  0.00     0.029 A 
ATOM     32  C   UNL A   1      42.722  30.269  34.186  1.00  0.00     0.049 A 
ATOM     33  H   UNL A   1      41.133  30.957  32.982  1.00  0.00     0.167 HD
ATOM     34  C   UNL A   1      42.699  28.690  32.267  1.00  0.00     0.074 A 
ATOM     35  C   UNL A   1      43.209  27.546  31.538  1.00  0.00     0.031 C 
ATOM     36  C   UNL A   1      43.204  29.132  33.444  1.00  0.00     0.031 A 
BRANCH  23  37
ATOM     37  C   UNL A   1      40.331  34.122  35.724  1.00  0.00    -0.014 A 
ATOM     38  C   UNL A   1      39.471  33.889  36.811  1.00  0.00     0.009 A 
ATOM     39  C   UNL A   1      41.033  35.333  35.657  1.00  0.00     0.009 A 
ATOM     40  C   UNL A   1      39.284  34.869  37.787  1.00  0.00     0.001 A 
ATOM     41  C   UNL A   1      40.860  36.303  36.648  1.00  0.00     0.001 A 
ATOM     42  C   UNL A   1      39.979  36.075  37.705  1.00  0.00     0.000 A 
ENDBRANCH  23  37
BRANCH  24  43
ATOM     43  C   UNL A   1      40.543  27.456  28.269  1.00  0.00    -0.014 A 
ATOM     44  C   UNL A   1      39.912  26.206  28.369  1.00  0.00     0.009 A 
ATOM     45  C   UNL A   1      41.256  27.762  27.098  1.00  0.00     0.009 A 
ATOM     46  C   UNL A   1      40.027  25.270  27.336  1.00  0.00     0.001 A 
ATOM     47  C   UNL A   1      41.349  26.834  26.058  1.00  0.00     0.001 A 
ATOM     48  C   UNL A   1      40.744  25.584  26.183  1.00  0.00     0.000 A 
ENDBRANCH  24  43
BRANCH  36  49
ATOM     49  C   UNL A   1      44.336  28.343  34.037  1.00  0.00    -0.014 A 
ATOM     50  C   UNL A   1      45.673  28.693  33.797  1.00  0.00     0.009 A 
ATOM     51  C   UNL A   1      44.054  27.254  34.875  1.00  0.00     0.009 A 
ATOM     52  C   UNL A   1      46.707  27.944  34.360  1.00  0.00     0.001 A 
ATOM     53  C   UNL A   1      45.089  26.526  35.460  1.00  0.00     0.001 A 
ATOM     54  C   UNL A   1      46.414  26.865  35.194  1.00  0.00     0.000 A 
ENDBRANCH  36  49
ENDBRANCH  10  11
ENDBRANCH   3   5
ENDBRANCH   2   3
ENDBRANCH   1   2
BRANCH   1  55
ATOM     55  C   UNL A   1      32.193  31.414  27.248  1.00  0.00     0.275 C 
BRANCH  55  56
ATOM     56  O   UNL A   1      32.431  30.407  26.256  1.00  0.00    -0.458 OA
BRANCH  56  57
ATOM     57  C   UNL A   1      33.458  29.559  26.533  1.00  0.00     0.338 C 
ATOM     58  O   UNL A   1      34.133  29.526  27.548  1.00  0.00    -0.246 OA
BRANCH  57  59
ATOM     59  C   UNL A   1      33.579  28.584  25.435  1.00  0.00     0.062 A 
ATOM     60  C   UNL A   1      33.276  28.953  24.120  1.00  0.00     0.016 A 
ATOM     61  C   UNL A   1      33.955  27.268  25.742  1.00  0.00     0.045 A 
ATOM     62  C   UNL A   1      33.325  27.993  23.112  1.00  0.00     0.017 A 
ATOM     63  C   UNL A   1      33.943  26.285  24.748  1.00  0.00     0.081 A 
ATOM     64  C   UNL A   1      33.631  26.669  23.440  1.00  0.00     0.066 A 
ATOM     65  N   UNL A   1      34.200  24.946  25.101  1.00  0.00    -0.214 NA
ATOM     66  C   UNL A   1      33.609  25.619  22.415  1.00  0.00     0.260 A 
ATOM     67  C   UNL A   1      34.203  24.051  24.164  1.00  0.00     0.206 A 
ATOM     68  O   UNL A   1      33.337  25.853  21.244  1.00  0.00    -0.269 OA
ATOM     69  N   UNL A   1      33.913  24.365  22.865  1.00  0.00    -0.292 N 
ATOM     70  H   UNL A   1      33.926  23.635  22.205  1.00  0.00     0.173 HD
BRANCH  67  71
ATOM     71  N   UNL A   1      34.481  22.728  24.366  1.00  0.00    -0.331 N 
ATOM     72  C   UNL A   1      35.849  22.206  24.303  1.00  0.00     0.181 C 
ATOM     73  C   UNL A   1      33.447  21.717  24.105  1.00  0.00     0.181 C 
ATOM     74  C   UNL A   1      35.978  20.986  25.251  1.00  0.00     0.282 C 
ATOM     75  C   UNL A   1      33.621  20.521  25.060  1.00  0.00     0.282 C 
ATOM     76  N   UNL A   1      34.972  19.927  25.015  1.00  0.00    -0.343 N 
ATOM     77  H   UNL A   1      35.054  19.212  25.736  1.00  0.00     0.346 HD
ATOM     78  H   UNL A   1      35.130  19.504  24.100  1.00  0.00     0.346 HD
ENDBRANCH  67  71
ENDBRANCH  57  59
ENDBRANCH  56  57
ENDBRANCH  55  56
ENDBRANCH   1  55
TORSDOF 12
ENDMDL
MODEL 3
REMARK VINA RESULT:      -9.5      6.178     11.411
REMARK SMILES O=C(OCCOC(=O)c1ccc2c(=O)[nH]c(N3CC[NH2+]CC3)nc2c1)c1ccc(-c2c3nc(c(-c4ccccc4)c4ccc([nH]4)c(-c4ccccc4)c4nc(c(-c5ccccc5)c5ccc2[nH]5)C=C4)C=C3)cc1
REMARK SMILES IDX 4 1 3 2 2 3 1 4 26 5 27 6 73 7 28 8 72 9 29 10 30 11 31 12
REMARK SMILES IDX 66 13 32 14 71 15 65 16 67 17 33 18 70 19 64 20 63 21 34 23
REMARK SMILES IDX 56 24 41 25 55 26 42 27 45 28 54 29 68 30 43 31 44 32 53 34
REMARK SMILES IDX 69 35 46 36 35 37 36 38 40 39 37 40 39 41 38 42 57 43 58 44
REMARK SMILES IDX 62 45 59 46 61 47 60 48 47 49 48 50 52 51 49 52 51 53 50 54
REMARK SMILES IDX 5 55 6 56 7 57 8 58 9 59 10 60 25 61 11 62 24 63 12 64 23 65
REMARK SMILES IDX 13 66 16 67 14 68 15 69 17 71 18 72 22 73 19 74 21 75 20 76
REMARK H PARENT 67 22 45 33 15 70 20 77 20 78
REMARK Flexibility Score: inf
ROOT
ATOM      1  C   UNL A   1      38.810  19.888  25.762  1.00  0.00     0.275 C 
ENDROOT
BRANCH   1   2
ATOM      2  O   UNL A   1      39.982  19.065  25.606  1.00  0.00    -0.458 OA
BRANCH   2   3
ATOM      3  C   UNL A   1      41.278  19.338  25.888  1.00  0.00     0.338 C 
ATOM      4  O   UNL A   1      42.113  18.439  25.801  1.00  0.00    -0.246 OA
BRANCH   3   5
ATOM      5  C   UNL A   1      41.733  20.645  26.446  1.00  0.00     0.060 A 
ATOM      6  C   UNL A   1      41.779  20.978  27.800  1.00  0.00     0.016 A 
ATOM      7  C   UNL A   1      42.096  21.631  25.510  1.00  0.00     0.016 A 
ATOM      8  C   UNL A   1      42.258  22.223  28.216  1.00  0.00     0.010 A 
ATOM      9  C   UNL A   1      42.583  22.876  25.919  1.00  0.00     0.010 A 
ATOM     10  C   UNL A   1      42.667  23.178  27.280  1.00  0.00    -0.014 A 
BRANCH  10  11
ATOM     11  C   UNL A   1      43.034  24.534  27.742  1.00  0.00     0.031 A 
ATOM     12  C   UNL A   1      44.486  24.904  27.807  1.00  0.00     0.074 A 
ATOM     13  C   UNL A   1      42.085  25.444  28.027  1.00  0.00     0.049 A 
ATOM     14  N   UNL A   1      45.028  26.062  28.069  1.00  0.00    -0.248 NA
ATOM     15  C   UNL A   1      45.452  23.835  27.500  1.00  0.00     0.031 C 
ATOM     16  C   UNL A   1      40.645  25.218  27.937  1.00  0.00     0.029 A 
ATOM     17  N   UNL A   1      42.190  26.742  28.457  1.00  0.00    -0.354 N 
ATOM     18  C   UNL A   1      46.392  25.879  27.899  1.00  0.00     0.074 A 
ATOM     19  C   UNL A   1      46.604  24.482  27.595  1.00  0.00     0.031 C 
ATOM     20  C   UNL A   1      39.996  26.317  28.359  1.00  0.00     0.029 A 
ATOM     21  C   UNL A   1      40.978  27.332  28.723  1.00  0.00     0.049 A 
ATOM     22  H   UNL A   1      43.051  27.206  28.563  1.00  0.00     0.167 HD
ATOM     23  C   UNL A   1      47.379  26.803  27.946  1.00  0.00     0.031 A 
ATOM     24  C   UNL A   1      40.697  28.557  29.204  1.00  0.00     0.031 A 
ATOM     25  C   UNL A   1      47.173  28.178  28.306  1.00  0.00     0.049 A 
ATOM     26  C   UNL A   1      41.829  29.527  29.408  1.00  0.00     0.074 A 
ATOM     27  C   UNL A   1      48.105  29.192  28.423  1.00  0.00     0.029 A 
ATOM     28  N   UNL A   1      45.939  28.724  28.627  1.00  0.00    -0.354 N 
ATOM     29  N   UNL A   1      43.111  29.358  29.181  1.00  0.00    -0.248 NA
ATOM     30  C   UNL A   1      41.473  30.869  29.886  1.00  0.00     0.031 C 
ATOM     31  C   UNL A   1      47.440  30.344  28.857  1.00  0.00     0.029 A 
ATOM     32  C   UNL A   1      46.087  30.058  28.963  1.00  0.00     0.049 A 
ATOM     33  H   UNL A   1      45.085  28.235  28.617  1.00  0.00     0.167 HD
ATOM     34  C   UNL A   1      43.706  30.585  29.442  1.00  0.00     0.074 A 
ATOM     35  C   UNL A   1      42.645  31.488  29.840  1.00  0.00     0.031 C 
ATOM     36  C   UNL A   1      45.012  30.936  29.349  1.00  0.00     0.031 A 
BRANCH  23  37
ATOM     37  C   UNL A   1      48.758  26.327  27.597  1.00  0.00    -0.014 A 
ATOM     38  C   UNL A   1      49.636  25.889  28.604  1.00  0.00     0.009 A 
ATOM     39  C   UNL A   1      49.200  26.344  26.268  1.00  0.00     0.009 A 
ATOM     40  C   UNL A   1      50.944  25.518  28.289  1.00  0.00     0.001 A 
ATOM     41  C   UNL A   1      50.503  25.950  25.954  1.00  0.00     0.001 A 
ATOM     42  C   UNL A   1      51.376  25.549  26.964  1.00  0.00     0.000 A 
ENDBRANCH  23  37
BRANCH  24  43
ATOM     43  C   UNL A   1      39.295  28.943  29.511  1.00  0.00    -0.014 A 
ATOM     44  C   UNL A   1      38.725  28.676  30.765  1.00  0.00     0.009 A 
ATOM     45  C   UNL A   1      38.504  29.558  28.526  1.00  0.00     0.009 A 
ATOM     46  C   UNL A   1      37.383  28.981  31.013  1.00  0.00     0.001 A 
ATOM     47  C   UNL A   1      37.170  29.884  28.785  1.00  0.00     0.001 A 
ATOM     48  C   UNL A   1      36.608  29.585  30.025  1.00  0.00     0.000 A 
ENDBRANCH  24  43
BRANCH  36  49
ATOM     49  C   UNL A   1      45.352  32.369  29.637  1.00  0.00    -0.014 A 
ATOM     50  C   UNL A   1      45.321  33.343  28.628  1.00  0.00     0.009 A 
ATOM     51  C   UNL A   1      45.676  32.753  30.947  1.00  0.00     0.009 A 
ATOM     52  C   UNL A   1      45.640  34.670  28.921  1.00  0.00     0.001 A 
ATOM     53  C   UNL A   1      45.966  34.085  31.243  1.00  0.00     0.001 A 
ATOM     54  C   UNL A   1      45.957  35.040  30.228  1.00  0.00     0.000 A 
ENDBRANCH  36  49
ENDBRANCH  10  11
ENDBRANCH   3   5
ENDBRANCH   2   3
ENDBRANCH   1   2
BRANCH   1  55
ATOM     55  C   UNL A   1      37.746  19.716  24.678  1.00  0.00     0.275 C 
BRANCH  55  56
ATOM     56  O   UNL A   1      36.497  20.344  24.995  1.00  0.00    -0.458 OA
BRANCH  56  57
ATOM     57  C   UNL A   1      36.402  21.651  24.632  1.00  0.00     0.338 C 
ATOM     58  O   UNL A   1      37.100  22.246  23.829  1.00  0.00    -0.246 OA
BRANCH  57  59
ATOM     59  C   UNL A   1      35.228  22.245  25.296  1.00  0.00     0.062 A 
ATOM     60  C   UNL A   1      34.407  21.466  26.118  1.00  0.00     0.016 A 
ATOM     61  C   UNL A   1      34.924  23.592  25.048  1.00  0.00     0.045 A 
ATOM     62  C   UNL A   1      33.261  22.032  26.673  1.00  0.00     0.017 A 
ATOM     63  C   UNL A   1      33.742  24.148  25.547  1.00  0.00     0.081 A 
ATOM     64  C   UNL A   1      32.928  23.354  26.361  1.00  0.00     0.066 A 
ATOM     65  N   UNL A   1      33.392  25.462  25.182  1.00  0.00    -0.214 NA
ATOM     66  C   UNL A   1      31.685  23.951  26.862  1.00  0.00     0.260 A 
ATOM     67  C   UNL A   1      32.302  25.968  25.668  1.00  0.00     0.206 A 
ATOM     68  O   UNL A   1      30.902  23.334  27.572  1.00  0.00    -0.269 OA
ATOM     69  N   UNL A   1      31.469  25.244  26.476  1.00  0.00    -0.292 N 
ATOM     70  H   UNL A   1      30.654  25.688  26.804  1.00  0.00     0.173 HD
BRANCH  67  71
ATOM     71  N   UNL A   1      31.874  27.243  25.428  1.00  0.00    -0.331 N 
ATOM     72  C   UNL A   1      31.886  28.273  26.471  1.00  0.00     0.181 C 
ATOM     73  C   UNL A   1      30.902  27.497  24.356  1.00  0.00     0.181 C 
ATOM     74  C   UNL A   1      32.094  29.664  25.818  1.00  0.00     0.282 C 
ATOM     75  C   UNL A   1      31.138  28.891  23.745  1.00  0.00     0.282 C 
ATOM     76  N   UNL A   1      31.125  29.978  24.744  1.00  0.00    -0.343 N 
ATOM     77  H   UNL A   1      31.386  30.856  24.296  1.00  0.00     0.346 HD
ATOM     78  H   UNL A   1      30.190  30.066  25.142  1.00  0.00     0.346 HD
ENDBRANCH  67  71
ENDBRANCH  57  59
ENDBRANCH  56  57
ENDBRANCH  55  56
ENDBRANCH   1  55
TORSDOF 12
ENDMDL
