MODEL 1
REMARK VINA RESULT:      -9.9      0.000      0.000
REMARK SMILES O=C(NCC(=O)OCCOC(=O)c1ccc(-c2c3nc(c(-c4ccccc4)c4ccc([nH]4)c(-c4ccccc4)c4nc(c(-c5ccccc5)c5ccc2[nH]5)C=C4)C=C3)cc1)Nc1cccc2c1CCCC2
REMARK SMILES IDX 8 1 7 2 5 3 6 4 4 5 3 6 1 7 2 8 61 9 62 12 63 13 67 14 64 15
REMARK SMILES IDX 66 16 68 17 65 18 71 19 69 20 70 21 9 22 10 23 11 24 12 25
REMARK SMILES IDX 13 26 14 27 60 28 15 29 59 30 16 31 17 32 18 33 53 34 19 35
REMARK SMILES IDX 58 36 52 37 54 38 20 39 57 40 51 41 50 42 21 44 43 45 28 46
REMARK SMILES IDX 42 47 29 48 32 49 41 50 55 51 30 52 31 53 40 55 56 56 33 57
REMARK SMILES IDX 22 58 23 59 27 60 24 61 26 62 25 63 44 64 45 65 49 66 46 67
REMARK SMILES IDX 48 68 47 69 34 70 35 71 39 72 36 73 38 74 37 75
REMARK H PARENT 3 10 61 11 54 43 32 54
REMARK Flexibility Score: inf
ROOT
ATOM      1  C   UNL A   1      33.421  34.944  28.690  1.00  0.00     0.274 C 
ENDROOT
BRANCH   1   2
ATOM      2  O   UNL A   1      32.495  35.179  29.766  1.00  0.00    -0.461 OA
BRANCH   2   3
ATOM      3  C   UNL A   1      32.792  36.180  30.641  1.00  0.00     0.325 C 
ATOM      4  O   UNL A   1      32.864  37.369  30.352  1.00  0.00    -0.250 OA
BRANCH   3   5
ATOM      5  C   UNL A   1      33.015  35.656  32.062  1.00  0.00     0.240 C 
BRANCH   5   6
ATOM      6  N   UNL A   1      33.428  34.265  32.083  1.00  0.00    -0.327 N 
ATOM      7  O   UNL A   1      34.578  32.424  31.720  1.00  0.00    -0.248 OA
ATOM      8  C   UNL A   1      34.584  33.653  31.725  1.00  0.00     0.319 C 
ATOM      9  N   UNL A   1      35.674  34.470  31.498  1.00  0.00    -0.308 N 
ATOM     10  H   UNL A   1      32.738  33.649  32.421  1.00  0.00     0.166 HD
ATOM     11  H   UNL A   1      35.537  35.423  31.292  1.00  0.00     0.171 HD
BRANCH   9  12
ATOM     12  C   UNL A   1      36.995  33.942  31.563  1.00  0.00     0.046 A 
ATOM     13  C   UNL A   1      37.710  33.972  30.368  1.00  0.00     0.026 A 
ATOM     14  C   UNL A   1      37.698  33.863  32.766  1.00  0.00    -0.021 A 
ATOM     15  C   UNL A   1      39.070  34.274  30.408  1.00  0.00     0.002 A 
ATOM     16  C   UNL A   1      38.982  34.411  32.823  1.00  0.00    -0.043 A 
ATOM     17  C   UNL A   1      37.221  32.981  33.900  1.00  0.00     0.038 C 
ATOM     18  C   UNL A   1      39.674  34.605  31.625  1.00  0.00     0.004 A 
ATOM     19  C   UNL A   1      39.549  34.838  34.155  1.00  0.00     0.036 C 
ATOM     20  C   UNL A   1      38.106  33.054  35.151  1.00  0.00     0.005 C 
ATOM     21  C   UNL A   1      38.644  34.464  35.337  1.00  0.00     0.005 C 
ENDBRANCH   9  12
ENDBRANCH   5   6
ENDBRANCH   3   5
ENDBRANCH   2   3
ENDBRANCH   1   2
BRANCH   1  22
ATOM     22  C   UNL A   1      33.300  33.520  28.138  1.00  0.00     0.275 C 
BRANCH  22  23
ATOM     23  O   UNL A   1      34.568  32.838  28.105  1.00  0.00    -0.458 OA
BRANCH  23  24
ATOM     24  C   UNL A   1      34.495  31.490  28.130  1.00  0.00     0.338 C 
ATOM     25  O   UNL A   1      33.519  30.802  27.842  1.00  0.00    -0.246 OA
BRANCH  24  26
ATOM     26  C   UNL A   1      35.810  30.900  28.428  1.00  0.00     0.060 A 
ATOM     27  C   UNL A   1      35.839  29.814  29.308  1.00  0.00     0.016 A 
ATOM     28  C   UNL A   1      37.002  31.431  27.924  1.00  0.00     0.016 A 
ATOM     29  C   UNL A   1      37.055  29.270  29.706  1.00  0.00     0.010 A 
ATOM     30  C   UNL A   1      38.227  30.877  28.321  1.00  0.00     0.010 A 
ATOM     31  C   UNL A   1      38.261  29.807  29.230  1.00  0.00    -0.014 A 
BRANCH  31  32
ATOM     32  C   UNL A   1      39.537  29.245  29.737  1.00  0.00     0.031 A 
ATOM     33  C   UNL A   1      40.144  29.769  31.008  1.00  0.00     0.074 A 
ATOM     34  C   UNL A   1      40.105  28.204  29.101  1.00  0.00     0.049 A 
ATOM     35  N   UNL A   1      41.185  29.324  31.668  1.00  0.00    -0.248 NA
ATOM     36  C   UNL A   1      39.497  30.938  31.618  1.00  0.00     0.031 C 
ATOM     37  C   UNL A   1      39.603  27.593  27.870  1.00  0.00     0.029 A 
ATOM     38  N   UNL A   1      41.212  27.460  29.420  1.00  0.00    -0.354 N 
ATOM     39  C   UNL A   1      41.317  30.159  32.770  1.00  0.00     0.074 A 
ATOM     40  C   UNL A   1      40.271  31.154  32.673  1.00  0.00     0.031 C 
ATOM     41  C   UNL A   1      40.382  26.545  27.555  1.00  0.00     0.029 A 
ATOM     42  C   UNL A   1      41.448  26.428  28.545  1.00  0.00     0.049 A 
ATOM     43  H   UNL A   1      41.782  27.648  30.199  1.00  0.00     0.167 HD
ATOM     44  C   UNL A   1      42.221  30.098  33.778  1.00  0.00     0.031 A 
ATOM     45  C   UNL A   1      42.410  25.487  28.546  1.00  0.00     0.031 A 
ATOM     46  C   UNL A   1      43.270  29.117  33.876  1.00  0.00     0.049 A 
ATOM     47  C   UNL A   1      43.421  25.461  29.658  1.00  0.00     0.074 A 
ATOM     48  C   UNL A   1      44.228  28.972  34.866  1.00  0.00     0.029 A 
ATOM     49  N   UNL A   1      43.504  28.116  32.946  1.00  0.00    -0.354 N 
ATOM     50  N   UNL A   1      43.512  26.237  30.710  1.00  0.00    -0.248 NA
ATOM     51  C   UNL A   1      44.452  24.416  29.587  1.00  0.00     0.031 C 
ATOM     52  C   UNL A   1      45.066  27.907  34.513  1.00  0.00     0.029 A 
ATOM     53  C   UNL A   1      44.600  27.359  33.329  1.00  0.00     0.049 A 
ATOM     54  H   UNL A   1      42.969  27.964  32.132  1.00  0.00     0.167 HD
ATOM     55  C   UNL A   1      44.596  25.762  31.437  1.00  0.00     0.074 A 
ATOM     56  C   UNL A   1      45.117  24.619  30.716  1.00  0.00     0.031 C 
ATOM     57  C   UNL A   1      45.114  26.231  32.599  1.00  0.00     0.031 A 
BRANCH  44  58
ATOM     58  C   UNL A   1      42.127  31.146  34.851  1.00  0.00    -0.014 A 
ATOM     59  C   UNL A   1      42.797  32.374  34.728  1.00  0.00     0.009 A 
ATOM     60  C   UNL A   1      41.333  30.914  35.985  1.00  0.00     0.009 A 
ATOM     61  C   UNL A   1      42.698  33.335  35.737  1.00  0.00     0.001 A 
ATOM     62  C   UNL A   1      41.217  31.887  36.979  1.00  0.00     0.001 A 
ATOM     63  C   UNL A   1      41.905  33.093  36.858  1.00  0.00     0.000 A 
ENDBRANCH  44  58
BRANCH  45  64
ATOM     64  C   UNL A   1      42.458  24.477  27.458  1.00  0.00    -0.014 A 
ATOM     65  C   UNL A   1      41.785  23.253  27.588  1.00  0.00     0.009 A 
ATOM     66  C   UNL A   1      43.187  24.732  26.286  1.00  0.00     0.009 A 
ATOM     67  C   UNL A   1      41.859  22.296  26.574  1.00  0.00     0.001 A 
ATOM     68  C   UNL A   1      43.237  23.783  25.263  1.00  0.00     0.001 A 
ATOM     69  C   UNL A   1      42.581  22.564  25.412  1.00  0.00     0.000 A 
ENDBRANCH  45  64
BRANCH  57  70
ATOM     70  C   UNL A   1      46.286  25.485  33.172  1.00  0.00    -0.014 A 
ATOM     71  C   UNL A   1      46.105  24.437  34.089  1.00  0.00     0.009 A 
ATOM     72  C   UNL A   1      47.588  25.828  32.779  1.00  0.00     0.009 A 
ATOM     73  C   UNL A   1      47.209  23.777  34.632  1.00  0.00     0.001 A 
ATOM     74  C   UNL A   1      48.689  25.149  33.304  1.00  0.00     0.001 A 
ATOM     75  C   UNL A   1      48.499  24.132  34.238  1.00  0.00     0.000 A 
ENDBRANCH  57  70
ENDBRANCH  31  32
ENDBRANCH  24  26
ENDBRANCH  23  24
ENDBRANCH  22  23
ENDBRANCH   1  22
TORSDOF 13
ENDMDL
MODEL 2
REMARK VINA RESULT:      -9.4      5.595     10.587
REMARK SMILES O=C(NCC(=O)OCCOC(=O)c1ccc(-c2c3nc(c(-c4ccccc4)c4ccc([nH]4)c(-c4ccccc4)c4nc(c(-c5ccccc5)c5ccc2[nH]5)C=C4)C=C3)cc1)Nc1cccc2c1CCCC2
REMARK SMILES IDX 8 1 7 2 5 3 6 4 4 5 3 6 1 7 2 8 61 9 62 12 63 13 67 14 64 15
REMARK SMILES IDX 66 16 68 17 65 18 71 19 69 20 70 21 9 22 10 23 11 24 12 25
REMARK SMILES IDX 13 26 14 27 60 28 15 29 59 30 16 31 17 32 18 33 53 34 19 35
REMARK SMILES IDX 58 36 52 37 54 38 20 39 57 40 51 41 50 42 21 44 43 45 28 46
REMARK SMILES IDX 42 47 29 48 32 49 41 50 55 51 30 52 31 53 40 55 56 56 33 57
REMARK SMILES IDX 22 58 23 59 27 60 24 61 26 62 25 63 44 64 45 65 49 66 46 67
REMARK SMILES IDX 48 68 47 69 34 70 35 71 39 72 36 73 38 74 37 75
REMARK H PARENT 3 10 61 11 54 43 32 54
REMARK Flexibility Score: inf
ROOT
ATOM      1  C   UNL A   1      35.396  21.214  25.016  1.00  0.00     0.274 C 
ENDROOT
BRANCH   1   2
ATOM      2  O   UNL A   1      34.364  20.257  24.713  1.00  0.00    -0.461 OA
BRANCH   2   3
ATOM      3  C   UNL A   1      33.242  20.278  25.485  1.00  0.00     0.325 C 
ATOM      4  O   UNL A   1      32.175  19.752  25.191  1.00  0.00    -0.250 OA
BRANCH   3   5
ATOM      5  C   UNL A   1      33.461  21.032  26.799  1.00  0.00     0.240 C 
BRANCH   5   6
ATOM      6  N   UNL A   1      32.345  21.895  27.139  1.00  0.00    -0.327 N 
ATOM      7  O   UNL A   1      31.098  23.691  27.392  1.00  0.00    -0.248 OA
ATOM      8  C   UNL A   1      32.061  23.184  26.823  1.00  0.00     0.319 C 
ATOM      9  N   UNL A   1      32.822  23.759  25.824  1.00  0.00    -0.308 N 
ATOM     10  H   UNL A   1      31.666  21.464  27.706  1.00  0.00     0.166 HD
ATOM     11  H   UNL A   1      33.703  23.379  25.599  1.00  0.00     0.171 HD
BRANCH   9  12
ATOM     12  C   UNL A   1      32.341  24.898  25.119  1.00  0.00     0.046 A 
ATOM     13  C   UNL A   1      31.284  24.657  24.244  1.00  0.00     0.026 A 
ATOM     14  C   UNL A   1      32.538  26.196  25.593  1.00  0.00    -0.021 A 
ATOM     15  C   UNL A   1      30.266  25.604  24.145  1.00  0.00     0.002 A 
ATOM     16  C   UNL A   1      31.429  27.037  25.710  1.00  0.00    -0.043 A 
ATOM     17  C   UNL A   1      33.927  26.783  25.722  1.00  0.00     0.038 C 
ATOM     18  C   UNL A   1      30.287  26.736  24.965  1.00  0.00     0.004 A 
ATOM     19  C   UNL A   1      31.472  28.192  26.681  1.00  0.00     0.036 C 
ATOM     20  C   UNL A   1      33.943  28.207  26.293  1.00  0.00     0.005 C 
ATOM     21  C   UNL A   1      32.849  28.371  27.336  1.00  0.00     0.005 C 
ENDBRANCH   9  12
ENDBRANCH   5   6
ENDBRANCH   3   5
ENDBRANCH   2   3
ENDBRANCH   1   2
BRANCH   1  22
ATOM     22  C   UNL A   1      36.777  20.556  25.084  1.00  0.00     0.275 C 
BRANCH  22  23
ATOM     23  O   UNL A   1      37.843  21.525  25.088  1.00  0.00    -0.458 OA
BRANCH  23  24
ATOM     24  C   UNL A   1      38.910  21.201  25.850  1.00  0.00     0.338 C 
ATOM     25  O   UNL A   1      39.416  20.088  25.969  1.00  0.00    -0.246 OA
BRANCH  24  26
ATOM     26  C   UNL A   1      39.510  22.403  26.450  1.00  0.00     0.060 A 
ATOM     27  C   UNL A   1      39.008  23.642  26.040  1.00  0.00     0.016 A 
ATOM     28  C   UNL A   1      40.587  22.339  27.340  1.00  0.00     0.016 A 
ATOM     29  C   UNL A   1      39.593  24.818  26.496  1.00  0.00     0.010 A 
ATOM     30  C   UNL A   1      41.172  23.525  27.805  1.00  0.00     0.010 A 
ATOM     31  C   UNL A   1      40.691  24.771  27.369  1.00  0.00    -0.014 A 
BRANCH  31  32
ATOM     32  C   UNL A   1      41.332  26.046  27.773  1.00  0.00     0.031 A 
ATOM     33  C   UNL A   1      42.673  26.431  27.216  1.00  0.00     0.074 A 
ATOM     34  C   UNL A   1      40.667  26.900  28.573  1.00  0.00     0.049 A 
ATOM     35  N   UNL A   1      43.333  27.554  27.357  1.00  0.00    -0.248 NA
ATOM     36  C   UNL A   1      43.360  25.427  26.391  1.00  0.00     0.031 C 
ATOM     37  C   UNL A   1      39.351  26.653  29.162  1.00  0.00     0.029 A 
ATOM     38  N   UNL A   1      40.998  28.161  29.003  1.00  0.00    -0.354 N 
ATOM     39  C   UNL A   1      44.512  27.391  26.639  1.00  0.00     0.074 A 
ATOM     40  C   UNL A   1      44.490  26.053  26.091  1.00  0.00     0.031 C 
ATOM     41  C   UNL A   1      38.971  27.742  29.852  1.00  0.00     0.029 A 
ATOM     42  C   UNL A   1      40.024  28.749  29.773  1.00  0.00     0.049 A 
ATOM     43  H   UNL A   1      41.850  28.600  28.782  1.00  0.00     0.167 HD
ATOM     44  C   UNL A   1      45.517  28.280  26.446  1.00  0.00     0.031 A 
ATOM     45  C   UNL A   1      39.982  29.967  30.343  1.00  0.00     0.031 A 
ATOM     46  C   UNL A   1      45.549  29.610  26.996  1.00  0.00     0.049 A 
ATOM     47  C   UNL A   1      41.124  30.922  30.139  1.00  0.00     0.074 A 
ATOM     48  C   UNL A   1      46.522  30.583  26.846  1.00  0.00     0.029 A 
ATOM     49  N   UNL A   1      44.565  30.152  27.808  1.00  0.00    -0.354 N 
ATOM     50  N   UNL A   1      42.216  30.765  29.432  1.00  0.00    -0.248 NA
ATOM     51  C   UNL A   1      41.018  32.228  30.805  1.00  0.00     0.031 C 
ATOM     52  C   UNL A   1      46.146  31.701  27.602  1.00  0.00     0.029 A 
ATOM     53  C   UNL A   1      44.915  31.440  28.182  1.00  0.00     0.049 A 
ATOM     54  H   UNL A   1      43.739  29.689  28.080  1.00  0.00     0.167 HD
ATOM     55  C   UNL A   1      42.916  31.959  29.548  1.00  0.00     0.074 A 
ATOM     56  C   UNL A   1      42.116  32.836  30.378  1.00  0.00     0.031 C 
ATOM     57  C   UNL A   1      44.115  32.298  29.014  1.00  0.00     0.031 A 
BRANCH  44  58
ATOM     58  C   UNL A   1      46.684  27.827  25.616  1.00  0.00    -0.014 A 
ATOM     59  C   UNL A   1      47.805  27.223  26.207  1.00  0.00     0.009 A 
ATOM     60  C   UNL A   1      46.649  27.977  24.221  1.00  0.00     0.009 A 
ATOM     61  C   UNL A   1      48.882  26.809  25.419  1.00  0.00     0.001 A 
ATOM     62  C   UNL A   1      47.716  27.539  23.434  1.00  0.00     0.001 A 
ATOM     63  C   UNL A   1      48.835  26.963  24.034  1.00  0.00     0.000 A 
ENDBRANCH  44  58
BRANCH  45  64
ATOM     64  C   UNL A   1      38.804  30.362  31.157  1.00  0.00    -0.014 A 
ATOM     65  C   UNL A   1      37.689  30.966  30.556  1.00  0.00     0.009 A 
ATOM     66  C   UNL A   1      38.794  30.142  32.543  1.00  0.00     0.009 A 
ATOM     67  C   UNL A   1      36.597  31.361  31.331  1.00  0.00     0.001 A 
ATOM     68  C   UNL A   1      37.690  30.516  33.311  1.00  0.00     0.001 A 
ATOM     69  C   UNL A   1      36.597  31.132  32.706  1.00  0.00     0.000 A 
ENDBRANCH  45  64
BRANCH  57  70
ATOM     70  C   UNL A   1      44.614  33.689  29.291  1.00  0.00    -0.014 A 
ATOM     71  C   UNL A   1      45.431  33.962  30.400  1.00  0.00     0.009 A 
ATOM     72  C   UNL A   1      44.271  34.737  28.424  1.00  0.00     0.009 A 
ATOM     73  C   UNL A   1      45.858  35.266  30.657  1.00  0.00     0.001 A 
ATOM     74  C   UNL A   1      44.721  36.035  28.669  1.00  0.00     0.001 A 
ATOM     75  C   UNL A   1      45.505  36.301  29.791  1.00  0.00     0.000 A 
ENDBRANCH  57  70
ENDBRANCH  31  32
ENDBRANCH  24  26
ENDBRANCH  23  24
ENDBRANCH  22  23
ENDBRANCH   1  22
TORSDOF 13
ENDMDL
MODEL 3
REMARK VINA RESULT:      -9.2      0.516      6.106
REMARK SMILES O=C(NCC(=O)OCCOC(=O)c1ccc(-c2c3nc(c(-c4ccccc4)c4ccc([nH]4)c(-c4ccccc4)c4nc(c(-c5ccccc5)c5ccc2[nH]5)C=C4)C=C3)cc1)Nc1cccc2c1CCCC2
REMARK SMILES IDX 8 1 7 2 5 3 6 4 4 5 3 6 1 7 2 8 61 9 62 12 63 13 67 14 64 15
REMARK SMILES IDX 66 16 68 17 65 18 71 19 69 20 70 21 9 22 10 23 11 24 12 25
REMARK SMILES IDX 13 26 14 27 60 28 15 29 59 30 16 31 17 32 18 33 53 34 19 35
REMARK SMILES IDX 58 36 52 37 54 38 20 39 57 40 51 41 50 42 21 44 43 45 28 46
REMARK SMILES IDX 42 47 29 48 32 49 41 50 55 51 30 52 31 53 40 55 56 56 33 57
REMARK SMILES IDX 22 58 23 59 27 60 24 61 26 62 25 63 44 64 45 65 49 66 46 67
REMARK SMILES IDX 48 68 47 69 34 70 35 71 39 72 36 73 38 74 37 75
REMARK H PARENT 3 10 61 11 54 43 32 54
REMARK Flexibility Score: inf
ROOT
ATOM      1  C   UNL A   1      33.445  34.631  28.636  1.00  0.00     0.274 C 
ENDROOT
BRANCH   1   2
ATOM      2  O   UNL A   1      32.653  34.927  29.801  1.00  0.00    -0.461 OA
BRANCH   2   3
ATOM      3  C   UNL A   1      32.928  36.083  30.469  1.00  0.00     0.325 C 
ATOM      4  O   UNL A   1      32.900  37.204  29.975  1.00  0.00    -0.250 OA
BRANCH   3   5
ATOM      5  C   UNL A   1      33.266  35.832  31.940  1.00  0.00     0.240 C 
BRANCH   5   6
ATOM      6  N   UNL A   1      33.631  34.451  32.199  1.00  0.00    -0.327 N 
ATOM      7  O   UNL A   1      34.733  32.546  32.181  1.00  0.00    -0.248 OA
ATOM      8  C   UNL A   1      34.779  33.759  31.992  1.00  0.00     0.319 C 
ATOM      9  N   UNL A   1      35.904  34.501  31.686  1.00  0.00    -0.308 N 
ATOM     10  H   UNL A   1      32.909  33.916  32.601  1.00  0.00     0.166 HD
ATOM     11  H   UNL A   1      35.806  35.412  31.326  1.00  0.00     0.171 HD
BRANCH   9  12
ATOM     12  C   UNL A   1      37.203  33.955  31.890  1.00  0.00     0.046 A 
ATOM     13  C   UNL A   1      38.010  33.894  30.756  1.00  0.00     0.026 A 
ATOM     14  C   UNL A   1      37.807  33.944  33.148  1.00  0.00    -0.021 A 
ATOM     15  C   UNL A   1      39.369  34.174  30.885  1.00  0.00     0.002 A 
ATOM     16  C   UNL A   1      39.095  34.471  33.272  1.00  0.00    -0.043 A 
ATOM     17  C   UNL A   1      37.222  33.147  34.294  1.00  0.00     0.038 C 
ATOM     18  C   UNL A   1      39.883  34.574  32.123  1.00  0.00     0.004 A 
ATOM     19  C   UNL A   1      39.565  34.975  34.615  1.00  0.00     0.036 C 
ATOM     20  C   UNL A   1      38.007  33.287  35.605  1.00  0.00     0.005 C 
ATOM     21  C   UNL A   1      38.561  34.696  35.743  1.00  0.00     0.005 C 
ENDBRANCH   9  12
ENDBRANCH   5   6
ENDBRANCH   3   5
ENDBRANCH   2   3
ENDBRANCH   1   2
BRANCH   1  22
ATOM     22  C   UNL A   1      34.344  33.412  28.858  1.00  0.00     0.275 C 
BRANCH  22  23
ATOM     23  O   UNL A   1      34.570  32.673  27.641  1.00  0.00    -0.458 OA
BRANCH  23  24
ATOM     24  C   UNL A   1      34.400  31.337  27.743  1.00  0.00     0.338 C 
ATOM     25  O   UNL A   1      33.407  30.695  27.409  1.00  0.00    -0.246 OA
BRANCH  24  26
ATOM     26  C   UNL A   1      35.639  30.685  28.198  1.00  0.00     0.060 A 
ATOM     27  C   UNL A   1      35.558  29.885  29.341  1.00  0.00     0.016 A 
ATOM     28  C   UNL A   1      36.872  30.899  27.573  1.00  0.00     0.016 A 
ATOM     29  C   UNL A   1      36.708  29.317  29.879  1.00  0.00     0.010 A 
ATOM     30  C   UNL A   1      38.029  30.320  28.111  1.00  0.00     0.010 A 
ATOM     31  C   UNL A   1      37.956  29.543  29.279  1.00  0.00    -0.014 A 
BRANCH  31  32
ATOM     32  C   UNL A   1      39.167  28.980  29.926  1.00  0.00     0.031 A 
ATOM     33  C   UNL A   1      39.901  27.832  29.294  1.00  0.00     0.074 A 
ATOM     34  C   UNL A   1      39.656  29.559  31.038  1.00  0.00     0.049 A 
ATOM     35  N   UNL A   1      41.039  27.287  29.646  1.00  0.00    -0.248 NA
ATOM     36  C   UNL A   1      39.279  27.219  28.112  1.00  0.00     0.031 C 
ATOM     37  C   UNL A   1      39.048  30.692  31.737  1.00  0.00     0.029 A 
ATOM     38  N   UNL A   1      40.794  29.292  31.757  1.00  0.00    -0.354 N 
ATOM     39  C   UNL A   1      41.269  26.268  28.730  1.00  0.00     0.074 A 
ATOM     40  C   UNL A   1      40.139  26.250  27.827  1.00  0.00     0.031 C 
ATOM     41  C   UNL A   1      39.836  31.044  32.766  1.00  0.00     0.029 A 
ATOM     42  C   UNL A   1      40.988  30.148  32.813  1.00  0.00     0.049 A 
ATOM     43  H   UNL A   1      41.410  28.557  31.537  1.00  0.00     0.167 HD
ATOM     44  C   UNL A   1      42.331  25.430  28.642  1.00  0.00     0.031 A 
ATOM     45  C   UNL A   1      41.987  30.210  33.712  1.00  0.00     0.031 A 
ATOM     46  C   UNL A   1      43.454  25.436  29.543  1.00  0.00     0.049 A 
ATOM     47  C   UNL A   1      43.137  29.247  33.612  1.00  0.00     0.074 A 
ATOM     48  C   UNL A   1      44.579  24.629  29.526  1.00  0.00     0.029 A 
ATOM     49  N   UNL A   1      43.591  26.289  30.628  1.00  0.00    -0.354 N 
ATOM     50  N   UNL A   1      43.355  28.312  32.720  1.00  0.00    -0.248 NA
ATOM     51  C   UNL A   1      44.183  29.362  34.637  1.00  0.00     0.031 C 
ATOM     52  C   UNL A   1      45.378  24.967  30.626  1.00  0.00     0.029 A 
ATOM     53  C   UNL A   1      44.773  26.017  31.298  1.00  0.00     0.049 A 
ATOM     54  H   UNL A   1      42.943  26.985  30.884  1.00  0.00     0.167 HD
ATOM     55  C   UNL A   1      44.574  27.741  33.064  1.00  0.00     0.074 A 
ATOM     56  C   UNL A   1      45.056  28.449  34.232  1.00  0.00     0.031 C 
ATOM     57  C   UNL A   1      45.236  26.722  32.463  1.00  0.00     0.031 A 
BRANCH  44  58
ATOM     58  C   UNL A   1      42.313  24.412  27.538  1.00  0.00    -0.014 A 
ATOM     59  C   UNL A   1      42.943  24.662  26.308  1.00  0.00     0.009 A 
ATOM     60  C   UNL A   1      41.684  23.173  27.739  1.00  0.00     0.009 A 
ATOM     61  C   UNL A   1      42.915  23.704  25.292  1.00  0.00     0.001 A 
ATOM     62  C   UNL A   1      41.679  22.209  26.731  1.00  0.00     0.001 A 
ATOM     63  C   UNL A   1      42.287  22.477  25.506  1.00  0.00     0.000 A 
ENDBRANCH  44  58
BRANCH  45  64
ATOM     64  C   UNL A   1      41.952  31.235  34.787  1.00  0.00    -0.014 A 
ATOM     65  C   UNL A   1      42.648  32.445  34.644  1.00  0.00     0.009 A 
ATOM     66  C   UNL A   1      41.226  31.002  35.965  1.00  0.00     0.009 A 
ATOM     67  C   UNL A   1      42.635  33.392  35.671  1.00  0.00     0.001 A 
ATOM     68  C   UNL A   1      41.195  31.961  36.979  1.00  0.00     0.001 A 
ATOM     69  C   UNL A   1      41.906  33.150  36.835  1.00  0.00     0.000 A 
ENDBRANCH  45  64
BRANCH  57  70
ATOM     70  C   UNL A   1      46.566  26.336  33.048  1.00  0.00    -0.014 A 
ATOM     71  C   UNL A   1      47.758  26.929  32.602  1.00  0.00     0.009 A 
ATOM     72  C   UNL A   1      46.624  25.374  34.068  1.00  0.00     0.009 A 
ATOM     73  C   UNL A   1      48.985  26.533  33.138  1.00  0.00     0.001 A 
ATOM     74  C   UNL A   1      47.850  25.000  34.620  1.00  0.00     0.001 A 
ATOM     75  C   UNL A   1      49.030  25.572  34.147  1.00  0.00     0.000 A 
ENDBRANCH  57  70
ENDBRANCH  31  32
ENDBRANCH  24  26
ENDBRANCH  23  24
ENDBRANCH  22  23
ENDBRANCH   1  22
TORSDOF 13
ENDMDL
