MODEL 1
REMARK VINA RESULT:     -10.7      0.000      0.000
REMARK SMILES COc1cccc(NC(=O)c2nccnc2C(=O)OCCOC(=O)c2ccc(-c3c4nc(c(-c5ccccc5)c5ccc([nH]5)c(-c5ccccc5)c5nc(c(-c6ccccc6)c6ccc3[nH]6)C=C5)C=C4)cc2)c1
REMARK SMILES IDX 20 1 19 2 17 3 18 4 16 5 11 6 12 7 13 8 15 9 14 10 9 11 8 12
REMARK SMILES IDX 10 14 7 15 3 16 4 17 73 18 5 19 6 20 2 21 1 22 21 23 22 24
REMARK SMILES IDX 23 25 24 26 25 27 26 28 72 29 27 30 71 31 28 32 29 33 30 34
REMARK SMILES IDX 65 35 31 36 70 37 64 38 66 39 32 40 69 41 63 42 62 43 33 45
REMARK SMILES IDX 55 46 40 47 54 48 41 49 44 50 53 51 67 52 42 53 43 54 52 56
REMARK SMILES IDX 68 57 45 58 34 59 35 60 39 61 36 62 38 63 37 64 56 65 57 66
REMARK SMILES IDX 61 67 58 68 60 69 59 70 46 71 47 72 51 73 48 74 50 75 49 76
REMARK H PARENT 8 13 66 44 44 55
REMARK Flexibility Score: inf
ROOT
ATOM      1  C   UNL A   1      38.815  21.160  25.433  1.00  0.00     0.275 C 
ENDROOT
BRANCH   1   2
ATOM      2  O   UNL A   1      37.477  21.277  25.955  1.00  0.00    -0.457 OA
BRANCH   2   3
ATOM      3  C   UNL A   1      36.480  20.828  25.153  1.00  0.00     0.359 C 
ATOM      4  O   UNL A   1      36.319  19.665  24.810  1.00  0.00    -0.244 OA
BRANCH   3   5
ATOM      5  C   UNL A   1      35.495  21.898  24.827  1.00  0.00     0.179 A 
ATOM      6  C   UNL A   1      34.276  22.084  25.460  1.00  0.00     0.161 A 
ATOM      7  N   UNL A   1      33.445  23.130  25.138  1.00  0.00    -0.247 NA
ATOM      8  C   UNL A   1      33.848  23.929  24.128  1.00  0.00     0.132 A 
ATOM      9  N   UNL A   1      35.892  22.733  23.809  1.00  0.00    -0.245 NA
ATOM     10  C   UNL A   1      35.044  23.729  23.470  1.00  0.00     0.132 A 
BRANCH   6  11
ATOM     11  C   UNL A   1      33.820  21.241  26.586  1.00  0.00     0.276 C 
ATOM     12  N   UNL A   1      33.192  20.026  26.384  1.00  0.00    -0.320 N 
ATOM     13  H   UNL A   1      32.797  19.646  27.203  1.00  0.00     0.170 HD
ATOM     14  O   UNL A   1      33.909  21.688  27.732  1.00  0.00    -0.267 OA
BRANCH  12  15
ATOM     15  C   UNL A   1      33.005  19.221  25.240  1.00  0.00     0.045 A 
ATOM     16  C   UNL A   1      33.064  16.957  24.329  1.00  0.00     0.120 A 
ATOM     17  C   UNL A   1      32.577  17.441  23.116  1.00  0.00     0.046 A 
ATOM     18  C   UNL A   1      33.278  17.849  25.385  1.00  0.00     0.072 A 
ATOM     19  C   UNL A   1      32.352  18.803  22.942  1.00  0.00     0.006 A 
ATOM     20  C   UNL A   1      32.592  19.691  23.993  1.00  0.00     0.026 A 
BRANCH  16  21
ATOM     21  O   UNL A   1      33.280  15.607  24.356  1.00  0.00    -0.497 OA
ATOM     22  C   UNL A   1      32.757  14.891  25.467  1.00  0.00     0.278 C 
ENDBRANCH  16  21
ENDBRANCH  12  15
ENDBRANCH   6  11
ENDBRANCH   3   5
ENDBRANCH   2   3
ENDBRANCH   1   2
BRANCH   1  23
ATOM     23  C   UNL A   1      39.330  19.723  25.544  1.00  0.00     0.275 C 
BRANCH  23  24
ATOM     24  O   UNL A   1      40.392  19.607  26.510  1.00  0.00    -0.458 OA
BRANCH  24  25
ATOM     25  C   UNL A   1      41.625  19.891  26.030  1.00  0.00     0.338 C 
ATOM     26  O   UNL A   1      42.265  19.261  25.204  1.00  0.00    -0.246 OA
BRANCH  25  27
ATOM     27  C   UNL A   1      42.074  21.194  26.542  1.00  0.00     0.060 A 
ATOM     28  C   UNL A   1      41.978  21.402  27.920  1.00  0.00     0.016 A 
ATOM     29  C   UNL A   1      42.494  22.223  25.699  1.00  0.00     0.016 A 
ATOM     30  C   UNL A   1      42.284  22.643  28.464  1.00  0.00     0.010 A 
ATOM     31  C   UNL A   1      42.808  23.473  26.248  1.00  0.00     0.010 A 
ATOM     32  C   UNL A   1      42.691  23.694  27.632  1.00  0.00    -0.014 A 
BRANCH  32  33
ATOM     33  C   UNL A   1      42.942  25.029  28.226  1.00  0.00     0.031 A 
ATOM     34  C   UNL A   1      44.334  25.426  28.626  1.00  0.00     0.074 A 
ATOM     35  C   UNL A   1      41.927  25.905  28.357  1.00  0.00     0.049 A 
ATOM     36  N   UNL A   1      44.747  26.530  29.196  1.00  0.00    -0.248 NA
ATOM     37  C   UNL A   1      45.406  24.455  28.348  1.00  0.00     0.031 C 
ATOM     38  C   UNL A   1      40.541  25.660  27.956  1.00  0.00     0.029 A 
ATOM     39  N   UNL A   1      41.912  27.183  28.857  1.00  0.00    -0.354 N 
ATOM     40  C   UNL A   1      46.117  26.377  29.368  1.00  0.00     0.074 A 
ATOM     41  C   UNL A   1      46.466  25.072  28.851  1.00  0.00     0.031 C 
ATOM     42  C   UNL A   1      39.812  26.758  28.214  1.00  0.00     0.029 A 
ATOM     43  C   UNL A   1      40.666  27.761  28.842  1.00  0.00     0.049 A 
ATOM     44  H   UNL A   1      42.715  27.641  29.193  1.00  0.00     0.167 HD
ATOM     45  C   UNL A   1      47.002  27.248  29.910  1.00  0.00     0.031 A 
ATOM     46  C   UNL A   1      40.253  28.955  29.308  1.00  0.00     0.031 A 
ATOM     47  C   UNL A   1      46.659  28.551  30.414  1.00  0.00     0.049 A 
ATOM     48  C   UNL A   1      41.248  29.878  29.953  1.00  0.00     0.074 A 
ATOM     49  C   UNL A   1      47.491  29.506  30.972  1.00  0.00     0.029 A 
ATOM     50  N   UNL A   1      45.379  29.082  30.418  1.00  0.00    -0.354 N 
ATOM     51  N   UNL A   1      42.539  29.718  30.115  1.00  0.00    -0.248 NA
ATOM     52  C   UNL A   1      40.726  31.146  30.483  1.00  0.00     0.031 C 
ATOM     53  C   UNL A   1      46.707  30.600  31.353  1.00  0.00     0.029 A 
ATOM     54  C   UNL A   1      45.395  30.344  30.988  1.00  0.00     0.049 A 
ATOM     55  H   UNL A   1      44.578  28.630  30.067  1.00  0.00     0.167 HD
ATOM     56  C   UNL A   1      42.986  30.868  30.749  1.00  0.00     0.074 A 
ATOM     57  C   UNL A   1      41.833  31.727  30.925  1.00  0.00     0.031 C 
ATOM     58  C   UNL A   1      44.239  31.184  31.155  1.00  0.00     0.031 A 
BRANCH  45  59
ATOM     59  C   UNL A   1      48.431  26.801  30.023  1.00  0.00    -0.014 A 
ATOM     60  C   UNL A   1      48.883  26.070  31.133  1.00  0.00     0.009 A 
ATOM     61  C   UNL A   1      49.327  27.076  28.978  1.00  0.00     0.009 A 
ATOM     62  C   UNL A   1      50.212  25.646  31.202  1.00  0.00     0.001 A 
ATOM     63  C   UNL A   1      50.648  26.631  29.040  1.00  0.00     0.001 A 
ATOM     64  C   UNL A   1      51.091  25.922  30.156  1.00  0.00     0.000 A 
ENDBRANCH  45  59
BRANCH  46  65
ATOM     65  C   UNL A   1      38.818  29.331  29.219  1.00  0.00    -0.014 A 
ATOM     66  C   UNL A   1      37.943  29.086  30.286  1.00  0.00     0.009 A 
ATOM     67  C   UNL A   1      38.315  29.926  28.051  1.00  0.00     0.009 A 
ATOM     68  C   UNL A   1      36.588  29.409  30.178  1.00  0.00     0.001 A 
ATOM     69  C   UNL A   1      36.966  30.273  27.956  1.00  0.00     0.001 A 
ATOM     70  C   UNL A   1      36.102  30.005  29.015  1.00  0.00     0.000 A 
ENDBRANCH  46  65
BRANCH  58  71
ATOM     71  C   UNL A   1      44.431  32.526  31.800  1.00  0.00    -0.014 A 
ATOM     72  C   UNL A   1      44.337  32.682  33.191  1.00  0.00     0.009 A 
ATOM     73  C   UNL A   1      44.745  33.642  31.007  1.00  0.00     0.009 A 
ATOM     74  C   UNL A   1      44.524  33.938  33.773  1.00  0.00     0.001 A 
ATOM     75  C   UNL A   1      44.955  34.889  31.594  1.00  0.00     0.001 A 
ATOM     76  C   UNL A   1      44.836  35.038  32.976  1.00  0.00     0.000 A 
ENDBRANCH  58  71
ENDBRANCH  32  33
ENDBRANCH  25  27
ENDBRANCH  24  25
ENDBRANCH  23  24
ENDBRANCH   1  23
TORSDOF 14
ENDMDL
MODEL 2
REMARK VINA RESULT:     -10.6      5.451     10.122
REMARK SMILES COc1cccc(NC(=O)c2nccnc2C(=O)OCCOC(=O)c2ccc(-c3c4nc(c(-c5ccccc5)c5ccc([nH]5)c(-c5ccccc5)c5nc(c(-c6ccccc6)c6ccc3[nH]6)C=C5)C=C4)cc2)c1
REMARK SMILES IDX 20 1 19 2 17 3 18 4 16 5 11 6 12 7 13 8 15 9 14 10 9 11 8 12
REMARK SMILES IDX 10 14 7 15 3 16 4 17 73 18 5 19 6 20 2 21 1 22 21 23 22 24
REMARK SMILES IDX 23 25 24 26 25 27 26 28 72 29 27 30 71 31 28 32 29 33 30 34
REMARK SMILES IDX 65 35 31 36 70 37 64 38 66 39 32 40 69 41 63 42 62 43 33 45
REMARK SMILES IDX 55 46 40 47 54 48 41 49 44 50 53 51 67 52 42 53 43 54 52 56
REMARK SMILES IDX 68 57 45 58 34 59 35 60 39 61 36 62 38 63 37 64 56 65 57 66
REMARK SMILES IDX 61 67 58 68 60 69 59 70 46 71 47 72 51 73 48 74 50 75 49 76
REMARK H PARENT 8 13 66 44 44 55
REMARK Flexibility Score: inf
ROOT
ATOM      1  C   UNL A   1      31.495  31.234  26.005  1.00  0.00     0.275 C 
ENDROOT
BRANCH   1   2
ATOM      2  O   UNL A   1      31.550  29.837  26.357  1.00  0.00    -0.457 OA
BRANCH   2   3
ATOM      3  C   UNL A   1      32.698  29.186  26.046  1.00  0.00     0.359 C 
ATOM      4  O   UNL A   1      33.826  29.574  26.318  1.00  0.00    -0.244 OA
BRANCH   3   5
ATOM      5  C   UNL A   1      32.440  27.850  25.439  1.00  0.00     0.179 A 
ATOM      6  C   UNL A   1      32.404  27.582  24.080  1.00  0.00     0.161 A 
ATOM      7  N   UNL A   1      32.215  26.309  23.598  1.00  0.00    -0.247 NA
ATOM      8  C   UNL A   1      31.998  25.344  24.516  1.00  0.00     0.132 A 
ATOM      9  N   UNL A   1      32.231  26.848  26.359  1.00  0.00    -0.245 NA
ATOM     10  C   UNL A   1      31.998  25.610  25.870  1.00  0.00     0.132 A 
BRANCH   6  11
ATOM     11  C   UNL A   1      32.662  28.612  23.052  1.00  0.00     0.276 C 
ATOM     12  N   UNL A   1      31.636  29.304  22.434  1.00  0.00    -0.320 N 
ATOM     13  H   UNL A   1      31.931  29.838  21.661  1.00  0.00     0.170 HD
ATOM     14  O   UNL A   1      33.819  28.781  22.662  1.00  0.00    -0.267 OA
BRANCH  12  15
ATOM     15  C   UNL A   1      30.251  29.396  22.690  1.00  0.00     0.045 A 
ATOM     16  C   UNL A   1      28.339  30.890  22.955  1.00  0.00     0.120 A 
ATOM     17  C   UNL A   1      27.500  29.785  23.070  1.00  0.00     0.046 A 
ATOM     18  C   UNL A   1      29.711  30.693  22.767  1.00  0.00     0.072 A 
ATOM     19  C   UNL A   1      28.027  28.497  23.048  1.00  0.00     0.006 A 
ATOM     20  C   UNL A   1      29.402  28.307  22.886  1.00  0.00     0.026 A 
BRANCH  16  21
ATOM     21  O   UNL A   1      27.701  32.098  23.032  1.00  0.00    -0.497 OA
ATOM     22  C   UNL A   1      28.492  33.261  22.825  1.00  0.00     0.278 C 
ENDBRANCH  16  21
ENDBRANCH  12  15
ENDBRANCH   6  11
ENDBRANCH   3   5
ENDBRANCH   2   3
ENDBRANCH   1   2
BRANCH   1  23
ATOM     23  C   UNL A   1      31.746  32.123  27.225  1.00  0.00     0.275 C 
BRANCH  23  24
ATOM     24  O   UNL A   1      32.482  33.312  26.878  1.00  0.00    -0.458 OA
BRANCH  24  25
ATOM     25  C   UNL A   1      33.005  33.979  27.933  1.00  0.00     0.338 C 
ATOM     26  O   UNL A   1      32.518  34.922  28.534  1.00  0.00    -0.246 OA
BRANCH  25  27
ATOM     27  C   UNL A   1      34.235  33.310  28.387  1.00  0.00     0.060 A 
ATOM     28  C   UNL A   1      34.097  32.041  28.950  1.00  0.00     0.016 A 
ATOM     29  C   UNL A   1      35.481  33.936  28.350  1.00  0.00     0.016 A 
ATOM     30  C   UNL A   1      35.198  31.392  29.496  1.00  0.00     0.010 A 
ATOM     31  C   UNL A   1      36.593  33.281  28.895  1.00  0.00     0.010 A 
ATOM     32  C   UNL A   1      36.454  32.011  29.484  1.00  0.00    -0.014 A 
BRANCH  32  33
ATOM     33  C   UNL A   1      37.600  31.333  30.136  1.00  0.00     0.031 A 
ATOM     34  C   UNL A   1      37.890  31.572  31.590  1.00  0.00     0.074 A 
ATOM     35  C   UNL A   1      38.349  30.460  29.434  1.00  0.00     0.049 A 
ATOM     36  N   UNL A   1      38.865  31.104  32.327  1.00  0.00    -0.248 NA
ATOM     37  C   UNL A   1      36.958  32.453  32.315  1.00  0.00     0.031 C 
ATOM     38  C   UNL A   1      38.137  30.101  28.032  1.00  0.00     0.029 A 
ATOM     39  N   UNL A   1      39.434  29.712  29.813  1.00  0.00    -0.354 N 
ATOM     40  C   UNL A   1      38.682  31.651  33.590  1.00  0.00     0.074 A 
ATOM     41  C   UNL A   1      37.507  32.492  33.521  1.00  0.00     0.031 C 
ATOM     42  C   UNL A   1      39.056  29.191  27.671  1.00  0.00     0.029 A 
ATOM     43  C   UNL A   1      39.949  28.942  28.799  1.00  0.00     0.049 A 
ATOM     44  H   UNL A   1      39.808  29.725  30.723  1.00  0.00     0.167 HD
ATOM     45  C   UNL A   1      39.427  31.468  34.706  1.00  0.00     0.031 A 
ATOM     46  C   UNL A   1      41.034  28.145  28.772  1.00  0.00     0.031 A 
ATOM     47  C   UNL A   1      40.588  30.622  34.780  1.00  0.00     0.049 A 
ATOM     48  C   UNL A   1      41.873  28.003  30.011  1.00  0.00     0.074 A 
ATOM     49  C   UNL A   1      41.402  30.368  35.871  1.00  0.00     0.029 A 
ATOM     50  N   UNL A   1      41.100  29.891  33.720  1.00  0.00    -0.354 N 
ATOM     51  N   UNL A   1      41.692  28.531  31.197  1.00  0.00    -0.248 NA
ATOM     52  C   UNL A   1      43.070  27.156  29.905  1.00  0.00     0.031 C 
ATOM     53  C   UNL A   1      42.431  29.514  35.459  1.00  0.00     0.029 A 
ATOM     54  C   UNL A   1      42.230  29.202  34.125  1.00  0.00     0.049 A 
ATOM     55  H   UNL A   1      40.717  29.866  32.813  1.00  0.00     0.167 HD
ATOM     56  C   UNL A   1      42.740  28.070  31.981  1.00  0.00     0.074 A 
ATOM     57  C   UNL A   1      43.542  27.203  31.143  1.00  0.00     0.031 C 
ATOM     58  C   UNL A   1      43.016  28.343  33.278  1.00  0.00     0.031 A 
BRANCH  45  59
ATOM     59  C   UNL A   1      39.031  32.232  35.936  1.00  0.00    -0.014 A 
ATOM     60  C   UNL A   1      39.494  33.536  36.169  1.00  0.00     0.009 A 
ATOM     61  C   UNL A   1      38.140  31.651  36.854  1.00  0.00     0.009 A 
ATOM     62  C   UNL A   1      39.090  34.234  37.310  1.00  0.00     0.001 A 
ATOM     63  C   UNL A   1      37.721  32.360  37.981  1.00  0.00     0.001 A 
ATOM     64  C   UNL A   1      38.202  33.648  38.211  1.00  0.00     0.000 A 
ENDBRANCH  45  59
BRANCH  46  65
ATOM     65  C   UNL A   1      41.415  27.449  27.516  1.00  0.00    -0.014 A 
ATOM     66  C   UNL A   1      40.982  26.141  27.259  1.00  0.00     0.009 A 
ATOM     67  C   UNL A   1      42.233  28.092  26.573  1.00  0.00     0.009 A 
ATOM     68  C   UNL A   1      41.378  25.482  26.092  1.00  0.00     0.001 A 
ATOM     69  C   UNL A   1      42.604  27.441  25.395  1.00  0.00     0.001 A 
ATOM     70  C   UNL A   1      42.185  26.134  25.160  1.00  0.00     0.000 A 
ENDBRANCH  46  65
BRANCH  58  71
ATOM     71  C   UNL A   1      44.219  27.674  33.877  1.00  0.00    -0.014 A 
ATOM     72  C   UNL A   1      45.475  28.299  33.872  1.00  0.00     0.009 A 
ATOM     73  C   UNL A   1      44.085  26.415  34.485  1.00  0.00     0.009 A 
ATOM     74  C   UNL A   1      46.581  27.661  34.438  1.00  0.00     0.001 A 
ATOM     75  C   UNL A   1      45.187  25.792  35.071  1.00  0.00     0.001 A 
ATOM     76  C   UNL A   1      46.436  26.413  35.041  1.00  0.00     0.000 A 
ENDBRANCH  58  71
ENDBRANCH  32  33
ENDBRANCH  25  27
ENDBRANCH  24  25
ENDBRANCH  23  24
ENDBRANCH   1  23
TORSDOF 14
ENDMDL
MODEL 3
REMARK VINA RESULT:     -10.6      2.257      7.447
REMARK SMILES COc1cccc(NC(=O)c2nccnc2C(=O)OCCOC(=O)c2ccc(-c3c4nc(c(-c5ccccc5)c5ccc([nH]5)c(-c5ccccc5)c5nc(c(-c6ccccc6)c6ccc3[nH]6)C=C5)C=C4)cc2)c1
REMARK SMILES IDX 20 1 19 2 17 3 18 4 16 5 11 6 12 7 13 8 15 9 14 10 9 11 8 12
REMARK SMILES IDX 10 14 7 15 3 16 4 17 73 18 5 19 6 20 2 21 1 22 21 23 22 24
REMARK SMILES IDX 23 25 24 26 25 27 26 28 72 29 27 30 71 31 28 32 29 33 30 34
REMARK SMILES IDX 65 35 31 36 70 37 64 38 66 39 32 40 69 41 63 42 62 43 33 45
REMARK SMILES IDX 55 46 40 47 54 48 41 49 44 50 53 51 67 52 42 53 43 54 52 56
REMARK SMILES IDX 68 57 45 58 34 59 35 60 39 61 36 62 38 63 37 64 56 65 57 66
REMARK SMILES IDX 61 67 58 68 60 69 59 70 46 71 47 72 51 73 48 74 50 75 49 76
REMARK H PARENT 8 13 66 44 44 55
REMARK Flexibility Score: inf
ROOT
ATOM      1  C   UNL A   1      31.999  28.299  26.245  1.00  0.00     0.275 C 
ENDROOT
BRANCH   1   2
ATOM      2  O   UNL A   1      32.118  26.908  26.603  1.00  0.00    -0.457 OA
BRANCH   2   3
ATOM      3  C   UNL A   1      32.921  26.152  25.816  1.00  0.00     0.359 C 
ATOM      4  O   UNL A   1      34.143  26.119  25.879  1.00  0.00    -0.244 OA
BRANCH   3   5
ATOM      5  C   UNL A   1      32.145  25.241  24.928  1.00  0.00     0.179 A 
ATOM      6  C   UNL A   1      31.640  24.004  25.296  1.00  0.00     0.161 A 
ATOM      7  N   UNL A   1      30.884  23.245  24.435  1.00  0.00    -0.247 NA
ATOM      8  C   UNL A   1      30.716  23.738  23.190  1.00  0.00     0.132 A 
ATOM      9  N   UNL A   1      31.949  25.730  23.658  1.00  0.00    -0.245 NA
ATOM     10  C   UNL A   1      31.245  24.953  22.806  1.00  0.00     0.132 A 
BRANCH   6  11
ATOM     11  C   UNL A   1      31.787  23.450  26.659  1.00  0.00     0.276 C 
ATOM     12  N   UNL A   1      32.774  22.535  26.976  1.00  0.00    -0.320 N 
ATOM     13  H   UNL A   1      32.662  22.127  27.865  1.00  0.00     0.170 HD
ATOM     14  O   UNL A   1      30.938  23.734  27.507  1.00  0.00    -0.267 OA
BRANCH  12  15
ATOM     15  C   UNL A   1      33.910  22.070  26.279  1.00  0.00     0.045 A 
ATOM     16  C   UNL A   1      36.238  22.505  25.688  1.00  0.00     0.120 A 
ATOM     17  C   UNL A   1      36.302  21.265  25.056  1.00  0.00     0.046 A 
ATOM     18  C   UNL A   1      35.043  22.904  26.295  1.00  0.00     0.072 A 
ATOM     19  C   UNL A   1      35.174  20.453  24.986  1.00  0.00     0.006 A 
ATOM     20  C   UNL A   1      33.976  20.869  25.572  1.00  0.00     0.026 A 
BRANCH  16  21
ATOM     21  O   UNL A   1      37.403  23.221  25.652  1.00  0.00    -0.497 OA
ATOM     22  C   UNL A   1      38.592  22.543  26.036  1.00  0.00     0.278 C 
ENDBRANCH  16  21
ENDBRANCH  12  15
ENDBRANCH   6  11
ENDBRANCH   3   5
ENDBRANCH   2   3
ENDBRANCH   1   2
BRANCH   1  23
ATOM     23  C   UNL A   1      32.588  29.203  27.330  1.00  0.00     0.275 C 
BRANCH  23  24
ATOM     24  O   UNL A   1      34.022  29.295  27.230  1.00  0.00    -0.458 OA
BRANCH  24  25
ATOM     25  C   UNL A   1      34.565  30.355  27.873  1.00  0.00     0.338 C 
ATOM     26  O   UNL A   1      34.013  31.395  28.193  1.00  0.00    -0.246 OA
BRANCH  25  27
ATOM     27  C   UNL A   1      35.941  30.038  28.287  1.00  0.00     0.060 A 
ATOM     28  C   UNL A   1      36.937  30.145  27.315  1.00  0.00     0.016 A 
ATOM     29  C   UNL A   1      36.244  29.561  29.562  1.00  0.00     0.016 A 
ATOM     30  C   UNL A   1      38.241  29.762  27.603  1.00  0.00     0.010 A 
ATOM     31  C   UNL A   1      37.560  29.179  29.855  1.00  0.00     0.010 A 
ATOM     32  C   UNL A   1      38.563  29.264  28.872  1.00  0.00    -0.014 A 
BRANCH  32  33
ATOM     33  C   UNL A   1      39.944  28.793  29.135  1.00  0.00     0.031 A 
ATOM     34  C   UNL A   1      40.916  29.676  29.864  1.00  0.00     0.074 A 
ATOM     35  C   UNL A   1      40.309  27.551  28.763  1.00  0.00     0.049 A 
ATOM     36  N   UNL A   1      42.174  29.458  30.152  1.00  0.00    -0.248 NA
ATOM     37  C   UNL A   1      40.406  30.974  30.335  1.00  0.00     0.031 C 
ATOM     38  C   UNL A   1      39.443  26.578  28.095  1.00  0.00     0.029 A 
ATOM     39  N   UNL A   1      41.506  26.894  28.904  1.00  0.00    -0.354 N 
ATOM     40  C   UNL A   1      42.613  30.599  30.813  1.00  0.00     0.074 A 
ATOM     41  C   UNL A   1      41.491  31.509  30.877  1.00  0.00     0.031 C 
ATOM     42  C   UNL A   1      40.133  25.444  27.896  1.00  0.00     0.029 A 
ATOM     43  C   UNL A   1      41.500  25.627  28.375  1.00  0.00     0.049 A 
ATOM     44  H   UNL A   1      42.292  27.293  29.341  1.00  0.00     0.167 HD
ATOM     45  C   UNL A   1      43.842  30.861  31.319  1.00  0.00     0.031 A 
ATOM     46  C   UNL A   1      42.492  24.723  28.264  1.00  0.00     0.031 A 
ATOM     47  C   UNL A   1      44.955  29.952  31.267  1.00  0.00     0.049 A 
ATOM     48  C   UNL A   1      43.859  25.064  28.787  1.00  0.00     0.074 A 
ATOM     49  C   UNL A   1      46.236  30.129  31.761  1.00  0.00     0.029 A 
ATOM     50  N   UNL A   1      44.919  28.694  30.686  1.00  0.00    -0.354 N 
ATOM     51  N   UNL A   1      44.262  26.147  29.403  1.00  0.00    -0.248 NA
ATOM     52  C   UNL A   1      44.910  24.054  28.594  1.00  0.00     0.031 C 
ATOM     53  C   UNL A   1      46.988  28.992  31.443  1.00  0.00     0.029 A 
ATOM     54  C   UNL A   1      46.161  28.091  30.792  1.00  0.00     0.049 A 
ATOM     55  H   UNL A   1      44.128  28.289  30.262  1.00  0.00     0.167 HD
ATOM     56  C   UNL A   1      45.606  25.946  29.685  1.00  0.00     0.074 A 
ATOM     57  C   UNL A   1      45.946  24.627  29.192  1.00  0.00     0.031 C 
ATOM     58  C   UNL A   1      46.482  26.779  30.296  1.00  0.00     0.031 A 
BRANCH  45  59
ATOM     59  C   UNL A   1      44.060  32.210  31.942  1.00  0.00    -0.014 A 
ATOM     60  C   UNL A   1      44.471  33.312  31.177  1.00  0.00     0.009 A 
ATOM     61  C   UNL A   1      43.802  32.389  33.311  1.00  0.00     0.009 A 
ATOM     62  C   UNL A   1      44.644  34.561  31.777  1.00  0.00     0.001 A 
ATOM     63  C   UNL A   1      43.953  33.644  33.903  1.00  0.00     0.001 A 
ATOM     64  C   UNL A   1      44.381  34.727  33.137  1.00  0.00     0.000 A 
ENDBRANCH  45  59
BRANCH  46  65
ATOM     65  C   UNL A   1      42.241  23.422  27.593  1.00  0.00    -0.014 A 
ATOM     66  C   UNL A   1      41.721  22.333  28.307  1.00  0.00     0.009 A 
ATOM     67  C   UNL A   1      42.538  23.260  26.231  1.00  0.00     0.009 A 
ATOM     68  C   UNL A   1      41.524  21.102  27.676  1.00  0.00     0.001 A 
ATOM     69  C   UNL A   1      42.314  22.037  25.595  1.00  0.00     0.001 A 
ATOM     70  C   UNL A   1      41.817  20.957  26.321  1.00  0.00     0.000 A 
ENDBRANCH  46  65
BRANCH  58  71
ATOM     71  C   UNL A   1      47.883  26.277  30.489  1.00  0.00    -0.014 A 
ATOM     72  C   UNL A   1      48.831  26.357  29.458  1.00  0.00     0.009 A 
ATOM     73  C   UNL A   1      48.268  25.747  31.731  1.00  0.00     0.009 A 
ATOM     74  C   UNL A   1      50.131  25.888  29.658  1.00  0.00     0.001 A 
ATOM     75  C   UNL A   1      49.574  25.302  31.935  1.00  0.00     0.001 A 
ATOM     76  C   UNL A   1      50.503  25.366  30.896  1.00  0.00     0.000 A 
ENDBRANCH  58  71
ENDBRANCH  32  33
ENDBRANCH  25  27
ENDBRANCH  24  25
ENDBRANCH  23  24
ENDBRANCH   1  23
TORSDOF 14
ENDMDL
