MODEL 1
REMARK VINA RESULT:     -13.4      0.000      0.000
REMARK SMILES Cc1ccc(C(=O)OCCOC(=O)c2ccc(-c3c4nc(c(-c5ccccc5)c5ccc([nH]5)c(-c5ccccc5)c5nc(c(-c6ccccc6)c6ccc3[nH]6)C=C5)C=C4)cc2)c(NC(=O)CN2C(=O)/C(=C/c3ccccc3C)SC2=S)c1
REMARK SMILES IDX 9 1 8 2 6 3 7 4 5 5 1 6 2 7 3 8 82 9 4 10 62 11 63 12 64 13
REMARK SMILES IDX 65 15 66 16 67 17 68 18 80 19 69 20 70 21 79 22 81 23 71 24
REMARK SMILES IDX 72 25 73 26 77 27 74 28 76 29 78 30 75 31 10 32 11 33 12 34
REMARK SMILES IDX 13 35 14 36 15 37 61 38 16 39 60 40 17 41 18 42 19 43 54 44
REMARK SMILES IDX 20 45 59 46 53 47 55 48 21 49 58 50 52 51 51 52 22 54 44 55
REMARK SMILES IDX 29 56 43 57 30 58 33 59 42 60 56 61 31 62 32 63 41 65 57 66
REMARK SMILES IDX 34 67 23 68 24 69 28 70 25 71 27 72 26 73 45 74 46 75 50 76
REMARK SMILES IDX 47 77 49 78 48 79 35 80 36 81 40 82 37 83 39 84 38 85
REMARK H PARENT 63 14 55 53 33 64
REMARK Flexibility Score: inf
ROOT
ATOM      1  C   UNL A   1      46.869  31.165  30.477  1.00  0.00     0.275 C 
ENDROOT
BRANCH   1   2
ATOM      2  O   UNL A   1      45.176  30.171  30.160  1.00  0.00    -0.458 OA
BRANCH   2   3
ATOM      3  C   UNL A   1      44.279  29.462  28.614  1.00  0.00     0.340 C 
ATOM      4  O   UNL A   1      43.747  30.242  27.813  1.00  0.00    -0.246 OA
BRANCH   3   5
ATOM      5  C   UNL A   1      44.120  27.312  28.944  1.00  0.00     0.083 A 
ATOM      6  C   UNL A   1      42.911  23.145  28.111  1.00  0.00     0.044 C 
ATOM      7  C   UNL A   1      43.461  24.558  28.200  1.00  0.00    -0.049 A 
ATOM      8  C   UNL A   1      43.237  25.134  29.502  1.00  0.00     0.004 A 
ATOM      9  C   UNL A   1      44.076  25.241  27.094  1.00  0.00     0.030 A 
ATOM     10  C   UNL A   1      43.579  26.425  29.908  1.00  0.00     0.018 A 
ATOM     11  C   UNL A   1      44.412  26.573  27.310  1.00  0.00     0.056 A 
BRANCH  11  12
ATOM     12  N   UNL A   1      44.911  27.738  25.953  1.00  0.00    -0.324 N 
ATOM     13  C   UNL A   1      46.392  28.717  25.616  1.00  0.00     0.244 C 
ATOM     14  H   UNL A   1      44.214  27.846  25.265  1.00  0.00     0.170 HD
ATOM     15  O   UNL A   1      46.620  28.851  24.395  1.00  0.00    -0.273 OA
BRANCH  13  16
ATOM     16  C   UNL A   1      47.661  29.633  26.972  1.00  0.00     0.227 C 
BRANCH  16  17
ATOM     17  N   UNL A   1      47.313  31.724  27.023  1.00  0.00    -0.283 N 
ATOM     18  C   UNL A   1      46.041  32.359  26.283  1.00  0.00     0.266 C 
ATOM     19  C   UNL A   1      48.034  33.097  27.296  1.00  0.00     0.148 C 
ATOM     20  O   UNL A   1      45.280  31.920  25.414  1.00  0.00    -0.268 OA
ATOM     21  C   UNL A   1      45.949  33.774  26.556  1.00  0.00     0.081 C 
ATOM     22  S   UNL A   1      47.470  34.355  26.175  1.00  0.00    -0.054 SA
ATOM     23  S   UNL A   1      49.074  33.895  28.412  1.00  0.00    -0.052 S 
ATOM     24  C   UNL A   1      44.898  34.305  27.178  1.00  0.00     0.029 C 
BRANCH  24  25
ATOM     25  C   UNL A   1      44.850  35.690  27.629  1.00  0.00    -0.021 A 
ATOM     26  C   UNL A   1      45.879  36.146  28.471  1.00  0.00     0.008 A 
ATOM     27  C   UNL A   1      43.811  36.560  27.249  1.00  0.00    -0.044 A 
ATOM     28  C   UNL A   1      45.882  37.463  28.928  1.00  0.00     0.001 A 
ATOM     29  C   UNL A   1      43.842  37.882  27.708  1.00  0.00     0.004 A 
ATOM     30  C   UNL A   1      42.683  36.165  26.332  1.00  0.00     0.045 C 
ATOM     31  C   UNL A   1      44.863  38.329  28.545  1.00  0.00     0.000 A 
ENDBRANCH  24  25
ENDBRANCH  16  17
ENDBRANCH  13  16
ENDBRANCH  11  12
ENDBRANCH   3   5
ENDBRANCH   2   3
ENDBRANCH   1   2
BRANCH   1  32
ATOM     32  C   UNL A   1      46.406  32.362  31.968  1.00  0.00     0.275 C 
BRANCH  32  33
ATOM     33  O   UNL A   1      45.321  33.763  31.409  1.00  0.00    -0.458 OA
BRANCH  33  34
ATOM     34  C   UNL A   1      43.775  33.990  30.724  1.00  0.00     0.338 C 
ATOM     35  O   UNL A   1      43.454  32.989  30.067  1.00  0.00    -0.246 OA
BRANCH  34  36
ATOM     36  C   UNL A   1      42.605  35.503  30.494  1.00  0.00     0.060 A 
ATOM     37  C   UNL A   1      42.284  35.306  32.136  1.00  0.00     0.016 A 
ATOM     38  C   UNL A   1      41.069  35.285  29.509  1.00  0.00     0.016 A 
ATOM     39  C   UNL A   1      41.010  34.389  32.842  1.00  0.00     0.010 A 
ATOM     40  C   UNL A   1      39.755  33.956  30.324  1.00  0.00     0.010 A 
ATOM     41  C   UNL A   1      39.852  33.572  32.004  1.00  0.00    -0.014 A 
BRANCH  41  42
ATOM     42  C   UNL A   1      39.540  32.102  32.298  1.00  0.00     0.031 A 
ATOM     43  C   UNL A   1      40.808  31.296  32.517  1.00  0.00     0.074 A 
ATOM     44  C   UNL A   1      38.217  31.698  32.355  1.00  0.00     0.049 A 
ATOM     45  N   UNL A   1      41.340  30.522  31.612  1.00  0.00    -0.248 NA
ATOM     46  C   UNL A   1      41.819  31.524  33.601  1.00  0.00     0.031 C 
ATOM     47  C   UNL A   1      37.527  30.452  32.733  1.00  0.00     0.029 A 
ATOM     48  N   UNL A   1      37.107  32.465  31.928  1.00  0.00    -0.354 N 
ATOM     49  C   UNL A   1      42.366  29.869  32.293  1.00  0.00     0.074 A 
ATOM     50  C   UNL A   1      42.882  30.843  33.180  1.00  0.00     0.031 C 
ATOM     51  C   UNL A   1      36.283  30.419  32.190  1.00  0.00     0.029 A 
ATOM     52  C   UNL A   1      36.043  31.672  31.492  1.00  0.00     0.049 A 
ATOM     53  H   UNL A   1      37.086  33.450  31.939  1.00  0.00     0.167 HD
ATOM     54  C   UNL A   1      42.231  28.549  32.637  1.00  0.00     0.031 A 
ATOM     55  C   UNL A   1      35.618  31.792  30.199  1.00  0.00     0.031 A 
ATOM     56  C   UNL A   1      40.953  28.061  32.142  1.00  0.00     0.049 A 
ATOM     57  C   UNL A   1      36.386  30.787  29.373  1.00  0.00     0.074 A 
ATOM     58  C   UNL A   1      39.760  27.739  32.763  1.00  0.00     0.029 A 
ATOM     59  N   UNL A   1      40.657  28.277  30.809  1.00  0.00    -0.354 N 
ATOM     60  N   UNL A   1      37.516  30.259  29.767  1.00  0.00    -0.248 NA
ATOM     61  C   UNL A   1      35.899  30.211  28.122  1.00  0.00     0.031 C 
ATOM     62  C   UNL A   1      38.739  27.780  31.764  1.00  0.00     0.029 A 
ATOM     63  C   UNL A   1      39.309  28.179  30.567  1.00  0.00     0.049 A 
ATOM     64  H   UNL A   1      41.330  28.476  30.119  1.00  0.00     0.167 HD
ATOM     65  C   UNL A   1      37.830  29.218  28.952  1.00  0.00     0.074 A 
ATOM     66  C   UNL A   1      36.817  29.251  27.913  1.00  0.00     0.031 C 
ATOM     67  C   UNL A   1      38.847  28.348  29.200  1.00  0.00     0.031 A 
BRANCH  54  68
ATOM     68  C   UNL A   1      43.043  27.801  33.689  1.00  0.00    -0.014 A 
ATOM     69  C   UNL A   1      42.482  27.656  34.972  1.00  0.00     0.009 A 
ATOM     70  C   UNL A   1      44.309  27.203  33.515  1.00  0.00     0.009 A 
ATOM     71  C   UNL A   1      43.133  26.974  36.009  1.00  0.00     0.001 A 
ATOM     72  C   UNL A   1      44.974  26.525  34.553  1.00  0.00     0.001 A 
ATOM     73  C   UNL A   1      44.380  26.405  35.800  1.00  0.00     0.000 A 
ENDBRANCH  54  68
BRANCH  55  74
ATOM     74  C   UNL A   1      35.336  33.213  29.821  1.00  0.00    -0.014 A 
ATOM     75  C   UNL A   1      35.639  33.602  28.495  1.00  0.00     0.009 A 
ATOM     76  C   UNL A   1      34.469  34.020  30.562  1.00  0.00     0.009 A 
ATOM     77  C   UNL A   1      34.946  34.644  27.874  1.00  0.00     0.001 A 
ATOM     78  C   UNL A   1      33.804  35.093  29.946  1.00  0.00     0.001 A 
ATOM     79  C   UNL A   1      34.006  35.369  28.592  1.00  0.00     0.000 A 
ENDBRANCH  55  74
BRANCH  67  80
ATOM     80  C   UNL A   1      39.473  27.496  28.133  1.00  0.00    -0.014 A 
ATOM     81  C   UNL A   1      40.372  27.996  27.188  1.00  0.00     0.009 A 
ATOM     82  C   UNL A   1      39.272  26.098  28.143  1.00  0.00     0.009 A 
ATOM     83  C   UNL A   1      40.912  27.171  26.204  1.00  0.00     0.001 A 
ATOM     84  C   UNL A   1      39.899  25.254  27.236  1.00  0.00     0.001 A 
ATOM     85  C   UNL A   1      40.679  25.800  26.232  1.00  0.00     0.000 A 
ENDBRANCH  67  80
ENDBRANCH  41  42
ENDBRANCH  34  36
ENDBRANCH  33  34
ENDBRANCH  32  33
ENDBRANCH   1  32
TORSDOF 15
ENDMDL
MODEL 2
REMARK VINA RESULT:     -13.1      2.083      4.150
REMARK SMILES Cc1ccc(C(=O)OCCOC(=O)c2ccc(-c3c4nc(c(-c5ccccc5)c5ccc([nH]5)c(-c5ccccc5)c5nc(c(-c6ccccc6)c6ccc3[nH]6)C=C5)C=C4)cc2)c(NC(=O)CN2C(=O)/C(=C/c3ccccc3C)SC2=S)c1
REMARK SMILES IDX 9 1 8 2 6 3 7 4 5 5 1 6 2 7 3 8 82 9 4 10 62 11 63 12 64 13
REMARK SMILES IDX 65 15 66 16 67 17 68 18 80 19 69 20 70 21 79 22 81 23 71 24
REMARK SMILES IDX 72 25 73 26 77 27 74 28 76 29 78 30 75 31 10 32 11 33 12 34
REMARK SMILES IDX 13 35 14 36 15 37 61 38 16 39 60 40 17 41 18 42 19 43 54 44
REMARK SMILES IDX 20 45 59 46 53 47 55 48 21 49 58 50 52 51 51 52 22 54 44 55
REMARK SMILES IDX 29 56 43 57 30 58 33 59 42 60 56 61 31 62 32 63 41 65 57 66
REMARK SMILES IDX 34 67 23 68 24 69 28 70 25 71 27 72 26 73 45 74 46 75 50 76
REMARK SMILES IDX 47 77 49 78 48 79 35 80 36 81 40 82 37 83 39 84 38 85
REMARK H PARENT 63 14 55 53 33 64
REMARK Flexibility Score: inf
ROOT
ATOM      1  C   UNL A   1      46.736  31.372  29.356  1.00  0.00     0.275 C 
ENDROOT
BRANCH   1   2
ATOM      2  O   UNL A   1      45.002  30.453  29.028  1.00  0.00    -0.458 OA
BRANCH   2   3
ATOM      3  C   UNL A   1      44.170  29.612  27.512  1.00  0.00     0.340 C 
ATOM      4  O   UNL A   1      43.589  30.315  26.674  1.00  0.00    -0.246 OA
BRANCH   3   5
ATOM      5  C   UNL A   1      44.164  27.473  27.939  1.00  0.00     0.083 A 
ATOM      6  C   UNL A   1      43.549  23.169  27.157  1.00  0.00     0.044 C 
ATOM      7  C   UNL A   1      43.931  24.636  27.258  1.00  0.00    -0.049 A 
ATOM      8  C   UNL A   1      43.410  25.238  28.459  1.00  0.00     0.004 A 
ATOM      9  C   UNL A   1      44.673  25.334  26.244  1.00  0.00     0.030 A 
ATOM     10  C   UNL A   1      43.541  26.575  28.840  1.00  0.00     0.018 A 
ATOM     11  C   UNL A   1      44.830  26.702  26.435  1.00  0.00     0.056 A 
BRANCH  11  12
ATOM     12  N   UNL A   1      45.459  27.856  25.123  1.00  0.00    -0.324 N 
ATOM     13  C   UNL A   1      46.892  27.850  24.022  1.00  0.00     0.244 C 
ATOM     14  H   UNL A   1      44.883  28.646  25.000  1.00  0.00     0.170 HD
ATOM     15  O   UNL A   1      46.663  28.391  22.921  1.00  0.00    -0.273 OA
BRANCH  13  16
ATOM     16  C   UNL A   1      48.793  27.117  24.395  1.00  0.00     0.227 C 
BRANCH  16  17
ATOM     17  N   UNL A   1      49.231  27.205  26.467  1.00  0.00    -0.283 N 
ATOM     18  C   UNL A   1      48.286  28.025  27.469  1.00  0.00     0.266 C 
ATOM     19  C   UNL A   1      50.400  26.989  27.500  1.00  0.00     0.148 C 
ATOM     20  O   UNL A   1      47.427  28.893  27.277  1.00  0.00    -0.268 OA
ATOM     21  C   UNL A   1      48.714  27.842  28.836  1.00  0.00     0.081 C 
ATOM     22  S   UNL A   1      50.347  28.203  28.797  1.00  0.00    -0.054 SA
ATOM     23  S   UNL A   1      51.648  25.887  27.941  1.00  0.00    -0.052 S 
ATOM     24  C   UNL A   1      47.922  27.290  29.754  1.00  0.00     0.029 C 
BRANCH  24  25
ATOM     25  C   UNL A   1      48.378  26.926  31.090  1.00  0.00    -0.021 A 
ATOM     26  C   UNL A   1      49.063  25.708  31.243  1.00  0.00     0.008 A 
ATOM     27  C   UNL A   1      48.144  27.750  32.205  1.00  0.00    -0.044 A 
ATOM     28  C   UNL A   1      49.523  25.314  32.498  1.00  0.00     0.001 A 
ATOM     29  C   UNL A   1      48.628  27.341  33.454  1.00  0.00     0.004 A 
ATOM     30  C   UNL A   1      47.441  29.080  32.130  1.00  0.00     0.045 C 
ATOM     31  C   UNL A   1      49.304  26.132  33.602  1.00  0.00     0.000 A 
ENDBRANCH  24  25
ENDBRANCH  16  17
ENDBRANCH  13  16
ENDBRANCH  11  12
ENDBRANCH   3   5
ENDBRANCH   2   3
ENDBRANCH   1   2
BRANCH   1  32
ATOM     32  C   UNL A   1      46.383  32.412  30.989  1.00  0.00     0.275 C 
BRANCH  32  33
ATOM     33  O   UNL A   1      45.256  33.850  30.653  1.00  0.00    -0.458 OA
BRANCH  33  34
ATOM     34  C   UNL A   1      43.838  34.185  29.764  1.00  0.00     0.338 C 
ATOM     35  O   UNL A   1      43.713  33.364  28.843  1.00  0.00    -0.246 OA
BRANCH  34  36
ATOM     36  C   UNL A   1      42.612  35.669  29.679  1.00  0.00     0.060 A 
ATOM     37  C   UNL A   1      42.548  35.509  31.355  1.00  0.00     0.016 A 
ATOM     38  C   UNL A   1      40.950  35.396  28.944  1.00  0.00     0.016 A 
ATOM     39  C   UNL A   1      41.417  34.586  32.267  1.00  0.00     0.010 A 
ATOM     40  C   UNL A   1      39.806  34.064  29.979  1.00  0.00     0.010 A 
ATOM     41  C   UNL A   1      40.164  33.725  31.633  1.00  0.00    -0.014 A 
BRANCH  41  42
ATOM     42  C   UNL A   1      39.934  32.258  32.004  1.00  0.00     0.031 A 
ATOM     43  C   UNL A   1      41.245  31.502  32.128  1.00  0.00     0.074 A 
ATOM     44  C   UNL A   1      38.638  31.814  32.201  1.00  0.00     0.049 A 
ATOM     45  N   UNL A   1      41.716  30.713  31.202  1.00  0.00    -0.248 NA
ATOM     46  C   UNL A   1      42.346  31.802  33.102  1.00  0.00     0.031 C 
ATOM     47  C   UNL A   1      38.031  30.561  32.685  1.00  0.00     0.029 A 
ATOM     48  N   UNL A   1      37.466  32.529  31.858  1.00  0.00    -0.354 N 
ATOM     49  C   UNL A   1      42.825  30.119  31.803  1.00  0.00     0.074 A 
ATOM     50  C   UNL A   1      43.387  31.141  32.603  1.00  0.00     0.031 C 
ATOM     51  C   UNL A   1      36.743  30.468  32.266  1.00  0.00     0.029 A 
ATOM     52  C   UNL A   1      36.394  31.686  31.552  1.00  0.00     0.049 A 
ATOM     53  H   UNL A   1      37.411  33.512  31.838  1.00  0.00     0.167 HD
ATOM     54  C   UNL A   1      42.770  28.808  32.202  1.00  0.00     0.031 A 
ATOM     55  C   UNL A   1      35.844  31.746  30.303  1.00  0.00     0.031 A 
ATOM     56  C   UNL A   1      41.468  28.262  31.848  1.00  0.00     0.049 A 
ATOM     57  C   UNL A   1      36.566  30.736  29.441  1.00  0.00     0.074 A 
ATOM     58  C   UNL A   1      40.352  27.925  32.591  1.00  0.00     0.029 A 
ATOM     59  N   UNL A   1      41.040  28.419  30.544  1.00  0.00    -0.354 N 
ATOM     60  N   UNL A   1      37.746  30.260  29.742  1.00  0.00    -0.248 NA
ATOM     61  C   UNL A   1      35.984  30.099  28.263  1.00  0.00     0.031 C 
ATOM     62  C   UNL A   1      39.240  27.896  31.695  1.00  0.00     0.029 A 
ATOM     63  C   UNL A   1      39.679  28.269  30.436  1.00  0.00     0.049 A 
ATOM     64  H   UNL A   1      41.637  28.614  29.786  1.00  0.00     0.167 HD
ATOM     65  C   UNL A   1      38.018  29.200  28.936  1.00  0.00     0.074 A 
ATOM     66  C   UNL A   1      36.911  29.162  27.999  1.00  0.00     0.031 C 
ATOM     67  C   UNL A   1      39.085  28.372  29.114  1.00  0.00     0.031 A 
BRANCH  54  68
ATOM     68  C   UNL A   1      43.704  28.126  33.196  1.00  0.00    -0.014 A 
ATOM     69  C   UNL A   1      44.315  26.921  32.803  1.00  0.00     0.009 A 
ATOM     70  C   UNL A   1      44.053  28.586  34.483  1.00  0.00     0.009 A 
ATOM     71  C   UNL A   1      45.203  26.219  33.630  1.00  0.00     0.001 A 
ATOM     72  C   UNL A   1      44.935  27.883  35.323  1.00  0.00     0.001 A 
ATOM     73  C   UNL A   1      45.516  26.701  34.891  1.00  0.00     0.000 A 
ENDBRANCH  54  68
BRANCH  55  74
ATOM     74  C   UNL A   1      35.477  33.142  29.906  1.00  0.00    -0.014 A 
ATOM     75  C   UNL A   1      35.752  33.529  28.574  1.00  0.00     0.009 A 
ATOM     76  C   UNL A   1      34.566  33.906  30.640  1.00  0.00     0.009 A 
ATOM     77  C   UNL A   1      34.997  34.519  27.941  1.00  0.00     0.001 A 
ATOM     78  C   UNL A   1      33.837  34.929  30.012  1.00  0.00     0.001 A 
ATOM     79  C   UNL A   1      34.018  35.198  28.654  1.00  0.00     0.000 A 
ENDBRANCH  55  74
BRANCH  67  80
ATOM     80  C   UNL A   1      39.636  27.503  28.022  1.00  0.00    -0.014 A 
ATOM     81  C   UNL A   1      40.521  27.971  27.048  1.00  0.00     0.009 A 
ATOM     82  C   UNL A   1      39.377  26.114  28.031  1.00  0.00     0.009 A 
ATOM     83  C   UNL A   1      40.992  27.132  26.041  1.00  0.00     0.001 A 
ATOM     84  C   UNL A   1      39.936  25.251  27.098  1.00  0.00     0.001 A 
ATOM     85  C   UNL A   1      40.703  25.772  26.070  1.00  0.00     0.000 A 
ENDBRANCH  67  80
ENDBRANCH  41  42
ENDBRANCH  34  36
ENDBRANCH  33  34
ENDBRANCH  32  33
ENDBRANCH   1  32
TORSDOF 15
ENDMDL
MODEL 3
REMARK VINA RESULT:     -13.0      3.376      5.003
REMARK SMILES Cc1ccc(C(=O)OCCOC(=O)c2ccc(-c3c4nc(c(-c5ccccc5)c5ccc([nH]5)c(-c5ccccc5)c5nc(c(-c6ccccc6)c6ccc3[nH]6)C=C5)C=C4)cc2)c(NC(=O)CN2C(=O)/C(=C/c3ccccc3C)SC2=S)c1
REMARK SMILES IDX 9 1 8 2 6 3 7 4 5 5 1 6 2 7 3 8 82 9 4 10 62 11 63 12 64 13
REMARK SMILES IDX 65 15 66 16 67 17 68 18 80 19 69 20 70 21 79 22 81 23 71 24
REMARK SMILES IDX 72 25 73 26 77 27 74 28 76 29 78 30 75 31 10 32 11 33 12 34
REMARK SMILES IDX 13 35 14 36 15 37 61 38 16 39 60 40 17 41 18 42 19 43 54 44
REMARK SMILES IDX 20 45 59 46 53 47 55 48 21 49 58 50 52 51 51 52 22 54 44 55
REMARK SMILES IDX 29 56 43 57 30 58 33 59 42 60 56 61 31 62 32 63 41 65 57 66
REMARK SMILES IDX 34 67 23 68 24 69 28 70 25 71 27 72 26 73 45 74 46 75 50 76
REMARK SMILES IDX 47 77 49 78 48 79 35 80 36 81 40 82 37 83 39 84 38 85
REMARK H PARENT 63 14 55 53 33 64
REMARK Flexibility Score: inf
ROOT
ATOM      1  C   UNL A   1      46.750  31.039  29.762  1.00  0.00     0.275 C 
ENDROOT
BRANCH   1   2
ATOM      2  O   UNL A   1      45.023  30.053  29.699  1.00  0.00    -0.458 OA
BRANCH   2   3
ATOM      3  C   UNL A   1      43.902  29.354  28.303  1.00  0.00     0.340 C 
ATOM      4  O   UNL A   1      43.212  30.134  27.633  1.00  0.00    -0.246 OA
BRANCH   3   5
ATOM      5  C   UNL A   1      43.879  27.190  28.576  1.00  0.00     0.083 A 
ATOM      6  C   UNL A   1      43.197  22.960  27.501  1.00  0.00     0.044 C 
ATOM      7  C   UNL A   1      43.597  24.411  27.699  1.00  0.00    -0.049 A 
ATOM      8  C   UNL A   1      43.110  24.931  28.951  1.00  0.00     0.004 A 
ATOM      9  C   UNL A   1      44.326  25.173  26.720  1.00  0.00     0.030 A 
ATOM     10  C   UNL A   1      43.266  26.236  29.424  1.00  0.00     0.018 A 
ATOM     11  C   UNL A   1      44.503  26.522  27.005  1.00  0.00     0.056 A 
BRANCH  11  12
ATOM     12  N   UNL A   1      45.116  27.761  25.766  1.00  0.00    -0.324 N 
ATOM     13  C   UNL A   1      46.652  27.952  24.831  1.00  0.00     0.244 C 
ATOM     14  H   UNL A   1      44.460  28.470  25.576  1.00  0.00     0.170 HD
ATOM     15  O   UNL A   1      46.476  28.469  23.708  1.00  0.00    -0.273 OA
BRANCH  13  16
ATOM     16  C   UNL A   1      48.579  27.470  25.416  1.00  0.00     0.227 C 
BRANCH  16  17
ATOM     17  N   UNL A   1      49.917  27.636  23.780  1.00  0.00    -0.283 N 
ATOM     18  C   UNL A   1      49.552  26.996  22.357  1.00  0.00     0.266 C 
ATOM     19  C   UNL A   1      51.424  27.935  23.433  1.00  0.00     0.148 C 
ATOM     20  O   UNL A   1      48.719  26.149  22.016  1.00  0.00    -0.268 OA
ATOM     21  C   UNL A   1      50.553  27.339  21.374  1.00  0.00     0.081 C 
ATOM     22  S   UNL A   1      51.995  26.906  22.102  1.00  0.00    -0.054 SA
ATOM     23  S   UNL A   1      52.710  29.031  23.764  1.00  0.00    -0.052 S 
ATOM     24  C   UNL A   1      50.256  28.040  20.282  1.00  0.00     0.029 C 
BRANCH  24  25
ATOM     25  C   UNL A   1      51.263  28.557  19.363  1.00  0.00    -0.021 A 
ATOM     26  C   UNL A   1      51.700  27.718  18.324  1.00  0.00     0.008 A 
ATOM     27  C   UNL A   1      51.800  29.850  19.499  1.00  0.00    -0.044 A 
ATOM     28  C   UNL A   1      52.660  28.164  17.416  1.00  0.00     0.001 A 
ATOM     29  C   UNL A   1      52.751  30.283  18.568  1.00  0.00     0.004 A 
ATOM     30  C   UNL A   1      51.373  30.824  20.567  1.00  0.00     0.045 C 
ATOM     31  C   UNL A   1      53.184  29.447  17.540  1.00  0.00     0.000 A 
ENDBRANCH  24  25
ENDBRANCH  16  17
ENDBRANCH  13  16
ENDBRANCH  11  12
ENDBRANCH   3   5
ENDBRANCH   2   3
ENDBRANCH   1   2
BRANCH   1  32
ATOM     32  C   UNL A   1      46.455  32.356  31.193  1.00  0.00     0.275 C 
BRANCH  32  33
ATOM     33  O   UNL A   1      45.385  33.763  30.618  1.00  0.00    -0.458 OA
BRANCH  33  34
ATOM     34  C   UNL A   1      43.820  34.004  29.982  1.00  0.00     0.338 C 
ATOM     35  O   UNL A   1      43.487  33.024  29.298  1.00  0.00    -0.246 OA
BRANCH  34  36
ATOM     36  C   UNL A   1      42.636  35.516  29.836  1.00  0.00     0.060 A 
ATOM     37  C   UNL A   1      42.526  35.392  31.513  1.00  0.00     0.016 A 
ATOM     38  C   UNL A   1      40.986  35.270  29.065  1.00  0.00     0.016 A 
ATOM     39  C   UNL A   1      41.349  34.518  32.414  1.00  0.00     0.010 A 
ATOM     40  C   UNL A   1      39.782  33.989  30.097  1.00  0.00     0.010 A 
ATOM     41  C   UNL A   1      40.090  33.676  31.767  1.00  0.00    -0.014 A 
BRANCH  41  42
ATOM     42  C   UNL A   1      39.813  32.223  32.161  1.00  0.00     0.031 A 
ATOM     43  C   UNL A   1      41.101  31.445  32.360  1.00  0.00     0.074 A 
ATOM     44  C   UNL A   1      38.500  31.811  32.311  1.00  0.00     0.049 A 
ATOM     45  N   UNL A   1      41.595  30.624  31.475  1.00  0.00    -0.248 NA
ATOM     46  C   UNL A   1      42.164  31.746  33.375  1.00  0.00     0.031 C 
ATOM     47  C   UNL A   1      37.847  30.582  32.796  1.00  0.00     0.029 A 
ATOM     48  N   UNL A   1      37.360  32.541  31.899  1.00  0.00    -0.354 N 
ATOM     49  C   UNL A   1      42.664  30.022  32.138  1.00  0.00     0.074 A 
ATOM     50  C   UNL A   1      43.212  31.051  32.938  1.00  0.00     0.031 C 
ATOM     51  C   UNL A   1      36.576  30.505  32.322  1.00  0.00     0.029 A 
ATOM     52  C   UNL A   1      36.285  31.713  31.566  1.00  0.00     0.049 A 
ATOM     53  H   UNL A   1      37.327  33.524  31.854  1.00  0.00     0.167 HD
ATOM     54  C   UNL A   1      42.563  28.723  32.564  1.00  0.00     0.031 A 
ATOM     55  C   UNL A   1      35.792  31.753  30.292  1.00  0.00     0.031 A 
ATOM     56  C   UNL A   1      41.267  28.194  32.166  1.00  0.00     0.049 A 
ATOM     57  C   UNL A   1      36.529  30.708  29.487  1.00  0.00     0.074 A 
ATOM     58  C   UNL A   1      40.112  27.898  32.866  1.00  0.00     0.029 A 
ATOM     59  N   UNL A   1      40.900  28.328  30.841  1.00  0.00    -0.354 N 
ATOM     60  N   UNL A   1      37.684  30.216  29.851  1.00  0.00    -0.248 NA
ATOM     61  C   UNL A   1      35.986  30.056  28.299  1.00  0.00     0.031 C 
ATOM     62  C   UNL A   1      39.041  27.870  31.923  1.00  0.00     0.029 A 
ATOM     63  C   UNL A   1      39.543  28.204  30.676  1.00  0.00     0.049 A 
ATOM     64  H   UNL A   1      41.533  28.493  30.106  1.00  0.00     0.167 HD
ATOM     65  C   UNL A   1      37.969  29.132  29.083  1.00  0.00     0.074 A 
ATOM     66  C   UNL A   1      36.903  29.094  28.098  1.00  0.00     0.031 C 
ATOM     67  C   UNL A   1      39.009  28.287  29.327  1.00  0.00     0.031 A 
BRANCH  54  68
ATOM     68  C   UNL A   1      43.438  28.046  33.614  1.00  0.00    -0.014 A 
ATOM     69  C   UNL A   1      44.326  27.043  33.183  1.00  0.00     0.009 A 
ATOM     70  C   UNL A   1      43.479  28.333  34.995  1.00  0.00     0.009 A 
ATOM     71  C   UNL A   1      45.187  26.367  34.059  1.00  0.00     0.001 A 
ATOM     72  C   UNL A   1      44.332  27.653  35.883  1.00  0.00     0.001 A 
ATOM     73  C   UNL A   1      45.193  26.674  35.411  1.00  0.00     0.000 A 
ENDBRANCH  54  68
BRANCH  55  74
ATOM     74  C   UNL A   1      35.472  33.146  29.847  1.00  0.00    -0.014 A 
ATOM     75  C   UNL A   1      35.696  33.458  28.486  1.00  0.00     0.009 A 
ATOM     76  C   UNL A   1      34.638  33.989  30.587  1.00  0.00     0.009 A 
ATOM     77  C   UNL A   1      34.959  34.455  27.845  1.00  0.00     0.001 A 
ATOM     78  C   UNL A   1      33.928  35.017  29.947  1.00  0.00     0.001 A 
ATOM     79  C   UNL A   1      34.051  35.214  28.571  1.00  0.00     0.000 A 
ENDBRANCH  55  74
BRANCH  67  80
ATOM     80  C   UNL A   1      39.589  27.381  28.280  1.00  0.00    -0.014 A 
ATOM     81  C   UNL A   1      39.243  26.033  28.162  1.00  0.00     0.009 A 
ATOM     82  C   UNL A   1      40.419  27.916  27.270  1.00  0.00     0.009 A 
ATOM     83  C   UNL A   1      39.824  25.225  27.186  1.00  0.00     0.001 A 
ATOM     84  C   UNL A   1      40.909  27.142  26.227  1.00  0.00     0.001 A 
ATOM     85  C   UNL A   1      40.651  25.781  26.217  1.00  0.00     0.000 A 
ENDBRANCH  67  80
ENDBRANCH  41  42
ENDBRANCH  34  36
ENDBRANCH  33  34
ENDBRANCH  32  33
ENDBRANCH   1  32
TORSDOF 15
ENDMDL
