MODEL 1
REMARK VINA RESULT:     -10.4      0.000      0.000
REMARK SMILES Cc1nc(C(=O)N[C@H](CCC(N)=O)C(=O)OCCOC(=O)c2ccc(-c3c4nc(c(-c5ccccc5)c5ccc([nH]5)c(-c5ccccc5)c5nc(c(-c6ccccc6)c6ccc3[nH]6)C=C5)C=C4)cc2)ccc1C#N
REMARK SMILES IDX 17 1 16 2 14 3 15 4 8 5 7 6 5 7 6 8 4 10 1 11 2 12 3 13
REMARK SMILES IDX 72 14 71 15 70 16 73 17 74 18 9 19 10 20 11 21 12 22 13 23
REMARK SMILES IDX 18 26 19 27 20 28 21 29 22 30 23 31 69 32 24 33 68 34 25 35
REMARK SMILES IDX 26 36 27 37 62 38 28 39 67 40 61 41 63 42 29 43 66 44 60 45
REMARK SMILES IDX 59 46 30 48 52 49 37 50 51 51 38 52 41 53 50 54 64 55 39 56
REMARK SMILES IDX 40 57 49 59 65 60 42 61 31 62 32 63 36 64 33 65 35 66 34 67
REMARK SMILES IDX 53 68 54 69 58 70 55 71 57 72 56 73 43 74 44 75 48 76 45 77
REMARK SMILES IDX 47 78 46 79
REMARK H PARENT 7 9 12 24 12 25 63 47 41 58
REMARK Flexibility Score: inf
ROOT
ATOM      1  C   UNL A   1      32.060  29.523  25.797  1.00  0.00     0.274 C 
ENDROOT
BRANCH   1   2
ATOM      2  O   UNL A   1      32.815  28.493  25.115  1.00  0.00    -0.461 OA
BRANCH   2   3
ATOM      3  C   UNL A   1      32.730  28.469  23.774  1.00  0.00     0.328 C 
ATOM      4  O   UNL A   1      33.315  29.286  23.055  1.00  0.00    -0.250 OA
BRANCH   3   5
ATOM      5  C   UNL A   1      31.731  27.468  23.152  1.00  0.00     0.193 C 
BRANCH   5   6
ATOM      6  N   UNL A   1      32.362  26.946  21.923  1.00  0.00    -0.337 N 
ATOM      7  C   UNL A   1      32.876  25.727  21.557  1.00  0.00     0.270 C 
ATOM      8  O   UNL A   1      33.100  25.572  20.351  1.00  0.00    -0.267 OA
ATOM      9  H   UNL A   1      32.427  27.621  21.209  1.00  0.00     0.164 HD
BRANCH   7  10
ATOM     10  C   UNL A   1      33.282  24.637  22.505  1.00  0.00     0.128 A 
ATOM     11  C   UNL A   1      35.707  24.112  25.244  1.00  0.00     0.068 C 
ATOM     12  C   UNL A   1      34.645  23.811  24.220  1.00  0.00     0.056 A 
ATOM     13  N   UNL A   1      34.147  24.877  23.519  1.00  0.00    -0.247 NA
ATOM     14  C   UNL A   1      34.258  22.498  23.959  1.00  0.00     0.073 A 
ATOM     15  C   UNL A   1      33.318  22.277  22.955  1.00  0.00     0.024 A 
ATOM     16  C   UNL A   1      32.825  23.353  22.220  1.00  0.00     0.035 A 
BRANCH  14  17
ATOM     17  C   UNL A   1      34.834  21.390  24.654  1.00  0.00     0.101 C 
ATOM     18  N   UNL A   1      35.281  20.467  25.202  1.00  0.00    -0.192 NA
ENDBRANCH  14  17
ENDBRANCH   7  10
ENDBRANCH   5   6
BRANCH   5  19
ATOM     19  C   UNL A   1      30.192  27.376  23.192  1.00  0.00     0.047 C 
BRANCH  19  20
ATOM     20  C   UNL A   1      29.221  28.463  22.738  1.00  0.00     0.102 C 
BRANCH  20  21
ATOM     21  C   UNL A   1      29.679  29.913  22.687  1.00  0.00     0.217 C 
ATOM     22  N   UNL A   1      30.451  30.224  21.601  1.00  0.00    -0.370 N 
ATOM     23  O   UNL A   1      29.430  30.785  23.505  1.00  0.00    -0.275 OA
ATOM     24  H   UNL A   1      30.662  29.533  20.932  1.00  0.00     0.159 HD
ATOM     25  H   UNL A   1      30.797  31.139  21.490  1.00  0.00     0.159 HD
ENDBRANCH  20  21
ENDBRANCH  19  20
ENDBRANCH   5  19
ENDBRANCH   3   5
ENDBRANCH   2   3
ENDBRANCH   1   2
BRANCH   1  26
ATOM     26  C   UNL A   1      32.574  29.763  27.226  1.00  0.00     0.275 C 
BRANCH  26  27
ATOM     27  O   UNL A   1      33.992  29.478  27.362  1.00  0.00    -0.458 OA
BRANCH  27  28
ATOM     28  C   UNL A   1      34.656  30.510  27.903  1.00  0.00     0.338 C 
ATOM     29  O   UNL A   1      34.219  31.629  28.074  1.00  0.00    -0.246 OA
BRANCH  28  30
ATOM     30  C   UNL A   1      36.016  30.328  28.363  1.00  0.00     0.060 A 
ATOM     31  C   UNL A   1      37.017  30.350  27.386  1.00  0.00     0.016 A 
ATOM     32  C   UNL A   1      36.199  29.655  29.573  1.00  0.00     0.016 A 
ATOM     33  C   UNL A   1      38.224  29.714  27.632  1.00  0.00     0.010 A 
ATOM     34  C   UNL A   1      37.432  29.071  29.844  1.00  0.00     0.010 A 
ATOM     35  C   UNL A   1      38.451  29.113  28.880  1.00  0.00    -0.014 A 
BRANCH  35  36
ATOM     36  C   UNL A   1      39.818  28.697  29.238  1.00  0.00     0.031 A 
ATOM     37  C   UNL A   1      40.749  29.594  29.985  1.00  0.00     0.074 A 
ATOM     38  C   UNL A   1      40.196  27.472  28.829  1.00  0.00     0.049 A 
ATOM     39  N   UNL A   1      42.005  29.390  30.283  1.00  0.00    -0.248 NA
ATOM     40  C   UNL A   1      40.215  30.880  30.460  1.00  0.00     0.031 C 
ATOM     41  C   UNL A   1      39.330  26.522  28.117  1.00  0.00     0.029 A 
ATOM     42  N   UNL A   1      41.385  26.810  28.950  1.00  0.00    -0.354 N 
ATOM     43  C   UNL A   1      42.418  30.519  30.975  1.00  0.00     0.074 A 
ATOM     44  C   UNL A   1      41.285  31.417  31.038  1.00  0.00     0.031 C 
ATOM     45  C   UNL A   1      40.009  25.390  27.898  1.00  0.00     0.029 A 
ATOM     46  C   UNL A   1      41.371  25.561  28.382  1.00  0.00     0.049 A 
ATOM     47  H   UNL A   1      42.173  27.192  29.401  1.00  0.00     0.167 HD
ATOM     48  C   UNL A   1      43.637  30.766  31.507  1.00  0.00     0.031 A 
ATOM     49  C   UNL A   1      42.354  24.659  28.237  1.00  0.00     0.031 A 
ATOM     50  C   UNL A   1      44.748  29.852  31.423  1.00  0.00     0.049 A 
ATOM     51  C   UNL A   1      43.712  24.994  28.767  1.00  0.00     0.074 A 
ATOM     52  C   UNL A   1      46.025  30.006  31.932  1.00  0.00     0.029 A 
ATOM     53  N   UNL A   1      44.711  28.617  30.792  1.00  0.00    -0.354 N 
ATOM     54  N   UNL A   1      44.093  26.072  29.410  1.00  0.00    -0.248 NA
ATOM     55  C   UNL A   1      44.773  24.007  28.549  1.00  0.00     0.031 C 
ATOM     56  C   UNL A   1      46.775  28.888  31.563  1.00  0.00     0.029 A 
ATOM     57  C   UNL A   1      45.952  28.010  30.876  1.00  0.00     0.049 A 
ATOM     58  H   UNL A   1      43.920  28.231  30.349  1.00  0.00     0.167 HD
ATOM     59  C   UNL A   1      45.437  25.886  29.691  1.00  0.00     0.074 A 
ATOM     60  C   UNL A   1      45.802  24.588  29.156  1.00  0.00     0.031 C 
ATOM     61  C   UNL A   1      46.288  26.718  30.335  1.00  0.00     0.031 A 
BRANCH  48  62
ATOM     62  C   UNL A   1      43.857  32.068  32.219  1.00  0.00    -0.014 A 
ATOM     63  C   UNL A   1      43.761  32.150  33.617  1.00  0.00     0.009 A 
ATOM     64  C   UNL A   1      44.283  33.196  31.500  1.00  0.00     0.009 A 
ATOM     65  C   UNL A   1      44.087  33.337  34.278  1.00  0.00     0.001 A 
ATOM     66  C   UNL A   1      44.628  34.374  32.164  1.00  0.00     0.001 A 
ATOM     67  C   UNL A   1      44.529  34.444  33.553  1.00  0.00     0.000 A 
ENDBRANCH  48  62
BRANCH  49  68
ATOM     68  C   UNL A   1      42.057  23.371  27.566  1.00  0.00    -0.014 A 
ATOM     69  C   UNL A   1      42.403  23.181  26.222  1.00  0.00     0.009 A 
ATOM     70  C   UNL A   1      41.524  22.292  28.292  1.00  0.00     0.009 A 
ATOM     71  C   UNL A   1      42.224  21.934  25.618  1.00  0.00     0.001 A 
ATOM     72  C   UNL A   1      41.371  21.041  27.693  1.00  0.00     0.001 A 
ATOM     73  C   UNL A   1      41.719  20.864  26.355  1.00  0.00     0.000 A 
ENDBRANCH  49  68
BRANCH  61  74
ATOM     74  C   UNL A   1      47.703  26.257  30.516  1.00  0.00    -0.014 A 
ATOM     75  C   UNL A   1      48.665  26.485  29.522  1.00  0.00     0.009 A 
ATOM     76  C   UNL A   1      48.102  25.707  31.745  1.00  0.00     0.009 A 
ATOM     77  C   UNL A   1      50.004  26.170  29.756  1.00  0.00     0.001 A 
ATOM     78  C   UNL A   1      49.444  25.417  31.985  1.00  0.00     0.001 A 
ATOM     79  C   UNL A   1      50.393  25.649  30.991  1.00  0.00     0.000 A 
ENDBRANCH  61  74
ENDBRANCH  35  36
ENDBRANCH  28  30
ENDBRANCH  27  28
ENDBRANCH  26  27
ENDBRANCH   1  26
TORSDOF 17
ENDMDL
MODEL 2
REMARK VINA RESULT:     -10.4      3.255      7.643
REMARK SMILES Cc1nc(C(=O)N[C@H](CCC(N)=O)C(=O)OCCOC(=O)c2ccc(-c3c4nc(c(-c5ccccc5)c5ccc([nH]5)c(-c5ccccc5)c5nc(c(-c6ccccc6)c6ccc3[nH]6)C=C5)C=C4)cc2)ccc1C#N
REMARK SMILES IDX 17 1 16 2 14 3 15 4 8 5 7 6 5 7 6 8 4 10 1 11 2 12 3 13
REMARK SMILES IDX 72 14 71 15 70 16 73 17 74 18 9 19 10 20 11 21 12 22 13 23
REMARK SMILES IDX 18 26 19 27 20 28 21 29 22 30 23 31 69 32 24 33 68 34 25 35
REMARK SMILES IDX 26 36 27 37 62 38 28 39 67 40 61 41 63 42 29 43 66 44 60 45
REMARK SMILES IDX 59 46 30 48 52 49 37 50 51 51 38 52 41 53 50 54 64 55 39 56
REMARK SMILES IDX 40 57 49 59 65 60 42 61 31 62 32 63 36 64 33 65 35 66 34 67
REMARK SMILES IDX 53 68 54 69 58 70 55 71 57 72 56 73 43 74 44 75 48 76 45 77
REMARK SMILES IDX 47 78 46 79
REMARK H PARENT 7 9 12 24 12 25 63 47 41 58
REMARK Flexibility Score: inf
ROOT
ATOM      1  C   UNL A   1      38.504  21.203  25.747  1.00  0.00     0.274 C 
ENDROOT
BRANCH   1   2
ATOM      2  O   UNL A   1      37.117  21.156  25.335  1.00  0.00    -0.461 OA
BRANCH   2   3
ATOM      3  C   UNL A   1      36.407  22.289  25.467  1.00  0.00     0.328 C 
ATOM      4  O   UNL A   1      36.901  23.408  25.290  1.00  0.00    -0.250 OA
BRANCH   3   5
ATOM      5  C   UNL A   1      34.968  22.158  26.013  1.00  0.00     0.193 C 
BRANCH   5   6
ATOM      6  N   UNL A   1      34.076  22.057  24.842  1.00  0.00    -0.337 N 
ATOM      7  C   UNL A   1      33.285  21.061  24.326  1.00  0.00     0.270 C 
ATOM      8  O   UNL A   1      32.470  21.405  23.464  1.00  0.00    -0.267 OA
ATOM      9  H   UNL A   1      34.040  22.888  24.315  1.00  0.00     0.164 HD
BRANCH   7  10
ATOM     10  C   UNL A   1      33.414  19.600  24.644  1.00  0.00     0.128 A 
ATOM     11  C   UNL A   1      34.511  16.490  22.973  1.00  0.00     0.068 C 
ATOM     12  C   UNL A   1      33.933  17.402  24.023  1.00  0.00     0.056 A 
ATOM     13  N   UNL A   1      34.028  18.749  23.788  1.00  0.00    -0.247 NA
ATOM     14  C   UNL A   1      33.270  16.883  25.133  1.00  0.00     0.073 A 
ATOM     15  C   UNL A   1      32.700  17.777  26.036  1.00  0.00     0.024 A 
ATOM     16  C   UNL A   1      32.770  19.146  25.791  1.00  0.00     0.035 A 
BRANCH  14  17
ATOM     17  C   UNL A   1      33.123  15.475  25.331  1.00  0.00     0.101 C 
ATOM     18  N   UNL A   1      32.968  14.333  25.483  1.00  0.00    -0.192 NA
ENDBRANCH  14  17
ENDBRANCH   7  10
ENDBRANCH   5   6
BRANCH   5  19
ATOM     19  C   UNL A   1      34.299  22.661  27.309  1.00  0.00     0.047 C 
BRANCH  19  20
ATOM     20  C   UNL A   1      32.883  22.328  27.770  1.00  0.00     0.102 C 
BRANCH  20  21
ATOM     21  C   UNL A   1      31.696  23.048  27.147  1.00  0.00     0.217 C 
ATOM     22  N   UNL A   1      30.899  22.255  26.368  1.00  0.00    -0.370 N 
ATOM     23  O   UNL A   1      31.411  24.228  27.275  1.00  0.00    -0.275 OA
ATOM     24  H   UNL A   1      31.115  21.301  26.254  1.00  0.00     0.159 HD
ATOM     25  H   UNL A   1      30.111  22.638  25.920  1.00  0.00     0.159 HD
ENDBRANCH  20  21
ENDBRANCH  19  20
ENDBRANCH   5  19
ENDBRANCH   3   5
ENDBRANCH   2   3
ENDBRANCH   1   2
BRANCH   1  26
ATOM     26  C   UNL A   1      39.279  19.950  25.307  1.00  0.00     0.275 C 
BRANCH  26  27
ATOM     27  O   UNL A   1      40.234  19.507  26.307  1.00  0.00    -0.458 OA
BRANCH  27  28
ATOM     28  C   UNL A   1      41.487  19.864  25.990  1.00  0.00     0.338 C 
ATOM     29  O   UNL A   1      42.227  19.271  25.232  1.00  0.00    -0.246 OA
BRANCH  28  30
ATOM     30  C   UNL A   1      42.057  21.067  26.556  1.00  0.00     0.060 A 
ATOM     31  C   UNL A   1      41.859  21.272  27.925  1.00  0.00     0.016 A 
ATOM     32  C   UNL A   1      42.285  22.138  25.689  1.00  0.00     0.016 A 
ATOM     33  C   UNL A   1      41.915  22.558  28.438  1.00  0.00     0.010 A 
ATOM     34  C   UNL A   1      42.402  23.421  26.213  1.00  0.00     0.010 A 
ATOM     35  C   UNL A   1      42.232  23.631  27.590  1.00  0.00    -0.014 A 
BRANCH  35  36
ATOM     36  C   UNL A   1      42.571  24.937  28.181  1.00  0.00     0.031 A 
ATOM     37  C   UNL A   1      41.545  26.002  28.391  1.00  0.00     0.074 A 
ATOM     38  C   UNL A   1      43.865  25.132  28.497  1.00  0.00     0.049 A 
ATOM     39  N   UNL A   1      41.723  27.225  28.815  1.00  0.00    -0.248 NA
ATOM     40  C   UNL A   1      40.145  25.661  28.092  1.00  0.00     0.031 C 
ATOM     41  C   UNL A   1      44.925  24.126  28.348  1.00  0.00     0.029 A 
ATOM     42  N   UNL A   1      44.511  26.222  29.008  1.00  0.00    -0.354 N 
ATOM     43  C   UNL A   1      40.464  27.806  28.830  1.00  0.00     0.074 A 
ATOM     44  C   UNL A   1      39.529  26.809  28.355  1.00  0.00     0.031 C 
ATOM     45  C   UNL A   1      46.079  24.637  28.792  1.00  0.00     0.029 A 
ATOM     46  C   UNL A   1      45.857  26.022  29.181  1.00  0.00     0.049 A 
ATOM     47  H   UNL A   1      44.055  27.067  29.230  1.00  0.00     0.167 HD
ATOM     48  C   UNL A   1      40.135  29.061  29.214  1.00  0.00     0.031 A 
ATOM     49  C   UNL A   1      46.819  26.868  29.582  1.00  0.00     0.031 A 
ATOM     50  C   UNL A   1      41.091  30.034  29.679  1.00  0.00     0.049 A 
ATOM     51  C   UNL A   1      46.435  28.272  29.924  1.00  0.00     0.074 A 
ATOM     52  C   UNL A   1      40.859  31.332  30.095  1.00  0.00     0.029 A 
ATOM     53  N   UNL A   1      42.456  29.812  29.790  1.00  0.00    -0.354 N 
ATOM     54  N   UNL A   1      45.241  28.815  29.924  1.00  0.00    -0.248 NA
ATOM     55  C   UNL A   1      47.517  29.182  30.312  1.00  0.00     0.031 C 
ATOM     56  C   UNL A   1      42.090  31.913  30.407  1.00  0.00     0.029 A 
ATOM     57  C   UNL A   1      43.082  30.959  30.244  1.00  0.00     0.049 A 
ATOM     58  H   UNL A   1      42.910  28.964  29.577  1.00  0.00     0.167 HD
ATOM     59  C   UNL A   1      45.424  30.127  30.327  1.00  0.00     0.074 A 
ATOM     60  C   UNL A   1      46.843  30.296  30.573  1.00  0.00     0.031 C 
ATOM     61  C   UNL A   1      44.496  31.101  30.480  1.00  0.00     0.031 A 
BRANCH  48  62
ATOM     62  C   UNL A   1      38.694  29.476  29.145  1.00  0.00    -0.014 A 
ATOM     63  C   UNL A   1      38.126  29.913  27.939  1.00  0.00     0.009 A 
ATOM     64  C   UNL A   1      37.865  29.312  30.267  1.00  0.00     0.009 A 
ATOM     65  C   UNL A   1      36.757  30.180  27.859  1.00  0.00     0.001 A 
ATOM     66  C   UNL A   1      36.494  29.559  30.179  1.00  0.00     0.001 A 
ATOM     67  C   UNL A   1      35.941  29.993  28.976  1.00  0.00     0.000 A 
ENDBRANCH  48  62
BRANCH  49  68
ATOM     68  C   UNL A   1      48.216  26.379  29.674  1.00  0.00    -0.014 A 
ATOM     69  C   UNL A   1      49.107  26.593  28.615  1.00  0.00     0.009 A 
ATOM     70  C   UNL A   1      48.693  25.795  30.860  1.00  0.00     0.009 A 
ATOM     71  C   UNL A   1      50.451  26.231  28.741  1.00  0.00     0.001 A 
ATOM     72  C   UNL A   1      50.040  25.459  30.992  1.00  0.00     0.001 A 
ATOM     73  C   UNL A   1      50.918  25.675  29.932  1.00  0.00     0.000 A 
ENDBRANCH  49  68
BRANCH  61  74
ATOM     74  C   UNL A   1      44.972  32.444  30.947  1.00  0.00    -0.014 A 
ATOM     75  C   UNL A   1      45.297  33.450  30.027  1.00  0.00     0.009 A 
ATOM     76  C   UNL A   1      44.969  32.741  32.320  1.00  0.00     0.009 A 
ATOM     77  C   UNL A   1      45.612  34.733  30.474  1.00  0.00     0.001 A 
ATOM     78  C   UNL A   1      45.258  34.031  32.761  1.00  0.00     0.001 A 
ATOM     79  C   UNL A   1      45.579  35.025  31.838  1.00  0.00     0.000 A 
ENDBRANCH  61  74
ENDBRANCH  35  36
ENDBRANCH  28  30
ENDBRANCH  27  28
ENDBRANCH  26  27
ENDBRANCH   1  26
TORSDOF 17
ENDMDL
MODEL 3
REMARK VINA RESULT:     -10.4      3.266      8.287
REMARK SMILES Cc1nc(C(=O)N[C@H](CCC(N)=O)C(=O)OCCOC(=O)c2ccc(-c3c4nc(c(-c5ccccc5)c5ccc([nH]5)c(-c5ccccc5)c5nc(c(-c6ccccc6)c6ccc3[nH]6)C=C5)C=C4)cc2)ccc1C#N
REMARK SMILES IDX 17 1 16 2 14 3 15 4 8 5 7 6 5 7 6 8 4 10 1 11 2 12 3 13
REMARK SMILES IDX 72 14 71 15 70 16 73 17 74 18 9 19 10 20 11 21 12 22 13 23
REMARK SMILES IDX 18 26 19 27 20 28 21 29 22 30 23 31 69 32 24 33 68 34 25 35
REMARK SMILES IDX 26 36 27 37 62 38 28 39 67 40 61 41 63 42 29 43 66 44 60 45
REMARK SMILES IDX 59 46 30 48 52 49 37 50 51 51 38 52 41 53 50 54 64 55 39 56
REMARK SMILES IDX 40 57 49 59 65 60 42 61 31 62 32 63 36 64 33 65 35 66 34 67
REMARK SMILES IDX 53 68 54 69 58 70 55 71 57 72 56 73 43 74 44 75 48 76 45 77
REMARK SMILES IDX 47 78 46 79
REMARK H PARENT 7 9 12 24 12 25 63 47 41 58
REMARK Flexibility Score: inf
ROOT
ATOM      1  C   UNL A   1      36.101  21.469  25.255  1.00  0.00     0.274 C 
ENDROOT
BRANCH   1   2
ATOM      2  O   UNL A   1      35.283  22.483  25.886  1.00  0.00    -0.461 OA
BRANCH   2   3
ATOM      3  C   UNL A   1      34.206  22.055  26.566  1.00  0.00     0.328 C 
ATOM      4  O   UNL A   1      34.265  21.686  27.744  1.00  0.00    -0.250 OA
BRANCH   3   5
ATOM      5  C   UNL A   1      32.895  21.882  25.767  1.00  0.00     0.193 C 
BRANCH   5   6
ATOM      6  N   UNL A   1      31.789  22.209  26.688  1.00  0.00    -0.337 N 
ATOM      7  C   UNL A   1      30.888  23.241  26.771  1.00  0.00     0.270 C 
ATOM      8  O   UNL A   1      29.928  23.065  27.530  1.00  0.00    -0.267 OA
ATOM      9  H   UNL A   1      31.671  21.538  27.399  1.00  0.00     0.164 HD
BRANCH   7  10
ATOM     10  C   UNL A   1      31.038  24.579  26.108  1.00  0.00     0.128 A 
ATOM     11  C   UNL A   1      31.600  28.100  27.082  1.00  0.00     0.068 C 
ATOM     12  C   UNL A   1      31.320  26.901  26.215  1.00  0.00     0.056 A 
ATOM     13  N   UNL A   1      31.402  25.674  26.818  1.00  0.00    -0.247 NA
ATOM     14  C   UNL A   1      30.923  27.057  24.888  1.00  0.00     0.073 A 
ATOM     15  C   UNL A   1      30.615  25.913  24.156  1.00  0.00     0.024 A 
ATOM     16  C   UNL A   1      30.672  24.663  24.769  1.00  0.00     0.035 A 
BRANCH  14  17
ATOM     17  C   UNL A   1      30.780  28.348  24.291  1.00  0.00     0.101 C 
ATOM     18  N   UNL A   1      30.636  29.404  23.828  1.00  0.00    -0.192 NA
ENDBRANCH  14  17
ENDBRANCH   7  10
ENDBRANCH   5   6
BRANCH   5  19
ATOM     19  C   UNL A   1      32.516  20.975  24.577  1.00  0.00     0.047 C 
BRANCH  19  20
ATOM     20  C   UNL A   1      33.037  19.562  24.331  1.00  0.00     0.102 C 
BRANCH  20  21
ATOM     21  C   UNL A   1      32.563  18.417  25.214  1.00  0.00     0.217 C 
ATOM     22  N   UNL A   1      32.957  18.510  26.520  1.00  0.00    -0.370 N 
ATOM     23  O   UNL A   1      31.893  17.457  24.865  1.00  0.00    -0.275 OA
ATOM     24  H   UNL A   1      33.498  19.277  26.818  1.00  0.00     0.159 HD
ATOM     25  H   UNL A   1      32.701  17.809  27.163  1.00  0.00     0.159 HD
ENDBRANCH  20  21
ENDBRANCH  19  20
ENDBRANCH   5  19
ENDBRANCH   3   5
ENDBRANCH   2   3
ENDBRANCH   1   2
BRANCH   1  26
ATOM     26  C   UNL A   1      37.562  21.921  25.099  1.00  0.00     0.275 C 
BRANCH  26  27
ATOM     27  O   UNL A   1      37.917  22.982  26.025  1.00  0.00    -0.458 OA
BRANCH  27  28
ATOM     28  C   UNL A   1      39.238  23.024  26.250  1.00  0.00     0.338 C 
ATOM     29  O   UNL A   1      40.057  22.226  25.841  1.00  0.00    -0.246 OA
BRANCH  28  30
ATOM     30  C   UNL A   1      39.801  24.105  27.028  1.00  0.00     0.060 A 
ATOM     31  C   UNL A   1      39.156  24.416  28.230  1.00  0.00     0.016 A 
ATOM     32  C   UNL A   1      40.561  25.058  26.346  1.00  0.00     0.016 A 
ATOM     33  C   UNL A   1      39.293  25.685  28.769  1.00  0.00     0.010 A 
ATOM     34  C   UNL A   1      40.749  26.312  26.919  1.00  0.00     0.010 A 
ATOM     35  C   UNL A   1      40.127  26.622  28.138  1.00  0.00    -0.014 A 
BRANCH  35  36
ATOM     36  C   UNL A   1      40.494  27.854  28.857  1.00  0.00     0.031 A 
ATOM     37  C   UNL A   1      41.808  28.007  29.551  1.00  0.00     0.074 A 
ATOM     38  C   UNL A   1      39.567  28.830  28.881  1.00  0.00     0.049 A 
ATOM     39  N   UNL A   1      42.220  28.998  30.295  1.00  0.00    -0.248 NA
ATOM     40  C   UNL A   1      42.785  26.918  29.396  1.00  0.00     0.031 C 
ATOM     41  C   UNL A   1      38.267  28.768  28.200  1.00  0.00     0.029 A 
ATOM     42  N   UNL A   1      39.566  30.055  29.485  1.00  0.00    -0.354 N 
ATOM     43  C   UNL A   1      43.500  28.656  30.705  1.00  0.00     0.074 A 
ATOM     44  C   UNL A   1      43.794  27.355  30.143  1.00  0.00     0.031 C 
ATOM     45  C   UNL A   1      37.613  29.918  28.397  1.00  0.00     0.029 A 
ATOM     46  C   UNL A   1      38.409  30.762  29.276  1.00  0.00     0.049 A 
ATOM     47  H   UNL A   1      40.322  30.397  30.018  1.00  0.00     0.167 HD
ATOM     48  C   UNL A   1      44.344  29.378  31.478  1.00  0.00     0.031 A 
ATOM     49  C   UNL A   1      38.014  31.950  29.761  1.00  0.00     0.031 A 
ATOM     50  C   UNL A   1      44.020  30.670  32.026  1.00  0.00     0.049 A 
ATOM     51  C   UNL A   1      38.938  32.688  30.677  1.00  0.00     0.074 A 
ATOM     52  C   UNL A   1      44.807  31.486  32.820  1.00  0.00     0.029 A 
ATOM     53  N   UNL A   1      42.816  31.332  31.837  1.00  0.00    -0.354 N 
ATOM     54  N   UNL A   1      40.143  32.349  31.067  1.00  0.00    -0.248 NA
ATOM     55  C   UNL A   1      38.455  33.958  31.226  1.00  0.00     0.031 C 
ATOM     56  C   UNL A   1      44.059  32.617  33.154  1.00  0.00     0.029 A 
ATOM     57  C   UNL A   1      42.829  32.535  32.520  1.00  0.00     0.049 A 
ATOM     58  H   UNL A   1      42.064  30.995  31.297  1.00  0.00     0.167 HD
ATOM     59  C   UNL A   1      40.573  33.372  31.895  1.00  0.00     0.074 A 
ATOM     60  C   UNL A   1      39.502  34.349  31.944  1.00  0.00     0.031 C 
ATOM     61  C   UNL A   1      41.750  33.489  32.553  1.00  0.00     0.031 A 
BRANCH  48  62
ATOM     62  C   UNL A   1      45.694  28.803  31.794  1.00  0.00    -0.014 A 
ATOM     63  C   UNL A   1      45.875  27.954  32.896  1.00  0.00     0.009 A 
ATOM     64  C   UNL A   1      46.767  29.012  30.913  1.00  0.00     0.009 A 
ATOM     65  C   UNL A   1      47.106  27.329  33.111  1.00  0.00     0.001 A 
ATOM     66  C   UNL A   1      47.989  28.370  31.118  1.00  0.00     0.001 A 
ATOM     67  C   UNL A   1      48.158  27.529  32.216  1.00  0.00     0.000 A 
ENDBRANCH  48  62
BRANCH  49  68
ATOM     68  C   UNL A   1      36.687  32.483  29.369  1.00  0.00    -0.014 A 
ATOM     69  C   UNL A   1      35.577  32.291  30.203  1.00  0.00     0.009 A 
ATOM     70  C   UNL A   1      36.547  33.275  28.217  1.00  0.00     0.009 A 
ATOM     71  C   UNL A   1      34.352  32.884  29.891  1.00  0.00     0.001 A 
ATOM     72  C   UNL A   1      35.328  33.887  27.922  1.00  0.00     0.001 A 
ATOM     73  C   UNL A   1      34.231  33.689  28.758  1.00  0.00     0.000 A 
ENDBRANCH  49  68
BRANCH  61  74
ATOM     74  C   UNL A   1      41.962  34.721  33.380  1.00  0.00    -0.014 A 
ATOM     75  C   UNL A   1      41.531  34.774  34.713  1.00  0.00     0.009 A 
ATOM     76  C   UNL A   1      42.714  35.786  32.858  1.00  0.00     0.009 A 
ATOM     77  C   UNL A   1      41.849  35.874  35.509  1.00  0.00     0.001 A 
ATOM     78  C   UNL A   1      43.053  36.871  33.664  1.00  0.00     0.001 A 
ATOM     79  C   UNL A   1      42.620  36.914  34.989  1.00  0.00     0.000 A 
ENDBRANCH  61  74
ENDBRANCH  35  36
ENDBRANCH  28  30
ENDBRANCH  27  28
ENDBRANCH  26  27
ENDBRANCH   1  26
TORSDOF 17
ENDMDL
