MODEL 1
REMARK VINA RESULT:     -10.1      0.000      0.000
REMARK SMILES Nc1ccc(-c2cc(Cl)cc3c2O[C@H](C(F)(F)F)C(C(=O)OCCOC(=O)c2ccc(-c4c5nc(c(-c6ccccc6)c6ccc([nH]6)c(-c6ccccc6)c6nc(c(-c7ccccc7)c7ccc4[nH]7)C=C6)C=C5)cc2)=C3)cc1
REMARK SMILES IDX 23 1 22 2 20 3 21 4 19 5 6 6 7 7 12 8 8 9 11 10 13 11 9 12
REMARK SMILES IDX 10 13 76 14 14 15 5 16 2 17 3 18 78 19 4 20 77 21 1 22 15 25
REMARK SMILES IDX 16 26 17 27 18 28 24 29 25 30 26 31 27 32 28 33 29 34 75 35
REMARK SMILES IDX 30 36 74 37 31 38 32 39 33 40 68 41 34 42 73 43 67 44 69 45
REMARK SMILES IDX 35 46 72 47 66 48 65 49 36 51 58 52 43 53 57 54 44 55 47 56
REMARK SMILES IDX 56 57 70 58 45 59 46 60 55 62 71 63 48 64 37 65 38 66 42 67
REMARK SMILES IDX 39 68 41 69 40 70 59 71 60 72 64 73 61 74 63 75 62 76 49 77
REMARK SMILES IDX 50 78 54 79 51 80 53 81 52 82
REMARK H PARENT 1 23 1 24 69 50 47 61
REMARK Flexibility Score: inf
ROOT
ATOM      1  C   UNL A   1      34.402  34.975  28.748  1.00  0.00     0.275 C 
ENDROOT
BRANCH   1   2
ATOM      2  O   UNL A   1      34.127  34.959  30.167  1.00  0.00    -0.459 OA
BRANCH   2   3
ATOM      3  C   UNL A   1      34.568  33.872  30.840  1.00  0.00     0.338 C 
ATOM      4  O   UNL A   1      34.046  32.770  30.875  1.00  0.00    -0.246 OA
BRANCH   3   5
ATOM      5  C   UNL A   1      35.840  34.178  31.526  1.00  0.00     0.087 C 
ATOM      6  C   UNL A   1      39.470  34.693  33.567  1.00  0.00     0.026 A 
ATOM      7  C   UNL A   1      40.670  34.502  32.855  1.00  0.00     0.033 A 
ATOM      8  C   UNL A   1      38.247  34.577  32.873  1.00  0.00     0.135 A 
ATOM      9  C   UNL A   1      40.650  34.203  31.495  1.00  0.00     0.042 A 
ATOM     10  C   UNL A   1      38.240  34.236  31.520  1.00  0.00     0.019 A 
ATOM     11  O   UNL A   1      37.095  34.847  33.566  1.00  0.00    -0.475 OA
ATOM     12  Cl  UNL A   1      42.128  33.983  30.643  1.00  0.00    -0.084 Cl
ATOM     13  C   UNL A   1      39.442  34.064  30.825  1.00  0.00     0.032 A 
ATOM     14  C   UNL A   1      36.978  34.028  30.840  1.00  0.00     0.027 C 
ATOM     15  C   UNL A   1      35.806  34.520  32.986  1.00  0.00     0.316 C 
BRANCH   6  16
ATOM     16  C   UNL A   1      39.513  34.964  35.012  1.00  0.00    -0.014 A 
ATOM     17  C   UNL A   1      39.662  35.469  37.791  1.00  0.00     0.031 A 
ATOM     18  C   UNL A   1      40.273  36.330  36.881  1.00  0.00     0.026 A 
ATOM     19  C   UNL A   1      38.926  34.390  37.300  1.00  0.00     0.026 A 
ATOM     20  C   UNL A   1      40.207  36.078  35.509  1.00  0.00     0.011 A 
ATOM     21  C   UNL A   1      38.860  34.130  35.928  1.00  0.00     0.011 A 
BRANCH  17  22
ATOM     22  N   UNL A   1      39.679  35.754  39.146  1.00  0.00    -0.399 N 
ATOM     23  H   UNL A   1      40.357  35.340  39.728  1.00  0.00     0.156 HD
ATOM     24  H   UNL A   1      39.014  36.371  39.528  1.00  0.00     0.156 HD
ENDBRANCH  17  22
ENDBRANCH   6  16
BRANCH  15  25
ATOM     25  C   UNL A   1      35.174  33.385  33.807  1.00  0.00     0.430 C 
ATOM     26  F   UNL A   1      33.823  33.411  33.736  1.00  0.00    -0.167 F 
ATOM     27  F   UNL A   1      35.563  32.167  33.359  1.00  0.00    -0.167 F 
ATOM     28  F   UNL A   1      35.511  33.459  35.116  1.00  0.00    -0.167 F 
ENDBRANCH  15  25
ENDBRANCH   3   5
ENDBRANCH   2   3
ENDBRANCH   1   2
BRANCH   1  29
ATOM     29  C   UNL A   1      33.774  33.770  28.048  1.00  0.00     0.275 C 
BRANCH  29  30
ATOM     30  O   UNL A   1      34.805  32.900  27.548  1.00  0.00    -0.458 OA
BRANCH  30  31
ATOM     31  C   UNL A   1      34.605  31.576  27.744  1.00  0.00     0.338 C 
ATOM     32  O   UNL A   1      33.688  30.889  27.328  1.00  0.00    -0.246 OA
BRANCH  31  33
ATOM     33  C   UNL A   1      35.747  31.024  28.484  1.00  0.00     0.060 A 
ATOM     34  C   UNL A   1      35.632  29.870  29.250  1.00  0.00     0.016 A 
ATOM     35  C   UNL A   1      36.993  31.607  28.292  1.00  0.00     0.016 A 
ATOM     36  C   UNL A   1      36.782  29.329  29.839  1.00  0.00     0.010 A 
ATOM     37  C   UNL A   1      38.149  30.986  28.748  1.00  0.00     0.010 A 
ATOM     38  C   UNL A   1      38.061  29.859  29.568  1.00  0.00    -0.014 A 
BRANCH  38  39
ATOM     39  C   UNL A   1      39.298  29.252  30.140  1.00  0.00     0.031 A 
ATOM     40  C   UNL A   1      39.992  28.097  29.454  1.00  0.00     0.074 A 
ATOM     41  C   UNL A   1      39.789  29.717  31.308  1.00  0.00     0.049 A 
ATOM     42  N   UNL A   1      41.097  27.478  29.798  1.00  0.00    -0.248 NA
ATOM     43  C   UNL A   1      39.353  27.530  28.255  1.00  0.00     0.031 C 
ATOM     44  C   UNL A   1      39.168  30.756  32.133  1.00  0.00     0.029 A 
ATOM     45  N   UNL A   1      40.937  29.396  31.992  1.00  0.00    -0.354 N 
ATOM     46  C   UNL A   1      41.258  26.445  28.882  1.00  0.00     0.074 A 
ATOM     47  C   UNL A   1      40.107  26.470  28.011  1.00  0.00     0.031 C 
ATOM     48  C   UNL A   1      39.983  31.050  33.157  1.00  0.00     0.029 A 
ATOM     49  C   UNL A   1      41.162  30.194  33.089  1.00  0.00     0.049 A 
ATOM     50  H   UNL A   1      41.540  28.667  31.721  1.00  0.00     0.167 HD
ATOM     51  C   UNL A   1      42.289  25.579  28.744  1.00  0.00     0.031 A 
ATOM     52  C   UNL A   1      42.211  30.253  33.933  1.00  0.00     0.031 A 
ATOM     53  C   UNL A   1      43.467  25.593  29.568  1.00  0.00     0.049 A 
ATOM     54  C   UNL A   1      43.381  29.336  33.720  1.00  0.00     0.074 A 
ATOM     55  C   UNL A   1      44.607  24.819  29.447  1.00  0.00     0.029 A 
ATOM     56  N   UNL A   1      43.660  26.433  30.652  1.00  0.00    -0.354 N 
ATOM     57  N   UNL A   1      43.554  28.426  32.792  1.00  0.00    -0.248 NA
ATOM     58  C   UNL A   1      44.506  29.461  34.659  1.00  0.00     0.031 C 
ATOM     59  C   UNL A   1      45.475  25.162  30.486  1.00  0.00     0.029 A 
ATOM     60  C   UNL A   1      44.898  26.189  31.217  1.00  0.00     0.049 A 
ATOM     61  H   UNL A   1      43.013  27.104  30.972  1.00  0.00     0.167 HD
ATOM     62  C   UNL A   1      44.810  27.881  33.024  1.00  0.00     0.074 A 
ATOM     63  C   UNL A   1      45.366  28.576  34.167  1.00  0.00     0.031 C 
ATOM     64  C   UNL A   1      45.441  26.890  32.351  1.00  0.00     0.031 A 
BRANCH  51  65
ATOM     65  C   UNL A   1      42.220  24.566  27.633  1.00  0.00    -0.014 A 
ATOM     66  C   UNL A   1      41.635  23.309  27.860  1.00  0.00     0.009 A 
ATOM     67  C   UNL A   1      42.810  24.820  26.383  1.00  0.00     0.009 A 
ATOM     68  C   UNL A   1      41.643  22.332  26.864  1.00  0.00     0.001 A 
ATOM     69  C   UNL A   1      42.788  23.852  25.378  1.00  0.00     0.001 A 
ATOM     70  C   UNL A   1      42.214  22.606  25.621  1.00  0.00     0.000 A 
ENDBRANCH  51  65
BRANCH  52  71
ATOM     71  C   UNL A   1      42.224  31.283  35.006  1.00  0.00    -0.014 A 
ATOM     72  C   UNL A   1      42.817  32.537  34.795  1.00  0.00     0.009 A 
ATOM     73  C   UNL A   1      41.698  30.987  36.274  1.00  0.00     0.009 A 
ATOM     74  C   UNL A   1      42.904  33.465  35.837  1.00  0.00     0.001 A 
ATOM     75  C   UNL A   1      41.761  31.926  37.305  1.00  0.00     0.001 A 
ATOM     76  C   UNL A   1      42.373  33.159  37.089  1.00  0.00     0.000 A 
ENDBRANCH  52  71
BRANCH  64  77
ATOM     77  C   UNL A   1      46.813  26.486  32.810  1.00  0.00    -0.014 A 
ATOM     78  C   UNL A   1      47.940  27.145  32.297  1.00  0.00     0.009 A 
ATOM     79  C   UNL A   1      46.993  25.378  33.650  1.00  0.00     0.009 A 
ATOM     80  C   UNL A   1      49.225  26.690  32.598  1.00  0.00     0.001 A 
ATOM     81  C   UNL A   1      48.280  24.941  33.972  1.00  0.00     0.001 A 
ATOM     82  C   UNL A   1      49.393  25.590  33.438  1.00  0.00     0.000 A 
ENDBRANCH  64  77
ENDBRANCH  38  39
ENDBRANCH  31  33
ENDBRANCH  30  31
ENDBRANCH  29  30
ENDBRANCH   1  29
TORSDOF 14
ENDMDL
MODEL 2
REMARK VINA RESULT:      -9.9      5.676     11.559
REMARK SMILES Nc1ccc(-c2cc(Cl)cc3c2O[C@H](C(F)(F)F)C(C(=O)OCCOC(=O)c2ccc(-c4c5nc(c(-c6ccccc6)c6ccc([nH]6)c(-c6ccccc6)c6nc(c(-c7ccccc7)c7ccc4[nH]7)C=C6)C=C5)cc2)=C3)cc1
REMARK SMILES IDX 23 1 22 2 20 3 21 4 19 5 6 6 7 7 12 8 8 9 11 10 13 11 9 12
REMARK SMILES IDX 10 13 76 14 14 15 5 16 2 17 3 18 78 19 4 20 77 21 1 22 15 25
REMARK SMILES IDX 16 26 17 27 18 28 24 29 25 30 26 31 27 32 28 33 29 34 75 35
REMARK SMILES IDX 30 36 74 37 31 38 32 39 33 40 68 41 34 42 73 43 67 44 69 45
REMARK SMILES IDX 35 46 72 47 66 48 65 49 36 51 58 52 43 53 57 54 44 55 47 56
REMARK SMILES IDX 56 57 70 58 45 59 46 60 55 62 71 63 48 64 37 65 38 66 42 67
REMARK SMILES IDX 39 68 41 69 40 70 59 71 60 72 64 73 61 74 63 75 62 76 49 77
REMARK SMILES IDX 50 78 54 79 51 80 53 81 52 82
REMARK H PARENT 1 23 1 24 69 50 47 61
REMARK Flexibility Score: inf
ROOT
ATOM      1  C   UNL A   1      41.901  19.926  26.064  1.00  0.00     0.275 C 
ENDROOT
BRANCH   1   2
ATOM      2  O   UNL A   1      42.845  20.837  26.670  1.00  0.00    -0.459 OA
BRANCH   2   3
ATOM      3  C   UNL A   1      43.229  21.883  25.904  1.00  0.00     0.338 C 
ATOM      4  O   UNL A   1      42.740  22.232  24.841  1.00  0.00    -0.246 OA
BRANCH   3   5
ATOM      5  C   UNL A   1      44.332  22.616  26.558  1.00  0.00     0.087 C 
ATOM      6  C   UNL A   1      47.335  25.003  28.258  1.00  0.00     0.026 A 
ATOM      7  C   UNL A   1      47.082  25.607  29.505  1.00  0.00     0.033 A 
ATOM      8  C   UNL A   1      46.352  24.154  27.708  1.00  0.00     0.135 A 
ATOM      9  C   UNL A   1      45.887  25.374  30.180  1.00  0.00     0.042 A 
ATOM     10  C   UNL A   1      45.141  23.962  28.374  1.00  0.00     0.019 A 
ATOM     11  O   UNL A   1      46.651  23.512  26.534  1.00  0.00    -0.475 OA
ATOM     12  Cl  UNL A   1      45.603  26.116  31.705  1.00  0.00    -0.084 Cl
ATOM     13  C   UNL A   1      44.913  24.559  29.618  1.00  0.00     0.032 A 
ATOM     14  C   UNL A   1      44.102  23.164  27.757  1.00  0.00     0.027 C 
ATOM     15  C   UNL A   1      45.610  22.820  25.800  1.00  0.00     0.316 C 
BRANCH   6  16
ATOM     16  C   UNL A   1      48.586  25.298  27.544  1.00  0.00    -0.014 A 
ATOM     17  C   UNL A   1      50.977  25.817  26.126  1.00  0.00     0.031 A 
ATOM     18  C   UNL A   1      49.743  26.179  25.589  1.00  0.00     0.026 A 
ATOM     19  C   UNL A   1      51.013  25.252  27.401  1.00  0.00     0.026 A 
ATOM     20  C   UNL A   1      48.561  25.916  26.284  1.00  0.00     0.011 A 
ATOM     21  C   UNL A   1      49.832  24.983  28.100  1.00  0.00     0.011 A 
BRANCH  17  22
ATOM     22  N   UNL A   1      52.151  26.132  25.461  1.00  0.00    -0.399 N 
ATOM     23  H   UNL A   1      52.669  26.927  25.724  1.00  0.00     0.156 HD
ATOM     24  H   UNL A   1      52.468  25.561  24.724  1.00  0.00     0.156 HD
ENDBRANCH  17  22
ENDBRANCH   6  16
BRANCH  15  25
ATOM     25  C   UNL A   1      45.360  23.569  24.481  1.00  0.00     0.430 C 
ATOM     26  F   UNL A   1      44.357  24.470  24.602  1.00  0.00    -0.167 F 
ATOM     27  F   UNL A   1      46.456  24.260  24.083  1.00  0.00    -0.167 F 
ATOM     28  F   UNL A   1      45.027  22.726  23.476  1.00  0.00    -0.167 F 
ENDBRANCH  15  25
ENDBRANCH   3   5
ENDBRANCH   2   3
ENDBRANCH   1   2
BRANCH   1  29
ATOM     29  C   UNL A   1      40.523  20.038  26.717  1.00  0.00     0.275 C 
BRANCH  29  30
ATOM     30  O   UNL A   1      40.379  21.326  27.343  1.00  0.00    -0.458 OA
BRANCH  30  31
ATOM     31  C   UNL A   1      39.646  22.234  26.659  1.00  0.00     0.338 C 
ATOM     32  O   UNL A   1      38.648  22.038  25.988  1.00  0.00    -0.246 OA
BRANCH  31  33
ATOM     33  C   UNL A   1      40.183  23.576  26.920  1.00  0.00     0.060 A 
ATOM     34  C   UNL A   1      39.992  24.625  26.029  1.00  0.00     0.016 A 
ATOM     35  C   UNL A   1      40.776  23.814  28.155  1.00  0.00     0.016 A 
ATOM     36  C   UNL A   1      40.429  25.907  26.387  1.00  0.00     0.010 A 
ATOM     37  C   UNL A   1      41.067  25.107  28.569  1.00  0.00     0.010 A 
ATOM     38  C   UNL A   1      40.940  26.174  27.675  1.00  0.00    -0.014 A 
BRANCH  38  39
ATOM     39  C   UNL A   1      41.350  27.547  28.088  1.00  0.00     0.031 A 
ATOM     40  C   UNL A   1      40.334  28.546  28.596  1.00  0.00     0.074 A 
ATOM     41  C   UNL A   1      42.641  27.919  27.975  1.00  0.00     0.049 A 
ATOM     42  N   UNL A   1      40.529  29.769  29.031  1.00  0.00    -0.248 NA
ATOM     43  C   UNL A   1      38.916  28.149  28.579  1.00  0.00     0.031 C 
ATOM     44  C   UNL A   1      43.712  27.097  27.405  1.00  0.00     0.029 A 
ATOM     45  N   UNL A   1      43.281  29.074  28.357  1.00  0.00    -0.354 N 
ATOM     46  C   UNL A   1      39.265  30.283  29.303  1.00  0.00     0.074 A 
ATOM     47  C   UNL A   1      38.307  29.274  28.920  1.00  0.00     0.031 C 
ATOM     48  C   UNL A   1      44.883  27.733  27.558  1.00  0.00     0.029 A 
ATOM     49  C   UNL A   1      44.646  29.024  28.195  1.00  0.00     0.049 A 
ATOM     50  H   UNL A   1      42.808  29.860  28.712  1.00  0.00     0.167 HD
ATOM     51  C   UNL A   1      38.929  31.469  29.863  1.00  0.00     0.031 A 
ATOM     52  C   UNL A   1      45.606  29.902  28.544  1.00  0.00     0.031 A 
ATOM     53  C   UNL A   1      39.883  32.449  30.306  1.00  0.00     0.049 A 
ATOM     54  C   UNL A   1      45.221  31.180  29.234  1.00  0.00     0.074 A 
ATOM     55  C   UNL A   1      39.644  33.638  30.971  1.00  0.00     0.029 A 
ATOM     56  N   UNL A   1      41.254  32.344  30.142  1.00  0.00    -0.354 N 
ATOM     57  N   UNL A   1      44.027  31.607  29.565  1.00  0.00    -0.248 NA
ATOM     58  C   UNL A   1      46.312  32.090  29.611  1.00  0.00     0.031 C 
ATOM     59  C   UNL A   1      40.871  34.275  31.173  1.00  0.00     0.029 A 
ATOM     60  C   UNL A   1      41.876  33.454  30.685  1.00  0.00     0.049 A 
ATOM     61  H   UNL A   1      41.717  31.592  29.706  1.00  0.00     0.167 HD
ATOM     62  C   UNL A   1      44.223  32.826  30.202  1.00  0.00     0.074 A 
ATOM     63  C   UNL A   1      45.651  33.061  30.230  1.00  0.00     0.031 C 
ATOM     64  C   UNL A   1      43.297  33.674  30.711  1.00  0.00     0.031 A 
BRANCH  51  65
ATOM     65  C   UNL A   1      37.468  31.762  30.077  1.00  0.00    -0.014 A 
ATOM     66  C   UNL A   1      36.727  32.415  29.077  1.00  0.00     0.009 A 
ATOM     67  C   UNL A   1      36.842  31.470  31.300  1.00  0.00     0.009 A 
ATOM     68  C   UNL A   1      35.396  32.770  29.299  1.00  0.00     0.001 A 
ATOM     69  C   UNL A   1      35.500  31.797  31.506  1.00  0.00     0.001 A 
ATOM     70  C   UNL A   1      34.781  32.455  30.511  1.00  0.00     0.000 A 
ENDBRANCH  51  65
BRANCH  52  71
ATOM     71  C   UNL A   1      47.033  29.550  28.316  1.00  0.00    -0.014 A 
ATOM     72  C   UNL A   1      47.796  28.941  29.324  1.00  0.00     0.009 A 
ATOM     73  C   UNL A   1      47.656  29.884  27.103  1.00  0.00     0.009 A 
ATOM     74  C   UNL A   1      49.159  28.695  29.131  1.00  0.00     0.001 A 
ATOM     75  C   UNL A   1      49.011  29.612  26.902  1.00  0.00     0.001 A 
ATOM     76  C   UNL A   1      49.763  29.028  27.920  1.00  0.00     0.000 A 
ENDBRANCH  52  71
BRANCH  64  77
ATOM     77  C   UNL A   1      43.780  34.940  31.358  1.00  0.00    -0.014 A 
ATOM     78  C   UNL A   1      44.006  34.971  32.743  1.00  0.00     0.009 A 
ATOM     79  C   UNL A   1      43.891  36.128  30.622  1.00  0.00     0.009 A 
ATOM     80  C   UNL A   1      44.314  36.172  33.383  1.00  0.00     0.001 A 
ATOM     81  C   UNL A   1      44.225  37.323  31.261  1.00  0.00     0.001 A 
ATOM     82  C   UNL A   1      44.425  37.347  32.640  1.00  0.00     0.000 A 
ENDBRANCH  64  77
ENDBRANCH  38  39
ENDBRANCH  31  33
ENDBRANCH  30  31
ENDBRANCH  29  30
ENDBRANCH   1  29
TORSDOF 14
ENDMDL
MODEL 3
REMARK VINA RESULT:      -9.9      0.593      5.914
REMARK SMILES Nc1ccc(-c2cc(Cl)cc3c2O[C@H](C(F)(F)F)C(C(=O)OCCOC(=O)c2ccc(-c4c5nc(c(-c6ccccc6)c6ccc([nH]6)c(-c6ccccc6)c6nc(c(-c7ccccc7)c7ccc4[nH]7)C=C6)C=C5)cc2)=C3)cc1
REMARK SMILES IDX 23 1 22 2 20 3 21 4 19 5 6 6 7 7 12 8 8 9 11 10 13 11 9 12
REMARK SMILES IDX 10 13 76 14 14 15 5 16 2 17 3 18 78 19 4 20 77 21 1 22 15 25
REMARK SMILES IDX 16 26 17 27 18 28 24 29 25 30 26 31 27 32 28 33 29 34 75 35
REMARK SMILES IDX 30 36 74 37 31 38 32 39 33 40 68 41 34 42 73 43 67 44 69 45
REMARK SMILES IDX 35 46 72 47 66 48 65 49 36 51 58 52 43 53 57 54 44 55 47 56
REMARK SMILES IDX 56 57 70 58 45 59 46 60 55 62 71 63 48 64 37 65 38 66 42 67
REMARK SMILES IDX 39 68 41 69 40 70 59 71 60 72 64 73 61 74 63 75 62 76 49 77
REMARK SMILES IDX 50 78 54 79 51 80 53 81 52 82
REMARK H PARENT 1 23 1 24 69 50 47 61
REMARK Flexibility Score: inf
ROOT
ATOM      1  C   UNL A   1      34.657  34.691  28.993  1.00  0.00     0.275 C 
ENDROOT
BRANCH   1   2
ATOM      2  O   UNL A   1      34.305  34.603  30.392  1.00  0.00    -0.459 OA
BRANCH   2   3
ATOM      3  C   UNL A   1      34.852  33.572  31.074  1.00  0.00     0.338 C 
ATOM      4  O   UNL A   1      34.392  32.448  31.196  1.00  0.00    -0.246 OA
BRANCH   3   5
ATOM      5  C   UNL A   1      36.155  33.971  31.644  1.00  0.00     0.087 C 
ATOM      6  C   UNL A   1      39.899  34.756  33.368  1.00  0.00     0.026 A 
ATOM      7  C   UNL A   1      41.049  34.591  32.572  1.00  0.00     0.033 A 
ATOM      8  C   UNL A   1      38.634  34.549  32.779  1.00  0.00     0.135 A 
ATOM      9  C   UNL A   1      40.941  34.228  31.233  1.00  0.00     0.042 A 
ATOM     10  C   UNL A   1      38.541  34.144  31.446  1.00  0.00     0.019 A 
ATOM     11  O   UNL A   1      37.526  34.795  33.547  1.00  0.00    -0.475 OA
ATOM     12  Cl  UNL A   1      42.358  34.039  30.277  1.00  0.00    -0.084 Cl
ATOM     13  C   UNL A   1      39.694  33.999  30.667  1.00  0.00     0.032 A 
ATOM     14  C   UNL A   1      37.244  33.844  30.878  1.00  0.00     0.027 C 
ATOM     15  C   UNL A   1      36.216  34.379  33.086  1.00  0.00     0.316 C 
BRANCH   6  16
ATOM     16  C   UNL A   1      40.039  35.097  34.792  1.00  0.00    -0.014 A 
ATOM     17  C   UNL A   1      40.246  35.779  37.529  1.00  0.00     0.031 A 
ATOM     18  C   UNL A   1      39.430  34.725  37.122  1.00  0.00     0.026 A 
ATOM     19  C   UNL A   1      41.003  36.449  36.568  1.00  0.00     0.026 A 
ATOM     20  C   UNL A   1      39.320  34.392  35.769  1.00  0.00     0.011 A 
ATOM     21  C   UNL A   1      40.895  36.123  35.213  1.00  0.00     0.011 A 
BRANCH  17  22
ATOM     22  N   UNL A   1      40.397  36.068  38.875  1.00  0.00    -0.399 N 
ATOM     23  H   UNL A   1      40.917  35.464  39.454  1.00  0.00     0.156 HD
ATOM     24  H   UNL A   1      39.986  36.878  39.254  1.00  0.00     0.156 HD
ENDBRANCH  17  22
ENDBRANCH   6  16
BRANCH  15  25
ATOM     25  C   UNL A   1      35.708  33.254  34.002  1.00  0.00     0.430 C 
ATOM     26  F   UNL A   1      36.088  33.447  35.287  1.00  0.00    -0.167 F 
ATOM     27  F   UNL A   1      34.355  33.185  34.005  1.00  0.00    -0.167 F 
ATOM     28  F   UNL A   1      36.173  32.042  33.621  1.00  0.00    -0.167 F 
ENDBRANCH  15  25
ENDBRANCH   3   5
ENDBRANCH   2   3
ENDBRANCH   1   2
BRANCH   1  29
ATOM     29  C   UNL A   1      33.913  33.643  28.166  1.00  0.00     0.275 C 
BRANCH  29  30
ATOM     30  O   UNL A   1      34.847  32.699  27.612  1.00  0.00    -0.458 OA
BRANCH  30  31
ATOM     31  C   UNL A   1      34.637  31.403  27.936  1.00  0.00     0.338 C 
ATOM     32  O   UNL A   1      33.663  30.716  27.680  1.00  0.00    -0.246 OA
BRANCH  31  33
ATOM     33  C   UNL A   1      35.840  30.872  28.591  1.00  0.00     0.060 A 
ATOM     34  C   UNL A   1      35.809  29.702  29.338  1.00  0.00     0.016 A 
ATOM     35  C   UNL A   1      37.054  31.498  28.332  1.00  0.00     0.016 A 
ATOM     36  C   UNL A   1      37.010  29.186  29.842  1.00  0.00     0.010 A 
ATOM     37  C   UNL A   1      38.255  30.904  28.700  1.00  0.00     0.010 A 
ATOM     38  C   UNL A   1      38.253  29.759  29.501  1.00  0.00    -0.014 A 
BRANCH  38  39
ATOM     39  C   UNL A   1      39.542  29.181  29.981  1.00  0.00     0.031 A 
ATOM     40  C   UNL A   1      40.193  29.673  31.254  1.00  0.00     0.074 A 
ATOM     41  C   UNL A   1      40.156  28.228  29.251  1.00  0.00     0.049 A 
ATOM     42  N   UNL A   1      41.294  29.252  31.831  1.00  0.00    -0.248 NA
ATOM     43  C   UNL A   1      39.562  30.806  31.952  1.00  0.00     0.031 C 
ATOM     44  C   UNL A   1      39.698  27.731  27.951  1.00  0.00     0.029 A 
ATOM     45  N   UNL A   1      41.285  27.488  29.507  1.00  0.00    -0.354 N 
ATOM     46  C   UNL A   1      41.493  30.084  32.927  1.00  0.00     0.074 A 
ATOM     47  C   UNL A   1      40.446  31.078  32.899  1.00  0.00     0.031 C 
ATOM     48  C   UNL A   1      40.480  26.710  27.570  1.00  0.00     0.029 A 
ATOM     49  C   UNL A   1      41.521  26.507  28.573  1.00  0.00     0.049 A 
ATOM     50  H   UNL A   1      41.867  27.644  30.285  1.00  0.00     0.167 HD
ATOM     51  C   UNL A   1      42.434  30.007  33.898  1.00  0.00     0.031 A 
ATOM     52  C   UNL A   1      42.451  25.533  28.535  1.00  0.00     0.031 A 
ATOM     53  C   UNL A   1      43.438  28.981  33.965  1.00  0.00     0.049 A 
ATOM     54  C   UNL A   1      43.441  25.414  29.660  1.00  0.00     0.074 A 
ATOM     55  C   UNL A   1      44.374  28.761  34.959  1.00  0.00     0.029 A 
ATOM     56  N   UNL A   1      43.623  27.996  33.009  1.00  0.00    -0.354 N 
ATOM     57  N   UNL A   1      43.555  26.156  30.734  1.00  0.00    -0.248 NA
ATOM     58  C   UNL A   1      44.418  24.319  29.576  1.00  0.00     0.031 C 
ATOM     59  C   UNL A   1      45.157  27.667  34.584  1.00  0.00     0.029 A 
ATOM     60  C   UNL A   1      44.668  27.171  33.384  1.00  0.00     0.049 A 
ATOM     61  H   UNL A   1      43.091  27.897  32.186  1.00  0.00     0.167 HD
ATOM     62  C   UNL A   1      44.605  25.611  31.461  1.00  0.00     0.074 A 
ATOM     63  C   UNL A   1      45.081  24.462  30.718  1.00  0.00     0.031 C 
ATOM     64  C   UNL A   1      45.129  26.031  32.638  1.00  0.00     0.031 A 
BRANCH  51  65
ATOM     65  C   UNL A   1      42.400  31.032  35.001  1.00  0.00    -0.014 A 
ATOM     66  C   UNL A   1      43.060  32.261  34.839  1.00  0.00     0.009 A 
ATOM     67  C   UNL A   1      41.788  30.750  36.233  1.00  0.00     0.009 A 
ATOM     68  C   UNL A   1      43.110  33.183  35.886  1.00  0.00     0.001 A 
ATOM     69  C   UNL A   1      41.811  31.687  37.267  1.00  0.00     0.001 A 
ATOM     70  C   UNL A   1      42.479  32.898  37.098  1.00  0.00     0.000 A 
ENDBRANCH  51  65
BRANCH  52  71
ATOM     71  C   UNL A   1      42.426  24.544  27.424  1.00  0.00    -0.014 A 
ATOM     72  C   UNL A   1      41.695  23.352  27.536  1.00  0.00     0.009 A 
ATOM     73  C   UNL A   1      43.191  24.764  26.268  1.00  0.00     0.009 A 
ATOM     74  C   UNL A   1      41.749  22.389  26.524  1.00  0.00     0.001 A 
ATOM     75  C   UNL A   1      43.222  23.812  25.246  1.00  0.00     0.001 A 
ATOM     76  C   UNL A   1      42.509  22.622  25.380  1.00  0.00     0.000 A 
ENDBRANCH  52  71
BRANCH  64  77
ATOM     77  C   UNL A   1      46.273  25.251  33.220  1.00  0.00    -0.014 A 
ATOM     78  C   UNL A   1      46.017  24.211  34.126  1.00  0.00     0.009 A 
ATOM     79  C   UNL A   1      47.601  25.626  32.968  1.00  0.00     0.009 A 
ATOM     80  C   UNL A   1      47.068  23.573  34.787  1.00  0.00     0.001 A 
ATOM     81  C   UNL A   1      48.651  24.968  33.611  1.00  0.00     0.001 A 
ATOM     82  C   UNL A   1      48.384  23.951  34.526  1.00  0.00     0.000 A 
ENDBRANCH  64  77
ENDBRANCH  38  39
ENDBRANCH  31  33
ENDBRANCH  30  31
ENDBRANCH  29  30
ENDBRANCH   1  29
TORSDOF 14
ENDMDL
