MODEL 1
REMARK VINA RESULT:     -11.7      0.000      0.000
REMARK SMILES O=C(OCCOC(=O)c1nccnc1C(=O)Nc1ccc2c(c1)OCO2)c1ccc(-c2c3nc(c(-c4ccccc4)c4ccc([nH]4)c(-c4ccccc4)c4nc(c(-c5ccccc5)c5ccc2[nH]5)C=C4)C=C3)cc1
REMARK SMILES IDX 4 1 3 2 2 3 1 4 27 5 28 6 74 7 29 8 73 9 30 10 31 11 32 12
REMARK SMILES IDX 67 13 33 14 72 15 66 16 68 17 34 18 71 19 65 20 64 21 35 23
REMARK SMILES IDX 57 24 42 25 56 26 43 27 46 28 55 29 69 30 44 31 45 32 54 34
REMARK SMILES IDX 70 35 47 36 36 37 37 38 41 39 38 40 40 41 39 42 58 43 59 44
REMARK SMILES IDX 63 45 60 46 62 47 61 48 48 49 49 50 53 51 50 52 52 53 51 54
REMARK SMILES IDX 5 55 6 56 7 57 8 58 9 59 10 60 14 61 11 62 13 63 12 64 15 65
REMARK SMILES IDX 16 66 17 67 18 69 19 70 23 71 20 72 22 73 21 74 24 75 26 76
REMARK SMILES IDX 25 77
REMARK H PARENT 68 22 46 33 17 68
REMARK Flexibility Score: inf
ROOT
ATOM      1  C   UNL A   1      31.678  32.407  26.958  1.00  0.00     0.275 C 
ENDROOT
BRANCH   1   2
ATOM      2  O   UNL A   1      32.724  33.393  27.135  1.00  0.00    -0.458 OA
BRANCH   2   3
ATOM      3  C   UNL A   1      33.135  33.873  28.341  1.00  0.00     0.338 C 
ATOM      4  O   UNL A   1      32.580  34.813  28.898  1.00  0.00    -0.246 OA
BRANCH   3   5
ATOM      5  C   UNL A   1      34.434  33.371  28.831  1.00  0.00     0.060 A 
ATOM      6  C   UNL A   1      34.507  32.224  29.615  1.00  0.00     0.016 A 
ATOM      7  C   UNL A   1      35.606  33.998  28.384  1.00  0.00     0.016 A 
ATOM      8  C   UNL A   1      35.734  31.597  29.785  1.00  0.00     0.010 A 
ATOM      9  C   UNL A   1      36.845  33.387  28.573  1.00  0.00     0.010 A 
ATOM     10  C   UNL A   1      36.903  32.169  29.257  1.00  0.00    -0.014 A 
BRANCH  10  11
ATOM     11  C   UNL A   1      38.172  31.611  29.753  1.00  0.00     0.031 A 
ATOM     12  C   UNL A   1      38.540  32.028  31.138  1.00  0.00     0.074 A 
ATOM     13  C   UNL A   1      38.831  30.628  29.119  1.00  0.00     0.049 A 
ATOM     14  N   UNL A   1      39.282  31.400  32.005  1.00  0.00    -0.248 NA
ATOM     15  C   UNL A   1      37.881  33.242  31.652  1.00  0.00     0.031 C 
ATOM     16  C   UNL A   1      38.474  30.070  27.822  1.00  0.00     0.029 A 
ATOM     17  N   UNL A   1      39.917  29.890  29.507  1.00  0.00    -0.354 N 
ATOM     18  C   UNL A   1      39.073  32.071  33.198  1.00  0.00     0.074 A 
ATOM     19  C   UNL A   1      38.197  33.187  32.934  1.00  0.00     0.031 C 
ATOM     20  C   UNL A   1      39.349  29.106  27.490  1.00  0.00     0.029 A 
ATOM     21  C   UNL A   1      40.293  28.939  28.587  1.00  0.00     0.049 A 
ATOM     22  H   UNL A   1      40.385  30.026  30.361  1.00  0.00     0.167 HD
ATOM     23  C   UNL A   1      39.552  31.754  34.419  1.00  0.00     0.031 A 
ATOM     24  C   UNL A   1      41.265  28.010  28.655  1.00  0.00     0.031 A 
ATOM     25  C   UNL A   1      40.539  30.739  34.626  1.00  0.00     0.049 A 
ATOM     26  C   UNL A   1      41.988  27.854  29.965  1.00  0.00     0.074 A 
ATOM     27  C   UNL A   1      41.224  30.420  35.780  1.00  0.00     0.029 A 
ATOM     28  N   UNL A   1      41.022  29.913  33.619  1.00  0.00    -0.354 N 
ATOM     29  N   UNL A   1      41.756  28.457  31.108  1.00  0.00    -0.248 NA
ATOM     30  C   UNL A   1      43.071  26.865  30.010  1.00  0.00     0.031 C 
ATOM     31  C   UNL A   1      42.172  29.441  35.454  1.00  0.00     0.029 A 
ATOM     32  C   UNL A   1      42.032  29.111  34.112  1.00  0.00     0.049 A 
ATOM     33  H   UNL A   1      40.693  29.901  32.691  1.00  0.00     0.167 HD
ATOM     34  C   UNL A   1      42.628  27.884  32.023  1.00  0.00     0.074 A 
ATOM     35  C   UNL A   1      43.396  26.890  31.295  1.00  0.00     0.031 C 
ATOM     36  C   UNL A   1      42.770  28.137  33.348  1.00  0.00     0.031 A 
BRANCH  23  37
ATOM     37  C   UNL A   1      39.050  32.596  35.546  1.00  0.00    -0.014 A 
ATOM     38  C   UNL A   1      39.729  33.769  35.921  1.00  0.00     0.009 A 
ATOM     39  C   UNL A   1      37.978  32.147  36.327  1.00  0.00     0.009 A 
ATOM     40  C   UNL A   1      39.367  34.451  37.084  1.00  0.00     0.001 A 
ATOM     41  C   UNL A   1      37.609  32.839  37.481  1.00  0.00     0.001 A 
ATOM     42  C   UNL A   1      38.311  33.982  37.864  1.00  0.00     0.000 A 
ENDBRANCH  23  37
BRANCH  24  43
ATOM     43  C   UNL A   1      41.590  27.154  27.483  1.00  0.00    -0.014 A 
ATOM     44  C   UNL A   1      41.107  25.841  27.374  1.00  0.00     0.009 A 
ATOM     45  C   UNL A   1      42.437  27.644  26.475  1.00  0.00     0.009 A 
ATOM     46  C   UNL A   1      41.492  25.029  26.302  1.00  0.00     0.001 A 
ATOM     47  C   UNL A   1      42.805  26.838  25.394  1.00  0.00     0.001 A 
ATOM     48  C   UNL A   1      42.341  25.527  25.314  1.00  0.00     0.000 A 
ENDBRANCH  24  43
BRANCH  36  49
ATOM     49  C   UNL A   1      43.766  27.302  34.093  1.00  0.00    -0.014 A 
ATOM     50  C   UNL A   1      43.468  25.989  34.483  1.00  0.00     0.009 A 
ATOM     51  C   UNL A   1      45.043  27.823  34.348  1.00  0.00     0.009 A 
ATOM     52  C   UNL A   1      44.426  25.220  35.142  1.00  0.00     0.001 A 
ATOM     53  C   UNL A   1      46.008  27.043  34.981  1.00  0.00     0.001 A 
ATOM     54  C   UNL A   1      45.696  25.744  35.383  1.00  0.00     0.000 A 
ENDBRANCH  36  49
ENDBRANCH  10  11
ENDBRANCH   3   5
ENDBRANCH   2   3
ENDBRANCH   1   2
BRANCH   1  55
ATOM     55  C   UNL A   1      32.122  30.939  26.997  1.00  0.00     0.275 C 
BRANCH  55  56
ATOM     56  O   UNL A   1      31.788  30.286  25.763  1.00  0.00    -0.457 OA
BRANCH  56  57
ATOM     57  C   UNL A   1      31.819  28.941  25.791  1.00  0.00     0.359 C 
ATOM     58  O   UNL A   1      31.413  28.247  26.712  1.00  0.00    -0.244 OA
BRANCH  57  59
ATOM     59  C   UNL A   1      32.363  28.397  24.520  1.00  0.00     0.179 A 
ATOM     60  N   UNL A   1      33.706  28.692  24.426  1.00  0.00    -0.245 NA
ATOM     61  C   UNL A   1      31.668  27.788  23.478  1.00  0.00     0.161 A 
ATOM     62  C   UNL A   1      34.295  28.542  23.229  1.00  0.00     0.132 A 
ATOM     63  N   UNL A   1      32.320  27.630  22.269  1.00  0.00    -0.247 NA
ATOM     64  C   UNL A   1      33.600  28.050  22.156  1.00  0.00     0.132 A 
BRANCH  61  65
ATOM     65  C   UNL A   1      30.221  27.396  23.305  1.00  0.00     0.276 C 
ATOM     66  O   UNL A   1      29.990  26.177  23.351  1.00  0.00    -0.267 OA
ATOM     67  N   UNL A   1      29.077  28.175  23.377  1.00  0.00    -0.320 N 
ATOM     68  H   UNL A   1      28.333  27.674  23.786  1.00  0.00     0.170 HD
BRANCH  67  69
ATOM     69  C   UNL A   1      28.682  29.474  23.031  1.00  0.00     0.045 A 
ATOM     70  C   UNL A   1      28.888  30.559  23.867  1.00  0.00     0.030 A 
ATOM     71  C   UNL A   1      28.200  29.732  21.740  1.00  0.00     0.076 A 
ATOM     72  C   UNL A   1      28.756  31.884  23.471  1.00  0.00     0.053 A 
ATOM     73  C   UNL A   1      28.010  31.056  21.365  1.00  0.00     0.167 A 
ATOM     74  C   UNL A   1      28.306  32.102  22.205  1.00  0.00     0.165 A 
ATOM     75  O   UNL A   1      27.558  31.502  20.160  1.00  0.00    -0.454 OA
ATOM     76  O   UNL A   1      28.106  33.320  21.651  1.00  0.00    -0.454 OA
ATOM     77  C   UNL A   1      27.662  32.935  20.339  1.00  0.00     0.468 C 
ENDBRANCH  67  69
ENDBRANCH  61  65
ENDBRANCH  57  59
ENDBRANCH  56  57
ENDBRANCH  55  56
ENDBRANCH   1  55
TORSDOF 13
ENDMDL
MODEL 2
REMARK VINA RESULT:     -11.7      4.432      7.489
REMARK SMILES O=C(OCCOC(=O)c1nccnc1C(=O)Nc1ccc2c(c1)OCO2)c1ccc(-c2c3nc(c(-c4ccccc4)c4ccc([nH]4)c(-c4ccccc4)c4nc(c(-c5ccccc5)c5ccc2[nH]5)C=C4)C=C3)cc1
REMARK SMILES IDX 4 1 3 2 2 3 1 4 27 5 28 6 74 7 29 8 73 9 30 10 31 11 32 12
REMARK SMILES IDX 67 13 33 14 72 15 66 16 68 17 34 18 71 19 65 20 64 21 35 23
REMARK SMILES IDX 57 24 42 25 56 26 43 27 46 28 55 29 69 30 44 31 45 32 54 34
REMARK SMILES IDX 70 35 47 36 36 37 37 38 41 39 38 40 40 41 39 42 58 43 59 44
REMARK SMILES IDX 63 45 60 46 62 47 61 48 48 49 49 50 53 51 50 52 52 53 51 54
REMARK SMILES IDX 5 55 6 56 7 57 8 58 9 59 10 60 14 61 11 62 13 63 12 64 15 65
REMARK SMILES IDX 16 66 17 67 18 69 19 70 23 71 20 72 22 73 21 74 24 75 26 76
REMARK SMILES IDX 25 77
REMARK H PARENT 68 22 46 33 17 68
REMARK Flexibility Score: inf
ROOT
ATOM      1  C   UNL A   1      34.198  33.108  28.010  1.00  0.00     0.275 C 
ENDROOT
BRANCH   1   2
ATOM      2  O   UNL A   1      34.264  31.837  28.701  1.00  0.00    -0.458 OA
BRANCH   2   3
ATOM      3  C   UNL A   1      34.634  30.662  28.120  1.00  0.00     0.338 C 
ATOM      4  O   UNL A   1      33.826  29.907  27.592  1.00  0.00    -0.246 OA
BRANCH   3   5
ATOM      5  C   UNL A   1      36.020  30.221  28.375  1.00  0.00     0.060 A 
ATOM      6  C   UNL A   1      36.368  29.612  29.576  1.00  0.00     0.016 A 
ATOM      7  C   UNL A   1      36.953  30.310  27.331  1.00  0.00     0.016 A 
ATOM      8  C   UNL A   1      37.568  28.923  29.663  1.00  0.00     0.010 A 
ATOM      9  C   UNL A   1      38.173  29.641  27.421  1.00  0.00     0.010 A 
ATOM     10  C   UNL A   1      38.469  28.926  28.586  1.00  0.00    -0.014 A 
BRANCH  10  11
ATOM     11  C   UNL A   1      39.830  28.446  28.883  1.00  0.00     0.031 A 
ATOM     12  C   UNL A   1      40.607  29.309  29.820  1.00  0.00     0.074 A 
ATOM     13  C   UNL A   1      40.260  27.222  28.538  1.00  0.00     0.049 A 
ATOM     14  N   UNL A   1      41.579  28.972  30.618  1.00  0.00    -0.248 NA
ATOM     15  C   UNL A   1      40.138  30.699  29.969  1.00  0.00     0.031 C 
ATOM     16  C   UNL A   1      39.521  26.262  27.731  1.00  0.00     0.029 A 
ATOM     17  N   UNL A   1      41.412  26.558  28.865  1.00  0.00    -0.354 N 
ATOM     18  C   UNL A   1      41.748  30.066  31.449  1.00  0.00     0.074 A 
ATOM     19  C   UNL A   1      40.834  31.098  31.020  1.00  0.00     0.031 C 
ATOM     20  C   UNL A   1      40.250  25.143  27.579  1.00  0.00     0.029 A 
ATOM     21  C   UNL A   1      41.486  25.290  28.336  1.00  0.00     0.049 A 
ATOM     22  H   UNL A   1      42.121  26.951  29.423  1.00  0.00     0.167 HD
ATOM     23  C   UNL A   1      42.580  30.180  32.505  1.00  0.00     0.031 A 
ATOM     24  C   UNL A   1      42.431  24.345  28.493  1.00  0.00     0.031 A 
ATOM     25  C   UNL A   1      43.583  29.208  32.813  1.00  0.00     0.049 A 
ATOM     26  C   UNL A   1      43.523  24.611  29.493  1.00  0.00     0.074 A 
ATOM     27  C   UNL A   1      44.590  29.268  33.754  1.00  0.00     0.029 A 
ATOM     28  N   UNL A   1      43.731  28.007  32.129  1.00  0.00    -0.354 N 
ATOM     29  N   UNL A   1      43.655  25.627  30.315  1.00  0.00    -0.248 NA
ATOM     30  C   UNL A   1      44.566  23.587  29.622  1.00  0.00     0.031 C 
ATOM     31  C   UNL A   1      45.390  28.130  33.594  1.00  0.00     0.029 A 
ATOM     32  C   UNL A   1      44.843  27.335  32.595  1.00  0.00     0.049 A 
ATOM     33  H   UNL A   1      43.132  27.684  31.417  1.00  0.00     0.167 HD
ATOM     34  C   UNL A   1      44.765  25.342  31.095  1.00  0.00     0.074 A 
ATOM     35  C   UNL A   1      45.271  24.059  30.642  1.00  0.00     0.031 C 
ATOM     36  C   UNL A   1      45.309  26.060  32.109  1.00  0.00     0.031 A 
BRANCH  23  37
ATOM     37  C   UNL A   1      42.451  31.444  33.293  1.00  0.00    -0.014 A 
ATOM     38  C   UNL A   1      43.336  32.515  33.078  1.00  0.00     0.009 A 
ATOM     39  C   UNL A   1      41.533  31.514  34.348  1.00  0.00     0.009 A 
ATOM     40  C   UNL A   1      43.329  33.616  33.937  1.00  0.00     0.001 A 
ATOM     41  C   UNL A   1      41.520  32.622  35.196  1.00  0.00     0.001 A 
ATOM     42  C   UNL A   1      42.425  33.665  34.997  1.00  0.00     0.000 A 
ENDBRANCH  23  37
BRANCH  24  43
ATOM     43  C   UNL A   1      42.379  23.074  27.722  1.00  0.00    -0.014 A 
ATOM     44  C   UNL A   1      43.033  22.934  26.489  1.00  0.00     0.009 A 
ATOM     45  C   UNL A   1      41.622  21.994  28.208  1.00  0.00     0.009 A 
ATOM     46  C   UNL A   1      42.902  21.756  25.745  1.00  0.00     0.001 A 
ATOM     47  C   UNL A   1      41.509  20.811  27.473  1.00  0.00     0.001 A 
ATOM     48  C   UNL A   1      42.139  20.697  26.237  1.00  0.00     0.000 A 
ENDBRANCH  24  43
BRANCH  36  49
ATOM     49  C   UNL A   1      46.486  25.454  32.812  1.00  0.00    -0.014 A 
ATOM     50  C   UNL A   1      46.316  24.541  33.862  1.00  0.00     0.009 A 
ATOM     51  C   UNL A   1      47.781  25.760  32.367  1.00  0.00     0.009 A 
ATOM     52  C   UNL A   1      47.428  23.964  34.473  1.00  0.00     0.001 A 
ATOM     53  C   UNL A   1      48.889  25.159  32.961  1.00  0.00     0.001 A 
ATOM     54  C   UNL A   1      48.711  24.267  34.018  1.00  0.00     0.000 A 
ENDBRANCH  36  49
ENDBRANCH  10  11
ENDBRANCH   3   5
ENDBRANCH   2   3
ENDBRANCH   1   2
BRANCH   1  55
ATOM     55  C   UNL A   1      32.821  33.784  27.975  1.00  0.00     0.275 C 
BRANCH  55  56
ATOM     56  O   UNL A   1      32.607  34.537  29.178  1.00  0.00    -0.457 OA
BRANCH  56  57
ATOM     57  C   UNL A   1      33.451  35.567  29.376  1.00  0.00     0.359 C 
ATOM     58  O   UNL A   1      34.024  36.186  28.492  1.00  0.00    -0.244 OA
BRANCH  57  59
ATOM     59  C   UNL A   1      33.551  35.899  30.821  1.00  0.00     0.179 A 
ATOM     60  N   UNL A   1      33.227  37.224  31.016  1.00  0.00    -0.245 NA
ATOM     61  C   UNL A   1      34.014  35.093  31.858  1.00  0.00     0.161 A 
ATOM     62  C   UNL A   1      33.542  37.775  32.199  1.00  0.00     0.132 A 
ATOM     63  N   UNL A   1      34.303  35.696  33.069  1.00  0.00    -0.247 NA
ATOM     64  C   UNL A   1      34.105  37.026  33.200  1.00  0.00     0.132 A 
BRANCH  61  65
ATOM     65  C   UNL A   1      34.466  33.654  31.912  1.00  0.00     0.276 C 
ATOM     66  O   UNL A   1      33.648  32.857  32.401  1.00  0.00    -0.267 OA
ATOM     67  N   UNL A   1      35.520  33.030  31.264  1.00  0.00    -0.320 N 
ATOM     68  H   UNL A   1      35.281  32.111  31.004  1.00  0.00     0.170 HD
BRANCH  67  69
ATOM     69  C   UNL A   1      36.830  33.342  30.875  1.00  0.00     0.045 A 
ATOM     70  C   UNL A   1      37.166  33.628  29.563  1.00  0.00     0.030 A 
ATOM     71  C   UNL A   1      37.818  33.525  31.853  1.00  0.00     0.076 A 
ATOM     72  C   UNL A   1      38.376  34.190  29.172  1.00  0.00     0.053 A 
ATOM     73  C   UNL A   1      39.050  34.029  31.452  1.00  0.00     0.167 A 
ATOM     74  C   UNL A   1      39.306  34.374  30.148  1.00  0.00     0.165 A 
ATOM     75  O   UNL A   1      40.123  34.280  32.251  1.00  0.00    -0.454 OA
ATOM     76  O   UNL A   1      40.540  34.896  29.954  1.00  0.00    -0.454 OA
ATOM     77  C   UNL A   1      41.045  34.864  31.300  1.00  0.00     0.468 C 
ENDBRANCH  67  69
ENDBRANCH  61  65
ENDBRANCH  57  59
ENDBRANCH  56  57
ENDBRANCH  55  56
ENDBRANCH   1  55
TORSDOF 13
ENDMDL
MODEL 3
REMARK VINA RESULT:     -11.5      6.217     10.789
REMARK SMILES O=C(OCCOC(=O)c1nccnc1C(=O)Nc1ccc2c(c1)OCO2)c1ccc(-c2c3nc(c(-c4ccccc4)c4ccc([nH]4)c(-c4ccccc4)c4nc(c(-c5ccccc5)c5ccc2[nH]5)C=C4)C=C3)cc1
REMARK SMILES IDX 4 1 3 2 2 3 1 4 27 5 28 6 74 7 29 8 73 9 30 10 31 11 32 12
REMARK SMILES IDX 67 13 33 14 72 15 66 16 68 17 34 18 71 19 65 20 64 21 35 23
REMARK SMILES IDX 57 24 42 25 56 26 43 27 46 28 55 29 69 30 44 31 45 32 54 34
REMARK SMILES IDX 70 35 47 36 36 37 37 38 41 39 38 40 40 41 39 42 58 43 59 44
REMARK SMILES IDX 63 45 60 46 62 47 61 48 48 49 49 50 53 51 50 52 52 53 51 54
REMARK SMILES IDX 5 55 6 56 7 57 8 58 9 59 10 60 14 61 11 62 13 63 12 64 15 65
REMARK SMILES IDX 16 66 17 67 18 69 19 70 23 71 20 72 22 73 21 74 24 75 26 76
REMARK SMILES IDX 25 77
REMARK H PARENT 68 22 46 33 17 68
REMARK Flexibility Score: inf
ROOT
ATOM      1  C   UNL A   1      38.568  19.822  24.921  1.00  0.00     0.275 C 
ENDROOT
BRANCH   1   2
ATOM      2  O   UNL A   1      39.558  19.229  25.797  1.00  0.00    -0.458 OA
BRANCH   2   3
ATOM      3  C   UNL A   1      40.868  19.597  25.841  1.00  0.00     0.338 C 
ATOM      4  O   UNL A   1      41.779  18.814  25.602  1.00  0.00    -0.246 OA
BRANCH   3   5
ATOM      5  C   UNL A   1      41.150  20.920  26.433  1.00  0.00     0.060 A 
ATOM      6  C   UNL A   1      40.987  21.143  27.797  1.00  0.00     0.016 A 
ATOM      7  C   UNL A   1      41.711  21.913  25.616  1.00  0.00     0.016 A 
ATOM      8  C   UNL A   1      41.561  22.268  28.372  1.00  0.00     0.010 A 
ATOM      9  C   UNL A   1      42.266  23.059  26.184  1.00  0.00     0.010 A 
ATOM     10  C   UNL A   1      42.209  23.223  27.572  1.00  0.00    -0.014 A 
BRANCH  10  11
ATOM     11  C   UNL A   1      42.498  24.515  28.218  1.00  0.00     0.031 A 
ATOM     12  C   UNL A   1      43.948  24.831  28.366  1.00  0.00     0.074 A 
ATOM     13  C   UNL A   1      41.551  25.441  28.444  1.00  0.00     0.049 A 
ATOM     14  N   UNL A   1      44.521  25.998  28.444  1.00  0.00    -0.248 NA
ATOM     15  C   UNL A   1      44.878  23.690  28.284  1.00  0.00     0.031 C 
ATOM     16  C   UNL A   1      40.125  25.267  28.213  1.00  0.00     0.029 A 
ATOM     17  N   UNL A   1      41.658  26.735  28.878  1.00  0.00    -0.354 N 
ATOM     18  C   UNL A   1      45.871  25.737  28.289  1.00  0.00     0.074 A 
ATOM     19  C   UNL A   1      46.041  24.308  28.183  1.00  0.00     0.031 C 
ATOM     20  C   UNL A   1      39.472  26.392  28.549  1.00  0.00     0.029 A 
ATOM     21  C   UNL A   1      40.451  27.389  28.961  1.00  0.00     0.049 A 
ATOM     22  H   UNL A   1      42.517  27.157  29.110  1.00  0.00     0.167 HD
ATOM     23  C   UNL A   1      46.881  26.629  28.209  1.00  0.00     0.031 A 
ATOM     24  C   UNL A   1      40.184  28.666  29.291  1.00  0.00     0.031 A 
ATOM     25  C   UNL A   1      46.707  28.025  28.472  1.00  0.00     0.049 A 
ATOM     26  C   UNL A   1      41.352  29.598  29.470  1.00  0.00     0.074 A 
ATOM     27  C   UNL A   1      47.664  29.013  28.580  1.00  0.00     0.029 A 
ATOM     28  N   UNL A   1      45.476  28.616  28.728  1.00  0.00    -0.354 N 
ATOM     29  N   UNL A   1      42.628  29.362  29.276  1.00  0.00    -0.248 NA
ATOM     30  C   UNL A   1      41.044  30.977  29.867  1.00  0.00     0.031 C 
ATOM     31  C   UNL A   1      47.016  30.192  28.967  1.00  0.00     0.029 A 
ATOM     32  C   UNL A   1      45.650  29.949  29.040  1.00  0.00     0.049 A 
ATOM     33  H   UNL A   1      44.608  28.152  28.693  1.00  0.00     0.167 HD
ATOM     34  C   UNL A   1      43.273  30.574  29.475  1.00  0.00     0.074 A 
ATOM     35  C   UNL A   1      42.244  31.539  29.812  1.00  0.00     0.031 C 
ATOM     36  C   UNL A   1      44.593  30.871  29.371  1.00  0.00     0.031 A 
BRANCH  23  37
ATOM     37  C   UNL A   1      48.228  26.053  27.914  1.00  0.00    -0.014 A 
ATOM     38  C   UNL A   1      49.044  25.574  28.953  1.00  0.00     0.009 A 
ATOM     39  C   UNL A   1      48.742  26.116  26.613  1.00  0.00     0.009 A 
ATOM     40  C   UNL A   1      50.368  25.207  28.697  1.00  0.00     0.001 A 
ATOM     41  C   UNL A   1      50.059  25.736  26.358  1.00  0.00     0.001 A 
ATOM     42  C   UNL A   1      50.874  25.295  27.401  1.00  0.00     0.000 A 
ENDBRANCH  23  37
BRANCH  24  43
ATOM     43  C   UNL A   1      38.783  29.141  29.444  1.00  0.00    -0.014 A 
ATOM     44  C   UNL A   1      38.095  29.758  28.389  1.00  0.00     0.009 A 
ATOM     45  C   UNL A   1      38.136  29.014  30.685  1.00  0.00     0.009 A 
ATOM     46  C   UNL A   1      36.806  30.267  28.582  1.00  0.00     0.001 A 
ATOM     47  C   UNL A   1      36.841  29.506  30.871  1.00  0.00     0.001 A 
ATOM     48  C   UNL A   1      36.181  30.143  29.822  1.00  0.00     0.000 A 
ENDBRANCH  24  43
BRANCH  36  49
ATOM     49  C   UNL A   1      44.982  32.302  29.589  1.00  0.00    -0.014 A 
ATOM     50  C   UNL A   1      45.377  32.765  30.851  1.00  0.00     0.009 A 
ATOM     51  C   UNL A   1      45.014  33.177  28.492  1.00  0.00     0.009 A 
ATOM     52  C   UNL A   1      45.771  34.092  31.018  1.00  0.00     0.001 A 
ATOM     53  C   UNL A   1      45.436  34.495  28.656  1.00  0.00     0.001 A 
ATOM     54  C   UNL A   1      45.807  34.953  29.920  1.00  0.00     0.000 A 
ENDBRANCH  36  49
ENDBRANCH  10  11
ENDBRANCH   3   5
ENDBRANCH   2   3
ENDBRANCH   1   2
BRANCH   1  55
ATOM     55  C   UNL A   1      38.067  21.217  25.318  1.00  0.00     0.275 C 
BRANCH  55  56
ATOM     56  O   UNL A   1      36.795  21.480  24.707  1.00  0.00    -0.457 OA
BRANCH  56  57
ATOM     57  C   UNL A   1      36.411  22.770  24.697  1.00  0.00     0.359 C 
ATOM     58  O   UNL A   1      37.093  23.709  25.080  1.00  0.00    -0.244 OA
BRANCH  57  59
ATOM     59  C   UNL A   1      35.060  22.916  24.098  1.00  0.00     0.179 A 
ATOM     60  N   UNL A   1      35.150  23.614  22.913  1.00  0.00    -0.245 NA
ATOM     61  C   UNL A   1      33.833  22.548  24.644  1.00  0.00     0.161 A 
ATOM     62  C   UNL A   1      34.014  24.094  22.384  1.00  0.00     0.132 A 
ATOM     63  N   UNL A   1      32.685  23.044  24.053  1.00  0.00    -0.247 NA
ATOM     64  C   UNL A   1      32.800  23.840  22.967  1.00  0.00     0.132 A 
BRANCH  61  65
ATOM     65  C   UNL A   1      33.453  21.830  25.916  1.00  0.00     0.276 C 
ATOM     66  O   UNL A   1      33.287  22.557  26.909  1.00  0.00    -0.267 OA
ATOM     67  N   UNL A   1      32.994  20.536  26.100  1.00  0.00    -0.320 N 
ATOM     68  H   UNL A   1      32.326  20.497  26.824  1.00  0.00     0.170 HD
BRANCH  67  69
ATOM     69  C   UNL A   1      33.214  19.267  25.547  1.00  0.00     0.045 A 
ATOM     70  C   UNL A   1      34.219  19.025  24.625  1.00  0.00     0.030 A 
ATOM     71  C   UNL A   1      32.507  18.162  26.041  1.00  0.00     0.076 A 
ATOM     72  C   UNL A   1      34.643  17.756  24.248  1.00  0.00     0.053 A 
ATOM     73  C   UNL A   1      32.892  16.895  25.616  1.00  0.00     0.167 A 
ATOM     74  C   UNL A   1      33.949  16.704  24.761  1.00  0.00     0.165 A 
ATOM     75  O   UNL A   1      32.334  15.710  25.988  1.00  0.00    -0.454 OA
ATOM     76  O   UNL A   1      34.209  15.402  24.499  1.00  0.00    -0.454 OA
ATOM     77  C   UNL A   1      33.200  14.771  25.307  1.00  0.00     0.468 C 
ENDBRANCH  67  69
ENDBRANCH  61  65
ENDBRANCH  57  59
ENDBRANCH  56  57
ENDBRANCH  55  56
ENDBRANCH   1  55
TORSDOF 13
ENDMDL
