MODEL 1
REMARK VINA RESULT:     -11.9      0.000      0.000
REMARK SMILES CC(=O)c1c[nH]c(C(=O)N[C@H]2C=C[C@H](C(=O)OCCOC(=O)c3ccc(-c4c5nc(c(-c6ccccc6)c6ccc([nH]6)c(-c6ccccc6)c6nc(c(-c7ccccc7)c7ccc4[nH]7)C=C6)C=C5)cc3)C2)c1
REMARK SMILES IDX 18 1 17 2 15 3 16 4 14 5 11 6 12 7 71 8 13 9 10 10 8 11 9 12
REMARK SMILES IDX 7 14 4 15 5 16 72 17 6 18 2 20 1 21 3 22 19 23 20 24 21 25
REMARK SMILES IDX 22 26 23 27 24 28 70 29 25 30 69 31 26 32 27 33 28 34 63 35
REMARK SMILES IDX 29 36 68 37 62 38 64 39 30 40 67 41 61 42 60 43 31 45 53 46
REMARK SMILES IDX 38 47 52 48 39 49 42 50 51 51 65 52 40 53 41 54 50 56 66 57
REMARK SMILES IDX 43 58 32 59 33 60 37 61 34 62 36 63 35 64 54 65 55 66 59 67
REMARK SMILES IDX 56 68 58 69 57 70 44 71 45 72 49 73 46 74 48 75 47 76
REMARK H PARENT 10 13 6 19 64 44 42 55
REMARK Flexibility Score: inf
ROOT
ATOM      1  C   UNL A   1      37.536  30.382  33.261  1.00  0.00     0.274 C 
ENDROOT
BRANCH   1   2
ATOM      2  O   UNL A   1      37.902  31.743  33.542  1.00  0.00    -0.462 OA
BRANCH   2   3
ATOM      3  C   UNL A   1      37.537  32.228  34.766  1.00  0.00     0.312 C 
ATOM      4  O   UNL A   1      37.606  31.586  35.809  1.00  0.00    -0.252 OA
BRANCH   3   5
ATOM      5  C   UNL A   1      37.181  33.715  34.702  1.00  0.00     0.124 C 
ATOM      6  C   UNL A   1      35.223  34.640  33.551  1.00  0.00     0.106 C 
ATOM      7  C   UNL A   1      36.473  34.914  32.796  1.00  0.00    -0.006 C 
ATOM      8  C   UNL A   1      35.668  33.978  34.855  1.00  0.00     0.048 C 
ATOM      9  C   UNL A   1      37.536  34.378  33.404  1.00  0.00    -0.014 C 
BRANCH   6  10
ATOM     10  N   UNL A   1      34.379  35.812  33.639  1.00  0.00    -0.345 N 
ATOM     11  C   UNL A   1      33.621  36.557  32.771  1.00  0.00     0.268 C 
ATOM     12  O   UNL A   1      33.169  37.606  33.206  1.00  0.00    -0.268 OA
ATOM     13  H   UNL A   1      34.338  36.166  34.557  1.00  0.00     0.164 HD
BRANCH  11  14
ATOM     14  C   UNL A   1      33.436  36.186  31.387  1.00  0.00     0.105 A 
ATOM     15  C   UNL A   1      33.281  35.221  29.322  1.00  0.00     0.035 A 
ATOM     16  C   UNL A   1      33.267  36.593  29.170  1.00  0.00     0.094 A 
ATOM     17  C   UNL A   1      33.281  34.984  30.728  1.00  0.00     0.045 A 
ATOM     18  N   UNL A   1      33.289  37.160  30.418  1.00  0.00    -0.356 N 
ATOM     19  H   UNL A   1      33.210  38.124  30.599  1.00  0.00     0.166 HD
BRANCH  15  20
ATOM     20  C   UNL A   1      33.297  34.205  28.271  1.00  0.00     0.161 C 
ATOM     21  C   UNL A   1      34.583  33.471  27.999  1.00  0.00     0.093 C 
ATOM     22  O   UNL A   1      32.283  33.942  27.628  1.00  0.00    -0.294 OA
ENDBRANCH  15  20
ENDBRANCH  11  14
ENDBRANCH   6  10
ENDBRANCH   3   5
ENDBRANCH   2   3
ENDBRANCH   1   2
BRANCH   1  23
ATOM     23  C   UNL A   1      36.671  30.252  32.006  1.00  0.00     0.275 C 
BRANCH  23  24
ATOM     24  O   UNL A   1      37.022  29.147  31.163  1.00  0.00    -0.458 OA
BRANCH  24  25
ATOM     25  C   UNL A   1      37.156  29.505  29.872  1.00  0.00     0.338 C 
ATOM     26  O   UNL A   1      36.259  29.771  29.079  1.00  0.00    -0.246 OA
BRANCH  25  27
ATOM     27  C   UNL A   1      38.513  29.313  29.385  1.00  0.00     0.060 A 
ATOM     28  C   UNL A   1      38.675  29.151  28.005  1.00  0.00     0.016 A 
ATOM     29  C   UNL A   1      39.495  28.924  30.302  1.00  0.00     0.016 A 
ATOM     30  C   UNL A   1      39.790  28.484  27.546  1.00  0.00     0.010 A 
ATOM     31  C   UNL A   1      40.596  28.225  29.841  1.00  0.00     0.010 A 
ATOM     32  C   UNL A   1      40.715  27.978  28.467  1.00  0.00    -0.014 A 
BRANCH  32  33
ATOM     33  C   UNL A   1      41.956  27.409  27.927  1.00  0.00     0.031 A 
ATOM     34  C   UNL A   1      42.928  28.542  27.569  1.00  0.00     0.074 A 
ATOM     35  C   UNL A   1      42.018  26.048  27.793  1.00  0.00     0.049 A 
ATOM     36  N   UNL A   1      43.984  28.505  26.825  1.00  0.00    -0.248 NA
ATOM     37  C   UNL A   1      42.677  29.928  28.069  1.00  0.00     0.031 C 
ATOM     38  C   UNL A   1      40.945  25.104  28.188  1.00  0.00     0.029 A 
ATOM     39  N   UNL A   1      42.971  25.176  27.299  1.00  0.00    -0.354 N 
ATOM     40  C   UNL A   1      44.612  29.764  26.918  1.00  0.00     0.074 A 
ATOM     41  C   UNL A   1      43.714  30.629  27.612  1.00  0.00     0.031 C 
ATOM     42  C   UNL A   1      41.266  23.832  27.852  1.00  0.00     0.029 A 
ATOM     43  C   UNL A   1      42.584  23.809  27.246  1.00  0.00     0.049 A 
ATOM     44  H   UNL A   1      43.858  25.484  27.003  1.00  0.00     0.167 HD
ATOM     45  C   UNL A   1      45.905  29.964  26.540  1.00  0.00     0.031 A 
ATOM     46  C   UNL A   1      43.269  22.739  26.730  1.00  0.00     0.031 A 
ATOM     47  C   UNL A   1      46.406  28.798  25.899  1.00  0.00     0.049 A 
ATOM     48  C   UNL A   1      44.626  23.228  26.457  1.00  0.00     0.074 A 
ATOM     49  C   UNL A   1      46.100  28.219  24.695  1.00  0.00     0.029 A 
ATOM     50  N   UNL A   1      47.014  27.872  26.713  1.00  0.00    -0.354 N 
ATOM     51  N   UNL A   1      45.515  23.481  27.368  1.00  0.00    -0.248 NA
ATOM     52  C   UNL A   1      45.027  23.489  25.069  1.00  0.00     0.031 C 
ATOM     53  C   UNL A   1      46.073  26.846  25.004  1.00  0.00     0.029 A 
ATOM     54  C   UNL A   1      46.607  26.638  26.280  1.00  0.00     0.049 A 
ATOM     55  H   UNL A   1      47.623  28.061  27.463  1.00  0.00     0.167 HD
ATOM     56  C   UNL A   1      46.373  24.313  26.697  1.00  0.00     0.074 A 
ATOM     57  C   UNL A   1      46.239  23.993  25.291  1.00  0.00     0.031 C 
ATOM     58  C   UNL A   1      46.630  25.541  27.217  1.00  0.00     0.031 A 
BRANCH  45  59
ATOM     59  C   UNL A   1      46.883  31.029  26.926  1.00  0.00    -0.014 A 
ATOM     60  C   UNL A   1      47.716  30.763  28.039  1.00  0.00     0.009 A 
ATOM     61  C   UNL A   1      46.786  32.356  26.496  1.00  0.00     0.009 A 
ATOM     62  C   UNL A   1      48.309  31.788  28.773  1.00  0.00     0.001 A 
ATOM     63  C   UNL A   1      47.418  33.383  27.209  1.00  0.00     0.001 A 
ATOM     64  C   UNL A   1      48.141  33.104  28.367  1.00  0.00     0.000 A 
ENDBRANCH  45  59
BRANCH  46  65
ATOM     65  C   UNL A   1      43.041  21.290  26.359  1.00  0.00    -0.014 A 
ATOM     66  C   UNL A   1      43.752  20.553  25.414  1.00  0.00     0.009 A 
ATOM     67  C   UNL A   1      42.073  20.550  27.101  1.00  0.00     0.009 A 
ATOM     68  C   UNL A   1      43.568  19.154  25.294  1.00  0.00     0.001 A 
ATOM     69  C   UNL A   1      41.924  19.163  27.028  1.00  0.00     0.001 A 
ATOM     70  C   UNL A   1      42.689  18.456  26.125  1.00  0.00     0.000 A 
ENDBRANCH  46  65
BRANCH  58  71
ATOM     71  C   UNL A   1      46.469  25.655  28.727  1.00  0.00    -0.014 A 
ATOM     72  C   UNL A   1      47.606  25.616  29.552  1.00  0.00     0.009 A 
ATOM     73  C   UNL A   1      45.219  25.679  29.370  1.00  0.00     0.009 A 
ATOM     74  C   UNL A   1      47.501  25.574  30.950  1.00  0.00     0.001 A 
ATOM     75  C   UNL A   1      45.107  25.637  30.770  1.00  0.00     0.001 A 
ATOM     76  C   UNL A   1      46.251  25.580  31.560  1.00  0.00     0.000 A 
ENDBRANCH  58  71
ENDBRANCH  32  33
ENDBRANCH  25  27
ENDBRANCH  24  25
ENDBRANCH  23  24
ENDBRANCH   1  23
TORSDOF 14
ENDMDL
MODEL 2
REMARK VINA RESULT:     -11.8      5.731     12.511
REMARK SMILES CC(=O)c1c[nH]c(C(=O)N[C@H]2C=C[C@H](C(=O)OCCOC(=O)c3ccc(-c4c5nc(c(-c6ccccc6)c6ccc([nH]6)c(-c6ccccc6)c6nc(c(-c7ccccc7)c7ccc4[nH]7)C=C6)C=C5)cc3)C2)c1
REMARK SMILES IDX 18 1 17 2 15 3 16 4 14 5 11 6 12 7 71 8 13 9 10 10 8 11 9 12
REMARK SMILES IDX 7 14 4 15 5 16 72 17 6 18 2 20 1 21 3 22 19 23 20 24 21 25
REMARK SMILES IDX 22 26 23 27 24 28 70 29 25 30 69 31 26 32 27 33 28 34 63 35
REMARK SMILES IDX 29 36 68 37 62 38 64 39 30 40 67 41 61 42 60 43 31 45 53 46
REMARK SMILES IDX 38 47 52 48 39 49 42 50 51 51 65 52 40 53 41 54 50 56 66 57
REMARK SMILES IDX 43 58 32 59 33 60 37 61 34 62 36 63 35 64 54 65 55 66 59 67
REMARK SMILES IDX 56 68 58 69 57 70 44 71 45 72 49 73 46 74 48 75 47 76
REMARK H PARENT 10 13 6 19 64 44 42 55
REMARK Flexibility Score: inf
ROOT
ATOM      1  C   UNL A   1      40.797  21.423  26.594  1.00  0.00     0.274 C 
ENDROOT
BRANCH   1   2
ATOM      2  O   UNL A   1      39.502  22.050  26.589  1.00  0.00    -0.462 OA
BRANCH   2   3
ATOM      3  C   UNL A   1      38.592  21.551  25.702  1.00  0.00     0.312 C 
ATOM      4  O   UNL A   1      38.725  20.490  25.102  1.00  0.00    -0.252 OA
BRANCH   3   5
ATOM      5  C   UNL A   1      37.318  22.398  25.663  1.00  0.00     0.124 C 
ATOM      6  C   UNL A   1      35.273  21.802  24.446  1.00  0.00     0.106 C 
ATOM      7  C   UNL A   1      36.013  22.893  23.759  1.00  0.00    -0.006 C 
ATOM      8  C   UNL A   1      36.030  21.553  25.751  1.00  0.00     0.048 C 
ATOM      9  C   UNL A   1      37.146  23.193  24.402  1.00  0.00    -0.014 C 
BRANCH   6  10
ATOM     10  N   UNL A   1      33.856  22.079  24.526  1.00  0.00    -0.345 N 
ATOM     11  C   UNL A   1      32.695  21.364  24.372  1.00  0.00     0.268 C 
ATOM     12  O   UNL A   1      31.657  22.009  24.357  1.00  0.00    -0.268 OA
ATOM     13  H   UNL A   1      33.679  23.022  24.749  1.00  0.00     0.164 HD
BRANCH  11  14
ATOM     14  C   UNL A   1      32.686  19.939  24.140  1.00  0.00     0.105 A 
ATOM     15  C   UNL A   1      32.943  17.668  24.096  1.00  0.00     0.035 A 
ATOM     16  C   UNL A   1      32.402  18.074  22.893  1.00  0.00     0.094 A 
ATOM     17  C   UNL A   1      33.016  18.839  24.906  1.00  0.00     0.045 A 
ATOM     18  N   UNL A   1      32.186  19.427  22.958  1.00  0.00    -0.356 N 
ATOM     19  H   UNL A   1      31.739  19.959  22.261  1.00  0.00     0.166 HD
BRANCH  15  20
ATOM     20  C   UNL A   1      33.363  16.322  24.479  1.00  0.00     0.161 C 
ATOM     21  C   UNL A   1      32.482  15.530  25.411  1.00  0.00     0.093 C 
ATOM     22  O   UNL A   1      34.404  15.834  24.044  1.00  0.00    -0.294 OA
ENDBRANCH  15  20
ENDBRANCH  11  14
ENDBRANCH   6  10
ENDBRANCH   3   5
ENDBRANCH   2   3
ENDBRANCH   1   2
BRANCH   1  23
ATOM     23  C   UNL A   1      41.941  22.437  26.611  1.00  0.00     0.275 C 
BRANCH  23  24
ATOM     24  O   UNL A   1      41.517  23.803  26.518  1.00  0.00    -0.458 OA
BRANCH  24  25
ATOM     25  C   UNL A   1      42.021  24.568  27.506  1.00  0.00     0.338 C 
ATOM     26  O   UNL A   1      42.972  24.306  28.235  1.00  0.00    -0.246 OA
BRANCH  25  27
ATOM     27  C   UNL A   1      41.158  25.694  27.827  1.00  0.00     0.060 A 
ATOM     28  C   UNL A   1      41.745  26.963  27.829  1.00  0.00     0.016 A 
ATOM     29  C   UNL A   1      39.943  25.433  28.470  1.00  0.00     0.016 A 
ATOM     30  C   UNL A   1      41.162  27.957  28.585  1.00  0.00     0.010 A 
ATOM     31  C   UNL A   1      39.379  26.422  29.255  1.00  0.00     0.010 A 
ATOM     32  C   UNL A   1      40.016  27.667  29.335  1.00  0.00    -0.014 A 
BRANCH  32  33
ATOM     33  C   UNL A   1      39.349  28.792  30.002  1.00  0.00     0.031 A 
ATOM     34  C   UNL A   1      39.946  28.989  31.402  1.00  0.00     0.074 A 
ATOM     35  C   UNL A   1      38.332  29.411  29.325  1.00  0.00     0.049 A 
ATOM     36  N   UNL A   1      39.476  29.658  32.402  1.00  0.00    -0.248 NA
ATOM     37  C   UNL A   1      41.230  28.315  31.769  1.00  0.00     0.031 C 
ATOM     38  C   UNL A   1      37.881  29.057  27.957  1.00  0.00     0.029 A 
ATOM     39  N   UNL A   1      37.467  30.445  29.632  1.00  0.00    -0.354 N 
ATOM     40  C   UNL A   1      40.455  29.650  33.416  1.00  0.00     0.074 A 
ATOM     41  C   UNL A   1      41.467  28.728  33.013  1.00  0.00     0.031 C 
ATOM     42  C   UNL A   1      36.802  29.790  27.595  1.00  0.00     0.029 A 
ATOM     43  C   UNL A   1      36.464  30.716  28.661  1.00  0.00     0.049 A 
ATOM     44  H   UNL A   1      37.541  30.959  30.468  1.00  0.00     0.167 HD
ATOM     45  C   UNL A   1      40.434  30.527  34.458  1.00  0.00     0.031 A 
ATOM     46  C   UNL A   1      35.424  31.607  28.721  1.00  0.00     0.031 A 
ATOM     47  C   UNL A   1      39.220  31.268  34.440  1.00  0.00     0.049 A 
ATOM     48  C   UNL A   1      35.681  32.440  29.901  1.00  0.00     0.074 A 
ATOM     49  C   UNL A   1      37.923  30.893  34.674  1.00  0.00     0.029 A 
ATOM     50  N   UNL A   1      39.240  32.445  33.732  1.00  0.00    -0.354 N 
ATOM     51  N   UNL A   1      36.597  33.357  29.971  1.00  0.00    -0.248 NA
ATOM     52  C   UNL A   1      34.884  32.226  31.116  1.00  0.00     0.031 C 
ATOM     53  C   UNL A   1      37.212  31.581  33.672  1.00  0.00     0.029 A 
ATOM     54  C   UNL A   1      38.049  32.521  33.059  1.00  0.00     0.049 A 
ATOM     55  H   UNL A   1      39.969  33.106  33.712  1.00  0.00     0.167 HD
ATOM     56  C   UNL A   1      36.752  33.495  31.326  1.00  0.00     0.074 A 
ATOM     57  C   UNL A   1      35.498  33.086  31.926  1.00  0.00     0.031 C 
ATOM     58  C   UNL A   1      37.988  33.323  31.862  1.00  0.00     0.031 A 
BRANCH  45  59
ATOM     59  C   UNL A   1      41.528  30.990  35.369  1.00  0.00    -0.014 A 
ATOM     60  C   UNL A   1      42.129  32.235  35.066  1.00  0.00     0.009 A 
ATOM     61  C   UNL A   1      42.204  30.145  36.253  1.00  0.00     0.009 A 
ATOM     62  C   UNL A   1      43.409  32.558  35.512  1.00  0.00     0.001 A 
ATOM     63  C   UNL A   1      43.473  30.489  36.736  1.00  0.00     0.001 A 
ATOM     64  C   UNL A   1      44.091  31.672  36.332  1.00  0.00     0.000 A 
ENDBRANCH  45  59
BRANCH  46  65
ATOM     65  C   UNL A   1      34.149  31.948  27.981  1.00  0.00    -0.014 A 
ATOM     66  C   UNL A   1      33.289  31.049  27.351  1.00  0.00     0.009 A 
ATOM     67  C   UNL A   1      33.704  33.303  27.995  1.00  0.00     0.009 A 
ATOM     68  C   UNL A   1      32.031  31.471  26.857  1.00  0.00     0.001 A 
ATOM     69  C   UNL A   1      32.442  33.717  27.562  1.00  0.00     0.001 A 
ATOM     70  C   UNL A   1      31.593  32.790  26.999  1.00  0.00     0.000 A 
ENDBRANCH  46  65
BRANCH  58  71
ATOM     71  C   UNL A   1      39.151  33.609  30.921  1.00  0.00    -0.014 A 
ATOM     72  C   UNL A   1      40.185  32.667  30.788  1.00  0.00     0.009 A 
ATOM     73  C   UNL A   1      39.318  34.835  30.251  1.00  0.00     0.009 A 
ATOM     74  C   UNL A   1      41.343  32.945  30.047  1.00  0.00     0.001 A 
ATOM     75  C   UNL A   1      40.475  35.118  29.507  1.00  0.00     0.001 A 
ATOM     76  C   UNL A   1      41.491  34.171  29.409  1.00  0.00     0.000 A 
ENDBRANCH  58  71
ENDBRANCH  32  33
ENDBRANCH  25  27
ENDBRANCH  24  25
ENDBRANCH  23  24
ENDBRANCH   1  23
TORSDOF 14
ENDMDL
MODEL 3
REMARK VINA RESULT:     -11.7      5.033     10.976
REMARK SMILES CC(=O)c1c[nH]c(C(=O)N[C@H]2C=C[C@H](C(=O)OCCOC(=O)c3ccc(-c4c5nc(c(-c6ccccc6)c6ccc([nH]6)c(-c6ccccc6)c6nc(c(-c7ccccc7)c7ccc4[nH]7)C=C6)C=C5)cc3)C2)c1
REMARK SMILES IDX 18 1 17 2 15 3 16 4 14 5 11 6 12 7 71 8 13 9 10 10 8 11 9 12
REMARK SMILES IDX 7 14 4 15 5 16 72 17 6 18 2 20 1 21 3 22 19 23 20 24 21 25
REMARK SMILES IDX 22 26 23 27 24 28 70 29 25 30 69 31 26 32 27 33 28 34 63 35
REMARK SMILES IDX 29 36 68 37 62 38 64 39 30 40 67 41 61 42 60 43 31 45 53 46
REMARK SMILES IDX 38 47 52 48 39 49 42 50 51 51 65 52 40 53 41 54 50 56 66 57
REMARK SMILES IDX 43 58 32 59 33 60 37 61 34 62 36 63 35 64 54 65 55 66 59 67
REMARK SMILES IDX 56 68 58 69 57 70 44 71 45 72 49 73 46 74 48 75 47 76
REMARK H PARENT 10 13 6 19 64 44 42 55
REMARK Flexibility Score: inf
ROOT
ATOM      1  C   UNL A   1      33.134  32.059  27.397  1.00  0.00     0.274 C 
ENDROOT
BRANCH   1   2
ATOM      2  O   UNL A   1      32.370  30.959  26.872  1.00  0.00    -0.462 OA
BRANCH   2   3
ATOM      3  C   UNL A   1      33.015  29.758  26.791  1.00  0.00     0.312 C 
ATOM      4  O   UNL A   1      33.852  29.370  27.599  1.00  0.00    -0.252 OA
BRANCH   3   5
ATOM      5  C   UNL A   1      32.457  28.892  25.659  1.00  0.00     0.124 C 
ATOM      6  C   UNL A   1      32.864  26.487  25.403  1.00  0.00     0.106 C 
ATOM      7  C   UNL A   1      33.639  27.275  24.409  1.00  0.00    -0.006 C 
ATOM      8  C   UNL A   1      31.990  27.503  26.140  1.00  0.00     0.048 C 
ATOM      9  C   UNL A   1      33.447  28.588  24.572  1.00  0.00    -0.014 C 
BRANCH   6  10
ATOM     10  N   UNL A   1      32.213  25.346  24.796  1.00  0.00    -0.345 N 
ATOM     11  C   UNL A   1      31.056  25.120  24.095  1.00  0.00     0.268 C 
ATOM     12  O   UNL A   1      30.765  23.951  23.888  1.00  0.00    -0.268 OA
ATOM     13  H   UNL A   1      32.735  24.519  24.919  1.00  0.00     0.164 HD
BRANCH  11  14
ATOM     14  C   UNL A   1      30.167  26.187  23.700  1.00  0.00     0.105 A 
ATOM     15  C   UNL A   1      29.116  28.093  23.004  1.00  0.00     0.035 A 
ATOM     16  C   UNL A   1      28.205  27.309  23.682  1.00  0.00     0.094 A 
ATOM     17  C   UNL A   1      30.315  27.325  22.933  1.00  0.00     0.045 A 
ATOM     18  N   UNL A   1      28.827  26.139  24.032  1.00  0.00    -0.356 N 
ATOM     19  H   UNL A   1      28.383  25.372  24.460  1.00  0.00     0.166 HD
BRANCH  15  20
ATOM     20  C   UNL A   1      28.913  29.436  22.464  1.00  0.00     0.161 C 
ATOM     21  C   UNL A   1      27.957  30.360  23.173  1.00  0.00     0.093 C 
ATOM     22  O   UNL A   1      29.516  29.816  21.462  1.00  0.00    -0.294 OA
ENDBRANCH  15  20
ENDBRANCH  11  14
ENDBRANCH   6  10
ENDBRANCH   3   5
ENDBRANCH   2   3
ENDBRANCH   1   2
BRANCH   1  23
ATOM     23  C   UNL A   1      32.283  33.309  27.627  1.00  0.00     0.275 C 
BRANCH  23  24
ATOM     24  O   UNL A   1      33.003  34.541  27.494  1.00  0.00    -0.458 OA
BRANCH  24  25
ATOM     25  C   UNL A   1      33.064  35.230  28.650  1.00  0.00     0.338 C 
ATOM     26  O   UNL A   1      32.433  36.239  28.946  1.00  0.00    -0.246 OA
BRANCH  25  27
ATOM     27  C   UNL A   1      34.175  34.805  29.487  1.00  0.00     0.060 A 
ATOM     28  C   UNL A   1      35.418  34.659  28.866  1.00  0.00     0.016 A 
ATOM     29  C   UNL A   1      33.883  34.213  30.721  1.00  0.00     0.016 A 
ATOM     30  C   UNL A   1      36.344  33.811  29.434  1.00  0.00     0.010 A 
ATOM     31  C   UNL A   1      34.800  33.337  31.272  1.00  0.00     0.010 A 
ATOM     32  C   UNL A   1      36.010  33.114  30.602  1.00  0.00    -0.014 A 
BRANCH  32  33
ATOM     33  C   UNL A   1      37.078  32.343  31.250  1.00  0.00     0.031 A 
ATOM     34  C   UNL A   1      37.323  31.045  30.468  1.00  0.00     0.074 A 
ATOM     35  C   UNL A   1      37.613  32.853  32.403  1.00  0.00     0.049 A 
ATOM     36  N   UNL A   1      37.951  29.978  30.836  1.00  0.00    -0.248 NA
ATOM     37  C   UNL A   1      36.755  30.881  29.094  1.00  0.00     0.031 C 
ATOM     38  C   UNL A   1      37.223  34.143  33.023  1.00  0.00     0.029 A 
ATOM     39  N   UNL A   1      38.573  32.409  33.292  1.00  0.00    -0.354 N 
ATOM     40  C   UNL A   1      38.023  29.121  29.719  1.00  0.00     0.074 A 
ATOM     41  C   UNL A   1      37.186  29.681  28.708  1.00  0.00     0.031 C 
ATOM     42  C   UNL A   1      37.866  34.331  34.200  1.00  0.00     0.029 A 
ATOM     43  C   UNL A   1      38.762  33.216  34.447  1.00  0.00     0.049 A 
ATOM     44  H   UNL A   1      39.091  31.587  33.135  1.00  0.00     0.167 HD
ATOM     45  C   UNL A   1      38.896  28.077  29.654  1.00  0.00     0.031 A 
ATOM     46  C   UNL A   1      39.566  32.992  35.535  1.00  0.00     0.031 A 
ATOM     47  C   UNL A   1      39.536  27.905  30.912  1.00  0.00     0.049 A 
ATOM     48  C   UNL A   1      40.417  31.853  35.172  1.00  0.00     0.074 A 
ATOM     49  C   UNL A   1      39.058  27.486  32.126  1.00  0.00     0.029 A 
ATOM     50  N   UNL A   1      40.711  28.595  31.093  1.00  0.00    -0.354 N 
ATOM     51  N   UNL A   1      41.405  31.909  34.332  1.00  0.00    -0.248 NA
ATOM     52  C   UNL A   1      40.139  30.535  35.759  1.00  0.00     0.031 C 
ATOM     53  C   UNL A   1      39.685  28.362  33.031  1.00  0.00     0.029 A 
ATOM     54  C   UNL A   1      40.690  29.081  32.373  1.00  0.00     0.049 A 
ATOM     55  H   UNL A   1      41.429  28.715  30.430  1.00  0.00     0.167 HD
ATOM     56  C   UNL A   1      41.555  30.590  33.989  1.00  0.00     0.074 A 
ATOM     57  C   UNL A   1      41.046  29.816  35.102  1.00  0.00     0.031 C 
ATOM     58  C   UNL A   1      41.485  30.247  32.676  1.00  0.00     0.031 A 
BRANCH  45  59
ATOM     59  C   UNL A   1      39.447  27.334  28.477  1.00  0.00    -0.014 A 
ATOM     60  C   UNL A   1      39.549  25.928  28.598  1.00  0.00     0.009 A 
ATOM     61  C   UNL A   1      40.164  27.947  27.446  1.00  0.00     0.009 A 
ATOM     62  C   UNL A   1      40.437  25.188  27.818  1.00  0.00     0.001 A 
ATOM     63  C   UNL A   1      41.024  27.197  26.633  1.00  0.00     0.001 A 
ATOM     64  C   UNL A   1      41.191  25.830  26.847  1.00  0.00     0.000 A 
ENDBRANCH  45  59
BRANCH  46  65
ATOM     65  C   UNL A   1      39.802  33.529  36.929  1.00  0.00    -0.014 A 
ATOM     66  C   UNL A   1      40.940  34.196  37.380  1.00  0.00     0.009 A 
ATOM     67  C   UNL A   1      38.734  33.446  37.873  1.00  0.00     0.009 A 
ATOM     68  C   UNL A   1      40.962  34.817  38.653  1.00  0.00     0.001 A 
ATOM     69  C   UNL A   1      38.727  34.102  39.105  1.00  0.00     0.001 A 
ATOM     70  C   UNL A   1      39.847  34.805  39.494  1.00  0.00     0.000 A 
ENDBRANCH  46  65
BRANCH  58  71
ATOM     71  C   UNL A   1      41.863  31.347  31.694  1.00  0.00    -0.014 A 
ATOM     72  C   UNL A   1      40.854  32.101  31.071  1.00  0.00     0.009 A 
ATOM     73  C   UNL A   1      43.184  31.584  31.272  1.00  0.00     0.009 A 
ATOM     74  C   UNL A   1      41.144  33.024  30.057  1.00  0.00     0.001 A 
ATOM     75  C   UNL A   1      43.481  32.508  30.256  1.00  0.00     0.001 A 
ATOM     76  C   UNL A   1      42.457  33.226  29.646  1.00  0.00     0.000 A 
ENDBRANCH  58  71
ENDBRANCH  32  33
ENDBRANCH  25  27
ENDBRANCH  24  25
ENDBRANCH  23  24
ENDBRANCH   1  23
TORSDOF 14
ENDMDL
