MODEL 1
REMARK VINA RESULT:     -11.4      0.000      0.000
REMARK SMILES O=C(OCCOC(=O)[C@H]1Cc2[nH]cnc2CN1S(=O)(=O)c1cccs1)c1ccc(-c2c3nc(c(-c4ccccc4)c4ccc([nH]4)c(-c4ccccc4)c4nc(c(-c5ccccc5)c5ccc2[nH]5)C=C4)C=C3)cc1
REMARK SMILES IDX 4 1 3 2 2 3 1 4 26 5 27 6 73 7 28 8 72 9 29 10 30 11 31 12
REMARK SMILES IDX 66 13 32 14 71 15 65 16 67 17 33 18 70 19 64 20 63 21 34 23
REMARK SMILES IDX 56 24 41 25 55 26 42 27 45 28 54 29 68 30 43 31 44 32 53 34
REMARK SMILES IDX 69 35 46 36 35 37 36 38 40 39 37 40 39 41 38 42 57 43 58 44
REMARK SMILES IDX 62 45 59 46 61 47 60 48 47 49 48 50 52 51 49 52 51 53 50 54
REMARK SMILES IDX 5 55 6 56 7 57 8 58 9 59 10 60 17 61 11 62 16 63 12 64 15 65
REMARK SMILES IDX 13 66 14 68 18 69 19 70 20 71 21 72 22 73 25 74 23 75 24 76
REMARK H PARENT 67 22 45 33 12 67
REMARK Flexibility Score: inf
ROOT
ATOM      1  C   UNL A   1      33.140  31.413  27.390  1.00  0.00     0.275 C 
ENDROOT
BRANCH   1   2
ATOM      2  O   UNL A   1      34.377  30.704  27.490  1.00  0.00    -0.458 OA
BRANCH   2   3
ATOM      3  C   UNL A   1      35.340  31.579  27.841  1.00  0.00     0.338 C 
ATOM      4  O   UNL A   1      35.369  32.764  27.563  1.00  0.00    -0.246 OA
BRANCH   3   5
ATOM      5  C   UNL A   1      36.470  30.980  28.523  1.00  0.00     0.060 A 
ATOM      6  C   UNL A   1      37.491  31.713  29.101  1.00  0.00     0.016 A 
ATOM      7  C   UNL A   1      36.595  29.625  28.234  1.00  0.00     0.016 A 
ATOM      8  C   UNL A   1      38.721  31.090  29.196  1.00  0.00     0.010 A 
ATOM      9  C   UNL A   1      37.813  29.028  28.244  1.00  0.00     0.010 A 
ATOM     10  C   UNL A   1      38.874  29.786  28.681  1.00  0.00    -0.014 A 
BRANCH  10  11
ATOM     11  C   UNL A   1      40.061  29.028  28.938  1.00  0.00     0.031 A 
ATOM     12  C   UNL A   1      40.219  28.858  30.396  1.00  0.00     0.074 A 
ATOM     13  C   UNL A   1      40.806  28.402  28.018  1.00  0.00     0.049 A 
ATOM     14  N   UNL A   1      40.775  29.730  31.164  1.00  0.00    -0.248 NA
ATOM     15  C   UNL A   1      39.410  27.857  31.115  1.00  0.00     0.031 C 
ATOM     16  C   UNL A   1      40.593  28.162  26.594  1.00  0.00     0.029 A 
ATOM     17  N   UNL A   1      41.993  27.810  28.257  1.00  0.00    -0.354 N 
ATOM     18  C   UNL A   1      40.640  29.237  32.446  1.00  0.00     0.074 A 
ATOM     19  C   UNL A   1      39.583  28.260  32.378  1.00  0.00     0.031 C 
ATOM     20  C   UNL A   1      41.559  27.321  26.137  1.00  0.00     0.029 A 
ATOM     21  C   UNL A   1      42.532  27.109  27.198  1.00  0.00     0.049 A 
ATOM     22  H   UNL A   1      42.446  27.874  29.129  1.00  0.00     0.167 HD
ATOM     23  C   UNL A   1      41.640  29.443  33.344  1.00  0.00     0.031 A 
ATOM     24  C   UNL A   1      43.691  26.408  27.252  1.00  0.00     0.031 A 
ATOM     25  C   UNL A   1      42.580  30.431  32.843  1.00  0.00     0.049 A 
ATOM     26  C   UNL A   1      44.486  26.977  28.379  1.00  0.00     0.074 A 
ATOM     27  C   UNL A   1      42.476  31.752  32.451  1.00  0.00     0.029 A 
ATOM     28  N   UNL A   1      43.704  29.936  32.212  1.00  0.00    -0.354 N 
ATOM     29  N   UNL A   1      44.952  28.197  28.364  1.00  0.00    -0.248 NA
ATOM     30  C   UNL A   1      44.307  26.405  29.708  1.00  0.00     0.031 C 
ATOM     31  C   UNL A   1      43.248  31.842  31.252  1.00  0.00     0.029 A 
ATOM     32  C   UNL A   1      43.864  30.609  31.026  1.00  0.00     0.049 A 
ATOM     33  H   UNL A   1      44.290  29.224  32.554  1.00  0.00     0.167 HD
ATOM     34  C   UNL A   1      44.699  28.698  29.636  1.00  0.00     0.074 A 
ATOM     35  C   UNL A   1      44.382  27.519  30.447  1.00  0.00     0.031 C 
ATOM     36  C   UNL A   1      44.478  30.032  29.845  1.00  0.00     0.031 A 
BRANCH  23  37
ATOM     37  C   UNL A   1      42.042  28.413  34.367  1.00  0.00    -0.014 A 
ATOM     38  C   UNL A   1      42.627  27.225  33.899  1.00  0.00     0.009 A 
ATOM     39  C   UNL A   1      41.608  28.420  35.706  1.00  0.00     0.009 A 
ATOM     40  C   UNL A   1      42.651  26.069  34.685  1.00  0.00     0.001 A 
ATOM     41  C   UNL A   1      41.658  27.278  36.505  1.00  0.00     0.001 A 
ATOM     42  C   UNL A   1      42.146  26.091  35.982  1.00  0.00     0.000 A 
ENDBRANCH  23  37
BRANCH  24  43
ATOM     43  C   UNL A   1      43.987  25.090  26.655  1.00  0.00    -0.014 A 
ATOM     44  C   UNL A   1      43.325  23.932  27.094  1.00  0.00     0.009 A 
ATOM     45  C   UNL A   1      44.709  25.014  25.449  1.00  0.00     0.009 A 
ATOM     46  C   UNL A   1      43.355  22.753  26.334  1.00  0.00     0.001 A 
ATOM     47  C   UNL A   1      44.737  23.838  24.690  1.00  0.00     0.001 A 
ATOM     48  C   UNL A   1      44.047  22.712  25.126  1.00  0.00     0.000 A 
ENDBRANCH  24  43
BRANCH  36  49
ATOM     49  C   UNL A   1      44.698  30.970  28.676  1.00  0.00    -0.014 A 
ATOM     50  C   UNL A   1      45.901  31.669  28.452  1.00  0.00     0.009 A 
ATOM     51  C   UNL A   1      43.706  31.036  27.688  1.00  0.00     0.009 A 
ATOM     52  C   UNL A   1      46.085  32.433  27.293  1.00  0.00     0.001 A 
ATOM     53  C   UNL A   1      43.896  31.784  26.523  1.00  0.00     0.001 A 
ATOM     54  C   UNL A   1      45.082  32.487  26.328  1.00  0.00     0.000 A 
ENDBRANCH  36  49
ENDBRANCH  10  11
ENDBRANCH   3   5
ENDBRANCH   2   3
ENDBRANCH   1   2
BRANCH   1  55
ATOM     55  C   UNL A   1      32.061  30.614  26.618  1.00  0.00     0.274 C 
BRANCH  55  56
ATOM     56  O   UNL A   1      32.474  29.249  26.338  1.00  0.00    -0.461 OA
BRANCH  56  57
ATOM     57  C   UNL A   1      32.603  28.837  25.039  1.00  0.00     0.325 C 
ATOM     58  O   UNL A   1      33.035  29.533  24.131  1.00  0.00    -0.250 OA
BRANCH  57  59
ATOM     59  C   UNL A   1      31.994  27.465  24.859  1.00  0.00     0.189 C 
ATOM     60  C   UNL A   1      32.148  26.860  26.311  1.00  0.00     0.088 C 
ATOM     61  N   UNL A   1      30.564  27.224  24.408  1.00  0.00    -0.176 NA
ATOM     62  C   UNL A   1      31.680  25.458  26.301  1.00  0.00     0.041 A 
ATOM     63  C   UNL A   1      30.303  25.711  24.206  1.00  0.00     0.161 C 
ATOM     64  N   UNL A   1      31.925  24.453  27.187  1.00  0.00    -0.348 N 
ATOM     65  C   UNL A   1      30.843  24.932  25.353  1.00  0.00     0.077 A 
ATOM     66  C   UNL A   1      31.283  23.342  26.702  1.00  0.00     0.197 A 
ATOM     67  H   UNL A   1      32.459  24.512  28.012  1.00  0.00     0.167 HD
ATOM     68  N   UNL A   1      30.635  23.599  25.583  1.00  0.00    -0.240 NA
BRANCH  61  69
ATOM     69  S   UNL A   1      29.626  28.037  23.242  1.00  0.00     0.253 S 
ATOM     70  O   UNL A   1      30.377  27.958  22.002  1.00  0.00    -0.206 OA
ATOM     71  O   UNL A   1      28.340  27.363  23.291  1.00  0.00    -0.206 OA
BRANCH  69  72
ATOM     72  C   UNL A   1      29.207  29.762  23.335  1.00  0.00     0.135 A 
ATOM     73  C   UNL A   1      29.645  30.910  23.964  1.00  0.00     0.033 A 
ATOM     74  S   UNL A   1      27.897  30.172  22.265  1.00  0.00    -0.131 S 
ATOM     75  C   UNL A   1      28.956  32.095  23.564  1.00  0.00     0.013 A 
ATOM     76  C   UNL A   1      27.972  31.831  22.648  1.00  0.00     0.066 A 
ENDBRANCH  69  72
ENDBRANCH  61  69
ENDBRANCH  57  59
ENDBRANCH  56  57
ENDBRANCH  55  56
ENDBRANCH   1  55
TORSDOF 13
ENDMDL
MODEL 2
REMARK VINA RESULT:     -11.1      1.771      3.360
REMARK SMILES O=C(OCCOC(=O)[C@H]1Cc2[nH]cnc2CN1S(=O)(=O)c1cccs1)c1ccc(-c2c3nc(c(-c4ccccc4)c4ccc([nH]4)c(-c4ccccc4)c4nc(c(-c5ccccc5)c5ccc2[nH]5)C=C4)C=C3)cc1
REMARK SMILES IDX 4 1 3 2 2 3 1 4 26 5 27 6 73 7 28 8 72 9 29 10 30 11 31 12
REMARK SMILES IDX 66 13 32 14 71 15 65 16 67 17 33 18 70 19 64 20 63 21 34 23
REMARK SMILES IDX 56 24 41 25 55 26 42 27 45 28 54 29 68 30 43 31 44 32 53 34
REMARK SMILES IDX 69 35 46 36 35 37 36 38 40 39 37 40 39 41 38 42 57 43 58 44
REMARK SMILES IDX 62 45 59 46 61 47 60 48 47 49 48 50 52 51 49 52 51 53 50 54
REMARK SMILES IDX 5 55 6 56 7 57 8 58 9 59 10 60 17 61 11 62 16 63 12 64 15 65
REMARK SMILES IDX 13 66 14 68 18 69 19 70 20 71 21 72 22 73 25 74 23 75 24 76
REMARK H PARENT 67 22 45 33 12 67
REMARK Flexibility Score: inf
ROOT
ATOM      1  C   UNL A   1      33.804  30.577  27.292  1.00  0.00     0.275 C 
ENDROOT
BRANCH   1   2
ATOM      2  O   UNL A   1      34.920  31.455  27.446  1.00  0.00    -0.458 OA
BRANCH   2   3
ATOM      3  C   UNL A   1      35.118  31.663  28.762  1.00  0.00     0.338 C 
ATOM      4  O   UNL A   1      34.402  32.312  29.502  1.00  0.00    -0.246 OA
BRANCH   3   5
ATOM      5  C   UNL A   1      36.366  31.127  29.269  1.00  0.00     0.060 A 
ATOM      6  C   UNL A   1      37.584  31.769  29.139  1.00  0.00     0.016 A 
ATOM      7  C   UNL A   1      36.265  29.774  29.576  1.00  0.00     0.016 A 
ATOM      8  C   UNL A   1      38.708  30.966  29.128  1.00  0.00     0.010 A 
ATOM      9  C   UNL A   1      37.349  28.964  29.484  1.00  0.00     0.010 A 
ATOM     10  C   UNL A   1      38.555  29.567  29.211  1.00  0.00    -0.014 A 
BRANCH  10  11
ATOM     11  C   UNL A   1      39.688  28.713  29.409  1.00  0.00     0.031 A 
ATOM     12  C   UNL A   1      39.880  28.494  30.856  1.00  0.00     0.074 A 
ATOM     13  C   UNL A   1      40.350  28.056  28.449  1.00  0.00     0.049 A 
ATOM     14  N   UNL A   1      40.527  29.301  31.625  1.00  0.00    -0.248 NA
ATOM     15  C   UNL A   1      39.021  27.540  31.580  1.00  0.00     0.031 C 
ATOM     16  C   UNL A   1      40.072  27.870  27.029  1.00  0.00     0.029 A 
ATOM     17  N   UNL A   1      41.495  27.369  28.632  1.00  0.00    -0.354 N 
ATOM     18  C   UNL A   1      40.397  28.786  32.899  1.00  0.00     0.074 A 
ATOM     19  C   UNL A   1      39.266  27.896  32.845  1.00  0.00     0.031 C 
ATOM     20  C   UNL A   1      40.955  26.969  26.518  1.00  0.00     0.029 A 
ATOM     21  C   UNL A   1      41.943  26.655  27.539  1.00  0.00     0.049 A 
ATOM     22  H   UNL A   1      41.981  27.375  29.489  1.00  0.00     0.167 HD
ATOM     23  C   UNL A   1      41.440  28.892  33.766  1.00  0.00     0.031 A 
ATOM     24  C   UNL A   1      43.045  25.866  27.537  1.00  0.00     0.031 A 
ATOM     25  C   UNL A   1      42.436  29.817  33.255  1.00  0.00     0.049 A 
ATOM     26  C   UNL A   1      43.919  26.344  28.648  1.00  0.00     0.074 A 
ATOM     27  C   UNL A   1      42.422  31.152  32.898  1.00  0.00     0.029 A 
ATOM     28  N   UNL A   1      43.497  29.254  32.573  1.00  0.00    -0.354 N 
ATOM     29  N   UNL A   1      44.477  27.525  28.644  1.00  0.00    -0.248 NA
ATOM     30  C   UNL A   1      43.740  25.753  29.969  1.00  0.00     0.031 C 
ATOM     31  C   UNL A   1      43.159  31.214  31.674  1.00  0.00     0.029 A 
ATOM     32  C   UNL A   1      43.670  29.943  31.398  1.00  0.00     0.049 A 
ATOM     33  H   UNL A   1      44.037  28.490  32.878  1.00  0.00     0.167 HD
ATOM     34  C   UNL A   1      44.307  28.010  29.936  1.00  0.00     0.074 A 
ATOM     35  C   UNL A   1      43.927  26.839  30.730  1.00  0.00     0.031 C 
ATOM     36  C   UNL A   1      44.197  29.352  30.183  1.00  0.00     0.031 A 
BRANCH  23  37
ATOM     37  C   UNL A   1      41.795  27.808  34.750  1.00  0.00    -0.014 A 
ATOM     38  C   UNL A   1      42.325  28.203  35.989  1.00  0.00     0.009 A 
ATOM     39  C   UNL A   1      41.917  26.446  34.413  1.00  0.00     0.009 A 
ATOM     40  C   UNL A   1      43.055  27.313  36.783  1.00  0.00     0.001 A 
ATOM     41  C   UNL A   1      42.618  25.547  35.217  1.00  0.00     0.001 A 
ATOM     42  C   UNL A   1      43.218  25.990  36.385  1.00  0.00     0.000 A 
ENDBRANCH  23  37
BRANCH  24  43
ATOM     43  C   UNL A   1      43.218  24.546  26.898  1.00  0.00    -0.014 A 
ATOM     44  C   UNL A   1      42.596  23.402  27.425  1.00  0.00     0.009 A 
ATOM     45  C   UNL A   1      43.758  24.459  25.602  1.00  0.00     0.009 A 
ATOM     46  C   UNL A   1      42.486  22.228  26.664  1.00  0.00     0.001 A 
ATOM     47  C   UNL A   1      43.646  23.289  24.843  1.00  0.00     0.001 A 
ATOM     48  C   UNL A   1      42.997  22.178  25.369  1.00  0.00     0.000 A 
ENDBRANCH  24  43
BRANCH  36  49
ATOM     49  C   UNL A   1      44.450  30.299  29.029  1.00  0.00    -0.014 A 
ATOM     50  C   UNL A   1      45.666  30.982  28.833  1.00  0.00     0.009 A 
ATOM     51  C   UNL A   1      43.475  30.392  28.027  1.00  0.00     0.009 A 
ATOM     52  C   UNL A   1      45.881  31.758  27.686  1.00  0.00     0.001 A 
ATOM     53  C   UNL A   1      43.695  31.151  26.874  1.00  0.00     0.001 A 
ATOM     54  C   UNL A   1      44.895  31.839  26.706  1.00  0.00     0.000 A 
ENDBRANCH  36  49
ENDBRANCH  10  11
ENDBRANCH   3   5
ENDBRANCH   2   3
ENDBRANCH   1   2
BRANCH   1  55
ATOM     55  C   UNL A   1      34.231  29.139  26.904  1.00  0.00     0.274 C 
BRANCH  55  56
ATOM     56  O   UNL A   1      33.510  28.637  25.748  1.00  0.00    -0.461 OA
BRANCH  56  57
ATOM     57  C   UNL A   1      32.394  27.866  25.933  1.00  0.00     0.325 C 
ATOM     58  O   UNL A   1      32.225  27.106  26.877  1.00  0.00    -0.250 OA
BRANCH  57  59
ATOM     59  C   UNL A   1      31.479  27.968  24.734  1.00  0.00     0.189 C 
ATOM     60  C   UNL A   1      31.224  29.527  24.664  1.00  0.00     0.088 C 
ATOM     61  N   UNL A   1      31.853  27.500  23.339  1.00  0.00    -0.176 NA
ATOM     62  C   UNL A   1      30.255  29.809  23.585  1.00  0.00     0.041 A 
ATOM     63  C   UNL A   1      30.648  27.633  22.375  1.00  0.00     0.161 C 
ATOM     64  N   UNL A   1      29.487  30.914  23.372  1.00  0.00    -0.348 N 
ATOM     65  C   UNL A   1      29.991  28.958  22.544  1.00  0.00     0.077 A 
ATOM     66  C   UNL A   1      28.740  30.658  22.251  1.00  0.00     0.197 A 
ATOM     67  H   UNL A   1      29.472  31.734  23.917  1.00  0.00     0.167 HD
ATOM     68  N   UNL A   1      29.012  29.473  21.740  1.00  0.00    -0.240 NA
BRANCH  61  69
ATOM     69  S   UNL A   1      32.724  26.125  22.835  1.00  0.00     0.253 S 
ATOM     70  O   UNL A   1      31.728  25.161  22.402  1.00  0.00    -0.206 OA
ATOM     71  O   UNL A   1      33.643  26.636  21.833  1.00  0.00    -0.206 OA
BRANCH  69  72
ATOM     72  C   UNL A   1      33.759  25.160  23.911  1.00  0.00     0.135 A 
ATOM     73  C   UNL A   1      34.403  25.281  25.126  1.00  0.00     0.033 A 
ATOM     74  S   UNL A   1      33.990  23.542  23.312  1.00  0.00    -0.131 S 
ATOM     75  C   UNL A   1      35.040  24.084  25.573  1.00  0.00     0.013 A 
ATOM     76  C   UNL A   1      34.898  23.062  24.672  1.00  0.00     0.066 A 
ENDBRANCH  69  72
ENDBRANCH  61  69
ENDBRANCH  57  59
ENDBRANCH  56  57
ENDBRANCH  55  56
ENDBRANCH   1  55
TORSDOF 13
ENDMDL
MODEL 3
REMARK VINA RESULT:     -11.0      3.560      7.762
REMARK SMILES O=C(OCCOC(=O)[C@H]1Cc2[nH]cnc2CN1S(=O)(=O)c1cccs1)c1ccc(-c2c3nc(c(-c4ccccc4)c4ccc([nH]4)c(-c4ccccc4)c4nc(c(-c5ccccc5)c5ccc2[nH]5)C=C4)C=C3)cc1
REMARK SMILES IDX 4 1 3 2 2 3 1 4 26 5 27 6 73 7 28 8 72 9 29 10 30 11 31 12
REMARK SMILES IDX 66 13 32 14 71 15 65 16 67 17 33 18 70 19 64 20 63 21 34 23
REMARK SMILES IDX 56 24 41 25 55 26 42 27 45 28 54 29 68 30 43 31 44 32 53 34
REMARK SMILES IDX 69 35 46 36 35 37 36 38 40 39 37 40 39 41 38 42 57 43 58 44
REMARK SMILES IDX 62 45 59 46 61 47 60 48 47 49 48 50 52 51 49 52 51 53 50 54
REMARK SMILES IDX 5 55 6 56 7 57 8 58 9 59 10 60 17 61 11 62 16 63 12 64 15 65
REMARK SMILES IDX 13 66 14 68 18 69 19 70 20 71 21 72 22 73 25 74 23 75 24 76
REMARK H PARENT 67 22 45 33 12 67
REMARK Flexibility Score: inf
ROOT
ATOM      1  C   UNL A   1      38.515  21.255  25.852  1.00  0.00     0.275 C 
ENDROOT
BRANCH   1   2
ATOM      2  O   UNL A   1      39.266  22.469  25.779  1.00  0.00    -0.458 OA
BRANCH   2   3
ATOM      3  C   UNL A   1      40.062  22.542  26.864  1.00  0.00     0.338 C 
ATOM      4  O   UNL A   1      40.317  21.630  27.629  1.00  0.00    -0.246 OA
BRANCH   3   5
ATOM      5  C   UNL A   1      40.553  23.874  27.155  1.00  0.00     0.060 A 
ATOM      6  C   UNL A   1      41.522  24.142  28.105  1.00  0.00     0.016 A 
ATOM      7  C   UNL A   1      39.715  24.861  26.644  1.00  0.00     0.016 A 
ATOM      8  C   UNL A   1      41.493  25.399  28.679  1.00  0.00     0.010 A 
ATOM      9  C   UNL A   1      39.621  26.068  27.255  1.00  0.00     0.010 A 
ATOM     10  C   UNL A   1      40.482  26.306  28.301  1.00  0.00    -0.014 A 
BRANCH  10  11
ATOM     11  C   UNL A   1      40.532  27.677  28.711  1.00  0.00     0.031 A 
ATOM     12  C   UNL A   1      41.581  28.373  27.940  1.00  0.00     0.074 A 
ATOM     13  C   UNL A   1      39.651  28.287  29.514  1.00  0.00     0.049 A 
ATOM     14  N   UNL A   1      42.828  28.374  28.263  1.00  0.00    -0.248 NA
ATOM     15  C   UNL A   1      41.324  28.786  26.549  1.00  0.00     0.031 C 
ATOM     16  C   UNL A   1      38.370  27.851  30.061  1.00  0.00     0.029 A 
ATOM     17  N   UNL A   1      39.786  29.536  30.001  1.00  0.00    -0.354 N 
ATOM     18  C   UNL A   1      43.475  29.050  27.249  1.00  0.00     0.074 A 
ATOM     19  C   UNL A   1      42.569  29.030  26.129  1.00  0.00     0.031 C 
ATOM     20  C   UNL A   1      37.770  28.905  30.678  1.00  0.00     0.029 A 
ATOM     21  C   UNL A   1      38.702  30.022  30.702  1.00  0.00     0.049 A 
ATOM     22  H   UNL A   1      40.605  30.067  29.866  1.00  0.00     0.167 HD
ATOM     23  C   UNL A   1      44.539  29.841  27.553  1.00  0.00     0.031 A 
ATOM     24  C   UNL A   1      38.624  31.270  31.228  1.00  0.00     0.031 A 
ATOM     25  C   UNL A   1      44.988  29.591  28.911  1.00  0.00     0.049 A 
ATOM     26  C   UNL A   1      40.026  31.751  31.402  1.00  0.00     0.074 A 
ATOM     27  C   UNL A   1      45.450  28.478  29.587  1.00  0.00     0.029 A 
ATOM     28  N   UNL A   1      44.503  30.448  29.880  1.00  0.00    -0.354 N 
ATOM     29  N   UNL A   1      40.861  31.196  32.239  1.00  0.00    -0.248 NA
ATOM     30  C   UNL A   1      40.650  32.469  30.297  1.00  0.00     0.031 C 
ATOM     31  C   UNL A   1      44.789  28.517  30.855  1.00  0.00     0.029 A 
ATOM     32  C   UNL A   1      44.042  29.695  30.931  1.00  0.00     0.049 A 
ATOM     33  H   UNL A   1      44.490  31.430  29.825  1.00  0.00     0.167 HD
ATOM     34  C   UNL A   1      42.062  31.103  31.545  1.00  0.00     0.074 A 
ATOM     35  C   UNL A   1      41.896  31.985  30.386  1.00  0.00     0.031 C 
ATOM     36  C   UNL A   1      42.958  30.101  31.805  1.00  0.00     0.031 A 
BRANCH  23  37
ATOM     37  C   UNL A   1      44.808  31.149  26.856  1.00  0.00    -0.014 A 
ATOM     38  C   UNL A   1      46.147  31.553  26.725  1.00  0.00     0.009 A 
ATOM     39  C   UNL A   1      43.824  32.123  26.601  1.00  0.00     0.009 A 
ATOM     40  C   UNL A   1      46.481  32.889  26.485  1.00  0.00     0.001 A 
ATOM     41  C   UNL A   1      44.153  33.452  26.331  1.00  0.00     0.001 A 
ATOM     42  C   UNL A   1      45.483  33.842  26.310  1.00  0.00     0.000 A 
ENDBRANCH  23  37
BRANCH  24  43
ATOM     43  C   UNL A   1      37.462  32.179  31.247  1.00  0.00    -0.014 A 
ATOM     44  C   UNL A   1      37.125  32.945  30.119  1.00  0.00     0.009 A 
ATOM     45  C   UNL A   1      36.508  32.076  32.276  1.00  0.00     0.009 A 
ATOM     46  C   UNL A   1      35.866  33.554  30.011  1.00  0.00     0.001 A 
ATOM     47  C   UNL A   1      35.250  32.681  32.167  1.00  0.00     0.001 A 
ATOM     48  C   UNL A   1      34.924  33.407  31.028  1.00  0.00     0.000 A 
ENDBRANCH  24  43
BRANCH  36  49
ATOM     49  C   UNL A   1      42.684  29.208  32.997  1.00  0.00    -0.014 A 
ATOM     50  C   UNL A   1      43.239  29.419  34.274  1.00  0.00     0.009 A 
ATOM     51  C   UNL A   1      41.716  28.204  32.858  1.00  0.00     0.009 A 
ATOM     52  C   UNL A   1      42.860  28.626  35.365  1.00  0.00     0.001 A 
ATOM     53  C   UNL A   1      41.324  27.424  33.950  1.00  0.00     0.001 A 
ATOM     54  C   UNL A   1      41.900  27.630  35.201  1.00  0.00     0.000 A 
ENDBRANCH  36  49
ENDBRANCH  10  11
ENDBRANCH   3   5
ENDBRANCH   2   3
ENDBRANCH   1   2
BRANCH   1  55
ATOM     55  C   UNL A   1      37.081  21.412  25.289  1.00  0.00     0.274 C 
BRANCH  55  56
ATOM     56  O   UNL A   1      36.464  22.668  25.679  1.00  0.00    -0.461 OA
BRANCH  56  57
ATOM     57  C   UNL A   1      35.108  22.728  25.851  1.00  0.00     0.325 C 
ATOM     58  O   UNL A   1      34.537  23.525  26.583  1.00  0.00    -0.250 OA
BRANCH  57  59
ATOM     59  C   UNL A   1      34.435  21.578  25.137  1.00  0.00     0.189 C 
ATOM     60  C   UNL A   1      33.846  20.754  26.352  1.00  0.00     0.088 C 
ATOM     61  N   UNL A   1      33.325  21.747  24.114  1.00  0.00    -0.176 NA
ATOM     62  C   UNL A   1      33.220  19.519  25.838  1.00  0.00     0.041 A 
ATOM     63  C   UNL A   1      32.949  20.383  23.486  1.00  0.00     0.161 C 
ATOM     64  N   UNL A   1      32.898  18.369  26.493  1.00  0.00    -0.348 N 
ATOM     65  C   UNL A   1      32.809  19.344  24.542  1.00  0.00     0.077 A 
ATOM     66  C   UNL A   1      32.368  17.521  25.554  1.00  0.00     0.197 A 
ATOM     67  H   UNL A   1      33.021  18.183  27.452  1.00  0.00     0.167 HD
ATOM     68  N   UNL A   1      32.320  18.079  24.361  1.00  0.00    -0.240 NA
BRANCH  61  69
ATOM     69  S   UNL A   1      33.125  22.914  22.890  1.00  0.00     0.253 S 
ATOM     70  O   UNL A   1      34.456  23.412  22.593  1.00  0.00    -0.206 OA
ATOM     71  O   UNL A   1      32.424  22.204  21.835  1.00  0.00    -0.206 OA
BRANCH  69  72
ATOM     72  C   UNL A   1      32.186  24.410  23.093  1.00  0.00     0.135 A 
ATOM     73  C   UNL A   1      30.892  24.802  23.370  1.00  0.00     0.033 A 
ATOM     74  S   UNL A   1      33.191  25.828  22.986  1.00  0.00    -0.131 S 
ATOM     75  C   UNL A   1      30.726  26.212  23.523  1.00  0.00     0.013 A 
ATOM     76  C   UNL A   1      31.902  26.889  23.330  1.00  0.00     0.066 A 
ENDBRANCH  69  72
ENDBRANCH  61  69
ENDBRANCH  57  59
ENDBRANCH  56  57
ENDBRANCH  55  56
ENDBRANCH   1  55
TORSDOF 13
ENDMDL
