MODEL 1
REMARK VINA RESULT:      -8.9      0.000      0.000
REMARK SMILES C=CCN(CC(=O)OCCOC(=O)c1ccc(-c2c3nc(c(-c4ccccc4)c4ccc([nH]4)c(-c4ccccc4)c4nc(c(-c5ccccc5)c5ccc2[nH]5)C=C4)C=C3)cc1)C(=O)c1ccc(C[NH3+])cc1
REMARK SMILES IDX 8 1 6 2 7 3 5 4 4 5 3 6 2 7 1 8 62 9 63 10 64 11 65 12 71 13
REMARK SMILES IDX 66 14 70 15 67 16 68 17 69 18 9 22 10 23 11 24 12 25 13 26
REMARK SMILES IDX 14 27 15 28 61 29 16 30 60 31 17 32 18 33 19 34 54 35 20 36
REMARK SMILES IDX 59 37 53 38 55 39 21 40 58 41 52 42 51 43 22 45 44 46 29 47
REMARK SMILES IDX 43 48 30 49 33 50 42 51 56 52 31 53 32 54 41 56 57 57 34 58
REMARK SMILES IDX 23 59 24 60 28 61 25 62 27 63 26 64 45 65 46 66 50 67 47 68
REMARK SMILES IDX 49 69 48 70 35 71 36 72 40 73 37 74 39 75 38 76
REMARK H PARENT 69 19 69 20 69 21 55 44 33 55
REMARK Flexibility Score: inf
ROOT
ATOM      1  O   UNL A   1      33.093  30.676  26.969  1.00  0.00    -0.461 OA
ENDROOT
BRANCH   1   2
ATOM      2  C   UNL A   1      32.762  29.413  26.589  1.00  0.00     0.325 C 
ATOM      3  O   UNL A   1      32.933  28.422  27.299  1.00  0.00    -0.250 OA
BRANCH   2   4
ATOM      4  C   UNL A   1      31.956  29.318  25.287  1.00  0.00     0.242 C 
BRANCH   4   5
ATOM      5  N   UNL A   1      32.056  28.157  24.393  1.00  0.00    -0.324 N 
BRANCH   5   6
ATOM      6  C   UNL A   1      30.799  27.522  24.019  1.00  0.00     0.147 C 
BRANCH   6   7
ATOM      7  C   UNL A   1      30.398  26.563  25.108  1.00  0.00    -0.014 C 
ATOM      8  C   UNL A   1      30.114  25.269  24.911  1.00  0.00     0.006 C 
ENDBRANCH   6   7
ENDBRANCH   5   6
BRANCH   5   9
ATOM      9  C   UNL A   1      33.227  27.653  23.815  1.00  0.00     0.254 C 
ATOM     10  O   UNL A   1      33.957  28.319  23.081  1.00  0.00    -0.269 OA
BRANCH   9  11
ATOM     11  C   UNL A   1      33.641  26.254  24.041  1.00  0.00     0.040 A 
ATOM     12  C   UNL A   1      34.027  25.797  25.304  1.00  0.00     0.014 A 
ATOM     13  C   UNL A   1      33.703  25.399  22.936  1.00  0.00     0.014 A 
ATOM     14  C   UNL A   1      34.366  24.449  25.476  1.00  0.00     0.010 A 
ATOM     15  C   UNL A   1      34.031  24.051  23.114  1.00  0.00     0.010 A 
ATOM     16  C   UNL A   1      34.324  23.553  24.394  1.00  0.00     0.006 A 
BRANCH  16  17
ATOM     17  C   UNL A   1      34.510  22.071  24.609  1.00  0.00     0.295 C 
BRANCH  17  18
ATOM     18  N   UNL A   1      34.348  21.689  26.002  1.00  0.00    -0.354 N 
ATOM     19  H   UNL A   1      33.435  21.252  26.131  1.00  0.00     0.344 HD
ATOM     20  H   UNL A   1      34.416  22.518  26.593  1.00  0.00     0.344 HD
ATOM     21  H   UNL A   1      35.080  21.026  26.261  1.00  0.00     0.344 HD
ENDBRANCH  17  18
ENDBRANCH  16  17
ENDBRANCH   9  11
ENDBRANCH   5   9
ENDBRANCH   4   5
ENDBRANCH   2   4
ENDBRANCH   1   2
BRANCH   1  22
ATOM     22  C   UNL A   1      31.994  31.619  27.013  1.00  0.00     0.274 C 
BRANCH  22  23
ATOM     23  C   UNL A   1      32.430  33.095  26.879  1.00  0.00     0.275 C 
BRANCH  23  24
ATOM     24  O   UNL A   1      32.150  33.909  28.044  1.00  0.00    -0.458 OA
BRANCH  24  25
ATOM     25  C   UNL A   1      33.242  34.566  28.472  1.00  0.00     0.338 C 
ATOM     26  O   UNL A   1      33.324  35.781  28.592  1.00  0.00    -0.246 OA
BRANCH  25  27
ATOM     27  C   UNL A   1      34.396  33.764  28.854  1.00  0.00     0.060 A 
ATOM     28  C   UNL A   1      34.216  32.791  29.843  1.00  0.00     0.016 A 
ATOM     29  C   UNL A   1      35.675  34.214  28.517  1.00  0.00     0.016 A 
ATOM     30  C   UNL A   1      35.317  32.273  30.515  1.00  0.00     0.010 A 
ATOM     31  C   UNL A   1      36.781  33.676  29.175  1.00  0.00     0.010 A 
ATOM     32  C   UNL A   1      36.606  32.709  30.182  1.00  0.00    -0.014 A 
BRANCH  32  33
ATOM     33  C   UNL A   1      37.780  32.009  30.739  1.00  0.00     0.031 A 
ATOM     34  C   UNL A   1      38.491  30.915  30.007  1.00  0.00     0.074 A 
ATOM     35  C   UNL A   1      38.166  32.382  31.971  1.00  0.00     0.049 A 
ATOM     36  N   UNL A   1      39.488  30.173  30.416  1.00  0.00    -0.248 NA
ATOM     37  C   UNL A   1      38.034  30.613  28.645  1.00  0.00     0.031 C 
ATOM     38  C   UNL A   1      37.541  33.452  32.755  1.00  0.00     0.029 A 
ATOM     39  N   UNL A   1      39.147  31.893  32.786  1.00  0.00    -0.354 N 
ATOM     40  C   UNL A   1      39.781  29.314  29.364  1.00  0.00     0.074 A 
ATOM     41  C   UNL A   1      38.847  29.621  28.300  1.00  0.00     0.031 C 
ATOM     42  C   UNL A   1      38.135  33.515  33.953  1.00  0.00     0.029 A 
ATOM     43  C   UNL A   1      39.153  32.477  34.025  1.00  0.00     0.049 A 
ATOM     44  H   UNL A   1      39.784  31.194  32.511  1.00  0.00     0.167 HD
ATOM     45  C   UNL A   1      40.741  28.359  29.305  1.00  0.00     0.031 A 
ATOM     46  C   UNL A   1      39.876  32.186  35.119  1.00  0.00     0.031 A 
ATOM     47  C   UNL A   1      41.645  28.052  30.385  1.00  0.00     0.049 A 
ATOM     48  C   UNL A   1      40.891  31.093  35.046  1.00  0.00     0.074 A 
ATOM     49  C   UNL A   1      42.676  27.128  30.414  1.00  0.00     0.029 A 
ATOM     50  N   UNL A   1      41.618  28.658  31.632  1.00  0.00    -0.354 N 
ATOM     51  N   UNL A   1      41.175  30.307  34.036  1.00  0.00    -0.248 NA
ATOM     52  C   UNL A   1      41.690  30.856  36.251  1.00  0.00     0.031 C 
ATOM     53  C   UNL A   1      43.247  27.148  31.692  1.00  0.00     0.029 A 
ATOM     54  C   UNL A   1      42.596  28.112  32.446  1.00  0.00     0.049 A 
ATOM     55  H   UNL A   1      40.994  29.372  31.899  1.00  0.00     0.167 HD
ATOM     56  C   UNL A   1      42.199  29.486  34.478  1.00  0.00     0.074 A 
ATOM     57  C   UNL A   1      42.488  29.877  35.844  1.00  0.00     0.031 C 
ATOM     58  C   UNL A   1      42.846  28.501  33.809  1.00  0.00     0.031 A 
BRANCH  45  59
ATOM     59  C   UNL A   1      40.851  27.553  28.041  1.00  0.00    -0.014 A 
ATOM     60  C   UNL A   1      41.680  27.966  26.987  1.00  0.00     0.009 A 
ATOM     61  C   UNL A   1      40.175  26.327  27.933  1.00  0.00     0.009 A 
ATOM     62  C   UNL A   1      41.818  27.174  25.844  1.00  0.00     0.001 A 
ATOM     63  C   UNL A   1      40.325  25.531  26.796  1.00  0.00     0.001 A 
ATOM     64  C   UNL A   1      41.144  25.956  25.750  1.00  0.00     0.000 A 
ENDBRANCH  45  59
BRANCH  46  65
ATOM     65  C   UNL A   1      39.621  32.950  36.361  1.00  0.00    -0.014 A 
ATOM     66  C   UNL A   1      38.689  32.491  37.300  1.00  0.00     0.009 A 
ATOM     67  C   UNL A   1      40.398  34.082  36.659  1.00  0.00     0.009 A 
ATOM     68  C   UNL A   1      38.540  33.151  38.520  1.00  0.00     0.001 A 
ATOM     69  C   UNL A   1      40.260  34.728  37.887  1.00  0.00     0.001 A 
ATOM     70  C   UNL A   1      39.330  34.263  38.816  1.00  0.00     0.000 A 
ENDBRANCH  46  65
BRANCH  58  71
ATOM     71  C   UNL A   1      43.936  27.799  34.559  1.00  0.00    -0.014 A 
ATOM     72  C   UNL A   1      43.663  26.641  35.304  1.00  0.00     0.009 A 
ATOM     73  C   UNL A   1      45.243  28.304  34.528  1.00  0.00     0.009 A 
ATOM     74  C   UNL A   1      44.679  26.021  36.032  1.00  0.00     0.001 A 
ATOM     75  C   UNL A   1      46.259  27.673  35.243  1.00  0.00     0.001 A 
ATOM     76  C   UNL A   1      45.974  26.537  36.002  1.00  0.00     0.000 A 
ENDBRANCH  58  71
ENDBRANCH  32  33
ENDBRANCH  25  27
ENDBRANCH  24  25
ENDBRANCH  23  24
ENDBRANCH  22  23
ENDBRANCH   1  22
TORSDOF 18
ENDMDL
MODEL 2
REMARK VINA RESULT:      -8.8      3.528      7.136
REMARK SMILES C=CCN(CC(=O)OCCOC(=O)c1ccc(-c2c3nc(c(-c4ccccc4)c4ccc([nH]4)c(-c4ccccc4)c4nc(c(-c5ccccc5)c5ccc2[nH]5)C=C4)C=C3)cc1)C(=O)c1ccc(C[NH3+])cc1
REMARK SMILES IDX 8 1 6 2 7 3 5 4 4 5 3 6 2 7 1 8 62 9 63 10 64 11 65 12 71 13
REMARK SMILES IDX 66 14 70 15 67 16 68 17 69 18 9 22 10 23 11 24 12 25 13 26
REMARK SMILES IDX 14 27 15 28 61 29 16 30 60 31 17 32 18 33 19 34 54 35 20 36
REMARK SMILES IDX 59 37 53 38 55 39 21 40 58 41 52 42 51 43 22 45 44 46 29 47
REMARK SMILES IDX 43 48 30 49 33 50 42 51 56 52 31 53 32 54 41 56 57 57 34 58
REMARK SMILES IDX 23 59 24 60 28 61 25 62 27 63 26 64 45 65 46 66 50 67 47 68
REMARK SMILES IDX 49 69 48 70 35 71 36 72 40 73 37 74 39 75 38 76
REMARK H PARENT 69 19 69 20 69 21 55 44 33 55
REMARK Flexibility Score: inf
ROOT
ATOM      1  O   UNL A   1      31.627  29.028  25.068  1.00  0.00    -0.461 OA
ENDROOT
BRANCH   1   2
ATOM      2  C   UNL A   1      30.846  29.195  23.968  1.00  0.00     0.325 C 
ATOM      3  O   UNL A   1      29.918  30.000  23.909  1.00  0.00    -0.250 OA
BRANCH   2   4
ATOM      4  C   UNL A   1      31.329  28.458  22.711  1.00  0.00     0.242 C 
BRANCH   4   5
ATOM      5  N   UNL A   1      31.772  27.059  22.752  1.00  0.00    -0.324 N 
BRANCH   5   6
ATOM      6  C   UNL A   1      30.722  26.053  22.849  1.00  0.00     0.147 C 
BRANCH   6   7
ATOM      7  C   UNL A   1      30.134  26.097  24.234  1.00  0.00    -0.014 C 
ATOM      8  C   UNL A   1      30.425  25.225  25.209  1.00  0.00     0.006 C 
ENDBRANCH   6   7
ENDBRANCH   5   6
BRANCH   5   9
ATOM      9  C   UNL A   1      33.090  26.602  22.637  1.00  0.00     0.254 C 
ATOM     10  O   UNL A   1      33.828  26.901  21.698  1.00  0.00    -0.269 OA
BRANCH   9  11
ATOM     11  C   UNL A   1      33.668  25.693  23.646  1.00  0.00     0.040 A 
ATOM     12  C   UNL A   1      33.955  26.124  24.945  1.00  0.00     0.014 A 
ATOM     13  C   UNL A   1      33.987  24.389  23.252  1.00  0.00     0.014 A 
ATOM     14  C   UNL A   1      34.458  25.210  25.880  1.00  0.00     0.010 A 
ATOM     15  C   UNL A   1      34.479  23.478  24.192  1.00  0.00     0.010 A 
ATOM     16  C   UNL A   1      34.679  23.868  25.526  1.00  0.00     0.006 A 
BRANCH  16  17
ATOM     17  C   UNL A   1      35.045  22.844  26.572  1.00  0.00     0.295 C 
BRANCH  17  18
ATOM     18  N   UNL A   1      36.253  22.110  26.230  1.00  0.00    -0.354 N 
ATOM     19  H   UNL A   1      36.059  21.109  26.249  1.00  0.00     0.344 HD
ATOM     20  H   UNL A   1      36.986  22.328  26.905  1.00  0.00     0.344 HD
ATOM     21  H   UNL A   1      36.561  22.379  25.295  1.00  0.00     0.344 HD
ENDBRANCH  17  18
ENDBRANCH  16  17
ENDBRANCH   9  11
ENDBRANCH   5   9
ENDBRANCH   4   5
ENDBRANCH   2   4
ENDBRANCH   1   2
BRANCH   1  22
ATOM     22  C   UNL A   1      32.192  30.243  25.619  1.00  0.00     0.274 C 
BRANCH  22  23
ATOM     23  C   UNL A   1      32.503  30.162  27.129  1.00  0.00     0.275 C 
BRANCH  23  24
ATOM     24  O   UNL A   1      33.727  29.458  27.452  1.00  0.00    -0.458 OA
BRANCH  24  25
ATOM     25  C   UNL A   1      34.706  30.300  27.827  1.00  0.00     0.338 C 
ATOM     26  O   UNL A   1      34.567  31.504  27.991  1.00  0.00    -0.246 OA
BRANCH  25  27
ATOM     27  C   UNL A   1      36.016  29.723  28.094  1.00  0.00     0.060 A 
ATOM     28  C   UNL A   1      36.317  29.369  29.413  1.00  0.00     0.016 A 
ATOM     29  C   UNL A   1      37.030  29.878  27.146  1.00  0.00     0.016 A 
ATOM     30  C   UNL A   1      37.640  29.183  29.798  1.00  0.00     0.010 A 
ATOM     31  C   UNL A   1      38.355  29.669  27.526  1.00  0.00     0.010 A 
ATOM     32  C   UNL A   1      38.666  29.328  28.855  1.00  0.00    -0.014 A 
BRANCH  32  33
ATOM     33  C   UNL A   1      40.042  28.924  29.206  1.00  0.00     0.031 A 
ATOM     34  C   UNL A   1      41.032  29.870  29.811  1.00  0.00     0.074 A 
ATOM     35  C   UNL A   1      40.382  27.656  28.920  1.00  0.00     0.049 A 
ATOM     36  N   UNL A   1      42.291  29.659  30.099  1.00  0.00    -0.248 NA
ATOM     37  C   UNL A   1      40.556  31.219  30.139  1.00  0.00     0.031 C 
ATOM     38  C   UNL A   1      39.476  26.657  28.345  1.00  0.00     0.029 A 
ATOM     39  N   UNL A   1      41.574  27.000  29.048  1.00  0.00    -0.354 N 
ATOM     40  C   UNL A   1      42.762  30.848  30.643  1.00  0.00     0.074 A 
ATOM     41  C   UNL A   1      41.652  31.780  30.636  1.00  0.00     0.031 C 
ATOM     42  C   UNL A   1      40.157  25.523  28.136  1.00  0.00     0.029 A 
ATOM     43  C   UNL A   1      41.542  25.729  28.537  1.00  0.00     0.049 A 
ATOM     44  H   UNL A   1      42.373  27.399  29.463  1.00  0.00     0.167 HD
ATOM     45  C   UNL A   1      44.007  31.125  31.100  1.00  0.00     0.031 A 
ATOM     46  C   UNL A   1      42.529  24.834  28.372  1.00  0.00     0.031 A 
ATOM     47  C   UNL A   1      45.104  30.190  31.077  1.00  0.00     0.049 A 
ATOM     48  C   UNL A   1      43.906  25.182  28.835  1.00  0.00     0.074 A 
ATOM     49  C   UNL A   1      46.396  30.360  31.547  1.00  0.00     0.029 A 
ATOM     50  N   UNL A   1      45.040  28.912  30.543  1.00  0.00    -0.354 N 
ATOM     51  N   UNL A   1      44.330  26.301  29.372  1.00  0.00    -0.248 NA
ATOM     52  C   UNL A   1      44.932  24.147  28.683  1.00  0.00     0.031 C 
ATOM     53  C   UNL A   1      47.122  29.197  31.263  1.00  0.00     0.029 A 
ATOM     54  C   UNL A   1      46.273  28.291  30.650  1.00  0.00     0.049 A 
ATOM     55  H   UNL A   1      44.235  28.506  30.146  1.00  0.00     0.167 HD
ATOM     56  C   UNL A   1      45.675  26.102  29.636  1.00  0.00     0.074 A 
ATOM     57  C   UNL A   1      45.990  24.753  29.207  1.00  0.00     0.031 C 
ATOM     58  C   UNL A   1      46.566  26.958  30.192  1.00  0.00     0.031 A 
BRANCH  45  59
ATOM     59  C   UNL A   1      44.265  32.503  31.642  1.00  0.00    -0.014 A 
ATOM     60  C   UNL A   1      44.106  32.787  33.007  1.00  0.00     0.009 A 
ATOM     61  C   UNL A   1      44.744  33.510  30.789  1.00  0.00     0.009 A 
ATOM     62  C   UNL A   1      44.408  34.058  33.504  1.00  0.00     0.001 A 
ATOM     63  C   UNL A   1      45.059  34.775  31.292  1.00  0.00     0.001 A 
ATOM     64  C   UNL A   1      44.888  35.049  32.648  1.00  0.00     0.000 A 
ENDBRANCH  45  59
BRANCH  46  65
ATOM     65  C   UNL A   1      42.214  23.544  27.720  1.00  0.00    -0.014 A 
ATOM     66  C   UNL A   1      41.624  22.503  28.448  1.00  0.00     0.009 A 
ATOM     67  C   UNL A   1      42.402  23.395  26.336  1.00  0.00     0.009 A 
ATOM     68  C   UNL A   1      41.222  21.334  27.800  1.00  0.00     0.001 A 
ATOM     69  C   UNL A   1      41.982  22.233  25.688  1.00  0.00     0.001 A 
ATOM     70  C   UNL A   1      41.394  21.203  26.421  1.00  0.00     0.000 A 
ENDBRANCH  46  65
BRANCH  58  71
ATOM     71  C   UNL A   1      47.959  26.437  30.370  1.00  0.00    -0.014 A 
ATOM     72  C   UNL A   1      48.340  25.795  31.558  1.00  0.00     0.009 A 
ATOM     73  C   UNL A   1      48.900  26.598  29.343  1.00  0.00     0.009 A 
ATOM     74  C   UNL A   1      49.652  25.353  31.727  1.00  0.00     0.001 A 
ATOM     75  C   UNL A   1      50.207  26.140  29.508  1.00  0.00     0.001 A 
ATOM     76  C   UNL A   1      50.584  25.526  30.704  1.00  0.00     0.000 A 
ENDBRANCH  58  71
ENDBRANCH  32  33
ENDBRANCH  25  27
ENDBRANCH  24  25
ENDBRANCH  23  24
ENDBRANCH  22  23
ENDBRANCH   1  22
TORSDOF 18
ENDMDL
MODEL 3
REMARK VINA RESULT:      -8.8      5.025      9.418
REMARK SMILES C=CCN(CC(=O)OCCOC(=O)c1ccc(-c2c3nc(c(-c4ccccc4)c4ccc([nH]4)c(-c4ccccc4)c4nc(c(-c5ccccc5)c5ccc2[nH]5)C=C4)C=C3)cc1)C(=O)c1ccc(C[NH3+])cc1
REMARK SMILES IDX 8 1 6 2 7 3 5 4 4 5 3 6 2 7 1 8 62 9 63 10 64 11 65 12 71 13
REMARK SMILES IDX 66 14 70 15 67 16 68 17 69 18 9 22 10 23 11 24 12 25 13 26
REMARK SMILES IDX 14 27 15 28 61 29 16 30 60 31 17 32 18 33 19 34 54 35 20 36
REMARK SMILES IDX 59 37 53 38 55 39 21 40 58 41 52 42 51 43 22 45 44 46 29 47
REMARK SMILES IDX 43 48 30 49 33 50 42 51 56 52 31 53 32 54 41 56 57 57 34 58
REMARK SMILES IDX 23 59 24 60 28 61 25 62 27 63 26 64 45 65 46 66 50 67 47 68
REMARK SMILES IDX 49 69 48 70 35 71 36 72 40 73 37 74 39 75 38 76
REMARK H PARENT 69 19 69 20 69 21 55 44 33 55
REMARK Flexibility Score: inf
ROOT
ATOM      1  O   UNL A   1      36.977  21.829  24.177  1.00  0.00    -0.461 OA
ENDROOT
BRANCH   1   2
ATOM      2  C   UNL A   1      35.995  22.557  24.772  1.00  0.00     0.325 C 
ATOM      3  O   UNL A   1      36.002  22.862  25.963  1.00  0.00    -0.250 OA
BRANCH   2   4
ATOM      4  C   UNL A   1      34.965  23.165  23.810  1.00  0.00     0.242 C 
BRANCH   4   5
ATOM      5  N   UNL A   1      33.522  23.102  24.073  1.00  0.00    -0.324 N 
BRANCH   5   6
ATOM      6  C   UNL A   1      32.949  24.232  24.793  1.00  0.00     0.147 C 
BRANCH   6   7
ATOM      7  C   UNL A   1      32.638  23.803  26.201  1.00  0.00    -0.014 C 
ATOM      8  C   UNL A   1      31.409  23.784  26.734  1.00  0.00     0.006 C 
ENDBRANCH   6   7
ENDBRANCH   5   6
BRANCH   5   9
ATOM      9  C   UNL A   1      32.642  22.103  23.641  1.00  0.00     0.254 C 
ATOM     10  O   UNL A   1      31.749  22.302  22.817  1.00  0.00    -0.269 OA
BRANCH   9  11
ATOM     11  C   UNL A   1      32.725  20.733  24.185  1.00  0.00     0.040 A 
ATOM     12  C   UNL A   1      33.097  20.490  25.510  1.00  0.00     0.014 A 
ATOM     13  C   UNL A   1      32.483  19.665  23.316  1.00  0.00     0.014 A 
ATOM     14  C   UNL A   1      33.114  19.174  25.991  1.00  0.00     0.010 A 
ATOM     15  C   UNL A   1      32.490  18.354  23.804  1.00  0.00     0.010 A 
ATOM     16  C   UNL A   1      32.764  18.099  25.157  1.00  0.00     0.006 A 
BRANCH  16  17
ATOM     17  C   UNL A   1      32.604  16.707  25.717  1.00  0.00     0.295 C 
BRANCH  17  18
ATOM     18  N   UNL A   1      32.563  15.693  24.676  1.00  0.00    -0.354 N 
ATOM     19  H   UNL A   1      31.690  15.776  24.154  1.00  0.00     0.344 HD
ATOM     20  H   UNL A   1      32.618  14.767  25.101  1.00  0.00     0.344 HD
ATOM     21  H   UNL A   1      33.351  15.823  24.042  1.00  0.00     0.344 HD
ENDBRANCH  17  18
ENDBRANCH  16  17
ENDBRANCH   9  11
ENDBRANCH   5   9
ENDBRANCH   4   5
ENDBRANCH   2   4
ENDBRANCH   1   2
BRANCH   1  22
ATOM     22  C   UNL A   1      37.483  20.716  24.954  1.00  0.00     0.274 C 
BRANCH  22  23
ATOM     23  C   UNL A   1      38.932  20.907  25.454  1.00  0.00     0.275 C 
BRANCH  23  24
ATOM     24  O   UNL A   1      39.540  19.711  25.999  1.00  0.00    -0.458 OA
BRANCH  24  25
ATOM     25  C   UNL A   1      40.882  19.788  26.003  1.00  0.00     0.338 C 
ATOM     26  O   UNL A   1      41.632  18.930  25.557  1.00  0.00    -0.246 OA
BRANCH  25  27
ATOM     27  C   UNL A   1      41.480  21.000  26.547  1.00  0.00     0.060 A 
ATOM     28  C   UNL A   1      41.216  21.313  27.885  1.00  0.00     0.016 A 
ATOM     29  C   UNL A   1      41.964  21.969  25.666  1.00  0.00     0.016 A 
ATOM     30  C   UNL A   1      41.421  22.609  28.347  1.00  0.00     0.010 A 
ATOM     31  C   UNL A   1      42.192  23.263  26.136  1.00  0.00     0.010 A 
ATOM     32  C   UNL A   1      41.914  23.589  27.476  1.00  0.00    -0.014 A 
BRANCH  32  33
ATOM     33  C   UNL A   1      42.333  24.898  28.014  1.00  0.00     0.031 A 
ATOM     34  C   UNL A   1      41.363  26.002  28.299  1.00  0.00     0.074 A 
ATOM     35  C   UNL A   1      43.652  25.070  28.206  1.00  0.00     0.049 A 
ATOM     36  N   UNL A   1      41.610  27.222  28.705  1.00  0.00    -0.248 NA
ATOM     37  C   UNL A   1      39.937  25.706  28.112  1.00  0.00     0.031 C 
ATOM     38  C   UNL A   1      44.671  24.042  27.971  1.00  0.00     0.029 A 
ATOM     39  N   UNL A   1      44.360  26.164  28.613  1.00  0.00    -0.354 N 
ATOM     40  C   UNL A   1      40.373  27.842  28.822  1.00  0.00     0.074 A 
ATOM     41  C   UNL A   1      39.375  26.865  28.435  1.00  0.00     0.031 C 
ATOM     42  C   UNL A   1      45.879  24.569  28.205  1.00  0.00     0.029 A 
ATOM     43  C   UNL A   1      45.716  25.967  28.577  1.00  0.00     0.049 A 
ATOM     44  H   UNL A   1      43.941  27.007  28.903  1.00  0.00     0.167 HD
ATOM     45  C   UNL A   1      40.107  29.112  29.215  1.00  0.00     0.031 A 
ATOM     46  C   UNL A   1      46.725  26.829  28.785  1.00  0.00     0.031 A 
ATOM     47  C   UNL A   1      41.116  30.076  29.574  1.00  0.00     0.049 A 
ATOM     48  C   UNL A   1      46.406  28.238  29.165  1.00  0.00     0.074 A 
ATOM     49  C   UNL A   1      40.949  31.377  30.019  1.00  0.00     0.029 A 
ATOM     50  N   UNL A   1      42.481  29.846  29.518  1.00  0.00    -0.354 N 
ATOM     51  N   UNL A   1      45.231  28.803  29.297  1.00  0.00    -0.248 NA
ATOM     52  C   UNL A   1      47.545  29.120  29.434  1.00  0.00     0.031 C 
ATOM     53  C   UNL A   1      42.217  31.945  30.195  1.00  0.00     0.029 A 
ATOM     54  C   UNL A   1      43.171  30.986  29.896  1.00  0.00     0.049 A 
ATOM     55  H   UNL A   1      42.900  28.997  29.248  1.00  0.00     0.167 HD
ATOM     56  C   UNL A   1      45.486  30.110  29.681  1.00  0.00     0.074 A 
ATOM     57  C   UNL A   1      46.928  30.246  29.766  1.00  0.00     0.031 C 
ATOM     58  C   UNL A   1      44.605  31.104  29.947  1.00  0.00     0.031 A 
BRANCH  45  59
ATOM     59  C   UNL A   1      38.668  29.546  29.255  1.00  0.00    -0.014 A 
ATOM     60  C   UNL A   1      38.035  30.064  28.114  1.00  0.00     0.009 A 
ATOM     61  C   UNL A   1      37.916  29.366  30.427  1.00  0.00     0.009 A 
ATOM     62  C   UNL A   1      36.681  30.407  28.153  1.00  0.00     0.001 A 
ATOM     63  C   UNL A   1      36.559  29.696  30.457  1.00  0.00     0.001 A 
ATOM     64  C   UNL A   1      35.943  30.219  29.322  1.00  0.00     0.000 A 
ENDBRANCH  45  59
BRANCH  46  65
ATOM     65  C   UNL A   1      48.114  26.350  28.609  1.00  0.00    -0.014 A 
ATOM     66  C   UNL A   1      48.789  25.723  29.664  1.00  0.00     0.009 A 
ATOM     67  C   UNL A   1      48.723  26.418  27.345  1.00  0.00     0.009 A 
ATOM     68  C   UNL A   1      50.053  25.169  29.455  1.00  0.00     0.001 A 
ATOM     69  C   UNL A   1      49.978  25.846  27.135  1.00  0.00     0.001 A 
ATOM     70  C   UNL A   1      50.643  25.223  28.192  1.00  0.00     0.000 A 
ENDBRANCH  46  65
BRANCH  58  71
ATOM     71  C   UNL A   1      45.195  32.416  30.364  1.00  0.00    -0.014 A 
ATOM     72  C   UNL A   1      45.500  33.401  29.412  1.00  0.00     0.009 A 
ATOM     73  C   UNL A   1      45.456  32.665  31.719  1.00  0.00     0.009 A 
ATOM     74  C   UNL A   1      46.089  34.601  29.809  1.00  0.00     0.001 A 
ATOM     75  C   UNL A   1      46.029  33.873  32.114  1.00  0.00     0.001 A 
ATOM     76  C   UNL A   1      46.353  34.836  31.158  1.00  0.00     0.000 A 
ENDBRANCH  58  71
ENDBRANCH  32  33
ENDBRANCH  25  27
ENDBRANCH  24  25
ENDBRANCH  23  24
ENDBRANCH  22  23
ENDBRANCH   1  22
TORSDOF 18
ENDMDL
