MODEL 1
REMARK VINA RESULT:     -11.0      0.000      0.000
REMARK SMILES O=C(C[C@H]1S/C(=[NH+]\N=C\c2cc(Br)ccc2OCc2ccccc2)NC1=O)OCCOC(=O)c1ccc(-c2c3nc(c(-c4ccccc4)c4ccc([nH]4)c(-c4ccccc4)c4nc(c(-c5ccccc5)c5ccc2[nH]5)C=C4)C=C3)cc1
REMARK SMILES IDX 1 1 2 2 3 3 4 4 5 5 26 6 6 7 25 8 27 9 7 10 8 13 9 14 10 15
REMARK SMILES IDX 11 16 16 17 12 18 15 19 13 20 14 21 17 22 18 23 19 24 20 25
REMARK SMILES IDX 24 26 21 27 23 28 22 29 28 30 29 31 30 32 31 33 32 34 33 35
REMARK SMILES IDX 34 36 35 37 81 38 36 39 80 40 37 41 38 42 39 43 74 44 40 45
REMARK SMILES IDX 79 46 73 47 75 48 41 49 78 50 72 51 71 52 42 54 64 55 49 56
REMARK SMILES IDX 63 57 50 58 53 59 62 60 76 61 51 62 52 63 61 65 77 66 54 67
REMARK SMILES IDX 43 68 44 69 48 70 45 71 47 72 46 73 65 74 66 75 70 76 67 77
REMARK SMILES IDX 69 78 68 79 55 80 56 81 60 82 57 83 59 84 58 85
REMARK H PARENT 25 11 7 12 75 53 53 64
REMARK Flexibility Score: inf
ROOT
ATOM      1  O   UNL A   1      40.846  19.520  26.129  1.00  0.00    -0.252 OA
ATOM      2  C   UNL A   1      41.283  20.564  26.607  1.00  0.00     0.307 C 
ENDROOT
BRANCH   2   3
ATOM      3  C   UNL A   1      40.330  21.601  27.146  1.00  0.00     0.150 C 
BRANCH   3   4
ATOM      4  C   UNL A   1      39.730  22.512  26.082  1.00  0.00     0.184 C 
ATOM      5  S   UNL A   1      38.120  21.854  25.517  1.00  0.00    -0.020 SA
ATOM      6  C   UNL A   1      39.397  23.892  26.604  1.00  0.00     0.322 C 
ATOM      7  C   UNL A   1      37.255  23.007  26.488  1.00  0.00     0.337 C 
ATOM      8  N   UNL A   1      38.080  23.987  26.924  1.00  0.00    -0.202 N 
ATOM      9  O   UNL A   1      40.221  24.782  26.766  1.00  0.00    -0.246 OA
ATOM     10  N   UNL A   1      36.010  23.038  26.801  1.00  0.00    -0.142 N 
ATOM     11  H   UNL A   1      37.737  24.743  27.455  1.00  0.00     0.316 HD
ATOM     12  H   UNL A   1      35.646  23.710  27.421  1.00  0.00     0.343 HD
BRANCH  10  13
ATOM     13  N   UNL A   1      35.205  22.069  26.214  1.00  0.00    -0.093 NA
ATOM     14  C   UNL A   1      34.409  22.628  25.360  1.00  0.00     0.170 C 
BRANCH  14  15
ATOM     15  C   UNL A   1      33.621  21.841  24.416  1.00  0.00     0.040 A 
ATOM     16  C   UNL A   1      33.581  20.463  24.682  1.00  0.00     0.029 A 
ATOM     17  C   UNL A   1      32.874  22.400  23.369  1.00  0.00     0.128 A 
ATOM     18  C   UNL A   1      32.810  19.627  23.879  1.00  0.00     0.018 A 
ATOM     19  C   UNL A   1      32.124  21.526  22.566  1.00  0.00     0.048 A 
ATOM     20  Br  UNL A   1      32.733  17.776  24.246  1.00  0.00    -0.051 Br
ATOM     21  C   UNL A   1      32.085  20.151  22.815  1.00  0.00     0.019 A 
BRANCH  17  22
ATOM     22  O   UNL A   1      32.682  23.700  22.999  1.00  0.00    -0.488 OA
BRANCH  22  23
ATOM     23  C   UNL A   1      33.752  24.607  22.723  1.00  0.00     0.265 C 
BRANCH  23  24
ATOM     24  C   UNL A   1      33.629  25.969  23.375  1.00  0.00    -0.011 A 
ATOM     25  C   UNL A   1      33.460  27.102  22.562  1.00  0.00     0.007 A 
ATOM     26  C   UNL A   1      33.732  26.147  24.762  1.00  0.00     0.007 A 
ATOM     27  C   UNL A   1      33.496  28.384  23.112  1.00  0.00     0.000 A 
ATOM     28  C   UNL A   1      33.769  27.429  25.310  1.00  0.00     0.000 A 
ATOM     29  C   UNL A   1      33.669  28.547  24.484  1.00  0.00     0.000 A 
ENDBRANCH  23  24
ENDBRANCH  22  23
ENDBRANCH  17  22
ENDBRANCH  14  15
ENDBRANCH  10  13
ENDBRANCH   3   4
ENDBRANCH   2   3
BRANCH   2  30
ATOM     30  O   UNL A   1      42.612  20.781  26.693  1.00  0.00    -0.462 OA
BRANCH  30  31
ATOM     31  C   UNL A   1      43.482  21.091  25.583  1.00  0.00     0.274 C 
BRANCH  31  32
ATOM     32  C   UNL A   1      43.199  22.496  25.054  1.00  0.00     0.275 C 
BRANCH  32  33
ATOM     33  O   UNL A   1      44.409  23.276  25.070  1.00  0.00    -0.458 OA
BRANCH  33  34
ATOM     34  C   UNL A   1      45.032  23.377  26.274  1.00  0.00     0.338 C 
ATOM     35  O   UNL A   1      46.084  22.868  26.596  1.00  0.00    -0.246 OA
BRANCH  34  36
ATOM     36  C   UNL A   1      44.310  24.375  27.099  1.00  0.00     0.060 A 
ATOM     37  C   UNL A   1      44.526  25.736  26.836  1.00  0.00     0.016 A 
ATOM     38  C   UNL A   1      43.414  23.987  28.099  1.00  0.00     0.016 A 
ATOM     39  C   UNL A   1      43.870  26.709  27.594  1.00  0.00     0.010 A 
ATOM     40  C   UNL A   1      42.761  24.959  28.855  1.00  0.00     0.010 A 
ATOM     41  C   UNL A   1      43.007  26.322  28.627  1.00  0.00    -0.014 A 
BRANCH  41  42
ATOM     42  C   UNL A   1      42.474  27.312  29.591  1.00  0.00     0.031 A 
ATOM     43  C   UNL A   1      43.146  27.440  30.928  1.00  0.00     0.074 A 
ATOM     44  C   UNL A   1      41.370  28.029  29.319  1.00  0.00     0.049 A 
ATOM     45  N   UNL A   1      42.778  28.121  31.982  1.00  0.00    -0.248 NA
ATOM     46  C   UNL A   1      44.395  26.681  31.102  1.00  0.00     0.031 C 
ATOM     47  C   UNL A   1      40.635  28.013  28.058  1.00  0.00     0.029 A 
ATOM     48  N   UNL A   1      40.658  28.889  30.119  1.00  0.00    -0.354 N 
ATOM     49  C   UNL A   1      43.737  27.857  32.950  1.00  0.00     0.074 A 
ATOM     50  C   UNL A   1      44.691  26.940  32.367  1.00  0.00     0.031 C 
ATOM     51  C   UNL A   1      39.553  28.805  28.176  1.00  0.00     0.029 A 
ATOM     52  C   UNL A   1      39.507  29.353  29.532  1.00  0.00     0.049 A 
ATOM     53  H   UNL A   1      40.945  29.147  31.024  1.00  0.00     0.167 HD
ATOM     54  C   UNL A   1      43.819  28.335  34.214  1.00  0.00     0.031 A 
ATOM     55  C   UNL A   1      38.512  30.103  30.043  1.00  0.00     0.031 A 
ATOM     56  C   UNL A   1      42.866  29.233  34.805  1.00  0.00     0.049 A 
ATOM     57  C   UNL A   1      38.588  30.576  31.469  1.00  0.00     0.074 A 
ATOM     58  C   UNL A   1      42.879  29.798  36.067  1.00  0.00     0.029 A 
ATOM     59  N   UNL A   1      41.717  29.683  34.175  1.00  0.00    -0.354 N 
ATOM     60  N   UNL A   1      39.520  30.356  32.365  1.00  0.00    -0.248 NA
ATOM     61  C   UNL A   1      37.474  31.405  31.954  1.00  0.00     0.031 C 
ATOM     62  C   UNL A   1      41.710  30.551  36.220  1.00  0.00     0.029 A 
ATOM     63  C   UNL A   1      40.997  30.497  35.033  1.00  0.00     0.049 A 
ATOM     64  H   UNL A   1      41.451  29.459  33.253  1.00  0.00     0.167 HD
ATOM     65  C   UNL A   1      39.122  31.041  33.507  1.00  0.00     0.074 A 
ATOM     66  C   UNL A   1      37.863  31.686  33.192  1.00  0.00     0.031 C 
ATOM     67  C   UNL A   1      39.746  31.132  34.706  1.00  0.00     0.031 A 
BRANCH  54  68
ATOM     68  C   UNL A   1      44.965  27.846  35.052  1.00  0.00    -0.014 A 
ATOM     69  C   UNL A   1      46.195  28.522  35.073  1.00  0.00     0.009 A 
ATOM     70  C   UNL A   1      44.813  26.684  35.823  1.00  0.00     0.009 A 
ATOM     71  C   UNL A   1      47.265  28.016  35.815  1.00  0.00     0.001 A 
ATOM     72  C   UNL A   1      45.875  26.196  36.586  1.00  0.00     0.001 A 
ATOM     73  C   UNL A   1      47.104  26.855  36.570  1.00  0.00     0.000 A 
ENDBRANCH  54  68
BRANCH  55  74
ATOM     74  C   UNL A   1      37.336  30.431  29.197  1.00  0.00    -0.014 A 
ATOM     75  C   UNL A   1      36.408  29.439  28.848  1.00  0.00     0.009 A 
ATOM     76  C   UNL A   1      37.132  31.744  28.747  1.00  0.00     0.009 A 
ATOM     77  C   UNL A   1      35.306  29.754  28.050  1.00  0.00     0.001 A 
ATOM     78  C   UNL A   1      36.016  32.060  27.969  1.00  0.00     0.001 A 
ATOM     79  C   UNL A   1      35.107  31.065  27.616  1.00  0.00     0.000 A 
ENDBRANCH  55  74
BRANCH  67  80
ATOM     80  C   UNL A   1      39.107  31.989  35.764  1.00  0.00    -0.014 A 
ATOM     81  C   UNL A   1      39.317  33.375  35.805  1.00  0.00     0.009 A 
ATOM     82  C   UNL A   1      38.222  31.405  36.685  1.00  0.00     0.009 A 
ATOM     83  C   UNL A   1      38.665  34.158  36.760  1.00  0.00     0.001 A 
ATOM     84  C   UNL A   1      37.554  32.194  37.622  1.00  0.00     0.001 A 
ATOM     85  C   UNL A   1      37.779  33.568  37.662  1.00  0.00     0.000 A 
ENDBRANCH  67  80
ENDBRANCH  41  42
ENDBRANCH  34  36
ENDBRANCH  33  34
ENDBRANCH  32  33
ENDBRANCH  31  32
ENDBRANCH  30  31
ENDBRANCH   2  30
TORSDOF 17
ENDMDL
MODEL 2
REMARK VINA RESULT:     -11.0      3.942      5.609
REMARK SMILES O=C(C[C@H]1S/C(=[NH+]\N=C\c2cc(Br)ccc2OCc2ccccc2)NC1=O)OCCOC(=O)c1ccc(-c2c3nc(c(-c4ccccc4)c4ccc([nH]4)c(-c4ccccc4)c4nc(c(-c5ccccc5)c5ccc2[nH]5)C=C4)C=C3)cc1
REMARK SMILES IDX 1 1 2 2 3 3 4 4 5 5 26 6 6 7 25 8 27 9 7 10 8 13 9 14 10 15
REMARK SMILES IDX 11 16 16 17 12 18 15 19 13 20 14 21 17 22 18 23 19 24 20 25
REMARK SMILES IDX 24 26 21 27 23 28 22 29 28 30 29 31 30 32 31 33 32 34 33 35
REMARK SMILES IDX 34 36 35 37 81 38 36 39 80 40 37 41 38 42 39 43 74 44 40 45
REMARK SMILES IDX 79 46 73 47 75 48 41 49 78 50 72 51 71 52 42 54 64 55 49 56
REMARK SMILES IDX 63 57 50 58 53 59 62 60 76 61 51 62 52 63 61 65 77 66 54 67
REMARK SMILES IDX 43 68 44 69 48 70 45 71 47 72 46 73 65 74 66 75 70 76 67 77
REMARK SMILES IDX 69 78 68 79 55 80 56 81 60 82 57 83 59 84 58 85
REMARK H PARENT 25 11 7 12 75 53 53 64
REMARK Flexibility Score: inf
ROOT
ATOM      1  O   UNL A   1      36.153  19.317  24.700  1.00  0.00    -0.252 OA
ATOM      2  C   UNL A   1      35.966  20.497  24.988  1.00  0.00     0.307 C 
ENDROOT
BRANCH   2   3
ATOM      3  C   UNL A   1      34.664  21.164  24.618  1.00  0.00     0.150 C 
BRANCH   3   4
ATOM      4  C   UNL A   1      34.263  22.308  25.542  1.00  0.00     0.184 C 
ATOM      5  S   UNL A   1      33.388  23.608  24.599  1.00  0.00    -0.020 SA
ATOM      6  C   UNL A   1      33.265  21.890  26.600  1.00  0.00     0.322 C 
ATOM      7  C   UNL A   1      31.847  23.061  25.185  1.00  0.00     0.337 C 
ATOM      8  N   UNL A   1      31.999  22.214  26.229  1.00  0.00    -0.202 N 
ATOM      9  O   UNL A   1      33.562  21.292  27.625  1.00  0.00    -0.246 OA
ATOM     10  N   UNL A   1      30.666  23.362  24.778  1.00  0.00    -0.142 N 
ATOM     11  H   UNL A   1      31.218  21.844  26.703  1.00  0.00     0.316 HD
ATOM     12  H   UNL A   1      29.862  22.930  25.148  1.00  0.00     0.343 HD
BRANCH  10  13
ATOM     13  N   UNL A   1      30.588  24.333  23.786  1.00  0.00    -0.093 NA
ATOM     14  C   UNL A   1      30.155  25.440  24.299  1.00  0.00     0.170 C 
BRANCH  14  15
ATOM     15  C   UNL A   1      30.200  26.697  23.558  1.00  0.00     0.040 A 
ATOM     16  C   UNL A   1      28.992  27.412  23.528  1.00  0.00     0.029 A 
ATOM     17  C   UNL A   1      31.368  27.223  22.988  1.00  0.00     0.128 A 
ATOM     18  C   UNL A   1      28.939  28.652  22.899  1.00  0.00     0.018 A 
ATOM     19  C   UNL A   1      31.275  28.466  22.342  1.00  0.00     0.048 A 
ATOM     20  Br  UNL A   1      27.322  29.629  22.875  1.00  0.00    -0.051 Br
ATOM     21  C   UNL A   1      30.075  29.181  22.298  1.00  0.00     0.019 A 
BRANCH  17  22
ATOM     22  O   UNL A   1      32.654  26.761  22.989  1.00  0.00    -0.488 OA
BRANCH  22  23
ATOM     23  C   UNL A   1      33.661  27.241  23.881  1.00  0.00     0.265 C 
BRANCH  23  24
ATOM     24  C   UNL A   1      33.149  28.013  25.080  1.00  0.00    -0.011 A 
ATOM     25  C   UNL A   1      33.193  29.416  25.058  1.00  0.00     0.007 A 
ATOM     26  C   UNL A   1      32.681  27.374  26.237  1.00  0.00     0.007 A 
ATOM     27  C   UNL A   1      32.874  30.157  26.197  1.00  0.00     0.000 A 
ATOM     28  C   UNL A   1      32.365  28.115  27.376  1.00  0.00     0.000 A 
ATOM     29  C   UNL A   1      32.478  29.504  27.361  1.00  0.00     0.000 A 
ENDBRANCH  23  24
ENDBRANCH  22  23
ENDBRANCH  17  22
ENDBRANCH  14  15
ENDBRANCH  10  13
ENDBRANCH   3   4
ENDBRANCH   2   3
BRANCH   2  30
ATOM     30  O   UNL A   1      36.896  21.198  25.667  1.00  0.00    -0.462 OA
BRANCH  30  31
ATOM     31  C   UNL A   1      38.253  21.430  25.231  1.00  0.00     0.274 C 
BRANCH  31  32
ATOM     32  C   UNL A   1      39.248  20.931  26.277  1.00  0.00     0.275 C 
BRANCH  32  33
ATOM     33  O   UNL A   1      39.992  19.816  25.752  1.00  0.00    -0.458 OA
BRANCH  33  34
ATOM     34  C   UNL A   1      41.295  19.743  26.131  1.00  0.00     0.338 C 
ATOM     35  O   UNL A   1      42.034  18.788  26.024  1.00  0.00    -0.246 OA
BRANCH  34  36
ATOM     36  C   UNL A   1      41.748  21.096  26.538  1.00  0.00     0.060 A 
ATOM     37  C   UNL A   1      41.711  21.427  27.899  1.00  0.00     0.016 A 
ATOM     38  C   UNL A   1      42.226  22.018  25.602  1.00  0.00     0.016 A 
ATOM     39  C   UNL A   1      42.124  22.693  28.323  1.00  0.00     0.010 A 
ATOM     40  C   UNL A   1      42.636  23.281  26.027  1.00  0.00     0.010 A 
ATOM     41  C   UNL A   1      42.561  23.635  27.384  1.00  0.00    -0.014 A 
BRANCH  41  42
ATOM     42  C   UNL A   1      42.788  25.049  27.764  1.00  0.00     0.031 A 
ATOM     43  C   UNL A   1      44.179  25.472  28.139  1.00  0.00     0.074 A 
ATOM     44  C   UNL A   1      41.770  25.922  27.849  1.00  0.00     0.049 A 
ATOM     45  N   UNL A   1      44.596  26.604  28.644  1.00  0.00    -0.248 NA
ATOM     46  C   UNL A   1      45.241  24.472  27.931  1.00  0.00     0.031 C 
ATOM     47  C   UNL A   1      40.380  25.645  27.498  1.00  0.00     0.029 A 
ATOM     48  N   UNL A   1      41.757  27.219  28.299  1.00  0.00    -0.354 N 
ATOM     49  C   UNL A   1      45.962  26.447  28.832  1.00  0.00     0.074 A 
ATOM     50  C   UNL A   1      46.301  25.106  28.409  1.00  0.00     0.031 C 
ATOM     51  C   UNL A   1      39.639  26.734  27.773  1.00  0.00     0.029 A 
ATOM     52  C   UNL A   1      40.499  27.766  28.350  1.00  0.00     0.049 A 
ATOM     53  H   UNL A   1      42.571  27.709  28.558  1.00  0.00     0.167 HD
ATOM     54  C   UNL A   1      46.859  27.339  29.317  1.00  0.00     0.031 A 
ATOM     55  C   UNL A   1      40.085  28.950  28.842  1.00  0.00     0.031 A 
ATOM     56  C   UNL A   1      46.525  28.666  29.755  1.00  0.00     0.049 A 
ATOM     57  C   UNL A   1      41.086  29.906  29.432  1.00  0.00     0.074 A 
ATOM     58  C   UNL A   1      47.368  29.654  30.231  1.00  0.00     0.029 A 
ATOM     59  N   UNL A   1      45.241  29.183  29.786  1.00  0.00    -0.354 N 
ATOM     60  N   UNL A   1      42.383  29.766  29.569  1.00  0.00    -0.248 NA
ATOM     61  C   UNL A   1      40.565  31.187  29.934  1.00  0.00     0.031 C 
ATOM     62  C   UNL A   1      46.585  30.754  30.598  1.00  0.00     0.029 A 
ATOM     63  C   UNL A   1      45.262  30.468  30.301  1.00  0.00     0.049 A 
ATOM     64  H   UNL A   1      44.431  28.708  29.486  1.00  0.00     0.167 HD
ATOM     65  C   UNL A   1      42.836  30.948  30.144  1.00  0.00     0.074 A 
ATOM     66  C   UNL A   1      41.676  31.796  30.330  1.00  0.00     0.031 C 
ATOM     67  C   UNL A   1      44.100  31.300  30.480  1.00  0.00     0.031 A 
BRANCH  54  68
ATOM     68  C   UNL A   1      48.281  26.874  29.437  1.00  0.00    -0.014 A 
ATOM     69  C   UNL A   1      49.218  27.119  28.420  1.00  0.00     0.009 A 
ATOM     70  C   UNL A   1      48.686  26.171  30.582  1.00  0.00     0.009 A 
ATOM     71  C   UNL A   1      50.521  26.628  28.529  1.00  0.00     0.001 A 
ATOM     72  C   UNL A   1      49.996  25.706  30.700  1.00  0.00     0.001 A 
ATOM     73  C   UNL A   1      50.908  25.923  29.668  1.00  0.00     0.000 A 
ENDBRANCH  54  68
BRANCH  55  74
ATOM     74  C   UNL A   1      38.639  29.285  28.819  1.00  0.00    -0.014 A 
ATOM     75  C   UNL A   1      38.037  29.774  27.651  1.00  0.00     0.009 A 
ATOM     76  C   UNL A   1      37.852  29.104  29.967  1.00  0.00     0.009 A 
ATOM     77  C   UNL A   1      36.676  30.090  27.638  1.00  0.00     0.001 A 
ATOM     78  C   UNL A   1      36.488  29.398  29.944  1.00  0.00     0.001 A 
ATOM     79  C   UNL A   1      35.902  29.897  28.782  1.00  0.00     0.000 A 
ENDBRANCH  55  74
BRANCH  67  80
ATOM     80  C   UNL A   1      44.315  32.675  31.050  1.00  0.00    -0.014 A 
ATOM     81  C   UNL A   1      44.613  33.768  30.224  1.00  0.00     0.009 A 
ATOM     82  C   UNL A   1      44.139  32.889  32.427  1.00  0.00     0.009 A 
ATOM     83  C   UNL A   1      44.748  35.048  30.769  1.00  0.00     0.001 A 
ATOM     84  C   UNL A   1      44.251  34.172  32.965  1.00  0.00     0.001 A 
ATOM     85  C   UNL A   1      44.560  35.249  32.137  1.00  0.00     0.000 A 
ENDBRANCH  67  80
ENDBRANCH  41  42
ENDBRANCH  34  36
ENDBRANCH  33  34
ENDBRANCH  32  33
ENDBRANCH  31  32
ENDBRANCH  30  31
ENDBRANCH   2  30
TORSDOF 17
ENDMDL
MODEL 3
REMARK VINA RESULT:     -10.9      4.100      7.258
REMARK SMILES O=C(C[C@H]1S/C(=[NH+]\N=C\c2cc(Br)ccc2OCc2ccccc2)NC1=O)OCCOC(=O)c1ccc(-c2c3nc(c(-c4ccccc4)c4ccc([nH]4)c(-c4ccccc4)c4nc(c(-c5ccccc5)c5ccc2[nH]5)C=C4)C=C3)cc1
REMARK SMILES IDX 1 1 2 2 3 3 4 4 5 5 26 6 6 7 25 8 27 9 7 10 8 13 9 14 10 15
REMARK SMILES IDX 11 16 16 17 12 18 15 19 13 20 14 21 17 22 18 23 19 24 20 25
REMARK SMILES IDX 24 26 21 27 23 28 22 29 28 30 29 31 30 32 31 33 32 34 33 35
REMARK SMILES IDX 34 36 35 37 81 38 36 39 80 40 37 41 38 42 39 43 74 44 40 45
REMARK SMILES IDX 79 46 73 47 75 48 41 49 78 50 72 51 71 52 42 54 64 55 49 56
REMARK SMILES IDX 63 57 50 58 53 59 62 60 76 61 51 62 52 63 61 65 77 66 54 67
REMARK SMILES IDX 43 68 44 69 48 70 45 71 47 72 46 73 65 74 66 75 70 76 67 77
REMARK SMILES IDX 69 78 68 79 55 80 56 81 60 82 57 83 59 84 58 85
REMARK H PARENT 25 11 7 12 75 53 53 64
REMARK Flexibility Score: inf
ROOT
ATOM      1  O   UNL A   1      33.765  18.699  24.479  1.00  0.00    -0.252 OA
ATOM      2  C   UNL A   1      33.846  19.873  24.835  1.00  0.00     0.307 C 
ENDROOT
BRANCH   2   3
ATOM      3  C   UNL A   1      32.726  20.495  25.632  1.00  0.00     0.150 C 
BRANCH   3   4
ATOM      4  C   UNL A   1      31.854  21.460  24.837  1.00  0.00     0.184 C 
ATOM      5  S   UNL A   1      31.899  23.125  25.592  1.00  0.00    -0.020 SA
ATOM      6  C   UNL A   1      32.355  21.684  23.427  1.00  0.00     0.322 C 
ATOM      7  C   UNL A   1      33.014  23.693  24.386  1.00  0.00     0.337 C 
ATOM      8  N   UNL A   1      33.082  22.829  23.345  1.00  0.00    -0.202 N 
ATOM      9  O   UNL A   1      32.173  20.906  22.502  1.00  0.00    -0.246 OA
ATOM     10  N   UNL A   1      33.716  24.768  24.366  1.00  0.00    -0.142 N 
ATOM     11  H   UNL A   1      33.640  23.024  22.558  1.00  0.00     0.316 HD
ATOM     12  H   UNL A   1      34.371  24.949  23.653  1.00  0.00     0.343 HD
BRANCH  10  13
ATOM     13  N   UNL A   1      33.498  25.663  25.407  1.00  0.00    -0.093 NA
ATOM     14  C   UNL A   1      33.871  26.848  25.043  1.00  0.00     0.170 C 
BRANCH  14  15
ATOM     15  C   UNL A   1      33.540  28.031  25.831  1.00  0.00     0.040 A 
ATOM     16  C   UNL A   1      34.621  28.610  26.515  1.00  0.00     0.029 A 
ATOM     17  C   UNL A   1      32.269  28.623  25.851  1.00  0.00     0.128 A 
ATOM     18  C   UNL A   1      34.429  29.777  27.249  1.00  0.00     0.018 A 
ATOM     19  C   UNL A   1      32.104  29.787  26.619  1.00  0.00     0.048 A 
ATOM     20  Br  UNL A   1      35.884  30.574  28.151  1.00  0.00    -0.051 Br
ATOM     21  C   UNL A   1      33.172  30.366  27.311  1.00  0.00     0.019 A 
BRANCH  17  22
ATOM     22  O   UNL A   1      31.118  28.300  25.189  1.00  0.00    -0.488 OA
BRANCH  22  23
ATOM     23  C   UNL A   1      30.926  28.521  23.791  1.00  0.00     0.265 C 
BRANCH  23  24
ATOM     24  C   UNL A   1      29.796  29.467  23.436  1.00  0.00    -0.011 A 
ATOM     25  C   UNL A   1      29.803  30.767  23.966  1.00  0.00     0.007 A 
ATOM     26  C   UNL A   1      28.713  29.072  22.638  1.00  0.00     0.007 A 
ATOM     27  C   UNL A   1      28.709  31.615  23.788  1.00  0.00     0.000 A 
ATOM     28  C   UNL A   1      27.618  29.919  22.463  1.00  0.00     0.000 A 
ATOM     29  C   UNL A   1      27.609  31.183  23.051  1.00  0.00     0.000 A 
ENDBRANCH  23  24
ENDBRANCH  22  23
ENDBRANCH  17  22
ENDBRANCH  14  15
ENDBRANCH  10  13
ENDBRANCH   3   4
ENDBRANCH   2   3
BRANCH   2  30
ATOM     30  O   UNL A   1      34.943  20.605  24.555  1.00  0.00    -0.462 OA
BRANCH  30  31
ATOM     31  C   UNL A   1      35.916  21.057  25.521  1.00  0.00     0.274 C 
BRANCH  31  32
ATOM     32  C   UNL A   1      37.287  20.451  25.228  1.00  0.00     0.275 C 
BRANCH  32  33
ATOM     33  O   UNL A   1      38.296  21.476  25.282  1.00  0.00    -0.458 OA
BRANCH  33  34
ATOM     34  C   UNL A   1      39.234  21.333  26.256  1.00  0.00     0.338 C 
ATOM     35  O   UNL A   1      39.736  20.298  26.638  1.00  0.00    -0.246 OA
BRANCH  34  36
ATOM     36  C   UNL A   1      39.700  22.679  26.667  1.00  0.00     0.060 A 
ATOM     37  C   UNL A   1      38.994  23.798  26.204  1.00  0.00     0.016 A 
ATOM     38  C   UNL A   1      40.798  22.843  27.517  1.00  0.00     0.016 A 
ATOM     39  C   UNL A   1      39.403  25.084  26.565  1.00  0.00     0.010 A 
ATOM     40  C   UNL A   1      41.207  24.128  27.874  1.00  0.00     0.010 A 
ATOM     41  C   UNL A   1      40.530  25.254  27.378  1.00  0.00    -0.014 A 
BRANCH  41  42
ATOM     42  C   UNL A   1      41.125  26.593  27.593  1.00  0.00     0.031 A 
ATOM     43  C   UNL A   1      42.476  26.878  27.002  1.00  0.00     0.074 A 
ATOM     44  C   UNL A   1      40.517  27.513  28.363  1.00  0.00     0.049 A 
ATOM     45  N   UNL A   1      43.258  27.911  27.176  1.00  0.00    -0.248 NA
ATOM     46  C   UNL A   1      43.023  25.846  26.105  1.00  0.00     0.031 C 
ATOM     47  C   UNL A   1      39.202  27.370  28.979  1.00  0.00     0.029 A 
ATOM     48  N   UNL A   1      40.959  28.743  28.781  1.00  0.00    -0.354 N 
ATOM     49  C   UNL A   1      44.397  27.646  26.427  1.00  0.00     0.074 A 
ATOM     50  C   UNL A   1      44.214  26.348  25.816  1.00  0.00     0.031 C 
ATOM     51  C   UNL A   1      38.952  28.462  29.725  1.00  0.00     0.029 A 
ATOM     52  C   UNL A   1      40.106  29.359  29.662  1.00  0.00     0.049 A 
ATOM     53  H   UNL A   1      41.805  29.145  28.477  1.00  0.00     0.167 HD
ATOM     54  C   UNL A   1      45.501  28.413  26.263  1.00  0.00     0.031 A 
ATOM     55  C   UNL A   1      40.255  30.498  30.365  1.00  0.00     0.031 A 
ATOM     56  C   UNL A   1      45.696  29.695  26.881  1.00  0.00     0.049 A 
ATOM     57  C   UNL A   1      41.514  31.309  30.218  1.00  0.00     0.074 A 
ATOM     58  C   UNL A   1      46.765  30.562  26.750  1.00  0.00     0.029 A 
ATOM     59  N   UNL A   1      44.805  30.285  27.762  1.00  0.00    -0.354 N 
ATOM     60  N   UNL A   1      42.569  31.072  29.475  1.00  0.00    -0.248 NA
ATOM     61  C   UNL A   1      41.601  32.549  31.004  1.00  0.00     0.031 C 
ATOM     62  C   UNL A   1      46.545  31.656  27.593  1.00  0.00     0.029 A 
ATOM     63  C   UNL A   1      45.313  31.494  28.208  1.00  0.00     0.049 A 
ATOM     64  H   UNL A   1      43.938  29.903  28.033  1.00  0.00     0.167 HD
ATOM     65  C   UNL A   1      43.430  32.143  29.682  1.00  0.00     0.074 A 
ATOM     66  C   UNL A   1      42.775  33.034  30.618  1.00  0.00     0.031 C 
ATOM     67  C   UNL A   1      44.651  32.370  29.139  1.00  0.00     0.031 A 
BRANCH  54  68
ATOM     68  C   UNL A   1      46.600  27.847  25.410  1.00  0.00    -0.014 A 
ATOM     69  C   UNL A   1      46.687  28.143  24.041  1.00  0.00     0.009 A 
ATOM     70  C   UNL A   1      47.556  26.997  25.987  1.00  0.00     0.009 A 
ATOM     71  C   UNL A   1      47.685  27.560  23.256  1.00  0.00     0.001 A 
ATOM     72  C   UNL A   1      48.568  26.438  25.205  1.00  0.00     0.001 A 
ATOM     73  C   UNL A   1      48.624  26.709  23.838  1.00  0.00     0.000 A 
ENDBRANCH  54  68
BRANCH  55  74
ATOM     74  C   UNL A   1      39.184  30.925  31.301  1.00  0.00    -0.014 A 
ATOM     75  C   UNL A   1      38.173  31.800  30.878  1.00  0.00     0.009 A 
ATOM     76  C   UNL A   1      39.164  30.447  32.620  1.00  0.00     0.009 A 
ATOM     77  C   UNL A   1      37.170  32.199  31.765  1.00  0.00     0.001 A 
ATOM     78  C   UNL A   1      38.147  30.829  33.496  1.00  0.00     0.001 A 
ATOM     79  C   UNL A   1      37.155  31.710  33.071  1.00  0.00     0.000 A 
ENDBRANCH  55  74
BRANCH  67  80
ATOM     80  C   UNL A   1      45.352  33.649  29.506  1.00  0.00    -0.014 A 
ATOM     81  C   UNL A   1      45.135  34.832  28.785  1.00  0.00     0.009 A 
ATOM     82  C   UNL A   1      46.182  33.682  30.637  1.00  0.00     0.009 A 
ATOM     83  C   UNL A   1      45.751  36.022  29.181  1.00  0.00     0.001 A 
ATOM     84  C   UNL A   1      46.777  34.877  31.045  1.00  0.00     0.001 A 
ATOM     85  C   UNL A   1      46.565  36.044  30.314  1.00  0.00     0.000 A 
ENDBRANCH  67  80
ENDBRANCH  41  42
ENDBRANCH  34  36
ENDBRANCH  33  34
ENDBRANCH  32  33
ENDBRANCH  31  32
ENDBRANCH  30  31
ENDBRANCH   2  30
TORSDOF 17
ENDMDL
