MODEL 1
REMARK VINA RESULT:     -10.5      0.000      0.000
REMARK SMILES Cn1nc(C(=O)N2C[C@@H](O)C[C@H]2C(=O)OCCOC(=O)c2ccc(-c3c4nc(c(-c5ccccc5)c5ccc([nH]5)c(-c5ccccc5)c5nc(c(-c6ccccc6)c6ccc3[nH]6)C=C5)C=C4)cc2)ccc1=O
REMARK SMILES IDX 16 1 15 2 13 3 14 4 12 5 7 6 8 7 9 8 11 9 5 10 6 11 4 12
REMARK SMILES IDX 1 13 2 14 3 15 71 16 70 17 72 18 69 19 10 20 17 22 18 23
REMARK SMILES IDX 19 24 20 25 21 26 22 27 68 28 23 29 67 30 24 31 25 32 26 33
REMARK SMILES IDX 61 34 27 35 66 36 60 37 62 38 28 39 65 40 59 41 58 42 29 44
REMARK SMILES IDX 51 45 36 46 50 47 37 48 40 49 49 50 63 51 38 52 39 53 48 55
REMARK SMILES IDX 64 56 41 57 30 58 31 59 35 60 32 61 34 62 33 63 52 64 53 65
REMARK SMILES IDX 57 66 54 67 56 68 55 69 42 70 43 71 47 72 44 73 46 74 45 75
REMARK H PARENT 10 21 62 43 40 54
REMARK Flexibility Score: inf
ROOT
ATOM      1  C   UNL A   1      33.496  33.700  28.225  1.00  0.00     0.274 C 
ENDROOT
BRANCH   1   2
ATOM      2  O   UNL A   1      33.398  34.075  29.611  1.00  0.00    -0.461 OA
BRANCH   2   3
ATOM      3  C   UNL A   1      33.147  35.384  29.850  1.00  0.00     0.329 C 
ATOM      4  O   UNL A   1      32.994  36.238  28.981  1.00  0.00    -0.250 OA
BRANCH   3   5
ATOM      5  C   UNL A   1      33.076  35.733  31.338  1.00  0.00     0.198 C 
ATOM      6  N   UNL A   1      34.154  35.315  32.233  1.00  0.00    -0.321 N 
ATOM      7  C   UNL A   1      34.675  36.434  32.994  1.00  0.00     0.152 C 
ATOM      8  C   UNL A   1      33.629  37.534  32.841  1.00  0.00     0.136 C 
ATOM      9  C   UNL A   1      33.030  37.255  31.469  1.00  0.00     0.071 C 
BRANCH   6  10
ATOM     10  C   UNL A   1      34.188  33.995  32.650  1.00  0.00     0.275 C 
ATOM     11  O   UNL A   1      33.192  33.400  33.038  1.00  0.00    -0.267 OA
BRANCH  10  12
ATOM     12  C   UNL A   1      35.561  33.323  32.806  1.00  0.00     0.149 A 
ATOM     13  C   UNL A   1      37.634  31.931  35.391  1.00  0.00     0.178 C 
ATOM     14  N   UNL A   1      37.191  32.322  34.068  1.00  0.00    -0.232 N 
ATOM     15  N   UNL A   1      35.963  32.949  33.984  1.00  0.00    -0.165 NA
ATOM     16  C   UNL A   1      37.997  32.026  32.976  1.00  0.00     0.266 A 
ATOM     17  C   UNL A   1      37.475  32.438  31.657  1.00  0.00     0.076 A 
ATOM     18  O   UNL A   1      39.081  31.453  33.037  1.00  0.00    -0.268 OA
ATOM     19  C   UNL A   1      36.307  33.075  31.553  1.00  0.00     0.042 A 
ENDBRANCH  10  12
ENDBRANCH   6  10
BRANCH   8  20
ATOM     20  O   UNL A   1      34.189  38.837  32.891  1.00  0.00    -0.391 OA
ATOM     21  H   UNL A   1      33.823  39.373  32.171  1.00  0.00     0.211 HD
ENDBRANCH   8  20
ENDBRANCH   3   5
ENDBRANCH   2   3
ENDBRANCH   1   2
BRANCH   1  22
ATOM     22  C   UNL A   1      34.793  32.939  27.957  1.00  0.00     0.275 C 
BRANCH  22  23
ATOM     23  O   UNL A   1      34.882  31.792  28.825  1.00  0.00    -0.458 OA
BRANCH  23  24
ATOM     24  C   UNL A   1      34.909  30.595  28.202  1.00  0.00     0.338 C 
ATOM     25  O   UNL A   1      34.013  30.045  27.586  1.00  0.00    -0.246 OA
BRANCH  24  26
ATOM     26  C   UNL A   1      36.200  29.935  28.431  1.00  0.00     0.060 A 
ATOM     27  C   UNL A   1      36.536  29.400  29.678  1.00  0.00     0.016 A 
ATOM     28  C   UNL A   1      37.138  29.983  27.398  1.00  0.00     0.016 A 
ATOM     29  C   UNL A   1      37.841  28.960  29.907  1.00  0.00     0.010 A 
ATOM     30  C   UNL A   1      38.427  29.505  27.616  1.00  0.00     0.010 A 
ATOM     31  C   UNL A   1      38.795  29.020  28.880  1.00  0.00    -0.014 A 
BRANCH  31  32
ATOM     32  C   UNL A   1      40.194  28.603  29.117  1.00  0.00     0.031 A 
ATOM     33  C   UNL A   1      41.169  29.561  29.737  1.00  0.00     0.074 A 
ATOM     34  C   UNL A   1      40.589  27.372  28.749  1.00  0.00     0.049 A 
ATOM     35  N   UNL A   1      42.459  29.428  29.903  1.00  0.00    -0.248 NA
ATOM     36  C   UNL A   1      40.625  30.836  30.234  1.00  0.00     0.031 C 
ATOM     37  C   UNL A   1      39.723  26.344  28.169  1.00  0.00     0.029 A 
ATOM     38  N   UNL A   1      41.825  26.781  28.801  1.00  0.00    -0.354 N 
ATOM     39  C   UNL A   1      42.883  30.600  30.514  1.00  0.00     0.074 A 
ATOM     40  C   UNL A   1      41.717  31.442  30.679  1.00  0.00     0.031 C 
ATOM     41  C   UNL A   1      40.455  25.247  27.922  1.00  0.00     0.029 A 
ATOM     42  C   UNL A   1      41.845  25.511  28.281  1.00  0.00     0.049 A 
ATOM     43  H   UNL A   1      42.620  27.224  29.176  1.00  0.00     0.167 HD
ATOM     44  C   UNL A   1      44.134  30.940  30.901  1.00  0.00     0.031 A 
ATOM     45  C   UNL A   1      42.873  24.665  28.087  1.00  0.00     0.031 A 
ATOM     46  C   UNL A   1      45.289  30.102  30.736  1.00  0.00     0.049 A 
ATOM     47  C   UNL A   1      44.260  25.089  28.470  1.00  0.00     0.074 A 
ATOM     48  C   UNL A   1      46.602  30.368  31.088  1.00  0.00     0.029 A 
ATOM     49  N   UNL A   1      45.270  28.836  30.178  1.00  0.00    -0.354 N 
ATOM     50  N   UNL A   1      44.653  26.215  29.013  1.00  0.00    -0.248 NA
ATOM     51  C   UNL A   1      45.345  24.134  28.207  1.00  0.00     0.031 C 
ATOM     52  C   UNL A   1      47.382  29.269  30.718  1.00  0.00     0.029 A 
ATOM     53  C   UNL A   1      46.549  28.309  30.168  1.00  0.00     0.049 A 
ATOM     54  H   UNL A   1      44.467  28.377  29.840  1.00  0.00     0.167 HD
ATOM     55  C   UNL A   1      46.027  26.104  29.161  1.00  0.00     0.074 A 
ATOM     56  C   UNL A   1      46.401  24.796  28.664  1.00  0.00     0.031 C 
ATOM     57  C   UNL A   1      46.900  27.008  29.664  1.00  0.00     0.031 A 
BRANCH  44  58
ATOM     58  C   UNL A   1      44.331  32.283  31.539  1.00  0.00    -0.014 A 
ATOM     59  C   UNL A   1      44.774  33.378  30.783  1.00  0.00     0.009 A 
ATOM     60  C   UNL A   1      43.980  32.476  32.885  1.00  0.00     0.009 A 
ATOM     61  C   UNL A   1      44.864  34.644  31.366  1.00  0.00     0.001 A 
ATOM     62  C   UNL A   1      44.058  33.745  33.459  1.00  0.00     0.001 A 
ATOM     63  C   UNL A   1      44.500  34.828  32.699  1.00  0.00     0.000 A 
ENDBRANCH  44  58
BRANCH  45  64
ATOM     64  C   UNL A   1      42.615  23.341  27.470  1.00  0.00    -0.014 A 
ATOM     65  C   UNL A   1      42.749  23.163  26.087  1.00  0.00     0.009 A 
ATOM     66  C   UNL A   1      42.287  22.237  28.275  1.00  0.00     0.009 A 
ATOM     67  C   UNL A   1      42.558  21.902  25.518  1.00  0.00     0.001 A 
ATOM     68  C   UNL A   1      42.115  20.975  27.704  1.00  0.00     0.001 A 
ATOM     69  C   UNL A   1      42.248  20.809  26.327  1.00  0.00     0.000 A 
ENDBRANCH  45  64
BRANCH  57  70
ATOM     70  C   UNL A   1      48.347  26.623  29.713  1.00  0.00    -0.014 A 
ATOM     71  C   UNL A   1      48.836  25.812  30.748  1.00  0.00     0.009 A 
ATOM     72  C   UNL A   1      49.204  26.991  28.665  1.00  0.00     0.009 A 
ATOM     73  C   UNL A   1      50.164  25.381  30.733  1.00  0.00     0.001 A 
ATOM     74  C   UNL A   1      50.525  26.547  28.646  1.00  0.00     0.001 A 
ATOM     75  C   UNL A   1      51.004  25.743  29.680  1.00  0.00     0.000 A 
ENDBRANCH  57  70
ENDBRANCH  31  32
ENDBRANCH  24  26
ENDBRANCH  23  24
ENDBRANCH  22  23
ENDBRANCH   1  22
TORSDOF 14
ENDMDL
MODEL 2
REMARK VINA RESULT:     -10.4      4.845      9.871
REMARK SMILES Cn1nc(C(=O)N2C[C@@H](O)C[C@H]2C(=O)OCCOC(=O)c2ccc(-c3c4nc(c(-c5ccccc5)c5ccc([nH]5)c(-c5ccccc5)c5nc(c(-c6ccccc6)c6ccc3[nH]6)C=C5)C=C4)cc2)ccc1=O
REMARK SMILES IDX 16 1 15 2 13 3 14 4 12 5 7 6 8 7 9 8 11 9 5 10 6 11 4 12
REMARK SMILES IDX 1 13 2 14 3 15 71 16 70 17 72 18 69 19 10 20 17 22 18 23
REMARK SMILES IDX 19 24 20 25 21 26 22 27 68 28 23 29 67 30 24 31 25 32 26 33
REMARK SMILES IDX 61 34 27 35 66 36 60 37 62 38 28 39 65 40 59 41 58 42 29 44
REMARK SMILES IDX 51 45 36 46 50 47 37 48 40 49 49 50 63 51 38 52 39 53 48 55
REMARK SMILES IDX 64 56 41 57 30 58 31 59 35 60 32 61 34 62 33 63 52 64 53 65
REMARK SMILES IDX 57 66 54 67 56 68 55 69 42 70 43 71 47 72 44 73 46 74 45 75
REMARK H PARENT 10 21 62 43 40 54
REMARK Flexibility Score: inf
ROOT
ATOM      1  C   UNL A   1      32.363  30.147  26.982  1.00  0.00     0.274 C 
ENDROOT
BRANCH   1   2
ATOM      2  O   UNL A   1      31.660  29.314  26.043  1.00  0.00    -0.461 OA
BRANCH   2   3
ATOM      3  C   UNL A   1      32.327  29.021  24.901  1.00  0.00     0.329 C 
ATOM      4  O   UNL A   1      33.274  29.665  24.458  1.00  0.00    -0.250 OA
BRANCH   3   5
ATOM      5  C   UNL A   1      31.784  27.791  24.172  1.00  0.00     0.198 C 
ATOM      6  N   UNL A   1      30.956  27.961  22.980  1.00  0.00    -0.321 N 
ATOM      7  C   UNL A   1      31.468  27.187  21.865  1.00  0.00     0.152 C 
ATOM      8  C   UNL A   1      32.448  26.199  22.489  1.00  0.00     0.136 C 
ATOM      9  C   UNL A   1      32.973  26.951  23.705  1.00  0.00     0.071 C 
BRANCH   6  10
ATOM     10  C   UNL A   1      29.629  28.319  23.146  1.00  0.00     0.275 C 
ATOM     11  O   UNL A   1      28.757  27.508  23.425  1.00  0.00    -0.267 OA
BRANCH  10  12
ATOM     12  C   UNL A   1      29.218  29.753  22.779  1.00  0.00     0.149 A 
ATOM     13  C   UNL A   1      27.881  31.573  19.982  1.00  0.00     0.178 C 
ATOM     14  N   UNL A   1      28.372  31.304  21.319  1.00  0.00    -0.232 N 
ATOM     15  N   UNL A   1      28.756  30.005  21.590  1.00  0.00    -0.165 NA
ATOM     16  C   UNL A   1      28.403  32.341  22.244  1.00  0.00     0.266 A 
ATOM     17  C   UNL A   1      28.899  31.991  23.590  1.00  0.00     0.076 A 
ATOM     18  O   UNL A   1      28.047  33.494  22.018  1.00  0.00    -0.268 OA
ATOM     19  C   UNL A   1      29.307  30.751  23.867  1.00  0.00     0.042 A 
ENDBRANCH  10  12
ENDBRANCH   6  10
BRANCH   8  20
ATOM     20  O   UNL A   1      33.510  25.851  21.615  1.00  0.00    -0.391 OA
ATOM     21  H   UNL A   1      33.935  26.658  21.286  1.00  0.00     0.211 HD
ENDBRANCH   8  20
ENDBRANCH   3   5
ENDBRANCH   2   3
ENDBRANCH   1   2
BRANCH   1  22
ATOM     22  C   UNL A   1      31.790  31.563  26.990  1.00  0.00     0.275 C 
BRANCH  22  23
ATOM     23  O   UNL A   1      32.844  32.524  26.789  1.00  0.00    -0.458 OA
BRANCH  23  24
ATOM     24  C   UNL A   1      33.007  33.422  27.784  1.00  0.00     0.338 C 
ATOM     25  O   UNL A   1      32.278  34.347  28.091  1.00  0.00    -0.246 OA
BRANCH  24  26
ATOM     26  C   UNL A   1      34.293  33.202  28.458  1.00  0.00     0.060 A 
ATOM     27  C   UNL A   1      35.484  33.724  27.946  1.00  0.00     0.016 A 
ATOM     28  C   UNL A   1      34.305  32.334  29.552  1.00  0.00     0.016 A 
ATOM     29  C   UNL A   1      36.702  33.330  28.504  1.00  0.00     0.010 A 
ATOM     30  C   UNL A   1      35.519  31.975  30.132  1.00  0.00     0.010 A 
ATOM     31  C   UNL A   1      36.725  32.446  29.592  1.00  0.00    -0.014 A 
BRANCH  31  32
ATOM     32  C   UNL A   1      38.006  31.980  30.166  1.00  0.00     0.031 A 
ATOM     33  C   UNL A   1      38.684  30.765  29.601  1.00  0.00     0.074 A 
ATOM     34  C   UNL A   1      38.541  32.635  31.210  1.00  0.00     0.049 A 
ATOM     35  N   UNL A   1      39.736  30.129  30.048  1.00  0.00    -0.248 NA
ATOM     36  C   UNL A   1      38.105  30.188  28.376  1.00  0.00     0.031 C 
ATOM     37  C   UNL A   1      37.991  33.846  31.820  1.00  0.00     0.029 A 
ATOM     38  N   UNL A   1      39.666  32.368  31.947  1.00  0.00    -0.354 N 
ATOM     39  C   UNL A   1      39.941  29.075  29.168  1.00  0.00     0.074 A 
ATOM     40  C   UNL A   1      38.898  29.146  28.167  1.00  0.00     0.031 C 
ATOM     41  C   UNL A   1      38.781  34.219  32.839  1.00  0.00     0.029 A 
ATOM     42  C   UNL A   1      39.864  33.249  32.980  1.00  0.00     0.049 A 
ATOM     43  H   UNL A   1      40.273  31.617  31.755  1.00  0.00     0.167 HD
ATOM     44  C   UNL A   1      40.913  28.135  29.196  1.00  0.00     0.031 A 
ATOM     45  C   UNL A   1      40.794  33.258  33.952  1.00  0.00     0.031 A 
ATOM     46  C   UNL A   1      41.947  28.067  30.191  1.00  0.00     0.049 A 
ATOM     47  C   UNL A   1      41.827  32.171  33.996  1.00  0.00     0.074 A 
ATOM     48  C   UNL A   1      42.970  27.142  30.307  1.00  0.00     0.029 A 
ATOM     49  N   UNL A   1      42.093  28.963  31.237  1.00  0.00    -0.354 N 
ATOM     50  N   UNL A   1      41.986  31.159  33.179  1.00  0.00    -0.248 NA
ATOM     51  C   UNL A   1      42.798  32.219  35.097  1.00  0.00     0.031 C 
ATOM     52  C   UNL A   1      43.721  27.464  31.441  1.00  0.00     0.029 A 
ATOM     53  C   UNL A   1      43.184  28.608  32.008  1.00  0.00     0.049 A 
ATOM     54  H   UNL A   1      41.509  29.738  31.406  1.00  0.00     0.167 HD
ATOM     55  C   UNL A   1      43.077  30.452  33.662  1.00  0.00     0.074 A 
ATOM     56  C   UNL A   1      43.550  31.157  34.836  1.00  0.00     0.031 C 
ATOM     57  C   UNL A   1      43.635  29.319  33.175  1.00  0.00     0.031 A 
BRANCH  44  58
ATOM     58  C   UNL A   1      40.909  27.088  28.122  1.00  0.00    -0.014 A 
ATOM     59  C   UNL A   1      40.183  25.900  28.282  1.00  0.00     0.009 A 
ATOM     60  C   UNL A   1      41.559  27.336  26.902  1.00  0.00     0.009 A 
ATOM     61  C   UNL A   1      40.111  24.974  27.238  1.00  0.00     0.001 A 
ATOM     62  C   UNL A   1      41.472  26.416  25.857  1.00  0.00     0.001 A 
ATOM     63  C   UNL A   1      40.748  25.236  26.026  1.00  0.00     0.000 A 
ENDBRANCH  44  58
BRANCH  45  64
ATOM     64  C   UNL A   1      40.761  34.331  34.976  1.00  0.00    -0.014 A 
ATOM     65  C   UNL A   1      41.493  35.511  34.792  1.00  0.00     0.009 A 
ATOM     66  C   UNL A   1      39.950  34.197  36.115  1.00  0.00     0.009 A 
ATOM     67  C   UNL A   1      41.416  36.541  35.734  1.00  0.00     0.001 A 
ATOM     68  C   UNL A   1      39.861  35.236  37.043  1.00  0.00     0.001 A 
ATOM     69  C   UNL A   1      40.596  36.406  36.853  1.00  0.00     0.000 A 
ENDBRANCH  45  64
BRANCH  57  70
ATOM     70  C   UNL A   1      44.824  28.764  33.898  1.00  0.00    -0.014 A 
ATOM     71  C   UNL A   1      46.119  29.208  33.590  1.00  0.00     0.009 A 
ATOM     72  C   UNL A   1      44.639  27.866  34.960  1.00  0.00     0.009 A 
ATOM     73  C   UNL A   1      47.210  28.755  34.333  1.00  0.00     0.001 A 
ATOM     74  C   UNL A   1      45.730  27.428  35.709  1.00  0.00     0.001 A 
ATOM     75  C   UNL A   1      47.015  27.872  35.395  1.00  0.00     0.000 A 
ENDBRANCH  57  70
ENDBRANCH  31  32
ENDBRANCH  24  26
ENDBRANCH  23  24
ENDBRANCH  22  23
ENDBRANCH   1  22
TORSDOF 14
ENDMDL
MODEL 3
REMARK VINA RESULT:     -10.3      4.098      6.661
REMARK SMILES Cn1nc(C(=O)N2C[C@@H](O)C[C@H]2C(=O)OCCOC(=O)c2ccc(-c3c4nc(c(-c5ccccc5)c5ccc([nH]5)c(-c5ccccc5)c5nc(c(-c6ccccc6)c6ccc3[nH]6)C=C5)C=C4)cc2)ccc1=O
REMARK SMILES IDX 16 1 15 2 13 3 14 4 12 5 7 6 8 7 9 8 11 9 5 10 6 11 4 12
REMARK SMILES IDX 1 13 2 14 3 15 71 16 70 17 72 18 69 19 10 20 17 22 18 23
REMARK SMILES IDX 19 24 20 25 21 26 22 27 68 28 23 29 67 30 24 31 25 32 26 33
REMARK SMILES IDX 61 34 27 35 66 36 60 37 62 38 28 39 65 40 59 41 58 42 29 44
REMARK SMILES IDX 51 45 36 46 50 47 37 48 40 49 49 50 63 51 38 52 39 53 48 55
REMARK SMILES IDX 64 56 41 57 30 58 31 59 35 60 32 61 34 62 33 63 52 64 53 65
REMARK SMILES IDX 57 66 54 67 56 68 55 69 42 70 43 71 47 72 44 73 46 74 45 75
REMARK H PARENT 10 21 62 43 40 54
REMARK Flexibility Score: inf
ROOT
ATOM      1  C   UNL A   1      32.854  29.680  25.387  1.00  0.00     0.274 C 
ENDROOT
BRANCH   1   2
ATOM      2  O   UNL A   1      33.628  28.473  25.514  1.00  0.00    -0.461 OA
BRANCH   2   3
ATOM      3  C   UNL A   1      33.108  27.375  24.917  1.00  0.00     0.329 C 
ATOM      4  O   UNL A   1      33.759  26.545  24.288  1.00  0.00    -0.250 OA
BRANCH   3   5
ATOM      5  C   UNL A   1      31.592  27.247  25.081  1.00  0.00     0.198 C 
ATOM      6  N   UNL A   1      30.785  26.725  23.979  1.00  0.00    -0.321 N 
ATOM      7  C   UNL A   1      29.944  25.626  24.414  1.00  0.00     0.152 C 
ATOM      8  C   UNL A   1      29.950  25.703  25.937  1.00  0.00     0.136 C 
ATOM      9  C   UNL A   1      31.318  26.299  26.249  1.00  0.00     0.071 C 
BRANCH   6  10
ATOM     10  C   UNL A   1      30.495  27.567  22.920  1.00  0.00     0.275 C 
ATOM     11  O   UNL A   1      31.092  27.516  21.853  1.00  0.00    -0.267 OA
BRANCH  10  12
ATOM     12  C   UNL A   1      29.518  28.727  23.167  1.00  0.00     0.149 A 
ATOM     13  C   UNL A   1      29.595  32.219  24.017  1.00  0.00     0.178 C 
ATOM     14  N   UNL A   1      29.064  30.919  23.655  1.00  0.00    -0.232 N 
ATOM     15  N   UNL A   1      29.981  29.903  23.472  1.00  0.00    -0.165 NA
ATOM     16  C   UNL A   1      27.692  30.778  23.489  1.00  0.00     0.266 A 
ATOM     17  C   UNL A   1      27.224  29.431  23.105  1.00  0.00     0.076 A 
ATOM     18  O   UNL A   1      26.870  31.679  23.632  1.00  0.00    -0.268 OA
ATOM     19  C   UNL A   1      28.086  28.425  22.954  1.00  0.00     0.042 A 
ENDBRANCH  10  12
ENDBRANCH   6  10
BRANCH   8  20
ATOM     20  O   UNL A   1      29.802  24.434  26.553  1.00  0.00    -0.391 OA
ATOM     21  H   UNL A   1      30.668  24.003  26.617  1.00  0.00     0.211 HD
ENDBRANCH   8  20
ENDBRANCH   3   5
ENDBRANCH   2   3
ENDBRANCH   1   2
BRANCH   1  22
ATOM     22  C   UNL A   1      32.797  30.433  26.714  1.00  0.00     0.275 C 
BRANCH  22  23
ATOM     23  O   UNL A   1      33.822  29.948  27.603  1.00  0.00    -0.458 OA
BRANCH  23  24
ATOM     24  C   UNL A   1      34.786  30.838  27.917  1.00  0.00     0.338 C 
ATOM     25  O   UNL A   1      34.726  32.054  27.891  1.00  0.00    -0.246 OA
BRANCH  24  26
ATOM     26  C   UNL A   1      36.036  30.138  28.240  1.00  0.00     0.060 A 
ATOM     27  C   UNL A   1      36.249  29.568  29.498  1.00  0.00     0.016 A 
ATOM     28  C   UNL A   1      37.061  30.183  27.293  1.00  0.00     0.016 A 
ATOM     29  C   UNL A   1      37.517  29.086  29.828  1.00  0.00     0.010 A 
ATOM     30  C   UNL A   1      38.313  29.664  27.609  1.00  0.00     0.010 A 
ATOM     31  C   UNL A   1      38.557  29.142  28.889  1.00  0.00    -0.014 A 
BRANCH  31  32
ATOM     32  C   UNL A   1      39.919  28.681  29.235  1.00  0.00     0.031 A 
ATOM     33  C   UNL A   1      40.850  29.587  29.988  1.00  0.00     0.074 A 
ATOM     34  C   UNL A   1      40.323  27.460  28.846  1.00  0.00     0.049 A 
ATOM     35  N   UNL A   1      42.116  29.415  30.268  1.00  0.00    -0.248 NA
ATOM     36  C   UNL A   1      40.286  30.850  30.493  1.00  0.00     0.031 C 
ATOM     37  C   UNL A   1      39.497  26.481  28.140  1.00  0.00     0.029 A 
ATOM     38  N   UNL A   1      41.537  26.838  28.985  1.00  0.00    -0.354 N 
ATOM     39  C   UNL A   1      42.503  30.548  30.971  1.00  0.00     0.074 A 
ATOM     40  C   UNL A   1      41.344  31.408  31.067  1.00  0.00     0.031 C 
ATOM     41  C   UNL A   1      40.227  25.379  27.909  1.00  0.00     0.029 A 
ATOM     42  C   UNL A   1      41.582  25.593  28.409  1.00  0.00     0.049 A 
ATOM     43  H   UNL A   1      42.302  27.243  29.454  1.00  0.00     0.167 HD
ATOM     44  C   UNL A   1      43.719  30.839  31.489  1.00  0.00     0.031 A 
ATOM     45  C   UNL A   1      42.607  24.733  28.271  1.00  0.00     0.031 A 
ATOM     46  C   UNL A   1      44.868  29.983  31.392  1.00  0.00     0.049 A 
ATOM     47  C   UNL A   1      43.960  25.105  28.802  1.00  0.00     0.074 A 
ATOM     48  C   UNL A   1      46.146  30.201  31.878  1.00  0.00     0.029 A 
ATOM     49  N   UNL A   1      44.877  28.744  30.775  1.00  0.00    -0.354 N 
ATOM     50  N   UNL A   1      44.321  26.195  29.433  1.00  0.00    -0.248 NA
ATOM     51  C   UNL A   1      45.046  24.137  28.596  1.00  0.00     0.031 C 
ATOM     52  C   UNL A   1      46.936  29.102  31.530  1.00  0.00     0.029 A 
ATOM     53  C   UNL A   1      46.140  28.188  30.859  1.00  0.00     0.049 A 
ATOM     54  H   UNL A   1      44.100  28.321  30.342  1.00  0.00     0.167 HD
ATOM     55  C   UNL A   1      45.673  26.045  29.703  1.00  0.00     0.074 A 
ATOM     56  C   UNL A   1      46.066  24.752  29.181  1.00  0.00     0.031 C 
ATOM     57  C   UNL A   1      46.512  26.904  30.328  1.00  0.00     0.031 A 
BRANCH  44  58
ATOM     58  C   UNL A   1      43.881  32.147  32.207  1.00  0.00    -0.014 A 
ATOM     59  C   UNL A   1      44.214  33.313  31.504  1.00  0.00     0.009 A 
ATOM     60  C   UNL A   1      43.604  32.229  33.580  1.00  0.00     0.009 A 
ATOM     61  C   UNL A   1      44.271  34.541  32.167  1.00  0.00     0.001 A 
ATOM     62  C   UNL A   1      43.647  33.459  34.236  1.00  0.00     0.001 A 
ATOM     63  C   UNL A   1      43.980  34.614  33.529  1.00  0.00     0.000 A 
ENDBRANCH  44  58
BRANCH  45  64
ATOM     64  C   UNL A   1      42.383  23.445  27.570  1.00  0.00    -0.014 A 
ATOM     65  C   UNL A   1      42.637  23.329  26.198  1.00  0.00     0.009 A 
ATOM     66  C   UNL A   1      41.965  22.312  28.288  1.00  0.00     0.009 A 
ATOM     67  C   UNL A   1      42.476  22.100  25.553  1.00  0.00     0.001 A 
ATOM     68  C   UNL A   1      41.823  21.082  27.644  1.00  0.00     0.001 A 
ATOM     69  C   UNL A   1      42.076  20.977  26.277  1.00  0.00     0.000 A 
ENDBRANCH  45  64
BRANCH  57  70
ATOM     70  C   UNL A   1      47.941  26.482  30.493  1.00  0.00    -0.014 A 
ATOM     71  C   UNL A   1      48.353  25.792  31.642  1.00  0.00     0.009 A 
ATOM     72  C   UNL A   1      48.855  26.691  29.450  1.00  0.00     0.009 A 
ATOM     73  C   UNL A   1      49.663  25.320  31.744  1.00  0.00     0.001 A 
ATOM     74  C   UNL A   1      50.159  26.206  29.550  1.00  0.00     0.001 A 
ATOM     75  C   UNL A   1      50.562  25.522  30.697  1.00  0.00     0.000 A 
ENDBRANCH  57  70
ENDBRANCH  31  32
ENDBRANCH  24  26
ENDBRANCH  23  24
ENDBRANCH  22  23
ENDBRANCH   1  22
TORSDOF 14
ENDMDL
