MODEL 1
REMARK VINA RESULT:     -11.4      0.000      0.000
REMARK SMILES Cc1n[nH]c(C)c1CC(=O)N1CC[C@H](C(=O)OCCOC(=O)c2ccc(-c3c4nc(c(-c5ccccc5)c5ccc([nH]5)c(-c5ccccc5)c5nc(c(-c6ccccc6)c6ccc3[nH]6)C=C5)C=C4)cc2)[C@H]1C
REMARK SMILES IDX 18 1 17 2 15 3 16 4 14 5 11 6 12 7 71 8 13 9 72 10 9 11
REMARK SMILES IDX 10 12 8 13 7 14 1 15 2 16 3 17 4 18 5 19 6 21 19 22 20 23
REMARK SMILES IDX 21 24 22 25 23 26 24 27 70 28 25 29 69 30 26 31 27 32 28 33
REMARK SMILES IDX 63 34 29 35 68 36 62 37 64 38 30 39 67 40 61 41 60 42 31 44
REMARK SMILES IDX 53 45 38 46 52 47 39 48 42 49 51 50 65 51 40 52 41 53 50 55
REMARK SMILES IDX 66 56 43 57 32 58 33 59 37 60 34 61 36 62 35 63 54 64 55 65
REMARK SMILES IDX 59 66 56 67 58 68 57 69 44 70 45 71 49 72 46 73 48 74 47 75
REMARK H PARENT 4 20 64 43 42 54
REMARK Flexibility Score: inf
ROOT
ATOM      1  C   UNL A   1      34.247  21.323  25.142  1.00  0.00     0.274 C 
ENDROOT
BRANCH   1   2
ATOM      2  O   UNL A   1      34.370  22.408  26.093  1.00  0.00    -0.462 OA
BRANCH   2   3
ATOM      3  C   UNL A   1      33.302  23.238  26.173  1.00  0.00     0.311 C 
ATOM      4  O   UNL A   1      32.165  22.880  26.470  1.00  0.00    -0.252 OA
BRANCH   3   5
ATOM      5  C   UNL A   1      33.601  24.691  25.853  1.00  0.00     0.123 C 
ATOM      6  N   UNL A   1      31.862  25.782  24.643  1.00  0.00    -0.339 N 
ATOM      7  C   UNL A   1      32.660  25.029  23.691  1.00  0.00     0.121 C 
ATOM      8  C   UNL A   1      32.467  25.727  25.982  1.00  0.00     0.096 C 
ATOM      9  C   UNL A   1      33.999  24.832  24.382  1.00  0.00     0.039 C 
ATOM     10  C   UNL A   1      33.088  27.071  26.374  1.00  0.00     0.032 C 
BRANCH   6  11
ATOM     11  C   UNL A   1      30.622  26.244  24.244  1.00  0.00     0.227 C 
ATOM     12  O   UNL A   1      29.892  25.509  23.564  1.00  0.00    -0.275 OA
BRANCH  11  13
ATOM     13  C   UNL A   1      30.194  27.696  24.423  1.00  0.00     0.139 C 
BRANCH  13  14
ATOM     14  C   UNL A   1      30.248  28.633  23.267  1.00  0.00     0.005 A 
ATOM     15  C   UNL A   1      27.709  28.968  22.727  1.00  0.00     0.069 C 
ATOM     16  C   UNL A   1      29.163  29.194  22.535  1.00  0.00     0.063 A 
ATOM     17  N   UNL A   1      29.591  30.002  21.558  1.00  0.00    -0.181 NA
ATOM     18  N   UNL A   1      30.924  29.894  21.598  1.00  0.00    -0.282 N 
ATOM     19  C   UNL A   1      31.376  29.056  22.578  1.00  0.00     0.036 A 
ATOM     20  H   UNL A   1      31.523  30.371  20.980  1.00  0.00     0.190 HD
ATOM     21  C   UNL A   1      32.821  28.746  22.725  1.00  0.00     0.066 C 
ENDBRANCH  13  14
ENDBRANCH  11  13
ENDBRANCH   6  11
ENDBRANCH   3   5
ENDBRANCH   2   3
ENDBRANCH   1   2
BRANCH   1  22
ATOM     22  C   UNL A   1      35.580  20.598  24.958  1.00  0.00     0.275 C 
BRANCH  22  23
ATOM     23  O   UNL A   1      36.529  21.112  25.904  1.00  0.00    -0.458 OA
BRANCH  23  24
ATOM     24  C   UNL A   1      37.829  21.038  25.543  1.00  0.00     0.338 C 
ATOM     25  O   UNL A   1      38.342  20.171  24.849  1.00  0.00    -0.246 OA
BRANCH  24  26
ATOM     26  C   UNL A   1      38.575  22.202  26.086  1.00  0.00     0.060 A 
ATOM     27  C   UNL A   1      38.073  23.500  25.973  1.00  0.00     0.016 A 
ATOM     28  C   UNL A   1      39.838  22.009  26.647  1.00  0.00     0.016 A 
ATOM     29  C   UNL A   1      38.862  24.599  26.315  1.00  0.00     0.010 A 
ATOM     30  C   UNL A   1      40.581  23.110  27.097  1.00  0.00     0.010 A 
ATOM     31  C   UNL A   1      40.118  24.424  26.908  1.00  0.00    -0.014 A 
BRANCH  31  32
ATOM     32  C   UNL A   1      40.957  25.593  27.314  1.00  0.00     0.031 A 
ATOM     33  C   UNL A   1      40.440  26.583  28.330  1.00  0.00     0.074 A 
ATOM     34  C   UNL A   1      42.180  25.793  26.780  1.00  0.00     0.049 A 
ATOM     35  N   UNL A   1      40.883  27.782  28.615  1.00  0.00    -0.248 NA
ATOM     36  C   UNL A   1      39.264  26.176  29.117  1.00  0.00     0.031 C 
ATOM     37  C   UNL A   1      42.859  24.907  25.830  1.00  0.00     0.029 A 
ATOM     38  N   UNL A   1      43.078  26.818  26.968  1.00  0.00    -0.354 N 
ATOM     39  C   UNL A   1      40.001  28.299  29.557  1.00  0.00     0.074 A 
ATOM     40  C   UNL A   1      39.004  27.279  29.805  1.00  0.00     0.031 C 
ATOM     41  C   UNL A   1      44.076  25.400  25.558  1.00  0.00     0.029 A 
ATOM     42  C   UNL A   1      44.227  26.688  26.223  1.00  0.00     0.049 A 
ATOM     43  H   UNL A   1      42.914  27.573  27.577  1.00  0.00     0.167 HD
ATOM     44  C   UNL A   1      40.013  29.516  30.154  1.00  0.00     0.031 A 
ATOM     45  C   UNL A   1      45.264  27.527  26.043  1.00  0.00     0.031 A 
ATOM     46  C   UNL A   1      41.031  30.513  29.955  1.00  0.00     0.049 A 
ATOM     47  C   UNL A   1      45.243  28.881  26.691  1.00  0.00     0.074 A 
ATOM     48  C   UNL A   1      41.116  31.782  30.502  1.00  0.00     0.029 A 
ATOM     49  N   UNL A   1      42.161  30.340  29.172  1.00  0.00    -0.354 N 
ATOM     50  N   UNL A   1      44.343  29.399  27.491  1.00  0.00    -0.248 NA
ATOM     51  C   UNL A   1      46.368  29.776  26.387  1.00  0.00     0.031 C 
ATOM     52  C   UNL A   1      42.288  32.386  30.034  1.00  0.00     0.029 A 
ATOM     53  C   UNL A   1      42.949  31.477  29.225  1.00  0.00     0.049 A 
ATOM     54  H   UNL A   1      42.371  29.530  28.655  1.00  0.00     0.167 HD
ATOM     55  C   UNL A   1      44.796  30.676  27.788  1.00  0.00     0.074 A 
ATOM     56  C   UNL A   1      46.061  30.847  27.106  1.00  0.00     0.031 C 
ATOM     57  C   UNL A   1      44.207  31.630  28.548  1.00  0.00     0.031 A 
BRANCH  44  58
ATOM     58  C   UNL A   1      38.868  29.859  31.063  1.00  0.00    -0.014 A 
ATOM     59  C   UNL A   1      38.980  29.748  32.457  1.00  0.00     0.009 A 
ATOM     60  C   UNL A   1      37.678  30.363  30.513  1.00  0.00     0.009 A 
ATOM     61  C   UNL A   1      37.913  30.118  33.280  1.00  0.00     0.001 A 
ATOM     62  C   UNL A   1      36.623  30.752  31.339  1.00  0.00     0.001 A 
ATOM     63  C   UNL A   1      36.740  30.625  32.722  1.00  0.00     0.000 A 
ENDBRANCH  44  58
BRANCH  45  64
ATOM     64  C   UNL A   1      46.384  27.145  25.143  1.00  0.00    -0.014 A 
ATOM     65  C   UNL A   1      47.239  26.086  25.480  1.00  0.00     0.009 A 
ATOM     66  C   UNL A   1      46.610  27.849  23.950  1.00  0.00     0.009 A 
ATOM     67  C   UNL A   1      48.311  25.752  24.648  1.00  0.00     0.001 A 
ATOM     68  C   UNL A   1      47.662  27.493  23.105  1.00  0.00     0.001 A 
ATOM     69  C   UNL A   1      48.517  26.450  23.459  1.00  0.00     0.000 A 
ENDBRANCH  45  64
BRANCH  57  70
ATOM     70  C   UNL A   1      44.947  32.925  28.708  1.00  0.00    -0.014 A 
ATOM     71  C   UNL A   1      44.582  34.061  27.969  1.00  0.00     0.009 A 
ATOM     72  C   UNL A   1      46.008  33.013  29.621  1.00  0.00     0.009 A 
ATOM     73  C   UNL A   1      45.290  35.255  28.121  1.00  0.00     0.001 A 
ATOM     74  C   UNL A   1      46.699  34.213  29.786  1.00  0.00     0.001 A 
ATOM     75  C   UNL A   1      46.346  35.330  29.030  1.00  0.00     0.000 A 
ENDBRANCH  57  70
ENDBRANCH  31  32
ENDBRANCH  24  26
ENDBRANCH  23  24
ENDBRANCH  22  23
ENDBRANCH   1  22
TORSDOF 14
ENDMDL
MODEL 2
REMARK VINA RESULT:     -11.2      3.775      9.009
REMARK SMILES Cc1n[nH]c(C)c1CC(=O)N1CC[C@H](C(=O)OCCOC(=O)c2ccc(-c3c4nc(c(-c5ccccc5)c5ccc([nH]5)c(-c5ccccc5)c5nc(c(-c6ccccc6)c6ccc3[nH]6)C=C5)C=C4)cc2)[C@H]1C
REMARK SMILES IDX 18 1 17 2 15 3 16 4 14 5 11 6 12 7 71 8 13 9 72 10 9 11
REMARK SMILES IDX 10 12 8 13 7 14 1 15 2 16 3 17 4 18 5 19 6 21 19 22 20 23
REMARK SMILES IDX 21 24 22 25 23 26 24 27 70 28 25 29 69 30 26 31 27 32 28 33
REMARK SMILES IDX 63 34 29 35 68 36 62 37 64 38 30 39 67 40 61 41 60 42 31 44
REMARK SMILES IDX 53 45 38 46 52 47 39 48 42 49 51 50 65 51 40 52 41 53 50 55
REMARK SMILES IDX 66 56 43 57 32 58 33 59 37 60 34 61 36 62 35 63 54 64 55 65
REMARK SMILES IDX 59 66 56 67 58 68 57 69 44 70 45 71 49 72 46 73 48 74 47 75
REMARK H PARENT 4 20 64 43 42 54
REMARK Flexibility Score: inf
ROOT
ATOM      1  C   UNL A   1      32.711  29.229  24.183  1.00  0.00     0.274 C 
ENDROOT
BRANCH   1   2
ATOM      2  O   UNL A   1      32.279  28.053  23.458  1.00  0.00    -0.462 OA
BRANCH   2   3
ATOM      3  C   UNL A   1      33.243  27.135  23.204  1.00  0.00     0.311 C 
ATOM      4  O   UNL A   1      33.773  26.969  22.108  1.00  0.00    -0.252 OA
BRANCH   3   5
ATOM      5  C   UNL A   1      33.638  26.283  24.395  1.00  0.00     0.123 C 
ATOM      6  N   UNL A   1      32.912  24.019  24.235  1.00  0.00    -0.339 N 
ATOM      7  C   UNL A   1      31.793  24.811  24.712  1.00  0.00     0.121 C 
ATOM      8  C   UNL A   1      34.128  24.843  24.147  1.00  0.00     0.096 C 
ATOM      9  C   UNL A   1      32.427  26.058  25.304  1.00  0.00     0.039 C 
ATOM     10  C   UNL A   1      35.132  24.482  25.244  1.00  0.00     0.032 C 
BRANCH   6  11
ATOM     11  C   UNL A   1      32.665  22.743  23.766  1.00  0.00     0.227 C 
ATOM     12  O   UNL A   1      31.533  22.462  23.344  1.00  0.00    -0.275 OA
BRANCH  11  13
ATOM     13  C   UNL A   1      33.660  21.601  23.934  1.00  0.00     0.139 C 
BRANCH  13  14
ATOM     14  C   UNL A   1      33.345  20.472  24.852  1.00  0.00     0.005 A 
ATOM     15  C   UNL A   1      32.345  18.702  23.203  1.00  0.00     0.069 C 
ATOM     16  C   UNL A   1      32.780  19.205  24.530  1.00  0.00     0.063 A 
ATOM     17  N   UNL A   1      32.641  18.435  25.615  1.00  0.00    -0.181 NA
ATOM     18  N   UNL A   1      33.020  19.220  26.630  1.00  0.00    -0.282 N 
ATOM     19  C   UNL A   1      33.417  20.467  26.238  1.00  0.00     0.036 A 
ATOM     20  H   UNL A   1      33.014  18.928  27.569  1.00  0.00     0.190 HD
ATOM     21  C   UNL A   1      33.796  21.506  27.229  1.00  0.00     0.066 C 
ENDBRANCH  13  14
ENDBRANCH  11  13
ENDBRANCH   6  11
ENDBRANCH   3   5
ENDBRANCH   2   3
ENDBRANCH   1   2
BRANCH   1  22
ATOM     22  C   UNL A   1      31.580  29.795  25.041  1.00  0.00     0.275 C 
BRANCH  22  23
ATOM     23  O   UNL A   1      32.002  29.827  26.412  1.00  0.00    -0.458 OA
BRANCH  23  24
ATOM     24  C   UNL A   1      32.467  31.014  26.863  1.00  0.00     0.338 C 
ATOM     25  O   UNL A   1      31.882  32.088  26.816  1.00  0.00    -0.246 OA
BRANCH  24  26
ATOM     26  C   UNL A   1      33.809  30.836  27.472  1.00  0.00     0.060 A 
ATOM     27  C   UNL A   1      34.376  29.568  27.618  1.00  0.00     0.016 A 
ATOM     28  C   UNL A   1      34.484  31.944  27.986  1.00  0.00     0.016 A 
ATOM     29  C   UNL A   1      35.546  29.393  28.358  1.00  0.00     0.010 A 
ATOM     30  C   UNL A   1      35.719  31.777  28.629  1.00  0.00     0.010 A 
ATOM     31  C   UNL A   1      36.253  30.495  28.853  1.00  0.00    -0.014 A 
BRANCH  31  32
ATOM     32  C   UNL A   1      37.527  30.323  29.615  1.00  0.00     0.031 A 
ATOM     33  C   UNL A   1      38.699  29.609  28.985  1.00  0.00     0.074 A 
ATOM     34  C   UNL A   1      37.656  30.791  30.874  1.00  0.00     0.049 A 
ATOM     35  N   UNL A   1      39.776  29.127  29.553  1.00  0.00    -0.248 NA
ATOM     36  C   UNL A   1      38.644  29.396  27.529  1.00  0.00     0.031 C 
ATOM     37  C   UNL A   1      36.649  31.554  31.615  1.00  0.00     0.029 A 
ATOM     38  N   UNL A   1      38.704  30.691  31.760  1.00  0.00    -0.354 N 
ATOM     39  C   UNL A   1      40.489  28.494  28.542  1.00  0.00     0.074 A 
ATOM     40  C   UNL A   1      39.728  28.662  27.321  1.00  0.00     0.031 C 
ATOM     41  C   UNL A   1      37.143  31.892  32.815  1.00  0.00     0.029 A 
ATOM     42  C   UNL A   1      38.456  31.280  32.977  1.00  0.00     0.049 A 
ATOM     43  H   UNL A   1      39.552  30.241  31.543  1.00  0.00     0.167 HD
ATOM     44  C   UNL A   1      41.664  27.824  28.622  1.00  0.00     0.031 A 
ATOM     45  C   UNL A   1      39.169  31.286  34.119  1.00  0.00     0.031 A 
ATOM     46  C   UNL A   1      42.453  27.700  29.819  1.00  0.00     0.049 A 
ATOM     47  C   UNL A   1      40.454  30.513  34.194  1.00  0.00     0.074 A 
ATOM     48  C   UNL A   1      43.648  27.023  30.000  1.00  0.00     0.029 A 
ATOM     49  N   UNL A   1      42.145  28.295  31.031  1.00  0.00    -0.354 N 
ATOM     50  N   UNL A   1      41.058  29.825  33.258  1.00  0.00    -0.248 NA
ATOM     51  C   UNL A   1      41.140  30.497  35.494  1.00  0.00     0.031 C 
ATOM     52  C   UNL A   1      44.052  27.192  31.328  1.00  0.00     0.029 A 
ATOM     53  C   UNL A   1      43.128  28.005  31.962  1.00  0.00     0.049 A 
ATOM     54  H   UNL A   1      41.345  28.843  31.204  1.00  0.00     0.167 HD
ATOM     55  C   UNL A   1      42.195  29.297  33.854  1.00  0.00     0.074 A 
ATOM     56  C   UNL A   1      42.212  29.767  35.223  1.00  0.00     0.031 C 
ATOM     57  C   UNL A   1      43.135  28.484  33.317  1.00  0.00     0.031 A 
BRANCH  44  58
ATOM     58  C   UNL A   1      42.163  27.137  27.383  1.00  0.00    -0.014 A 
ATOM     59  C   UNL A   1      41.761  25.833  27.056  1.00  0.00     0.009 A 
ATOM     60  C   UNL A   1      43.001  27.833  26.498  1.00  0.00     0.009 A 
ATOM     61  C   UNL A   1      42.205  25.236  25.874  1.00  0.00     0.001 A 
ATOM     62  C   UNL A   1      43.425  27.242  25.307  1.00  0.00     0.001 A 
ATOM     63  C   UNL A   1      43.030  25.942  24.999  1.00  0.00     0.000 A 
ENDBRANCH  44  58
BRANCH  45  64
ATOM     64  C   UNL A   1      38.646  31.988  35.321  1.00  0.00    -0.014 A 
ATOM     65  C   UNL A   1      38.726  33.384  35.422  1.00  0.00     0.009 A 
ATOM     66  C   UNL A   1      38.077  31.260  36.378  1.00  0.00     0.009 A 
ATOM     67  C   UNL A   1      38.263  34.036  36.568  1.00  0.00     0.001 A 
ATOM     68  C   UNL A   1      37.587  31.917  37.507  1.00  0.00     0.001 A 
ATOM     69  C   UNL A   1      37.689  33.304  37.606  1.00  0.00     0.000 A 
ENDBRANCH  45  64
BRANCH  57  70
ATOM     70  C   UNL A   1      44.275  28.083  34.205  1.00  0.00    -0.014 A 
ATOM     71  C   UNL A   1      45.401  28.906  34.353  1.00  0.00     0.009 A 
ATOM     72  C   UNL A   1      44.212  26.875  34.916  1.00  0.00     0.009 A 
ATOM     73  C   UNL A   1      46.459  28.511  35.174  1.00  0.00     0.001 A 
ATOM     74  C   UNL A   1      45.261  26.493  35.752  1.00  0.00     0.001 A 
ATOM     75  C   UNL A   1      46.387  27.306  35.874  1.00  0.00     0.000 A 
ENDBRANCH  57  70
ENDBRANCH  31  32
ENDBRANCH  24  26
ENDBRANCH  23  24
ENDBRANCH  22  23
ENDBRANCH   1  22
TORSDOF 14
ENDMDL
MODEL 3
REMARK VINA RESULT:     -10.8      2.786      7.098
REMARK SMILES Cc1n[nH]c(C)c1CC(=O)N1CC[C@H](C(=O)OCCOC(=O)c2ccc(-c3c4nc(c(-c5ccccc5)c5ccc([nH]5)c(-c5ccccc5)c5nc(c(-c6ccccc6)c6ccc3[nH]6)C=C5)C=C4)cc2)[C@H]1C
REMARK SMILES IDX 18 1 17 2 15 3 16 4 14 5 11 6 12 7 71 8 13 9 72 10 9 11
REMARK SMILES IDX 10 12 8 13 7 14 1 15 2 16 3 17 4 18 5 19 6 21 19 22 20 23
REMARK SMILES IDX 21 24 22 25 23 26 24 27 70 28 25 29 69 30 26 31 27 32 28 33
REMARK SMILES IDX 63 34 29 35 68 36 62 37 64 38 30 39 67 40 61 41 60 42 31 44
REMARK SMILES IDX 53 45 38 46 52 47 39 48 42 49 51 50 65 51 40 52 41 53 50 55
REMARK SMILES IDX 66 56 43 57 32 58 33 59 37 60 34 61 36 62 35 63 54 64 55 65
REMARK SMILES IDX 59 66 56 67 58 68 57 69 44 70 45 71 49 72 46 73 48 74 47 75
REMARK H PARENT 4 20 64 43 42 54
REMARK Flexibility Score: inf
ROOT
ATOM      1  C   UNL A   1      32.227  29.207  26.581  1.00  0.00     0.274 C 
ENDROOT
BRANCH   1   2
ATOM      2  O   UNL A   1      32.198  28.126  25.619  1.00  0.00    -0.462 OA
BRANCH   2   3
ATOM      3  C   UNL A   1      31.344  28.292  24.579  1.00  0.00     0.311 C 
ATOM      4  O   UNL A   1      30.910  29.378  24.203  1.00  0.00    -0.252 OA
BRANCH   3   5
ATOM      5  C   UNL A   1      30.932  27.008  23.885  1.00  0.00     0.123 C 
ATOM      6  N   UNL A   1      32.763  25.589  23.327  1.00  0.00    -0.339 N 
ATOM      7  C   UNL A   1      32.660  26.607  22.296  1.00  0.00     0.121 C 
ATOM      8  C   UNL A   1      31.640  25.695  24.271  1.00  0.00     0.096 C 
ATOM      9  C   UNL A   1      31.227  27.103  22.386  1.00  0.00     0.039 C 
ATOM     10  C   UNL A   1      30.647  24.543  24.094  1.00  0.00     0.032 C 
BRANCH   6  11
ATOM     11  C   UNL A   1      33.922  24.841  23.402  1.00  0.00     0.227 C 
ATOM     12  O   UNL A   1      34.387  24.339  22.368  1.00  0.00    -0.275 OA
BRANCH  11  13
ATOM     13  C   UNL A   1      34.545  24.427  24.729  1.00  0.00     0.139 C 
BRANCH  13  14
ATOM     14  C   UNL A   1      35.084  23.049  24.898  1.00  0.00     0.005 A 
ATOM     15  C   UNL A   1      32.966  21.582  24.438  1.00  0.00     0.069 C 
ATOM     16  C   UNL A   1      34.396  21.810  24.761  1.00  0.00     0.063 A 
ATOM     17  N   UNL A   1      35.205  20.768  24.985  1.00  0.00    -0.181 NA
ATOM     18  N   UNL A   1      36.368  21.323  25.348  1.00  0.00    -0.282 N 
ATOM     19  C   UNL A   1      36.344  22.688  25.353  1.00  0.00     0.036 A 
ATOM     20  H   UNL A   1      37.163  20.797  25.591  1.00  0.00     0.190 HD
ATOM     21  C   UNL A   1      37.516  23.480  25.807  1.00  0.00     0.066 C 
ENDBRANCH  13  14
ENDBRANCH  11  13
ENDBRANCH   6  11
ENDBRANCH   3   5
ENDBRANCH   2   3
ENDBRANCH   1   2
BRANCH   1  22
ATOM     22  C   UNL A   1      33.549  29.228  27.347  1.00  0.00     0.275 C 
BRANCH  22  23
ATOM     23  O   UNL A   1      34.124  30.539  27.255  1.00  0.00    -0.458 OA
BRANCH  23  24
ATOM     24  C   UNL A   1      34.799  30.971  28.344  1.00  0.00     0.338 C 
ATOM     25  O   UNL A   1      34.402  31.781  29.170  1.00  0.00    -0.246 OA
BRANCH  24  26
ATOM     26  C   UNL A   1      36.114  30.287  28.430  1.00  0.00     0.060 A 
ATOM     27  C   UNL A   1      36.558  29.718  29.626  1.00  0.00     0.016 A 
ATOM     28  C   UNL A   1      36.962  30.284  27.321  1.00  0.00     0.016 A 
ATOM     29  C   UNL A   1      37.866  29.248  29.747  1.00  0.00     0.010 A 
ATOM     30  C   UNL A   1      38.236  29.705  27.414  1.00  0.00     0.010 A 
ATOM     31  C   UNL A   1      38.720  29.208  28.637  1.00  0.00    -0.014 A 
BRANCH  31  32
ATOM     32  C   UNL A   1      40.110  28.671  28.745  1.00  0.00     0.031 A 
ATOM     33  C   UNL A   1      41.245  29.578  29.157  1.00  0.00     0.074 A 
ATOM     34  C   UNL A   1      40.382  27.378  28.472  1.00  0.00     0.049 A 
ATOM     35  N   UNL A   1      42.536  29.385  29.056  1.00  0.00    -0.248 NA
ATOM     36  C   UNL A   1      40.879  30.876  29.748  1.00  0.00     0.031 C 
ATOM     37  C   UNL A   1      39.401  26.349  28.117  1.00  0.00     0.029 A 
ATOM     38  N   UNL A   1      41.581  26.703  28.454  1.00  0.00    -0.354 N 
ATOM     39  C   UNL A   1      43.133  30.560  29.498  1.00  0.00     0.074 A 
ATOM     40  C   UNL A   1      42.063  31.457  29.881  1.00  0.00     0.031 C 
ATOM     41  C   UNL A   1      40.028  25.174  27.964  1.00  0.00     0.029 A 
ATOM     42  C   UNL A   1      41.464  25.380  28.101  1.00  0.00     0.049 A 
ATOM     43  H   UNL A   1      42.442  27.128  28.673  1.00  0.00     0.167 HD
ATOM     44  C   UNL A   1      44.450  30.869  29.570  1.00  0.00     0.031 A 
ATOM     45  C   UNL A   1      42.400  24.443  27.857  1.00  0.00     0.031 A 
ATOM     46  C   UNL A   1      45.520  29.963  29.244  1.00  0.00     0.049 A 
ATOM     47  C   UNL A   1      43.853  24.815  27.914  1.00  0.00     0.074 A 
ATOM     48  C   UNL A   1      46.886  30.195  29.267  1.00  0.00     0.029 A 
ATOM     49  N   UNL A   1      45.347  28.641  28.869  1.00  0.00    -0.354 N 
ATOM     50  N   UNL A   1      44.399  25.965  28.225  1.00  0.00    -0.248 NA
ATOM     51  C   UNL A   1      44.818  23.765  27.558  1.00  0.00     0.031 C 
ATOM     52  C   UNL A   1      47.538  29.018  28.886  1.00  0.00     0.029 A 
ATOM     53  C   UNL A   1      46.579  28.045  28.662  1.00  0.00     0.049 A 
ATOM     54  H   UNL A   1      44.477  28.194  28.764  1.00  0.00     0.167 HD
ATOM     55  C   UNL A   1      45.768  25.775  28.106  1.00  0.00     0.074 A 
ATOM     56  C   UNL A   1      45.973  24.395  27.721  1.00  0.00     0.031 C 
ATOM     57  C   UNL A   1      46.768  26.671  28.287  1.00  0.00     0.031 A 
BRANCH  44  58
ATOM     58  C   UNL A   1      44.819  32.263  29.989  1.00  0.00    -0.014 A 
ATOM     59  C   UNL A   1      45.094  32.577  31.328  1.00  0.00     0.009 A 
ATOM     60  C   UNL A   1      44.953  33.264  29.013  1.00  0.00     0.009 A 
ATOM     61  C   UNL A   1      45.479  33.872  31.682  1.00  0.00     0.001 A 
ATOM     62  C   UNL A   1      45.359  34.551  29.367  1.00  0.00     0.001 A 
ATOM     63  C   UNL A   1      45.617  34.855  30.702  1.00  0.00     0.000 A 
ENDBRANCH  44  58
BRANCH  45  64
ATOM     64  C   UNL A   1      41.993  23.071  27.455  1.00  0.00    -0.014 A 
ATOM     65  C   UNL A   1      41.695  22.779  26.116  1.00  0.00     0.009 A 
ATOM     66  C   UNL A   1      41.887  22.051  28.413  1.00  0.00     0.009 A 
ATOM     67  C   UNL A   1      41.281  21.496  25.748  1.00  0.00     0.001 A 
ATOM     68  C   UNL A   1      41.503  20.762  28.038  1.00  0.00     0.001 A 
ATOM     69  C   UNL A   1      41.192  20.488  26.707  1.00  0.00     0.000 A 
ENDBRANCH  45  64
BRANCH  57  70
ATOM     70  C   UNL A   1      48.170  26.171  28.104  1.00  0.00    -0.014 A 
ATOM     71  C   UNL A   1      48.886  25.617  29.175  1.00  0.00     0.009 A 
ATOM     72  C   UNL A   1      48.773  26.240  26.839  1.00  0.00     0.009 A 
ATOM     73  C   UNL A   1      50.195  25.168  28.989  1.00  0.00     0.001 A 
ATOM     74  C   UNL A   1      50.074  25.772  26.652  1.00  0.00     0.001 A 
ATOM     75  C   UNL A   1      50.787  25.245  27.728  1.00  0.00     0.000 A 
ENDBRANCH  57  70
ENDBRANCH  31  32
ENDBRANCH  24  26
ENDBRANCH  23  24
ENDBRANCH  22  23
ENDBRANCH   1  22
TORSDOF 14
ENDMDL
