MODEL 1
REMARK VINA RESULT:     -10.5      0.000      0.000
REMARK SMILES O=C(OCCOC(=O)[C@@H]1C[NH2+]C[C@H]1c1ccncc1)c1ccc(-c2c3nc(c(-c4ccccc4)c4ccc([nH]4)c(-c4ccccc4)c4nc(c(-c5ccccc5)c5ccc2[nH]5)C=C4)C=C3)cc1
REMARK SMILES IDX 4 1 3 2 2 3 1 4 20 5 21 6 67 7 22 8 66 9 23 10 24 11 25 12
REMARK SMILES IDX 60 13 26 14 65 15 59 16 61 17 27 18 64 19 58 20 57 21 28 23
REMARK SMILES IDX 50 24 35 25 49 26 36 27 39 28 48 29 62 30 37 31 38 32 47 34
REMARK SMILES IDX 63 35 40 36 29 37 30 38 34 39 31 40 33 41 32 42 51 43 52 44
REMARK SMILES IDX 56 45 53 46 55 47 54 48 41 49 42 50 46 51 43 52 45 53 44 54
REMARK SMILES IDX 5 55 6 56 7 57 8 58 9 59 10 60 13 61 11 62 12 63 14 66 15 67
REMARK SMILES IDX 19 68 16 69 18 70 17 71
REMARK H PARENT 61 22 39 33 11 64 11 65
REMARK Flexibility Score: inf
ROOT
ATOM      1  C   UNL A   1      31.801  32.556  26.500  1.00  0.00     0.275 C 
ENDROOT
BRANCH   1   2
ATOM      2  O   UNL A   1      31.856  33.492  27.586  1.00  0.00    -0.458 OA
BRANCH   2   3
ATOM      3  C   UNL A   1      32.916  34.095  28.171  1.00  0.00     0.338 C 
ATOM      4  O   UNL A   1      32.859  35.306  28.377  1.00  0.00    -0.246 OA
BRANCH   3   5
ATOM      5  C   UNL A   1      34.222  33.408  28.446  1.00  0.00     0.060 A 
ATOM      6  C   UNL A   1      35.498  33.892  28.153  1.00  0.00     0.016 A 
ATOM      7  C   UNL A   1      34.136  32.201  29.163  1.00  0.00     0.016 A 
ATOM      8  C   UNL A   1      36.642  33.291  28.684  1.00  0.00     0.010 A 
ATOM      9  C   UNL A   1      35.271  31.628  29.743  1.00  0.00     0.010 A 
ATOM     10  C   UNL A   1      36.538  32.184  29.525  1.00  0.00    -0.014 A 
BRANCH  10  11
ATOM     11  C   UNL A   1      37.765  31.556  30.067  1.00  0.00     0.031 A 
ATOM     12  C   UNL A   1      38.156  31.902  31.475  1.00  0.00     0.074 A 
ATOM     13  C   UNL A   1      38.475  30.653  29.356  1.00  0.00     0.049 A 
ATOM     14  N   UNL A   1      39.087  31.376  32.224  1.00  0.00    -0.248 NA
ATOM     15  C   UNL A   1      37.382  32.968  32.137  1.00  0.00     0.031 C 
ATOM     16  C   UNL A   1      38.188  30.214  27.986  1.00  0.00     0.029 A 
ATOM     17  N   UNL A   1      39.589  29.924  29.695  1.00  0.00    -0.354 N 
ATOM     18  C   UNL A   1      38.968  32.011  33.451  1.00  0.00     0.074 A 
ATOM     19  C   UNL A   1      37.974  33.046  33.315  1.00  0.00     0.031 C 
ATOM     20  C   UNL A   1      39.115  29.322  27.595  1.00  0.00     0.029 A 
ATOM     21  C   UNL A   1      40.038  29.090  28.695  1.00  0.00     0.049 A 
ATOM     22  H   UNL A   1      40.027  29.991  30.574  1.00  0.00     0.167 HD
ATOM     23  C   UNL A   1      39.574  31.712  34.620  1.00  0.00     0.031 A 
ATOM     24  C   UNL A   1      41.058  28.209  28.684  1.00  0.00     0.031 A 
ATOM     25  C   UNL A   1      40.584  30.708  34.751  1.00  0.00     0.049 A 
ATOM     26  C   UNL A   1      41.810  27.980  29.969  1.00  0.00     0.074 A 
ATOM     27  C   UNL A   1      41.297  30.339  35.875  1.00  0.00     0.029 A 
ATOM     28  N   UNL A   1      41.033  29.919  33.702  1.00  0.00    -0.354 N 
ATOM     29  N   UNL A   1      41.616  28.525  31.147  1.00  0.00    -0.248 NA
ATOM     30  C   UNL A   1      42.883  26.977  29.938  1.00  0.00     0.031 C 
ATOM     31  C   UNL A   1      42.218  29.356  35.491  1.00  0.00     0.029 A 
ATOM     32  C   UNL A   1      42.033  29.076  34.145  1.00  0.00     0.049 A 
ATOM     33  H   UNL A   1      40.691  29.955  32.780  1.00  0.00     0.167 HD
ATOM     34  C   UNL A   1      42.511  27.900  32.006  1.00  0.00     0.074 A 
ATOM     35  C   UNL A   1      43.231  26.922  31.216  1.00  0.00     0.031 C 
ATOM     36  C   UNL A   1      42.721  28.111  33.329  1.00  0.00     0.031 A 
BRANCH  23  37
ATOM     37  C   UNL A   1      39.121  32.495  35.817  1.00  0.00    -0.014 A 
ATOM     38  C   UNL A   1      39.750  33.708  36.154  1.00  0.00     0.009 A 
ATOM     39  C   UNL A   1      38.129  31.984  36.661  1.00  0.00     0.009 A 
ATOM     40  C   UNL A   1      39.431  34.364  37.342  1.00  0.00     0.001 A 
ATOM     41  C   UNL A   1      37.790  32.660  37.836  1.00  0.00     0.001 A 
ATOM     42  C   UNL A   1      38.450  33.839  38.182  1.00  0.00     0.000 A 
ENDBRANCH  23  37
BRANCH  24  43
ATOM     43  C   UNL A   1      41.412  27.444  27.454  1.00  0.00    -0.014 A 
ATOM     44  C   UNL A   1      40.889  26.162  27.219  1.00  0.00     0.009 A 
ATOM     45  C   UNL A   1      42.342  27.965  26.538  1.00  0.00     0.009 A 
ATOM     46  C   UNL A   1      41.330  25.398  26.133  1.00  0.00     0.001 A 
ATOM     47  C   UNL A   1      42.760  27.212  25.437  1.00  0.00     0.001 A 
ATOM     48  C   UNL A   1      42.267  25.923  25.244  1.00  0.00     0.000 A 
ENDBRANCH  24  43
BRANCH  36  49
ATOM     49  C   UNL A   1      43.746  27.244  34.002  1.00  0.00    -0.014 A 
ATOM     50  C   UNL A   1      43.401  25.998  34.547  1.00  0.00     0.009 A 
ATOM     51  C   UNL A   1      45.085  27.661  34.040  1.00  0.00     0.009 A 
ATOM     52  C   UNL A   1      44.374  25.203  35.151  1.00  0.00     0.001 A 
ATOM     53  C   UNL A   1      46.062  26.848  34.610  1.00  0.00     0.001 A 
ATOM     54  C   UNL A   1      45.704  25.624  35.175  1.00  0.00     0.000 A 
ENDBRANCH  36  49
ENDBRANCH  10  11
ENDBRANCH   3   5
ENDBRANCH   2   3
ENDBRANCH   1   2
BRANCH   1  55
ATOM     55  C   UNL A   1      31.579  31.094  26.901  1.00  0.00     0.274 C 
BRANCH  55  56
ATOM     56  O   UNL A   1      32.224  30.112  26.069  1.00  0.00    -0.462 OA
BRANCH  56  57
ATOM     57  C   UNL A   1      31.787  28.828  26.243  1.00  0.00     0.315 C 
ATOM     58  O   UNL A   1      31.808  28.244  27.322  1.00  0.00    -0.252 OA
BRANCH  57  59
ATOM     59  C   UNL A   1      31.401  28.185  24.923  1.00  0.00     0.167 C 
ATOM     60  C   UNL A   1      32.437  27.206  24.450  1.00  0.00     0.276 C 
ATOM     61  C   UNL A   1      31.337  29.168  23.734  1.00  0.00     0.094 C 
ATOM     62  N   UNL A   1      32.211  27.041  23.016  1.00  0.00    -0.345 N 
ATOM     63  C   UNL A   1      32.054  28.432  22.575  1.00  0.00     0.269 C 
ATOM     64  H   UNL A   1      31.368  26.497  22.834  1.00  0.00     0.346 HD
ATOM     65  H   UNL A   1      32.956  26.538  22.536  1.00  0.00     0.346 HD
BRANCH  61  66
ATOM     66  C   UNL A   1      29.896  29.571  23.519  1.00  0.00    -0.035 A 
ATOM     67  C   UNL A   1      28.996  28.594  23.073  1.00  0.00     0.024 A 
ATOM     68  C   UNL A   1      29.425  30.877  23.654  1.00  0.00     0.024 A 
ATOM     69  C   UNL A   1      27.702  28.962  22.751  1.00  0.00     0.111 A 
ATOM     70  C   UNL A   1      28.103  31.144  23.334  1.00  0.00     0.111 A 
ATOM     71  N   UNL A   1      27.236  30.220  22.872  1.00  0.00    -0.265 NA
ENDBRANCH  61  66
ENDBRANCH  57  59
ENDBRANCH  56  57
ENDBRANCH  55  56
ENDBRANCH   1  55
TORSDOF 12
ENDMDL
MODEL 2
REMARK VINA RESULT:     -10.4      1.167      1.785
REMARK SMILES O=C(OCCOC(=O)[C@@H]1C[NH2+]C[C@H]1c1ccncc1)c1ccc(-c2c3nc(c(-c4ccccc4)c4ccc([nH]4)c(-c4ccccc4)c4nc(c(-c5ccccc5)c5ccc2[nH]5)C=C4)C=C3)cc1
REMARK SMILES IDX 4 1 3 2 2 3 1 4 20 5 21 6 67 7 22 8 66 9 23 10 24 11 25 12
REMARK SMILES IDX 60 13 26 14 65 15 59 16 61 17 27 18 64 19 58 20 57 21 28 23
REMARK SMILES IDX 50 24 35 25 49 26 36 27 39 28 48 29 62 30 37 31 38 32 47 34
REMARK SMILES IDX 63 35 40 36 29 37 30 38 34 39 31 40 33 41 32 42 51 43 52 44
REMARK SMILES IDX 56 45 53 46 55 47 54 48 41 49 42 50 46 51 43 52 45 53 44 54
REMARK SMILES IDX 5 55 6 56 7 57 8 58 9 59 10 60 13 61 11 62 12 63 14 66 15 67
REMARK SMILES IDX 19 68 16 69 18 70 17 71
REMARK H PARENT 61 22 39 33 11 64 11 65
REMARK Flexibility Score: inf
ROOT
ATOM      1  C   UNL A   1      32.584  32.774  26.864  1.00  0.00     0.275 C 
ENDROOT
BRANCH   1   2
ATOM      2  O   UNL A   1      32.156  33.841  27.724  1.00  0.00    -0.458 OA
BRANCH   2   3
ATOM      3  C   UNL A   1      32.857  34.595  28.600  1.00  0.00     0.338 C 
ATOM      4  O   UNL A   1      32.515  35.765  28.768  1.00  0.00    -0.246 OA
BRANCH   3   5
ATOM      5  C   UNL A   1      34.122  34.142  29.268  1.00  0.00     0.060 A 
ATOM      6  C   UNL A   1      34.225  33.319  30.391  1.00  0.00     0.016 A 
ATOM      7  C   UNL A   1      35.317  34.511  28.623  1.00  0.00     0.016 A 
ATOM      8  C   UNL A   1      35.446  32.754  30.768  1.00  0.00     0.010 A 
ATOM      9  C   UNL A   1      36.531  33.904  28.960  1.00  0.00     0.010 A 
ATOM     10  C   UNL A   1      36.601  33.000  30.027  1.00  0.00    -0.014 A 
BRANCH  10  11
ATOM     11  C   UNL A   1      37.887  32.399  30.453  1.00  0.00     0.031 A 
ATOM     12  C   UNL A   1      38.568  32.998  31.650  1.00  0.00     0.074 A 
ATOM     13  C   UNL A   1      38.402  31.313  29.838  1.00  0.00     0.049 A 
ATOM     14  N   UNL A   1      39.610  32.565  32.307  1.00  0.00    -0.248 NA
ATOM     15  C   UNL A   1      37.987  34.240  32.194  1.00  0.00     0.031 C 
ATOM     16  C   UNL A   1      37.827  30.623  28.679  1.00  0.00     0.029 A 
ATOM     17  N   UNL A   1      39.532  30.580  30.113  1.00  0.00    -0.354 N 
ATOM     18  C   UNL A   1      39.767  33.450  33.363  1.00  0.00     0.074 A 
ATOM     19  C   UNL A   1      38.808  34.512  33.191  1.00  0.00     0.031 C 
ATOM     20  C   UNL A   1      38.619  29.594  28.326  1.00  0.00     0.029 A 
ATOM     21  C   UNL A   1      39.736  29.522  29.256  1.00  0.00     0.049 A 
ATOM     22  H   UNL A   1      40.141  30.794  30.856  1.00  0.00     0.167 HD
ATOM     23  C   UNL A   1      40.585  33.352  34.432  1.00  0.00     0.031 A 
ATOM     24  C   UNL A   1      40.697  28.578  29.247  1.00  0.00     0.031 A 
ATOM     25  C   UNL A   1      41.560  32.318  34.589  1.00  0.00     0.049 A 
ATOM     26  C   UNL A   1      41.683  28.561  30.385  1.00  0.00     0.074 A 
ATOM     27  C   UNL A   1      42.471  32.134  35.610  1.00  0.00     0.029 A 
ATOM     28  N   UNL A   1      41.756  31.293  33.675  1.00  0.00    -0.354 N 
ATOM     29  N   UNL A   1      41.754  29.353  31.428  1.00  0.00    -0.248 NA
ATOM     30  C   UNL A   1      42.688  27.488  30.373  1.00  0.00     0.031 C 
ATOM     31  C   UNL A   1      43.255  31.021  35.287  1.00  0.00     0.029 A 
ATOM     32  C   UNL A   1      42.791  30.481  34.096  1.00  0.00     0.049 A 
ATOM     33  H   UNL A   1      41.236  31.164  32.849  1.00  0.00     0.167 HD
ATOM     34  C   UNL A   1      42.779  28.850  32.218  1.00  0.00     0.074 A 
ATOM     35  C   UNL A   1      43.285  27.672  31.542  1.00  0.00     0.031 C 
ATOM     36  C   UNL A   1      43.261  29.314  33.398  1.00  0.00     0.031 A 
BRANCH  23  37
ATOM     37  C   UNL A   1      40.415  34.402  35.491  1.00  0.00    -0.014 A 
ATOM     38  C   UNL A   1      41.170  35.589  35.444  1.00  0.00     0.009 A 
ATOM     39  C   UNL A   1      39.569  34.175  36.582  1.00  0.00     0.009 A 
ATOM     40  C   UNL A   1      41.122  36.501  36.497  1.00  0.00     0.001 A 
ATOM     41  C   UNL A   1      39.501  35.105  37.623  1.00  0.00     0.001 A 
ATOM     42  C   UNL A   1      40.286  36.258  37.586  1.00  0.00     0.000 A 
ENDBRANCH  23  37
BRANCH  24  43
ATOM     43  C   UNL A   1      40.764  27.546  28.172  1.00  0.00    -0.014 A 
ATOM     44  C   UNL A   1      41.482  27.776  26.986  1.00  0.00     0.009 A 
ATOM     45  C   UNL A   1      40.041  26.347  28.295  1.00  0.00     0.009 A 
ATOM     46  C   UNL A   1      41.428  26.860  25.930  1.00  0.00     0.001 A 
ATOM     47  C   UNL A   1      40.013  25.420  27.249  1.00  0.00     0.001 A 
ATOM     48  C   UNL A   1      40.691  25.684  26.061  1.00  0.00     0.000 A 
ENDBRANCH  24  43
BRANCH  36  49
ATOM     49  C   UNL A   1      44.366  28.525  34.040  1.00  0.00    -0.014 A 
ATOM     50  C   UNL A   1      45.712  28.858  33.833  1.00  0.00     0.009 A 
ATOM     51  C   UNL A   1      44.045  27.468  34.905  1.00  0.00     0.009 A 
ATOM     52  C   UNL A   1      46.720  28.121  34.454  1.00  0.00     0.001 A 
ATOM     53  C   UNL A   1      45.054  26.758  35.555  1.00  0.00     0.001 A 
ATOM     54  C   UNL A   1      46.390  27.078  35.320  1.00  0.00     0.000 A 
ENDBRANCH  36  49
ENDBRANCH  10  11
ENDBRANCH   3   5
ENDBRANCH   2   3
ENDBRANCH   1   2
BRANCH   1  55
ATOM     55  C   UNL A   1      31.637  31.571  26.786  1.00  0.00     0.274 C 
BRANCH  55  56
ATOM     56  O   UNL A   1      32.026  30.527  25.875  1.00  0.00    -0.462 OA
BRANCH  56  57
ATOM     57  C   UNL A   1      31.695  29.261  26.270  1.00  0.00     0.315 C 
ATOM     58  O   UNL A   1      31.791  28.863  27.427  1.00  0.00    -0.252 OA
BRANCH  57  59
ATOM     59  C   UNL A   1      31.323  28.385  25.086  1.00  0.00     0.167 C 
ATOM     60  C   UNL A   1      32.375  27.353  24.798  1.00  0.00     0.276 C 
ATOM     61  C   UNL A   1      31.250  29.138  23.739  1.00  0.00     0.094 C 
ATOM     62  N   UNL A   1      32.156  26.929  23.417  1.00  0.00    -0.345 N 
ATOM     63  C   UNL A   1      31.981  28.216  22.733  1.00  0.00     0.269 C 
ATOM     64  H   UNL A   1      31.322  26.349  23.335  1.00  0.00     0.346 HD
ATOM     65  H   UNL A   1      32.910  26.359  23.036  1.00  0.00     0.346 HD
BRANCH  61  66
ATOM     66  C   UNL A   1      29.803  29.474  23.455  1.00  0.00    -0.035 A 
ATOM     67  C   UNL A   1      29.374  30.789  23.683  1.00  0.00     0.024 A 
ATOM     68  C   UNL A   1      28.848  28.535  23.064  1.00  0.00     0.024 A 
ATOM     69  C   UNL A   1      28.031  31.094  23.549  1.00  0.00     0.111 A 
ATOM     70  C   UNL A   1      27.530  28.943  22.930  1.00  0.00     0.111 A 
ATOM     71  N   UNL A   1      27.098  30.197  23.178  1.00  0.00    -0.265 NA
ENDBRANCH  61  66
ENDBRANCH  57  59
ENDBRANCH  56  57
ENDBRANCH  55  56
ENDBRANCH   1  55
TORSDOF 12
ENDMDL
MODEL 3
REMARK VINA RESULT:     -10.4      6.293     10.945
REMARK SMILES O=C(OCCOC(=O)[C@@H]1C[NH2+]C[C@H]1c1ccncc1)c1ccc(-c2c3nc(c(-c4ccccc4)c4ccc([nH]4)c(-c4ccccc4)c4nc(c(-c5ccccc5)c5ccc2[nH]5)C=C4)C=C3)cc1
REMARK SMILES IDX 4 1 3 2 2 3 1 4 20 5 21 6 67 7 22 8 66 9 23 10 24 11 25 12
REMARK SMILES IDX 60 13 26 14 65 15 59 16 61 17 27 18 64 19 58 20 57 21 28 23
REMARK SMILES IDX 50 24 35 25 49 26 36 27 39 28 48 29 62 30 37 31 38 32 47 34
REMARK SMILES IDX 63 35 40 36 29 37 30 38 34 39 31 40 33 41 32 42 51 43 52 44
REMARK SMILES IDX 56 45 53 46 55 47 54 48 41 49 42 50 46 51 43 52 45 53 44 54
REMARK SMILES IDX 5 55 6 56 7 57 8 58 9 59 10 60 13 61 11 62 12 63 14 66 15 67
REMARK SMILES IDX 19 68 16 69 18 70 17 71
REMARK H PARENT 61 22 39 33 11 64 11 65
REMARK Flexibility Score: inf
ROOT
ATOM      1  C   UNL A   1      39.040  20.141  25.750  1.00  0.00     0.275 C 
ENDROOT
BRANCH   1   2
ATOM      2  O   UNL A   1      40.127  19.208  25.656  1.00  0.00    -0.458 OA
BRANCH   2   3
ATOM      3  C   UNL A   1      41.454  19.384  25.849  1.00  0.00     0.338 C 
ATOM      4  O   UNL A   1      42.184  18.396  25.821  1.00  0.00    -0.246 OA
BRANCH   3   5
ATOM      5  C   UNL A   1      42.073  20.691  26.250  1.00  0.00     0.060 A 
ATOM      6  C   UNL A   1      42.463  21.727  25.398  1.00  0.00     0.016 A 
ATOM      7  C   UNL A   1      42.170  20.921  27.634  1.00  0.00     0.016 A 
ATOM      8  C   UNL A   1      42.785  22.992  25.893  1.00  0.00     0.010 A 
ATOM      9  C   UNL A   1      42.436  22.199  28.133  1.00  0.00     0.010 A 
ATOM     10  C   UNL A   1      42.726  23.256  27.261  1.00  0.00    -0.014 A 
BRANCH  10  11
ATOM     11  C   UNL A   1      43.083  24.603  27.765  1.00  0.00     0.031 A 
ATOM     12  C   UNL A   1      44.539  24.973  27.778  1.00  0.00     0.074 A 
ATOM     13  C   UNL A   1      42.140  25.496  28.136  1.00  0.00     0.049 A 
ATOM     14  N   UNL A   1      45.092  26.130  28.023  1.00  0.00    -0.248 NA
ATOM     15  C   UNL A   1      45.500  23.903  27.451  1.00  0.00     0.031 C 
ATOM     16  C   UNL A   1      40.692  25.268  28.148  1.00  0.00     0.029 A 
ATOM     17  N   UNL A   1      42.260  26.796  28.567  1.00  0.00    -0.354 N 
ATOM     18  C   UNL A   1      46.450  25.931  27.827  1.00  0.00     0.074 A 
ATOM     19  C   UNL A   1      46.656  24.528  27.574  1.00  0.00     0.031 C 
ATOM     20  C   UNL A   1      40.065  26.372  28.593  1.00  0.00     0.029 A 
ATOM     21  C   UNL A   1      41.058  27.402  28.857  1.00  0.00     0.049 A 
ATOM     22  H   UNL A   1      43.127  27.252  28.659  1.00  0.00     0.167 HD
ATOM     23  C   UNL A   1      47.440  26.849  27.780  1.00  0.00     0.031 A 
ATOM     24  C   UNL A   1      40.788  28.661  29.256  1.00  0.00     0.031 A 
ATOM     25  C   UNL A   1      47.244  28.237  28.063  1.00  0.00     0.049 A 
ATOM     26  C   UNL A   1      41.928  29.642  29.322  1.00  0.00     0.074 A 
ATOM     27  C   UNL A   1      48.175  29.257  28.084  1.00  0.00     0.029 A 
ATOM     28  N   UNL A   1      46.017  28.796  28.392  1.00  0.00    -0.354 N 
ATOM     29  N   UNL A   1      43.195  29.456  29.037  1.00  0.00    -0.248 NA
ATOM     30  C   UNL A   1      41.594  31.019  29.710  1.00  0.00     0.031 C 
ATOM     31  C   UNL A   1      47.516  30.428  28.477  1.00  0.00     0.029 A 
ATOM     32  C   UNL A   1      46.168  30.145  28.640  1.00  0.00     0.049 A 
ATOM     33  H   UNL A   1      45.166  28.302  28.441  1.00  0.00     0.167 HD
ATOM     34  C   UNL A   1      43.801  30.698  29.169  1.00  0.00     0.074 A 
ATOM     35  C   UNL A   1      42.756  31.633  29.538  1.00  0.00     0.031 C 
ATOM     36  C   UNL A   1      45.101  31.043  28.999  1.00  0.00     0.031 A 
BRANCH  23  37
ATOM     37  C   UNL A   1      48.796  26.337  27.395  1.00  0.00    -0.014 A 
ATOM     38  C   UNL A   1      49.710  25.930  28.385  1.00  0.00     0.009 A 
ATOM     39  C   UNL A   1      49.200  26.341  26.055  1.00  0.00     0.009 A 
ATOM     40  C   UNL A   1      51.019  25.590  28.044  1.00  0.00     0.001 A 
ATOM     41  C   UNL A   1      50.503  25.971  25.713  1.00  0.00     0.001 A 
ATOM     42  C   UNL A   1      51.413  25.610  26.707  1.00  0.00     0.000 A 
ENDBRANCH  23  37
BRANCH  24  43
ATOM     43  C   UNL A   1      39.398  29.093  29.580  1.00  0.00    -0.014 A 
ATOM     44  C   UNL A   1      38.768  28.685  30.767  1.00  0.00     0.009 A 
ATOM     45  C   UNL A   1      38.661  29.858  28.660  1.00  0.00     0.009 A 
ATOM     46  C   UNL A   1      37.420  28.983  30.999  1.00  0.00     0.001 A 
ATOM     47  C   UNL A   1      37.324  30.180  28.907  1.00  0.00     0.001 A 
ATOM     48  C   UNL A   1      36.699  29.728  30.068  1.00  0.00     0.000 A 
ENDBRANCH  24  43
BRANCH  36  49
ATOM     49  C   UNL A   1      45.451  32.492  29.179  1.00  0.00    -0.014 A 
ATOM     50  C   UNL A   1      45.873  32.989  30.421  1.00  0.00     0.009 A 
ATOM     51  C   UNL A   1      45.408  33.355  28.074  1.00  0.00     0.009 A 
ATOM     52  C   UNL A   1      46.210  34.336  30.560  1.00  0.00     0.001 A 
ATOM     53  C   UNL A   1      45.783  34.691  28.206  1.00  0.00     0.001 A 
ATOM     54  C   UNL A   1      46.172  35.182  29.451  1.00  0.00     0.000 A 
ENDBRANCH  36  49
ENDBRANCH  10  11
ENDBRANCH   3   5
ENDBRANCH   2   3
ENDBRANCH   1   2
BRANCH   1  55
ATOM     55  C   UNL A   1      37.964  20.010  24.667  1.00  0.00     0.274 C 
BRANCH  55  56
ATOM     56  O   UNL A   1      36.638  19.704  25.138  1.00  0.00    -0.462 OA
BRANCH  56  57
ATOM     57  C   UNL A   1      35.793  20.775  25.227  1.00  0.00     0.315 C 
ATOM     58  O   UNL A   1      36.012  21.756  25.933  1.00  0.00    -0.252 OA
BRANCH  57  59
ATOM     59  C   UNL A   1      34.508  20.541  24.453  1.00  0.00     0.167 C 
ATOM     60  C   UNL A   1      33.870  21.829  24.020  1.00  0.00     0.276 C 
ATOM     61  C   UNL A   1      33.377  19.898  25.285  1.00  0.00     0.094 C 
ATOM     62  N   UNL A   1      32.471  21.512  23.744  1.00  0.00    -0.345 N 
ATOM     63  C   UNL A   1      32.109  20.705  24.916  1.00  0.00     0.269 C 
ATOM     64  H   UNL A   1      32.375  20.976  22.881  1.00  0.00     0.346 HD
ATOM     65  H   UNL A   1      31.881  22.332  23.609  1.00  0.00     0.346 HD
BRANCH  61  66
ATOM     66  C   UNL A   1      33.362  18.411  25.010  1.00  0.00    -0.035 A 
ATOM     67  C   UNL A   1      34.027  17.944  23.868  1.00  0.00     0.024 A 
ATOM     68  C   UNL A   1      32.653  17.485  25.775  1.00  0.00     0.024 A 
ATOM     69  C   UNL A   1      33.926  16.608  23.526  1.00  0.00     0.111 A 
ATOM     70  C   UNL A   1      32.633  16.161  25.367  1.00  0.00     0.111 A 
ATOM     71  N   UNL A   1      33.241  15.704  24.252  1.00  0.00    -0.265 NA
ENDBRANCH  61  66
ENDBRANCH  57  59
ENDBRANCH  56  57
ENDBRANCH  55  56
ENDBRANCH   1  55
TORSDOF 12
ENDMDL
