MODEL 1
REMARK VINA RESULT:     -12.7      0.000      0.000
REMARK SMILES Cc1cc(C(=O)OCCOC(=O)c2ccc(-c3c4nc(c(-c5ccccc5)c5ccc([nH]5)c(-c5ccccc5)c5nc(c(-c6ccccc6)c6ccc3[nH]6)C=C5)C=C4)cc2)ccc1NC(=O)c1ccc(=O)n(CCOc2ccccc2)n1
REMARK SMILES IDX 5 1 6 2 4 3 1 4 2 5 3 6 63 7 62 8 61 9 64 10 65 11 66 13
REMARK SMILES IDX 67 14 68 15 82 16 69 17 72 18 70 19 71 20 73 21 74 22 75 23
REMARK SMILES IDX 76 24 77 25 81 26 78 27 80 28 79 29 7 30 8 31 9 32 10 33
REMARK SMILES IDX 11 34 12 35 13 36 14 37 60 38 15 39 59 40 16 41 17 42 18 43
REMARK SMILES IDX 53 44 19 45 58 46 52 47 54 48 20 49 57 50 51 51 50 52 21 54
REMARK SMILES IDX 43 55 28 56 42 57 29 58 32 59 41 60 55 61 30 62 31 63 40 65
REMARK SMILES IDX 56 66 33 67 22 68 23 69 27 70 24 71 26 72 25 73 44 74 45 75
REMARK SMILES IDX 49 76 46 77 48 78 47 79 34 80 35 81 39 82 36 83 38 84 37 85
REMARK H PARENT 64 12 54 53 32 64
REMARK Flexibility Score: inf
ROOT
ATOM      1  C   UNL A   1      32.314  29.337  26.767  1.00  0.00     0.338 C 
ATOM      2  O   UNL A   1      31.474  28.571  27.229  1.00  0.00    -0.246 OA
ENDROOT
BRANCH   1   3
ATOM      3  C   UNL A   1      33.320  28.789  25.847  1.00  0.00     0.060 A 
ATOM      4  C   UNL A   1      33.817  28.163  22.100  1.00  0.00     0.046 C 
ATOM      5  C   UNL A   1      33.774  27.904  23.579  1.00  0.00    -0.027 A 
ATOM      6  C   UNL A   1      33.374  28.973  24.450  1.00  0.00     0.021 A 
ATOM      7  C   UNL A   1      33.914  26.622  24.126  1.00  0.00     0.044 A 
ATOM      8  C   UNL A   1      33.707  26.545  25.483  1.00  0.00     0.027 A 
ATOM      9  C   UNL A   1      33.682  27.584  26.373  1.00  0.00     0.018 A 
BRANCH   7  10
ATOM     10  N   UNL A   1      34.196  25.429  23.405  1.00  0.00    -0.320 N 
ATOM     11  C   UNL A   1      33.407  24.275  23.208  1.00  0.00     0.276 C 
ATOM     12  H   UNL A   1      35.081  25.403  22.976  1.00  0.00     0.170 HD
ATOM     13  O   UNL A   1      33.862  23.272  22.669  1.00  0.00    -0.267 OA
BRANCH  11  14
ATOM     14  C   UNL A   1      31.963  24.229  23.725  1.00  0.00     0.149 A 
ATOM     15  C   UNL A   1      31.713  23.280  24.836  1.00  0.00     0.042 A 
ATOM     16  N   UNL A   1      31.110  25.131  23.315  1.00  0.00    -0.164 NA
ATOM     17  C   UNL A   1      30.797  23.674  25.724  1.00  0.00     0.076 A 
ATOM     18  N   UNL A   1      30.046  25.414  24.198  1.00  0.00    -0.226 N 
ATOM     19  C   UNL A   1      30.078  24.954  25.518  1.00  0.00     0.266 A 
ATOM     20  O   UNL A   1      29.619  25.539  26.497  1.00  0.00    -0.268 OA
BRANCH  18  21
ATOM     21  C   UNL A   1      29.212  26.581  23.864  1.00  0.00     0.190 C 
BRANCH  21  22
ATOM     22  C   UNL A   1      30.027  27.818  23.455  1.00  0.00     0.253 C 
BRANCH  22  23
ATOM     23  O   UNL A   1      29.595  28.415  22.211  1.00  0.00    -0.492 OA
BRANCH  23  24
ATOM     24  C   UNL A   1      29.209  29.717  22.374  1.00  0.00     0.119 A 
ATOM     25  C   UNL A   1      28.603  30.436  21.353  1.00  0.00     0.046 A 
ATOM     26  C   UNL A   1      29.494  30.346  23.577  1.00  0.00     0.046 A 
ATOM     27  C   UNL A   1      28.142  31.732  21.608  1.00  0.00     0.004 A 
ATOM     28  C   UNL A   1      28.948  31.593  23.873  1.00  0.00     0.004 A 
ATOM     29  C   UNL A   1      28.257  32.284  22.887  1.00  0.00     0.000 A 
ENDBRANCH  23  24
ENDBRANCH  22  23
ENDBRANCH  21  22
ENDBRANCH  18  21
ENDBRANCH  11  14
ENDBRANCH   7  10
ENDBRANCH   1   3
BRANCH   1  30
ATOM     30  O   UNL A   1      32.621  30.560  27.246  1.00  0.00    -0.458 OA
BRANCH  30  31
ATOM     31  C   UNL A   1      31.662  31.553  26.849  1.00  0.00     0.275 C 
BRANCH  31  32
ATOM     32  C   UNL A   1      32.266  32.957  26.811  1.00  0.00     0.275 C 
BRANCH  32  33
ATOM     33  O   UNL A   1      32.023  33.850  27.940  1.00  0.00    -0.458 OA
BRANCH  33  34
ATOM     34  C   UNL A   1      32.941  34.552  28.647  1.00  0.00     0.338 C 
ATOM     35  O   UNL A   1      32.727  35.691  29.054  1.00  0.00    -0.246 OA
BRANCH  34  36
ATOM     36  C   UNL A   1      34.219  33.886  28.931  1.00  0.00     0.060 A 
ATOM     37  C   UNL A   1      34.238  32.831  29.862  1.00  0.00     0.016 A 
ATOM     38  C   UNL A   1      35.346  34.217  28.186  1.00  0.00     0.016 A 
ATOM     39  C   UNL A   1      35.363  32.033  29.980  1.00  0.00     0.010 A 
ATOM     40  C   UNL A   1      36.408  33.352  28.188  1.00  0.00     0.010 A 
ATOM     41  C   UNL A   1      36.430  32.309  29.129  1.00  0.00    -0.014 A 
BRANCH  41  42
ATOM     42  C   UNL A   1      37.779  31.905  29.454  1.00  0.00     0.031 A 
ATOM     43  C   UNL A   1      38.311  30.615  29.011  1.00  0.00     0.074 A 
ATOM     44  C   UNL A   1      38.422  32.952  30.022  1.00  0.00     0.049 A 
ATOM     45  N   UNL A   1      39.355  30.072  29.520  1.00  0.00    -0.248 NA
ATOM     46  C   UNL A   1      37.690  29.777  27.981  1.00  0.00     0.031 C 
ATOM     47  C   UNL A   1      39.816  33.254  30.262  1.00  0.00     0.029 A 
ATOM     48  N   UNL A   1      37.750  34.002  30.669  1.00  0.00    -0.354 N 
ATOM     49  C   UNL A   1      39.751  29.064  28.666  1.00  0.00     0.074 A 
ATOM     50  C   UNL A   1      38.610  28.813  27.821  1.00  0.00     0.031 C 
ATOM     51  C   UNL A   1      39.881  34.190  31.237  1.00  0.00     0.029 A 
ATOM     52  C   UNL A   1      38.523  34.413  31.739  1.00  0.00     0.049 A 
ATOM     53  H   UNL A   1      36.880  34.379  30.407  1.00  0.00     0.167 HD
ATOM     54  C   UNL A   1      41.071  28.722  28.663  1.00  0.00     0.031 A 
ATOM     55  C   UNL A   1      38.060  34.065  32.978  1.00  0.00     0.031 A 
ATOM     56  C   UNL A   1      41.770  29.493  29.693  1.00  0.00     0.049 A 
ATOM     57  C   UNL A   1      38.953  32.988  33.549  1.00  0.00     0.074 A 
ATOM     58  C   UNL A   1      42.452  30.697  29.625  1.00  0.00     0.029 A 
ATOM     59  N   UNL A   1      41.421  29.305  31.026  1.00  0.00    -0.354 N 
ATOM     60  N   UNL A   1      39.509  32.028  32.851  1.00  0.00    -0.248 NA
ATOM     61  C   UNL A   1      39.395  33.021  34.937  1.00  0.00     0.031 C 
ATOM     62  C   UNL A   1      42.390  31.294  30.916  1.00  0.00     0.029 A 
ATOM     63  C   UNL A   1      41.680  30.451  31.758  1.00  0.00     0.049 A 
ATOM     64  H   UNL A   1      41.044  28.476  31.396  1.00  0.00     0.167 HD
ATOM     65  C   UNL A   1      40.461  31.421  33.626  1.00  0.00     0.074 A 
ATOM     66  C   UNL A   1      40.322  32.051  34.932  1.00  0.00     0.031 C 
ATOM     67  C   UNL A   1      41.362  30.497  33.177  1.00  0.00     0.031 A 
BRANCH  54  68
ATOM     68  C   UNL A   1      41.798  27.967  27.574  1.00  0.00    -0.014 A 
ATOM     69  C   UNL A   1      41.840  28.525  26.278  1.00  0.00     0.009 A 
ATOM     70  C   UNL A   1      42.411  26.712  27.718  1.00  0.00     0.009 A 
ATOM     71  C   UNL A   1      42.412  27.856  25.187  1.00  0.00     0.001 A 
ATOM     72  C   UNL A   1      42.981  26.031  26.628  1.00  0.00     0.001 A 
ATOM     73  C   UNL A   1      42.977  26.601  25.361  1.00  0.00     0.000 A 
ENDBRANCH  54  68
BRANCH  55  74
ATOM     74  C   UNL A   1      36.565  34.164  33.165  1.00  0.00    -0.014 A 
ATOM     75  C   UNL A   1      35.906  35.337  32.715  1.00  0.00     0.009 A 
ATOM     76  C   UNL A   1      35.752  33.088  33.550  1.00  0.00     0.009 A 
ATOM     77  C   UNL A   1      34.515  35.396  32.554  1.00  0.00     0.001 A 
ATOM     78  C   UNL A   1      34.349  33.160  33.419  1.00  0.00     0.001 A 
ATOM     79  C   UNL A   1      33.735  34.300  32.898  1.00  0.00     0.000 A 
ENDBRANCH  55  74
BRANCH  67  80
ATOM     80  C   UNL A   1      42.112  29.561  34.087  1.00  0.00    -0.014 A 
ATOM     81  C   UNL A   1      41.476  28.660  34.950  1.00  0.00     0.009 A 
ATOM     82  C   UNL A   1      43.512  29.435  33.949  1.00  0.00     0.009 A 
ATOM     83  C   UNL A   1      42.205  27.731  35.693  1.00  0.00     0.001 A 
ATOM     84  C   UNL A   1      44.234  28.459  34.632  1.00  0.00     0.001 A 
ATOM     85  C   UNL A   1      43.581  27.620  35.523  1.00  0.00     0.000 A 
ENDBRANCH  67  80
ENDBRANCH  41  42
ENDBRANCH  34  36
ENDBRANCH  33  34
ENDBRANCH  32  33
ENDBRANCH  31  32
ENDBRANCH  30  31
ENDBRANCH   1  30
TORSDOF 17
ENDMDL
MODEL 2
REMARK VINA RESULT:     -12.4      1.645      3.517
REMARK SMILES Cc1cc(C(=O)OCCOC(=O)c2ccc(-c3c4nc(c(-c5ccccc5)c5ccc([nH]5)c(-c5ccccc5)c5nc(c(-c6ccccc6)c6ccc3[nH]6)C=C5)C=C4)cc2)ccc1NC(=O)c1ccc(=O)n(CCOc2ccccc2)n1
REMARK SMILES IDX 5 1 6 2 4 3 1 4 2 5 3 6 63 7 62 8 61 9 64 10 65 11 66 13
REMARK SMILES IDX 67 14 68 15 82 16 69 17 72 18 70 19 71 20 73 21 74 22 75 23
REMARK SMILES IDX 76 24 77 25 81 26 78 27 80 28 79 29 7 30 8 31 9 32 10 33
REMARK SMILES IDX 11 34 12 35 13 36 14 37 60 38 15 39 59 40 16 41 17 42 18 43
REMARK SMILES IDX 53 44 19 45 58 46 52 47 54 48 20 49 57 50 51 51 50 52 21 54
REMARK SMILES IDX 43 55 28 56 42 57 29 58 32 59 41 60 55 61 30 62 31 63 40 65
REMARK SMILES IDX 56 66 33 67 22 68 23 69 27 70 24 71 26 72 25 73 44 74 45 75
REMARK SMILES IDX 49 76 46 77 48 78 47 79 34 80 35 81 39 82 36 83 38 84 37 85
REMARK H PARENT 64 12 54 53 32 64
REMARK Flexibility Score: inf
ROOT
ATOM      1  C   UNL A   1      32.557  30.350  26.340  1.00  0.00     0.338 C 
ATOM      2  O   UNL A   1      31.807  30.462  25.375  1.00  0.00    -0.246 OA
ENDROOT
BRANCH   1   3
ATOM      3  C   UNL A   1      32.908  28.997  26.793  1.00  0.00     0.060 A 
ATOM      4  C   UNL A   1      34.231  25.695  25.370  1.00  0.00     0.046 C 
ATOM      5  C   UNL A   1      33.358  26.654  26.129  1.00  0.00    -0.027 A 
ATOM      6  C   UNL A   1      33.688  28.052  26.096  1.00  0.00     0.021 A 
ATOM      7  C   UNL A   1      32.136  26.276  26.697  1.00  0.00     0.044 A 
ATOM      8  C   UNL A   1      31.401  27.308  27.230  1.00  0.00     0.027 A 
ATOM      9  C   UNL A   1      31.844  28.567  27.529  1.00  0.00     0.018 A 
BRANCH   7  10
ATOM     10  N   UNL A   1      31.594  24.961  26.724  1.00  0.00    -0.320 N 
ATOM     11  C   UNL A   1      30.747  24.306  25.805  1.00  0.00     0.276 C 
ATOM     12  H   UNL A   1      31.850  24.423  27.508  1.00  0.00     0.170 HD
ATOM     13  O   UNL A   1      30.259  23.208  26.052  1.00  0.00    -0.267 OA
BRANCH  11  14
ATOM     14  C   UNL A   1      30.364  24.988  24.485  1.00  0.00     0.149 A 
ATOM     15  C   UNL A   1      29.237  25.948  24.566  1.00  0.00     0.042 A 
ATOM     16  N   UNL A   1      31.143  24.847  23.445  1.00  0.00    -0.164 NA
ATOM     17  C   UNL A   1      29.327  26.999  23.747  1.00  0.00     0.076 A 
ATOM     18  N   UNL A   1      31.099  25.893  22.499  1.00  0.00    -0.226 N 
ATOM     19  C   UNL A   1      30.469  27.103  22.808  1.00  0.00     0.266 A 
ATOM     20  O   UNL A   1      30.816  28.216  22.418  1.00  0.00    -0.268 OA
BRANCH  18  21
ATOM     21  C   UNL A   1      32.128  25.867  21.446  1.00  0.00     0.190 C 
BRANCH  21  22
ATOM     22  C   UNL A   1      33.442  25.209  21.893  1.00  0.00     0.253 C 
BRANCH  22  23
ATOM     23  O   UNL A   1      33.561  23.820  21.505  1.00  0.00    -0.492 OA
BRANCH  23  24
ATOM     24  C   UNL A   1      33.921  23.024  22.556  1.00  0.00     0.119 A 
ATOM     25  C   UNL A   1      35.188  23.083  23.120  1.00  0.00     0.046 A 
ATOM     26  C   UNL A   1      33.009  22.090  23.023  1.00  0.00     0.046 A 
ATOM     27  C   UNL A   1      35.469  22.314  24.255  1.00  0.00     0.004 A 
ATOM     28  C   UNL A   1      33.242  21.400  24.210  1.00  0.00     0.004 A 
ATOM     29  C   UNL A   1      34.475  21.523  24.837  1.00  0.00     0.000 A 
ENDBRANCH  23  24
ENDBRANCH  22  23
ENDBRANCH  21  22
ENDBRANCH  18  21
ENDBRANCH  11  14
ENDBRANCH   7  10
ENDBRANCH   1   3
BRANCH   1  30
ATOM     30  O   UNL A   1      32.847  31.317  27.235  1.00  0.00    -0.458 OA
BRANCH  30  31
ATOM     31  C   UNL A   1      31.854  32.356  27.250  1.00  0.00     0.275 C 
BRANCH  31  32
ATOM     32  C   UNL A   1      32.476  33.748  27.357  1.00  0.00     0.275 C 
BRANCH  32  33
ATOM     33  O   UNL A   1      32.471  34.417  28.654  1.00  0.00    -0.458 OA
BRANCH  33  34
ATOM     34  C   UNL A   1      33.531  34.940  29.315  1.00  0.00     0.338 C 
ATOM     35  O   UNL A   1      33.513  36.071  29.796  1.00  0.00    -0.246 OA
BRANCH  34  36
ATOM     36  C   UNL A   1      34.720  34.088  29.456  1.00  0.00     0.060 A 
ATOM     37  C   UNL A   1      34.598  32.868  30.145  1.00  0.00     0.016 A 
ATOM     38  C   UNL A   1      35.895  34.436  28.797  1.00  0.00     0.016 A 
ATOM     39  C   UNL A   1      35.624  31.940  30.095  1.00  0.00     0.010 A 
ATOM     40  C   UNL A   1      36.854  33.474  28.620  1.00  0.00     0.010 A 
ATOM     41  C   UNL A   1      36.736  32.263  29.323  1.00  0.00    -0.014 A 
BRANCH  41  42
ATOM     42  C   UNL A   1      38.023  31.649  29.558  1.00  0.00     0.031 A 
ATOM     43  C   UNL A   1      38.359  30.348  28.977  1.00  0.00     0.074 A 
ATOM     44  C   UNL A   1      38.820  32.539  30.195  1.00  0.00     0.049 A 
ATOM     45  N   UNL A   1      39.329  29.622  29.395  1.00  0.00    -0.248 NA
ATOM     46  C   UNL A   1      37.602  29.706  27.898  1.00  0.00     0.031 C 
ATOM     47  C   UNL A   1      40.247  32.624  30.409  1.00  0.00     0.029 A 
ATOM     48  N   UNL A   1      38.316  33.604  30.962  1.00  0.00    -0.354 N 
ATOM     49  C   UNL A   1      39.560  28.656  28.437  1.00  0.00     0.074 A 
ATOM     50  C   UNL A   1      38.375  28.646  27.616  1.00  0.00     0.031 C 
ATOM     51  C   UNL A   1      40.466  33.443  31.463  1.00  0.00     0.029 A 
ATOM     52  C   UNL A   1      39.166  33.800  32.035  1.00  0.00     0.049 A 
ATOM     53  H   UNL A   1      37.501  34.119  30.768  1.00  0.00     0.167 HD
ATOM     54  C   UNL A   1      40.819  28.139  28.353  1.00  0.00     0.031 A 
ATOM     55  C   UNL A   1      38.689  33.400  33.254  1.00  0.00     0.031 A 
ATOM     56  C   UNL A   1      41.644  28.705  29.422  1.00  0.00     0.049 A 
ATOM     57  C   UNL A   1      39.437  32.161  33.688  1.00  0.00     0.074 A 
ATOM     58  C   UNL A   1      42.486  29.805  29.440  1.00  0.00     0.029 A 
ATOM     59  N   UNL A   1      41.305  28.438  30.744  1.00  0.00    -0.354 N 
ATOM     60  N   UNL A   1      39.836  31.207  32.884  1.00  0.00    -0.248 NA
ATOM     61  C   UNL A   1      39.913  32.000  35.055  1.00  0.00     0.031 C 
ATOM     62  C   UNL A   1      42.538  30.278  30.782  1.00  0.00     0.029 A 
ATOM     63  C   UNL A   1      41.739  29.462  31.568  1.00  0.00     0.049 A 
ATOM     64  H   UNL A   1      40.825  27.636  31.050  1.00  0.00     0.167 HD
ATOM     65  C   UNL A   1      40.713  30.403  33.563  1.00  0.00     0.074 A 
ATOM     66  C   UNL A   1      40.696  30.917  34.926  1.00  0.00     0.031 C 
ATOM     67  C   UNL A   1      41.466  29.413  32.997  1.00  0.00     0.031 A 
BRANCH  54  68
ATOM     68  C   UNL A   1      41.407  27.402  27.172  1.00  0.00    -0.014 A 
ATOM     69  C   UNL A   1      41.270  25.998  27.115  1.00  0.00     0.009 A 
ATOM     70  C   UNL A   1      42.134  27.987  26.122  1.00  0.00     0.009 A 
ATOM     71  C   UNL A   1      41.858  25.222  26.107  1.00  0.00     0.001 A 
ATOM     72  C   UNL A   1      42.733  27.215  25.110  1.00  0.00     0.001 A 
ATOM     73  C   UNL A   1      42.599  25.833  25.106  1.00  0.00     0.000 A 
ENDBRANCH  54  68
BRANCH  55  74
ATOM     74  C   UNL A   1      37.227  33.684  33.504  1.00  0.00    -0.014 A 
ATOM     75  C   UNL A   1      36.741  34.992  33.248  1.00  0.00     0.009 A 
ATOM     76  C   UNL A   1      36.271  32.690  33.763  1.00  0.00     0.009 A 
ATOM     77  C   UNL A   1      35.371  35.271  33.147  1.00  0.00     0.001 A 
ATOM     78  C   UNL A   1      34.892  32.980  33.692  1.00  0.00     0.001 A 
ATOM     79  C   UNL A   1      34.444  34.259  33.359  1.00  0.00     0.000 A 
ENDBRANCH  55  74
BRANCH  67  80
ATOM     80  C   UNL A   1      42.100  28.300  33.787  1.00  0.00    -0.014 A 
ATOM     81  C   UNL A   1      41.360  27.366  34.522  1.00  0.00     0.009 A 
ATOM     82  C   UNL A   1      43.484  28.054  33.649  1.00  0.00     0.009 A 
ATOM     83  C   UNL A   1      41.979  26.282  35.148  1.00  0.00     0.001 A 
ATOM     84  C   UNL A   1      44.092  26.933  34.209  1.00  0.00     0.001 A 
ATOM     85  C   UNL A   1      43.341  26.058  34.979  1.00  0.00     0.000 A 
ENDBRANCH  67  80
ENDBRANCH  41  42
ENDBRANCH  34  36
ENDBRANCH  33  34
ENDBRANCH  32  33
ENDBRANCH  31  32
ENDBRANCH  30  31
ENDBRANCH   1  30
TORSDOF 17
ENDMDL
MODEL 3
REMARK VINA RESULT:     -12.4      4.140     10.384
REMARK SMILES Cc1cc(C(=O)OCCOC(=O)c2ccc(-c3c4nc(c(-c5ccccc5)c5ccc([nH]5)c(-c5ccccc5)c5nc(c(-c6ccccc6)c6ccc3[nH]6)C=C5)C=C4)cc2)ccc1NC(=O)c1ccc(=O)n(CCOc2ccccc2)n1
REMARK SMILES IDX 5 1 6 2 4 3 1 4 2 5 3 6 63 7 62 8 61 9 64 10 65 11 66 13
REMARK SMILES IDX 67 14 68 15 82 16 69 17 72 18 70 19 71 20 73 21 74 22 75 23
REMARK SMILES IDX 76 24 77 25 81 26 78 27 80 28 79 29 7 30 8 31 9 32 10 33
REMARK SMILES IDX 11 34 12 35 13 36 14 37 60 38 15 39 59 40 16 41 17 42 18 43
REMARK SMILES IDX 53 44 19 45 58 46 52 47 54 48 20 49 57 50 51 51 50 52 21 54
REMARK SMILES IDX 43 55 28 56 42 57 29 58 32 59 41 60 55 61 30 62 31 63 40 65
REMARK SMILES IDX 56 66 33 67 22 68 23 69 27 70 24 71 26 72 25 73 44 74 45 75
REMARK SMILES IDX 49 76 46 77 48 78 47 79 34 80 35 81 39 82 36 83 38 84 37 85
REMARK H PARENT 64 12 54 53 32 64
REMARK Flexibility Score: inf
ROOT
ATOM      1  C   UNL A   1      36.788  21.792  24.447  1.00  0.00     0.338 C 
ATOM      2  O   UNL A   1      37.038  22.450  23.442  1.00  0.00    -0.246 OA
ENDROOT
BRANCH   1   3
ATOM      3  C   UNL A   1      36.164  22.478  25.587  1.00  0.00     0.060 A 
ATOM      4  C   UNL A   1      33.194  22.066  27.972  1.00  0.00     0.046 C 
ATOM      5  C   UNL A   1      34.142  22.707  26.998  1.00  0.00    -0.027 A 
ATOM      6  C   UNL A   1      35.240  21.927  26.498  1.00  0.00     0.021 A 
ATOM      7  C   UNL A   1      33.892  23.952  26.410  1.00  0.00     0.044 A 
ATOM      8  C   UNL A   1      34.790  24.324  25.437  1.00  0.00     0.027 A 
ATOM      9  C   UNL A   1      36.022  23.778  25.200  1.00  0.00     0.018 A 
BRANCH   7  10
ATOM     10  N   UNL A   1      32.795  24.811  26.697  1.00  0.00    -0.320 N 
ATOM     11  C   UNL A   1      31.717  25.215  25.881  1.00  0.00     0.276 C 
ATOM     12  H   UNL A   1      32.788  25.184  27.607  1.00  0.00     0.170 HD
ATOM     13  O   UNL A   1      30.924  26.077  26.246  1.00  0.00    -0.267 OA
BRANCH  11  14
ATOM     14  C   UNL A   1      31.545  24.620  24.477  1.00  0.00     0.149 A 
ATOM     15  C   UNL A   1      31.670  25.582  23.356  1.00  0.00     0.042 A 
ATOM     16  N   UNL A   1      31.499  23.321  24.336  1.00  0.00    -0.164 NA
ATOM     17  C   UNL A   1      32.217  25.088  22.243  1.00  0.00     0.076 A 
ATOM     18  N   UNL A   1      31.922  22.824  23.085  1.00  0.00    -0.226 N 
ATOM     19  C   UNL A   1      32.593  23.656  22.182  1.00  0.00     0.266 A 
ATOM     20  O   UNL A   1      33.482  23.309  21.407  1.00  0.00    -0.268 OA
BRANCH  18  21
ATOM     21  C   UNL A   1      32.096  21.366  22.985  1.00  0.00     0.190 C 
BRANCH  21  22
ATOM     22  C   UNL A   1      32.800  20.750  24.204  1.00  0.00     0.253 C 
BRANCH  22  23
ATOM     23  O   UNL A   1      32.091  19.630  24.783  1.00  0.00    -0.492 OA
BRANCH  23  24
ATOM     24  C   UNL A   1      32.856  18.497  24.809  1.00  0.00     0.119 A 
ATOM     25  C   UNL A   1      34.133  18.463  24.267  1.00  0.00     0.046 A 
ATOM     26  C   UNL A   1      32.306  17.339  25.335  1.00  0.00     0.046 A 
ATOM     27  C   UNL A   1      34.906  17.305  24.408  1.00  0.00     0.004 A 
ATOM     28  C   UNL A   1      33.100  16.219  25.573  1.00  0.00     0.004 A 
ATOM     29  C   UNL A   1      34.412  16.207  25.118  1.00  0.00     0.000 A 
ENDBRANCH  23  24
ENDBRANCH  22  23
ENDBRANCH  21  22
ENDBRANCH  18  21
ENDBRANCH  11  14
ENDBRANCH   7  10
ENDBRANCH   1   3
BRANCH   1  30
ATOM     30  O   UNL A   1      37.305  20.584  24.754  1.00  0.00    -0.458 OA
BRANCH  30  31
ATOM     31  C   UNL A   1      38.590  20.690  25.387  1.00  0.00     0.275 C 
BRANCH  31  32
ATOM     32  C   UNL A   1      39.163  19.323  25.763  1.00  0.00     0.275 C 
BRANCH  32  33
ATOM     33  O   UNL A   1      40.552  19.032  25.420  1.00  0.00    -0.458 OA
BRANCH  33  34
ATOM     34  C   UNL A   1      41.658  19.333  26.142  1.00  0.00     0.338 C 
ATOM     35  O   UNL A   1      42.548  18.511  26.354  1.00  0.00    -0.246 OA
BRANCH  34  36
ATOM     36  C   UNL A   1      41.770  20.704  26.657  1.00  0.00     0.060 A 
ATOM     37  C   UNL A   1      42.027  21.747  25.749  1.00  0.00     0.016 A 
ATOM     38  C   UNL A   1      41.491  20.959  27.996  1.00  0.00     0.016 A 
ATOM     39  C   UNL A   1      41.906  23.064  26.157  1.00  0.00     0.010 A 
ATOM     40  C   UNL A   1      41.229  22.248  28.374  1.00  0.00     0.010 A 
ATOM     41  C   UNL A   1      41.501  23.289  27.470  1.00  0.00    -0.014 A 
BRANCH  41  42
ATOM     42  C   UNL A   1      41.791  24.531  28.148  1.00  0.00     0.031 A 
ATOM     43  C   UNL A   1      40.765  25.562  28.312  1.00  0.00     0.074 A 
ATOM     44  C   UNL A   1      43.023  24.446  28.703  1.00  0.00     0.049 A 
ATOM     45  N   UNL A   1      41.034  26.780  28.610  1.00  0.00    -0.248 NA
ATOM     46  C   UNL A   1      39.331  25.339  28.107  1.00  0.00     0.031 C 
ATOM     47  C   UNL A   1      43.711  25.205  29.724  1.00  0.00     0.029 A 
ATOM     48  N   UNL A   1      44.014  23.568  28.232  1.00  0.00    -0.354 N 
ATOM     49  C   UNL A   1      39.853  27.376  29.004  1.00  0.00     0.074 A 
ATOM     50  C   UNL A   1      38.811  26.504  28.525  1.00  0.00     0.031 C 
ATOM     51  C   UNL A   1      45.039  24.993  29.580  1.00  0.00     0.029 A 
ATOM     52  C   UNL A   1      45.241  24.191  28.372  1.00  0.00     0.049 A 
ATOM     53  H   UNL A   1      43.862  22.668  27.867  1.00  0.00     0.167 HD
ATOM     54  C   UNL A   1      39.936  28.430  29.866  1.00  0.00     0.031 A 
ATOM     55  C   UNL A   1      45.826  24.622  27.213  1.00  0.00     0.031 A 
ATOM     56  C   UNL A   1      41.345  28.747  30.105  1.00  0.00     0.049 A 
ATOM     57  C   UNL A   1      45.766  26.131  27.166  1.00  0.00     0.074 A 
ATOM     58  C   UNL A   1      42.218  28.332  31.098  1.00  0.00     0.029 A 
ATOM     59  N   UNL A   1      42.128  29.177  29.038  1.00  0.00    -0.354 N 
ATOM     60  N   UNL A   1      44.768  26.854  27.611  1.00  0.00    -0.248 NA
ATOM     61  C   UNL A   1      46.910  26.927  26.742  1.00  0.00     0.031 C 
ATOM     62  C   UNL A   1      43.534  28.393  30.560  1.00  0.00     0.029 A 
ATOM     63  C   UNL A   1      43.456  28.849  29.253  1.00  0.00     0.049 A 
ATOM     64  H   UNL A   1      41.786  29.647  28.245  1.00  0.00     0.167 HD
ATOM     65  C   UNL A   1      45.170  28.162  27.669  1.00  0.00     0.074 A 
ATOM     66  C   UNL A   1      46.501  28.160  27.078  1.00  0.00     0.031 C 
ATOM     67  C   UNL A   1      44.457  29.175  28.248  1.00  0.00     0.031 A 
BRANCH  54  68
ATOM     68  C   UNL A   1      38.820  28.968  30.730  1.00  0.00    -0.014 A 
ATOM     69  C   UNL A   1      37.854  29.810  30.140  1.00  0.00     0.009 A 
ATOM     70  C   UNL A   1      38.672  28.743  32.109  1.00  0.00     0.009 A 
ATOM     71  C   UNL A   1      36.836  30.427  30.881  1.00  0.00     0.001 A 
ATOM     72  C   UNL A   1      37.659  29.363  32.861  1.00  0.00     0.001 A 
ATOM     73  C   UNL A   1      36.744  30.210  32.247  1.00  0.00     0.000 A 
ENDBRANCH  54  68
BRANCH  55  74
ATOM     74  C   UNL A   1      45.685  23.694  26.029  1.00  0.00    -0.014 A 
ATOM     75  C   UNL A   1      46.013  22.325  26.203  1.00  0.00     0.009 A 
ATOM     76  C   UNL A   1      45.042  24.046  24.833  1.00  0.00     0.009 A 
ATOM     77  C   UNL A   1      45.625  21.343  25.282  1.00  0.00     0.001 A 
ATOM     78  C   UNL A   1      44.680  23.060  23.891  1.00  0.00     0.001 A 
ATOM     79  C   UNL A   1      44.947  21.710  24.128  1.00  0.00     0.000 A 
ENDBRANCH  55  74
BRANCH  67  80
ATOM     80  C   UNL A   1      44.703  30.631  27.959  1.00  0.00    -0.014 A 
ATOM     81  C   UNL A   1      44.152  31.296  26.857  1.00  0.00     0.009 A 
ATOM     82  C   UNL A   1      45.360  31.427  28.924  1.00  0.00     0.009 A 
ATOM     83  C   UNL A   1      44.312  32.673  26.688  1.00  0.00     0.001 A 
ATOM     84  C   UNL A   1      45.455  32.811  28.796  1.00  0.00     0.001 A 
ATOM     85  C   UNL A   1      44.950  33.431  27.663  1.00  0.00     0.000 A 
ENDBRANCH  67  80
ENDBRANCH  41  42
ENDBRANCH  34  36
ENDBRANCH  33  34
ENDBRANCH  32  33
ENDBRANCH  31  32
ENDBRANCH  30  31
ENDBRANCH   1  30
TORSDOF 17
ENDMDL
