MODEL 1
REMARK VINA RESULT:      -7.7      0.000      0.000
REMARK SMILES CC(C)=CCC[C@H](C)CC(=O)OCCOC(=O)c1ccc(-c2c3nc(c(-c4ccccc4)c4ccc([nH]4)c(-c4ccccc4)c4nc(c(-c5ccccc5)c5ccc2[nH]5)C=C4)C=C3)cc1
REMARK SMILES IDX 13 1 12 2 10 3 11 4 9 5 7 6 8 7 6 8 5 9 4 10 1 11 2 12 3 13
REMARK SMILES IDX 14 14 15 15 16 16 17 17 18 18 19 19 65 20 20 21 64 22 21 23
REMARK SMILES IDX 22 24 23 25 58 26 24 27 63 28 57 29 59 30 25 31 62 32 56 33
REMARK SMILES IDX 55 34 26 36 48 37 33 38 47 39 34 40 37 41 46 42 60 43 35 44
REMARK SMILES IDX 36 45 45 47 61 48 38 49 27 50 28 51 32 52 29 53 31 54 30 55
REMARK SMILES IDX 49 56 50 57 54 58 51 59 53 60 52 61 39 62 40 63 44 64 41 65
REMARK SMILES IDX 43 66 42 67
REMARK H PARENT 59 35 37 46
REMARK Flexibility Score: inf
ROOT
ATOM      1  C   UNL A   1      43.055  18.725  26.498  1.00  0.00     0.274 C 
ENDROOT
BRANCH   1   2
ATOM      2  O   UNL A   1      42.023  19.370  25.728  1.00  0.00    -0.462 OA
BRANCH   2   3
ATOM      3  C   UNL A   1      41.245  20.265  26.386  1.00  0.00     0.306 C 
ATOM      4  O   UNL A   1      40.381  19.973  27.205  1.00  0.00    -0.252 OA
BRANCH   3   5
ATOM      5  C   UNL A   1      41.503  21.693  25.949  1.00  0.00     0.126 C 
BRANCH   5   6
ATOM      6  C   UNL A   1      41.752  22.691  27.095  1.00  0.00    -0.003 C 
ATOM      7  C   UNL A   1      40.419  23.215  27.663  1.00  0.00     0.008 C 
BRANCH   6   8
ATOM      8  C   UNL A   1      42.590  22.076  28.243  1.00  0.00     0.008 C 
BRANCH   8   9
ATOM      9  C   UNL A   1      42.983  23.026  29.386  1.00  0.00     0.027 C 
BRANCH   9  10
ATOM     10  C   UNL A   1      44.345  23.647  29.219  1.00  0.00    -0.028 C 
ATOM     11  C   UNL A   1      43.736  25.925  30.085  1.00  0.00     0.039 C 
ATOM     12  C   UNL A   1      44.700  24.909  29.538  1.00  0.00    -0.080 C 
ATOM     13  C   UNL A   1      46.127  25.353  29.363  1.00  0.00     0.039 C 
ENDBRANCH   9  10
ENDBRANCH   8   9
ENDBRANCH   6   8
ENDBRANCH   5   6
ENDBRANCH   3   5
ENDBRANCH   2   3
ENDBRANCH   1   2
BRANCH   1  14
ATOM     14  C   UNL A   1      44.121  18.097  25.598  1.00  0.00     0.275 C 
BRANCH  14  15
ATOM     15  O   UNL A   1      45.179  19.030  25.316  1.00  0.00    -0.458 OA
BRANCH  15  16
ATOM     16  C   UNL A   1      44.985  19.813  24.231  1.00  0.00     0.338 C 
ATOM     17  O   UNL A   1      44.783  19.465  23.083  1.00  0.00    -0.246 OA
BRANCH  16  18
ATOM     18  C   UNL A   1      44.994  21.219  24.653  1.00  0.00     0.060 A 
ATOM     19  C   UNL A   1      44.526  22.196  23.769  1.00  0.00     0.016 A 
ATOM     20  C   UNL A   1      45.541  21.570  25.886  1.00  0.00     0.016 A 
ATOM     21  C   UNL A   1      44.620  23.544  24.114  1.00  0.00     0.010 A 
ATOM     22  C   UNL A   1      45.619  22.917  26.235  1.00  0.00     0.010 A 
ATOM     23  C   UNL A   1      45.170  23.912  25.348  1.00  0.00    -0.014 A 
BRANCH  23  24
ATOM     24  C   UNL A   1      45.312  25.335  25.731  1.00  0.00     0.031 A 
ATOM     25  C   UNL A   1      46.669  25.975  25.724  1.00  0.00     0.074 A 
ATOM     26  C   UNL A   1      44.238  26.028  26.147  1.00  0.00     0.049 A 
ATOM     27  N   UNL A   1      47.038  27.136  26.200  1.00  0.00    -0.248 NA
ATOM     28  C   UNL A   1      47.757  25.201  25.103  1.00  0.00     0.031 C 
ATOM     29  C   UNL A   1      42.862  25.533  26.160  1.00  0.00     0.029 A 
ATOM     30  N   UNL A   1      44.146  27.295  26.666  1.00  0.00    -0.354 N 
ATOM     31  C   UNL A   1      48.403  27.224  25.959  1.00  0.00     0.074 A 
ATOM     32  C   UNL A   1      48.798  25.997  25.300  1.00  0.00     0.031 C 
ATOM     33  C   UNL A   1      42.063  26.478  26.681  1.00  0.00     0.029 A 
ATOM     34  C   UNL A   1      42.878  27.620  27.084  1.00  0.00     0.049 A 
ATOM     35  H   UNL A   1      44.911  27.910  26.733  1.00  0.00     0.167 HD
ATOM     36  C   UNL A   1      49.249  28.234  26.268  1.00  0.00     0.031 A 
ATOM     37  C   UNL A   1      42.433  28.697  27.757  1.00  0.00     0.031 A 
ATOM     38  C   UNL A   1      48.855  29.447  26.933  1.00  0.00     0.049 A 
ATOM     39  C   UNL A   1      43.405  29.772  28.157  1.00  0.00     0.074 A 
ATOM     40  C   UNL A   1      49.639  30.532  27.286  1.00  0.00     0.029 A 
ATOM     41  N   UNL A   1      47.565  29.734  27.346  1.00  0.00    -0.354 N 
ATOM     42  N   UNL A   1      44.695  29.843  27.932  1.00  0.00    -0.248 NA
ATOM     43  C   UNL A   1      42.860  30.912  28.909  1.00  0.00     0.031 C 
ATOM     44  C   UNL A   1      48.829  31.459  27.950  1.00  0.00     0.029 A 
ATOM     45  C   UNL A   1      47.532  30.970  27.968  1.00  0.00     0.049 A 
ATOM     46  H   UNL A   1      46.786  29.145  27.218  1.00  0.00     0.167 HD
ATOM     47  C   UNL A   1      45.110  31.045  28.489  1.00  0.00     0.074 A 
ATOM     48  C   UNL A   1      43.936  31.673  29.060  1.00  0.00     0.031 C 
ATOM     49  C   UNL A   1      46.353  31.582  28.521  1.00  0.00     0.031 A 
BRANCH  36  50
ATOM     50  C   UNL A   1      50.698  28.049  25.924  1.00  0.00    -0.014 A 
ATOM     51  C   UNL A   1      51.583  27.422  26.813  1.00  0.00     0.009 A 
ATOM     52  C   UNL A   1      51.176  28.481  24.677  1.00  0.00     0.009 A 
ATOM     53  C   UNL A   1      52.927  27.255  26.469  1.00  0.00     0.001 A 
ATOM     54  C   UNL A   1      52.514  28.294  24.328  1.00  0.00     0.001 A 
ATOM     55  C   UNL A   1      53.389  27.688  25.227  1.00  0.00     0.000 A 
ENDBRANCH  36  50
BRANCH  37  56
ATOM     56  C   UNL A   1      40.999  28.795  28.130  1.00  0.00    -0.014 A 
ATOM     57  C   UNL A   1      40.058  29.284  27.213  1.00  0.00     0.009 A 
ATOM     58  C   UNL A   1      40.566  28.394  29.403  1.00  0.00     0.009 A 
ATOM     59  C   UNL A   1      38.712  29.386  27.571  1.00  0.00     0.001 A 
ATOM     60  C   UNL A   1      39.217  28.474  29.750  1.00  0.00     0.001 A 
ATOM     61  C   UNL A   1      38.291  28.977  28.836  1.00  0.00     0.000 A 
ENDBRANCH  37  56
BRANCH  49  62
ATOM     62  C   UNL A   1      46.502  32.936  29.150  1.00  0.00    -0.014 A 
ATOM     63  C   UNL A   1      46.323  34.109  28.403  1.00  0.00     0.009 A 
ATOM     64  C   UNL A   1      46.769  33.034  30.525  1.00  0.00     0.009 A 
ATOM     65  C   UNL A   1      46.428  35.358  29.018  1.00  0.00     0.001 A 
ATOM     66  C   UNL A   1      46.853  34.282  31.141  1.00  0.00     0.001 A 
ATOM     67  C   UNL A   1      46.687  35.443  30.387  1.00  0.00     0.000 A 
ENDBRANCH  49  62
ENDBRANCH  23  24
ENDBRANCH  16  18
ENDBRANCH  15  16
ENDBRANCH  14  15
ENDBRANCH   1  14
TORSDOF 15
ENDMDL
MODEL 2
REMARK VINA RESULT:      -7.5      5.245     10.590
REMARK SMILES CC(C)=CCC[C@H](C)CC(=O)OCCOC(=O)c1ccc(-c2c3nc(c(-c4ccccc4)c4ccc([nH]4)c(-c4ccccc4)c4nc(c(-c5ccccc5)c5ccc2[nH]5)C=C4)C=C3)cc1
REMARK SMILES IDX 13 1 12 2 10 3 11 4 9 5 7 6 8 7 6 8 5 9 4 10 1 11 2 12 3 13
REMARK SMILES IDX 14 14 15 15 16 16 17 17 18 18 19 19 65 20 20 21 64 22 21 23
REMARK SMILES IDX 22 24 23 25 58 26 24 27 63 28 57 29 59 30 25 31 62 32 56 33
REMARK SMILES IDX 55 34 26 36 48 37 33 38 47 39 34 40 37 41 46 42 60 43 35 44
REMARK SMILES IDX 36 45 45 47 61 48 38 49 27 50 28 51 32 52 29 53 31 54 30 55
REMARK SMILES IDX 49 56 50 57 54 58 51 59 53 60 52 61 39 62 40 63 44 64 41 65
REMARK SMILES IDX 43 66 42 67
REMARK H PARENT 59 35 37 46
REMARK Flexibility Score: inf
ROOT
ATOM      1  C   UNL A   1      33.975  34.360  29.075  1.00  0.00     0.274 C 
ENDROOT
BRANCH   1   2
ATOM      2  O   UNL A   1      32.776  34.753  29.769  1.00  0.00    -0.462 OA
BRANCH   2   3
ATOM      3  C   UNL A   1      32.931  35.603  30.815  1.00  0.00     0.306 C 
ATOM      4  O   UNL A   1      32.148  36.499  31.110  1.00  0.00    -0.252 OA
BRANCH   3   5
ATOM      5  C   UNL A   1      34.230  35.379  31.562  1.00  0.00     0.126 C 
BRANCH   5   6
ATOM      6  C   UNL A   1      34.107  34.541  32.848  1.00  0.00    -0.003 C 
ATOM      7  C   UNL A   1      34.256  33.040  32.539  1.00  0.00     0.008 C 
BRANCH   6   8
ATOM      8  C   UNL A   1      35.147  34.949  33.921  1.00  0.00     0.008 C 
BRANCH   8   9
ATOM      9  C   UNL A   1      36.426  34.098  33.990  1.00  0.00     0.027 C 
BRANCH   9  10
ATOM     10  C   UNL A   1      37.524  34.577  33.078  1.00  0.00    -0.028 C 
ATOM     11  C   UNL A   1      37.830  32.421  31.829  1.00  0.00     0.039 C 
ATOM     12  C   UNL A   1      38.139  33.864  32.112  1.00  0.00    -0.080 C 
ATOM     13  C   UNL A   1      39.182  34.518  31.247  1.00  0.00     0.039 C 
ENDBRANCH   9  10
ENDBRANCH   8   9
ENDBRANCH   6   8
ENDBRANCH   5   6
ENDBRANCH   3   5
ENDBRANCH   2   3
ENDBRANCH   1   2
BRANCH   1  14
ATOM     14  C   UNL A   1      33.803  33.015  28.368  1.00  0.00     0.275 C 
BRANCH  14  15
ATOM     15  O   UNL A   1      34.680  32.019  28.923  1.00  0.00    -0.458 OA
BRANCH  15  16
ATOM     16  C   UNL A   1      34.702  30.838  28.266  1.00  0.00     0.338 C 
ATOM     17  O   UNL A   1      33.826  30.346  27.580  1.00  0.00    -0.246 OA
BRANCH  16  18
ATOM     18  C   UNL A   1      36.018  30.215  28.452  1.00  0.00     0.060 A 
ATOM     19  C   UNL A   1      36.356  29.702  29.708  1.00  0.00     0.016 A 
ATOM     20  C   UNL A   1      36.940  30.216  27.406  1.00  0.00     0.016 A 
ATOM     21  C   UNL A   1      37.637  29.198  29.929  1.00  0.00     0.010 A 
ATOM     22  C   UNL A   1      38.214  29.696  27.624  1.00  0.00     0.010 A 
ATOM     23  C   UNL A   1      38.574  29.195  28.888  1.00  0.00    -0.014 A 
BRANCH  23  24
ATOM     24  C   UNL A   1      39.952  28.695  29.099  1.00  0.00     0.031 A 
ATOM     25  C   UNL A   1      41.027  29.642  29.545  1.00  0.00     0.074 A 
ATOM     26  C   UNL A   1      40.250  27.413  28.826  1.00  0.00     0.049 A 
ATOM     27  N   UNL A   1      42.320  29.457  29.603  1.00  0.00    -0.248 NA
ATOM     28  C   UNL A   1      40.587  30.979  29.976  1.00  0.00     0.031 C 
ATOM     29  C   UNL A   1      39.288  26.386  28.427  1.00  0.00     0.029 A 
ATOM     30  N   UNL A   1      41.459  26.764  28.818  1.00  0.00    -0.354 N 
ATOM     31  C   UNL A   1      42.852  30.658  30.054  1.00  0.00     0.074 A 
ATOM     32  C   UNL A   1      41.742  31.567  30.249  1.00  0.00     0.031 C 
ATOM     33  C   UNL A   1      39.946  25.239  28.194  1.00  0.00     0.029 A 
ATOM     34  C   UNL A   1      41.376  25.466  28.376  1.00  0.00     0.049 A 
ATOM     35  H   UNL A   1      42.301  27.187  29.101  1.00  0.00     0.167 HD
ATOM     36  C   UNL A   1      44.149  30.973  30.277  1.00  0.00     0.031 A 
ATOM     37  C   UNL A   1      42.349  24.576  28.105  1.00  0.00     0.031 A 
ATOM     38  C   UNL A   1      45.250  30.071  30.073  1.00  0.00     0.049 A 
ATOM     39  C   UNL A   1      43.787  24.973  28.288  1.00  0.00     0.074 A 
ATOM     40  C   UNL A   1      46.601  30.297  30.275  1.00  0.00     0.029 A 
ATOM     41  N   UNL A   1      45.125  28.769  29.617  1.00  0.00    -0.354 N 
ATOM     42  N   UNL A   1      44.280  26.113  28.707  1.00  0.00    -0.248 NA
ATOM     43  C   UNL A   1      44.802  23.964  27.954  1.00  0.00     0.031 C 
ATOM     44  C   UNL A   1      47.297  29.142  29.902  1.00  0.00     0.029 A 
ATOM     45  C   UNL A   1      46.375  28.184  29.512  1.00  0.00     0.049 A 
ATOM     46  H   UNL A   1      44.274  28.325  29.398  1.00  0.00     0.167 HD
ATOM     47  C   UNL A   1      45.659  25.950  28.714  1.00  0.00     0.074 A 
ATOM     48  C   UNL A   1      45.925  24.600  28.260  1.00  0.00     0.031 C 
ATOM     49  C   UNL A   1      46.618  26.837  29.069  1.00  0.00     0.031 A 
BRANCH  36  50
ATOM     50  C   UNL A   1      44.450  32.372  30.732  1.00  0.00    -0.014 A 
ATOM     51  C   UNL A   1      44.669  33.406  29.810  1.00  0.00     0.009 A 
ATOM     52  C   UNL A   1      44.483  32.663  32.105  1.00  0.00     0.009 A 
ATOM     53  C   UNL A   1      44.941  34.701  30.255  1.00  0.00     0.001 A 
ATOM     54  C   UNL A   1      44.734  33.963  32.546  1.00  0.00     0.001 A 
ATOM     55  C   UNL A   1      44.970  34.979  31.622  1.00  0.00     0.000 A 
ENDBRANCH  36  50
BRANCH  37  56
ATOM     56  C   UNL A   1      41.994  23.228  27.594  1.00  0.00    -0.014 A 
ATOM     57  C   UNL A   1      41.853  23.004  26.217  1.00  0.00     0.009 A 
ATOM     58  C   UNL A   1      41.803  22.157  28.482  1.00  0.00     0.009 A 
ATOM     59  C   UNL A   1      41.508  21.737  25.741  1.00  0.00     0.001 A 
ATOM     60  C   UNL A   1      41.482  20.887  28.001  1.00  0.00     0.001 A 
ATOM     61  C   UNL A   1      41.328  20.680  26.631  1.00  0.00     0.000 A 
ENDBRANCH  37  56
BRANCH  49  62
ATOM     62  C   UNL A   1      48.042  26.364  29.029  1.00  0.00    -0.014 A 
ATOM     63  C   UNL A   1      48.808  26.458  27.859  1.00  0.00     0.009 A 
ATOM     64  C   UNL A   1      48.638  25.870  30.200  1.00  0.00     0.009 A 
ATOM     65  C   UNL A   1      50.143  26.048  27.856  1.00  0.00     0.001 A 
ATOM     66  C   UNL A   1      49.977  25.479  30.200  1.00  0.00     0.001 A 
ATOM     67  C   UNL A   1      50.727  25.564  29.028  1.00  0.00     0.000 A 
ENDBRANCH  49  62
ENDBRANCH  23  24
ENDBRANCH  16  18
ENDBRANCH  15  16
ENDBRANCH  14  15
ENDBRANCH   1  14
TORSDOF 15
ENDMDL
MODEL 3
REMARK VINA RESULT:      -7.4      1.869      3.202
REMARK SMILES CC(C)=CCC[C@H](C)CC(=O)OCCOC(=O)c1ccc(-c2c3nc(c(-c4ccccc4)c4ccc([nH]4)c(-c4ccccc4)c4nc(c(-c5ccccc5)c5ccc2[nH]5)C=C4)C=C3)cc1
REMARK SMILES IDX 13 1 12 2 10 3 11 4 9 5 7 6 8 7 6 8 5 9 4 10 1 11 2 12 3 13
REMARK SMILES IDX 14 14 15 15 16 16 17 17 18 18 19 19 65 20 20 21 64 22 21 23
REMARK SMILES IDX 22 24 23 25 58 26 24 27 63 28 57 29 59 30 25 31 62 32 56 33
REMARK SMILES IDX 55 34 26 36 48 37 33 38 47 39 34 40 37 41 46 42 60 43 35 44
REMARK SMILES IDX 36 45 45 47 61 48 38 49 27 50 28 51 32 52 29 53 31 54 30 55
REMARK SMILES IDX 49 56 50 57 54 58 51 59 53 60 52 61 39 62 40 63 44 64 41 65
REMARK SMILES IDX 43 66 42 67
REMARK H PARENT 59 35 37 46
REMARK Flexibility Score: inf
ROOT
ATOM      1  C   UNL A   1      41.744  19.118  26.176  1.00  0.00     0.274 C 
ENDROOT
BRANCH   1   2
ATOM      2  O   UNL A   1      41.479  20.511  25.926  1.00  0.00    -0.462 OA
BRANCH   2   3
ATOM      3  C   UNL A   1      40.924  21.216  26.944  1.00  0.00     0.306 C 
ATOM      4  O   UNL A   1      40.809  20.810  28.095  1.00  0.00    -0.252 OA
BRANCH   3   5
ATOM      5  C   UNL A   1      40.383  22.559  26.496  1.00  0.00     0.126 C 
BRANCH   5   6
ATOM      6  C   UNL A   1      38.848  22.678  26.500  1.00  0.00    -0.003 C 
ATOM      7  C   UNL A   1      38.414  24.148  26.354  1.00  0.00     0.008 C 
BRANCH   6   8
ATOM      8  C   UNL A   1      38.187  21.834  25.383  1.00  0.00     0.008 C 
BRANCH   8   9
ATOM      9  C   UNL A   1      36.666  21.635  25.489  1.00  0.00     0.027 C 
BRANCH   9  10
ATOM     10  C   UNL A   1      35.891  22.260  24.359  1.00  0.00    -0.028 C 
ATOM     11  C   UNL A   1      34.781  24.053  25.722  1.00  0.00     0.039 C 
ATOM     12  C   UNL A   1      35.075  23.331  24.437  1.00  0.00    -0.080 C 
ATOM     13  C   UNL A   1      34.420  23.867  23.193  1.00  0.00     0.039 C 
ENDBRANCH   9  10
ENDBRANCH   8   9
ENDBRANCH   6   8
ENDBRANCH   5   6
ENDBRANCH   3   5
ENDBRANCH   2   3
ENDBRANCH   1   2
BRANCH   1  14
ATOM     14  C   UNL A   1      43.163  18.730  25.757  1.00  0.00     0.275 C 
BRANCH  14  15
ATOM     15  O   UNL A   1      43.478  19.243  24.451  1.00  0.00    -0.458 OA
BRANCH  15  16
ATOM     16  C   UNL A   1      44.781  19.542  24.246  1.00  0.00     0.338 C 
ATOM     17  O   UNL A   1      45.658  18.814  23.819  1.00  0.00    -0.246 OA
BRANCH  16  18
ATOM     18  C   UNL A   1      45.001  20.956  24.570  1.00  0.00     0.060 A 
ATOM     19  C   UNL A   1      45.697  21.285  25.738  1.00  0.00     0.016 A 
ATOM     20  C   UNL A   1      44.447  21.948  23.762  1.00  0.00     0.016 A 
ATOM     21  C   UNL A   1      45.829  22.622  26.112  1.00  0.00     0.010 A 
ATOM     22  C   UNL A   1      44.594  23.284  24.130  1.00  0.00     0.010 A 
ATOM     23  C   UNL A   1      45.275  23.629  25.311  1.00  0.00    -0.014 A 
BRANCH  23  24
ATOM     24  C   UNL A   1      45.370  25.055  25.698  1.00  0.00     0.031 A 
ATOM     25  C   UNL A   1      46.699  25.751  25.656  1.00  0.00     0.074 A 
ATOM     26  C   UNL A   1      44.281  25.702  26.148  1.00  0.00     0.049 A 
ATOM     27  N   UNL A   1      47.033  26.923  26.128  1.00  0.00    -0.248 NA
ATOM     28  C   UNL A   1      47.799  25.025  25.000  1.00  0.00     0.031 C 
ATOM     29  C   UNL A   1      42.927  25.149  26.197  1.00  0.00     0.029 A 
ATOM     30  N   UNL A   1      44.151  26.961  26.677  1.00  0.00    -0.354 N 
ATOM     31  C   UNL A   1      48.385  27.069  25.849  1.00  0.00     0.074 A 
ATOM     32  C   UNL A   1      48.812  25.862  25.172  1.00  0.00     0.031 C 
ATOM     33  C   UNL A   1      42.105  26.059  26.746  1.00  0.00     0.029 A 
ATOM     34  C   UNL A   1      42.884  27.231  27.132  1.00  0.00     0.049 A 
ATOM     35  H   UNL A   1      44.892  27.606  26.725  1.00  0.00     0.167 HD
ATOM     36  C   UNL A   1      49.198  28.112  26.140  1.00  0.00     0.031 A 
ATOM     37  C   UNL A   1      42.414  28.286  27.823  1.00  0.00     0.031 A 
ATOM     38  C   UNL A   1      48.774  29.304  26.822  1.00  0.00     0.049 A 
ATOM     39  C   UNL A   1      43.351  29.399  28.201  1.00  0.00     0.074 A 
ATOM     40  C   UNL A   1      49.522  30.419  27.159  1.00  0.00     0.029 A 
ATOM     41  N   UNL A   1      47.485  29.536  27.273  1.00  0.00    -0.354 N 
ATOM     42  N   UNL A   1      44.630  29.524  27.941  1.00  0.00    -0.248 NA
ATOM     43  C   UNL A   1      42.782  30.512  28.975  1.00  0.00     0.031 C 
ATOM     44  C   UNL A   1      48.693  31.309  27.850  1.00  0.00     0.029 A 
ATOM     45  C   UNL A   1      47.419  30.767  27.903  1.00  0.00     0.049 A 
ATOM     46  H   UNL A   1      46.727  28.916  27.164  1.00  0.00     0.167 HD
ATOM     47  C   UNL A   1      45.012  30.739  28.492  1.00  0.00     0.074 A 
ATOM     48  C   UNL A   1      43.830  31.316  29.101  1.00  0.00     0.031 C 
ATOM     49  C   UNL A   1      46.232  31.327  28.492  1.00  0.00     0.031 A 
BRANCH  36  50
ATOM     50  C   UNL A   1      50.643  27.988  25.753  1.00  0.00    -0.014 A 
ATOM     51  C   UNL A   1      51.589  27.449  26.636  1.00  0.00     0.009 A 
ATOM     52  C   UNL A   1      51.056  28.390  24.473  1.00  0.00     0.009 A 
ATOM     53  C   UNL A   1      52.928  27.337  26.254  1.00  0.00     0.001 A 
ATOM     54  C   UNL A   1      52.390  28.258  24.086  1.00  0.00     0.001 A 
ATOM     55  C   UNL A   1      53.326  27.739  24.979  1.00  0.00     0.000 A 
ENDBRANCH  36  50
BRANCH  37  56
ATOM     56  C   UNL A   1      40.988  28.323  28.237  1.00  0.00    -0.014 A 
ATOM     57  C   UNL A   1      40.581  27.726  29.438  1.00  0.00     0.009 A 
ATOM     58  C   UNL A   1      40.031  28.963  27.434  1.00  0.00     0.009 A 
ATOM     59  C   UNL A   1      39.237  27.752  29.819  1.00  0.00     0.001 A 
ATOM     60  C   UNL A   1      38.693  29.008  27.829  1.00  0.00     0.001 A 
ATOM     61  C   UNL A   1      38.296  28.397  29.017  1.00  0.00     0.000 A 
ENDBRANCH  37  56
BRANCH  49  62
ATOM     62  C   UNL A   1      46.343  32.684  29.124  1.00  0.00    -0.014 A 
ATOM     63  C   UNL A   1      46.097  33.852  28.389  1.00  0.00     0.009 A 
ATOM     64  C   UNL A   1      46.642  32.786  30.492  1.00  0.00     0.009 A 
ATOM     65  C   UNL A   1      46.168  35.101  29.008  1.00  0.00     0.001 A 
ATOM     66  C   UNL A   1      46.692  34.034  31.113  1.00  0.00     0.001 A 
ATOM     67  C   UNL A   1      46.460  35.191  30.370  1.00  0.00     0.000 A 
ENDBRANCH  49  62
ENDBRANCH  23  24
ENDBRANCH  16  18
ENDBRANCH  15  16
ENDBRANCH  14  15
ENDBRANCH   1  14
TORSDOF 15
ENDMDL
