MODEL 1
REMARK VINA RESULT:     -12.4      0.000      0.000
REMARK SMILES Cc1c(CCC(=O)N2CCC(C(=O)OCCOC(=O)c3ccc(-c4c5nc(c(-c6ccccc6)c6ccc([nH]6)c(-c6ccccc6)c6nc(c(-c7ccccc7)c7ccc4[nH]7)C=C6)C=C5)cc3)CC2)c(=O)oc2cc3oc4c(c3cc12)CCCC4
REMARK SMILES IDX 15 1 14 2 12 3 13 4 11 5 6 6 7 7 8 8 9 9 69 10 10 11 68 12
REMARK SMILES IDX 5 13 4 14 3 15 1 16 2 17 81 18 70 19 73 20 80 21 71 22 72 23
REMARK SMILES IDX 74 24 79 25 75 26 78 27 76 28 77 29 82 30 85 31 83 32 84 33
REMARK SMILES IDX 16 34 17 35 18 36 19 37 20 38 21 39 67 40 22 41 66 42 23 43
REMARK SMILES IDX 24 44 25 45 60 46 26 47 65 48 59 49 61 50 27 51 64 52 58 53
REMARK SMILES IDX 57 54 28 56 50 57 35 58 49 59 36 60 39 61 48 62 62 63 37 64
REMARK SMILES IDX 38 65 47 67 63 68 40 69 29 70 30 71 34 72 31 73 33 74 32 75
REMARK SMILES IDX 51 76 52 77 56 78 53 79 55 80 54 81 41 82 42 83 46 84 43 85
REMARK SMILES IDX 45 86 44 87
REMARK H PARENT 61 55 39 66
REMARK Flexibility Score: inf
ROOT
ATOM      1  C   UNL A   1      36.367  20.325  25.013  1.00  0.00     0.274 C 
ENDROOT
BRANCH   1   2
ATOM      2  O   UNL A   1      35.032  20.804  25.254  1.00  0.00    -0.462 OA
BRANCH   2   3
ATOM      3  C   UNL A   1      34.013  20.128  24.640  1.00  0.00     0.309 C 
ATOM      4  O   UNL A   1      34.007  18.922  24.444  1.00  0.00    -0.252 OA
BRANCH   3   5
ATOM      5  C   UNL A   1      32.928  21.103  24.198  1.00  0.00     0.103 C 
ATOM      6  C   UNL A   1      31.505  24.935  24.819  1.00  0.00     0.222 C 
ATOM      7  O   UNL A   1      31.446  25.087  26.041  1.00  0.00    -0.275 OA
ATOM      8  N   UNL A   1      31.478  23.658  24.251  1.00  0.00    -0.343 N 
ATOM      9  C   UNL A   1      30.850  22.492  24.891  1.00  0.00     0.120 C 
ATOM     10  C   UNL A   1      32.423  23.303  23.234  1.00  0.00     0.120 C 
ATOM     11  C   UNL A   1      31.814  21.323  25.232  1.00  0.00     0.037 C 
ATOM     12  C   UNL A   1      33.521  22.470  23.899  1.00  0.00     0.037 C 
BRANCH   6  13
ATOM     13  C   UNL A   1      31.424  26.174  23.868  1.00  0.00     0.105 C 
BRANCH  13  14
ATOM     14  C   UNL A   1      32.562  27.228  23.742  1.00  0.00     0.053 C 
BRANCH  14  15
ATOM     15  C   UNL A   1      32.619  28.248  24.866  1.00  0.00     0.042 A 
ATOM     16  C   UNL A   1      34.104  26.810  26.337  1.00  0.00     0.046 C 
ATOM     17  C   UNL A   1      33.432  28.083  25.916  1.00  0.00    -0.030 A 
ATOM     18  C   UNL A   1      33.857  29.329  26.522  1.00  0.00     0.022 A 
ATOM     19  C   UNL A   1      31.699  29.442  24.903  1.00  0.00     0.339 A 
ATOM     20  C   UNL A   1      32.949  30.323  26.784  1.00  0.00     0.142 A 
ATOM     21  C   UNL A   1      35.192  29.556  26.773  1.00  0.00     0.024 A 
ATOM     22  O   UNL A   1      30.869  29.629  24.021  1.00  0.00    -0.246 OA
ATOM     23  O   UNL A   1      31.743  30.263  26.062  1.00  0.00    -0.422 OA
ATOM     24  C   UNL A   1      33.243  31.334  27.716  1.00  0.00     0.095 A 
ATOM     25  C   UNL A   1      35.570  30.594  27.595  1.00  0.00     0.025 A 
ATOM     26  C   UNL A   1      34.570  31.347  28.187  1.00  0.00     0.138 A 
ATOM     27  C   UNL A   1      36.777  30.809  28.268  1.00  0.00     0.001 A 
ATOM     28  O   UNL A   1      35.090  31.880  29.345  1.00  0.00    -0.461 OA
ATOM     29  C   UNL A   1      36.368  31.396  29.440  1.00  0.00     0.108 A 
ATOM     30  C   UNL A   1      37.987  29.947  28.259  1.00  0.00     0.040 C 
ATOM     31  C   UNL A   1      36.938  30.878  30.720  1.00  0.00     0.076 C 
ATOM     32  C   UNL A   1      37.844  28.873  29.348  1.00  0.00     0.005 C 
ATOM     33  C   UNL A   1      37.001  29.334  30.574  1.00  0.00     0.008 C 
ENDBRANCH  14  15
ENDBRANCH  13  14
ENDBRANCH   6  13
ENDBRANCH   3   5
ENDBRANCH   2   3
ENDBRANCH   1   2
BRANCH   1  34
ATOM     34  C   UNL A   1      37.278  21.426  24.468  1.00  0.00     0.275 C 
BRANCH  34  35
ATOM     35  O   UNL A   1      38.105  21.997  25.502  1.00  0.00    -0.458 OA
BRANCH  35  36
ATOM     36  C   UNL A   1      37.682  23.180  26.038  1.00  0.00     0.338 C 
ATOM     37  O   UNL A   1      36.554  23.585  26.114  1.00  0.00    -0.246 OA
BRANCH  36  38
ATOM     38  C   UNL A   1      38.854  23.818  26.699  1.00  0.00     0.060 A 
ATOM     39  C   UNL A   1      38.744  25.014  27.409  1.00  0.00     0.016 A 
ATOM     40  C   UNL A   1      40.113  23.268  26.456  1.00  0.00     0.016 A 
ATOM     41  C   UNL A   1      39.901  25.701  27.801  1.00  0.00     0.010 A 
ATOM     42  C   UNL A   1      41.264  23.986  26.802  1.00  0.00     0.010 A 
ATOM     43  C   UNL A   1      41.184  25.227  27.458  1.00  0.00    -0.014 A 
BRANCH  43  44
ATOM     44  C   UNL A   1      42.408  25.985  27.885  1.00  0.00     0.031 A 
ATOM     45  C   UNL A   1      42.166  27.306  28.586  1.00  0.00     0.074 A 
ATOM     46  C   UNL A   1      43.539  25.314  28.207  1.00  0.00     0.049 A 
ATOM     47  N   UNL A   1      42.031  27.513  29.869  1.00  0.00    -0.248 NA
ATOM     48  C   UNL A   1      41.810  28.468  27.766  1.00  0.00     0.031 C 
ATOM     49  C   UNL A   1      43.553  24.245  29.199  1.00  0.00     0.029 A 
ATOM     50  N   UNL A   1      44.876  25.589  28.009  1.00  0.00    -0.354 N 
ATOM     51  C   UNL A   1      41.546  28.812  30.027  1.00  0.00     0.074 A 
ATOM     52  C   UNL A   1      41.412  29.350  28.690  1.00  0.00     0.031 C 
ATOM     53  C   UNL A   1      44.807  24.016  29.621  1.00  0.00     0.029 A 
ATOM     54  C   UNL A   1      45.713  24.883  28.880  1.00  0.00     0.049 A 
ATOM     55  H   UNL A   1      45.207  26.217  27.327  1.00  0.00     0.167 HD
ATOM     56  C   UNL A   1      41.279  29.430  31.215  1.00  0.00     0.031 A 
ATOM     57  C   UNL A   1      46.904  25.336  29.364  1.00  0.00     0.031 A 
ATOM     58  C   UNL A   1      41.601  28.723  32.414  1.00  0.00     0.049 A 
ATOM     59  C   UNL A   1      46.433  26.184  30.523  1.00  0.00     0.074 A 
ATOM     60  C   UNL A   1      40.982  28.255  33.551  1.00  0.00     0.029 A 
ATOM     61  N   UNL A   1      42.925  28.593  32.736  1.00  0.00    -0.354 N 
ATOM     62  N   UNL A   1      46.061  25.786  31.712  1.00  0.00    -0.248 NA
ATOM     63  C   UNL A   1      45.995  27.529  30.157  1.00  0.00     0.031 C 
ATOM     64  C   UNL A   1      41.929  27.367  34.164  1.00  0.00     0.029 A 
ATOM     65  C   UNL A   1      43.086  27.405  33.388  1.00  0.00     0.049 A 
ATOM     66  H   UNL A   1      43.637  29.242  32.531  1.00  0.00     0.167 HD
ATOM     67  C   UNL A   1      45.108  26.720  32.134  1.00  0.00     0.074 A 
ATOM     68  C   UNL A   1      45.104  27.746  31.109  1.00  0.00     0.031 C 
ATOM     69  C   UNL A   1      44.239  26.551  33.177  1.00  0.00     0.031 A 
BRANCH  56  70
ATOM     70  C   UNL A   1      40.843  30.845  31.343  1.00  0.00    -0.014 A 
ATOM     71  C   UNL A   1      40.816  31.737  30.266  1.00  0.00     0.009 A 
ATOM     72  C   UNL A   1      40.261  31.237  32.562  1.00  0.00     0.009 A 
ATOM     73  C   UNL A   1      40.204  32.991  30.411  1.00  0.00     0.001 A 
ATOM     74  C   UNL A   1      39.645  32.477  32.702  1.00  0.00     0.001 A 
ATOM     75  C   UNL A   1      39.613  33.354  31.623  1.00  0.00     0.000 A 
ENDBRANCH  56  70
BRANCH  57  76
ATOM     76  C   UNL A   1      47.882  25.813  28.337  1.00  0.00    -0.014 A 
ATOM     77  C   UNL A   1      48.828  26.831  28.525  1.00  0.00     0.009 A 
ATOM     78  C   UNL A   1      47.830  25.209  27.066  1.00  0.00     0.009 A 
ATOM     79  C   UNL A   1      49.572  27.333  27.450  1.00  0.00     0.001 A 
ATOM     80  C   UNL A   1      48.598  25.683  26.000  1.00  0.00     0.001 A 
ATOM     81  C   UNL A   1      49.443  26.771  26.184  1.00  0.00     0.000 A 
ENDBRANCH  57  76
BRANCH  69  82
ATOM     82  C   UNL A   1      44.362  25.300  33.995  1.00  0.00    -0.014 A 
ATOM     83  C   UNL A   1      43.719  24.125  33.572  1.00  0.00     0.009 A 
ATOM     84  C   UNL A   1      45.029  25.280  35.222  1.00  0.00     0.009 A 
ATOM     85  C   UNL A   1      43.717  22.967  34.351  1.00  0.00     0.001 A 
ATOM     86  C   UNL A   1      45.033  24.121  36.007  1.00  0.00     0.001 A 
ATOM     87  C   UNL A   1      44.374  22.968  35.576  1.00  0.00     0.000 A 
ENDBRANCH  69  82
ENDBRANCH  43  44
ENDBRANCH  36  38
ENDBRANCH  35  36
ENDBRANCH  34  35
ENDBRANCH   1  34
TORSDOF 14
ENDMDL
MODEL 2
REMARK VINA RESULT:     -11.8      4.316      9.630
REMARK SMILES Cc1c(CCC(=O)N2CCC(C(=O)OCCOC(=O)c3ccc(-c4c5nc(c(-c6ccccc6)c6ccc([nH]6)c(-c6ccccc6)c6nc(c(-c7ccccc7)c7ccc4[nH]7)C=C6)C=C5)cc3)CC2)c(=O)oc2cc3oc4c(c3cc12)CCCC4
REMARK SMILES IDX 15 1 14 2 12 3 13 4 11 5 6 6 7 7 8 8 9 9 69 10 10 11 68 12
REMARK SMILES IDX 5 13 4 14 3 15 1 16 2 17 81 18 70 19 73 20 80 21 71 22 72 23
REMARK SMILES IDX 74 24 79 25 75 26 78 27 76 28 77 29 82 30 85 31 83 32 84 33
REMARK SMILES IDX 16 34 17 35 18 36 19 37 20 38 21 39 67 40 22 41 66 42 23 43
REMARK SMILES IDX 24 44 25 45 60 46 26 47 65 48 59 49 61 50 27 51 64 52 58 53
REMARK SMILES IDX 57 54 28 56 50 57 35 58 49 59 36 60 39 61 48 62 62 63 37 64
REMARK SMILES IDX 38 65 47 67 63 68 40 69 29 70 30 71 34 72 31 73 33 74 32 75
REMARK SMILES IDX 51 76 52 77 56 78 53 79 55 80 54 81 41 82 42 83 46 84 43 85
REMARK SMILES IDX 45 86 44 87
REMARK H PARENT 61 55 39 66
REMARK Flexibility Score: inf
ROOT
ATOM      1  C   UNL A   1      42.178  18.747  26.083  1.00  0.00     0.274 C 
ENDROOT
BRANCH   1   2
ATOM      2  O   UNL A   1      42.692  19.357  24.886  1.00  0.00    -0.462 OA
BRANCH   2   3
ATOM      3  C   UNL A   1      44.054  19.440  24.772  1.00  0.00     0.309 C 
ATOM      4  O   UNL A   1      44.801  18.474  24.727  1.00  0.00    -0.252 OA
BRANCH   3   5
ATOM      5  C   UNL A   1      44.490  20.901  24.762  1.00  0.00     0.103 C 
ATOM      6  C   UNL A   1      45.820  23.948  27.218  1.00  0.00     0.222 C 
ATOM      7  O   UNL A   1      45.070  23.955  28.196  1.00  0.00    -0.275 OA
ATOM      8  N   UNL A   1      45.408  23.402  25.999  1.00  0.00    -0.343 N 
ATOM      9  C   UNL A   1      44.002  23.314  25.577  1.00  0.00     0.120 C 
ATOM     10  C   UNL A   1      46.269  22.508  25.283  1.00  0.00     0.120 C 
ATOM     11  C   UNL A   1      43.464  21.873  25.361  1.00  0.00     0.037 C 
ATOM     12  C   UNL A   1      45.777  21.085  25.550  1.00  0.00     0.037 C 
BRANCH   6  13
ATOM     13  C   UNL A   1      47.182  24.717  27.266  1.00  0.00     0.105 C 
BRANCH  13  14
ATOM     14  C   UNL A   1      47.284  26.269  27.293  1.00  0.00     0.053 C 
BRANCH  14  15
ATOM     15  C   UNL A   1      47.399  26.928  25.929  1.00  0.00     0.042 A 
ATOM     16  C   UNL A   1      49.786  27.702  26.305  1.00  0.00     0.046 C 
ATOM     17  C   UNL A   1      48.566  27.408  25.483  1.00  0.00    -0.030 A 
ATOM     18  C   UNL A   1      48.685  27.398  24.039  1.00  0.00     0.022 A 
ATOM     19  C   UNL A   1      46.194  27.159  25.054  1.00  0.00     0.339 A 
ATOM     20  C   UNL A   1      47.658  27.855  23.251  1.00  0.00     0.142 A 
ATOM     21  C   UNL A   1      49.802  26.859  23.441  1.00  0.00     0.024 A 
ATOM     22  O   UNL A   1      45.073  26.820  25.418  1.00  0.00    -0.246 OA
ATOM     23  O   UNL A   1      46.389  27.900  23.857  1.00  0.00    -0.422 OA
ATOM     24  C   UNL A   1      47.894  28.234  21.919  1.00  0.00     0.095 A 
ATOM     25  C   UNL A   1      50.051  27.099  22.108  1.00  0.00     0.025 A 
ATOM     26  C   UNL A   1      49.177  27.931  21.427  1.00  0.00     0.138 A 
ATOM     27  C   UNL A   1      51.241  26.977  21.383  1.00  0.00     0.001 A 
ATOM     28  O   UNL A   1      49.877  28.490  20.381  1.00  0.00    -0.461 OA
ATOM     29  C   UNL A   1      51.158  28.017  20.491  1.00  0.00     0.108 A 
ATOM     30  C   UNL A   1      52.568  26.541  21.886  1.00  0.00     0.040 C 
ATOM     31  C   UNL A   1      52.355  28.895  20.325  1.00  0.00     0.076 C 
ATOM     32  C   UNL A   1      53.314  27.761  22.450  1.00  0.00     0.005 C 
ATOM     33  C   UNL A   1      52.944  29.100  21.746  1.00  0.00     0.008 C 
ENDBRANCH  14  15
ENDBRANCH  13  14
ENDBRANCH   6  13
ENDBRANCH   3   5
ENDBRANCH   2   3
ENDBRANCH   1   2
BRANCH   1  34
ATOM     34  C   UNL A   1      40.838  19.355  26.502  1.00  0.00     0.275 C 
BRANCH  34  35
ATOM     35  O   UNL A   1      40.965  20.753  26.835  1.00  0.00    -0.458 OA
BRANCH  35  36
ATOM     36  C   UNL A   1      39.897  21.550  26.538  1.00  0.00     0.338 C 
ATOM     37  O   UNL A   1      38.810  21.205  26.164  1.00  0.00    -0.246 OA
BRANCH  36  38
ATOM     38  C   UNL A   1      40.249  22.940  26.942  1.00  0.00     0.060 A 
ATOM     39  C   UNL A   1      39.861  24.050  26.190  1.00  0.00     0.016 A 
ATOM     40  C   UNL A   1      41.121  23.100  28.020  1.00  0.00     0.016 A 
ATOM     41  C   UNL A   1      40.417  25.307  26.468  1.00  0.00     0.010 A 
ATOM     42  C   UNL A   1      41.711  24.348  28.256  1.00  0.00     0.010 A 
ATOM     43  C   UNL A   1      41.392  25.470  27.472  1.00  0.00    -0.014 A 
BRANCH  43  44
ATOM     44  C   UNL A   1      41.975  26.827  27.745  1.00  0.00     0.031 A 
ATOM     45  C   UNL A   1      40.990  27.976  27.816  1.00  0.00     0.074 A 
ATOM     46  C   UNL A   1      43.108  26.940  28.478  1.00  0.00     0.049 A 
ATOM     47  N   UNL A   1      40.369  28.428  28.872  1.00  0.00    -0.248 NA
ATOM     48  C   UNL A   1      40.474  28.521  26.556  1.00  0.00     0.031 C 
ATOM     49  C   UNL A   1      43.240  26.344  29.802  1.00  0.00     0.029 A 
ATOM     50  N   UNL A   1      44.193  27.788  28.395  1.00  0.00    -0.354 N 
ATOM     51  C   UNL A   1      39.365  29.287  28.424  1.00  0.00     0.074 A 
ATOM     52  C   UNL A   1      39.466  29.293  26.980  1.00  0.00     0.031 C 
ATOM     53  C   UNL A   1      44.260  26.907  30.469  1.00  0.00     0.029 A 
ATOM     54  C   UNL A   1      44.911  27.873  29.593  1.00  0.00     0.049 A 
ATOM     55  H   UNL A   1      44.435  28.283  27.579  1.00  0.00     0.167 HD
ATOM     56  C   UNL A   1      38.492  29.981  29.211  1.00  0.00     0.031 A 
ATOM     57  C   UNL A   1      45.574  28.979  30.034  1.00  0.00     0.031 A 
ATOM     58  C   UNL A   1      38.667  29.895  30.627  1.00  0.00     0.049 A 
ATOM     59  C   UNL A   1      44.442  29.751  30.672  1.00  0.00     0.074 A 
ATOM     60  C   UNL A   1      37.964  29.509  31.746  1.00  0.00     0.029 A 
ATOM     61  N   UNL A   1      39.739  30.548  31.173  1.00  0.00    -0.354 N 
ATOM     62  N   UNL A   1      43.902  29.562  31.848  1.00  0.00    -0.248 NA
ATOM     63  C   UNL A   1      43.630  30.529  29.738  1.00  0.00     0.031 C 
ATOM     64  C   UNL A   1      38.936  29.430  32.799  1.00  0.00     0.029 A 
ATOM     65  C   UNL A   1      40.156  29.836  32.261  1.00  0.00     0.049 A 
ATOM     66  H   UNL A   1      40.139  31.383  30.840  1.00  0.00     0.167 HD
ATOM     67  C   UNL A   1      42.567  29.958  31.711  1.00  0.00     0.074 A 
ATOM     68  C   UNL A   1      42.472  30.515  30.375  1.00  0.00     0.031 C 
ATOM     69  C   UNL A   1      41.558  29.664  32.588  1.00  0.00     0.031 A 
BRANCH  56  70
ATOM     70  C   UNL A   1      37.492  30.952  28.696  1.00  0.00    -0.014 A 
ATOM     71  C   UNL A   1      36.300  30.566  28.074  1.00  0.00     0.009 A 
ATOM     72  C   UNL A   1      37.678  32.308  29.020  1.00  0.00     0.009 A 
ATOM     73  C   UNL A   1      35.313  31.522  27.797  1.00  0.00     0.001 A 
ATOM     74  C   UNL A   1      36.692  33.255  28.755  1.00  0.00     0.001 A 
ATOM     75  C   UNL A   1      35.506  32.861  28.146  1.00  0.00     0.000 A 
ENDBRANCH  56  70
BRANCH  57  76
ATOM     76  C   UNL A   1      46.541  29.584  29.066  1.00  0.00    -0.014 A 
ATOM     77  C   UNL A   1      47.861  29.959  29.360  1.00  0.00     0.009 A 
ATOM     78  C   UNL A   1      46.080  29.825  27.757  1.00  0.00     0.009 A 
ATOM     79  C   UNL A   1      48.627  30.686  28.441  1.00  0.00     0.001 A 
ATOM     80  C   UNL A   1      46.856  30.519  26.825  1.00  0.00     0.001 A 
ATOM     81  C   UNL A   1      48.117  30.982  27.181  1.00  0.00     0.000 A 
ENDBRANCH  57  76
BRANCH  69  82
ATOM     82  C   UNL A   1      41.915  28.927  33.844  1.00  0.00    -0.014 A 
ATOM     83  C   UNL A   1      41.876  27.524  33.863  1.00  0.00     0.009 A 
ATOM     84  C   UNL A   1      42.204  29.595  35.037  1.00  0.00     0.009 A 
ATOM     85  C   UNL A   1      42.098  26.799  35.035  1.00  0.00     0.001 A 
ATOM     86  C   UNL A   1      42.429  28.873  36.215  1.00  0.00     0.001 A 
ATOM     87  C   UNL A   1      42.371  27.478  36.216  1.00  0.00     0.000 A 
ENDBRANCH  69  82
ENDBRANCH  43  44
ENDBRANCH  36  38
ENDBRANCH  35  36
ENDBRANCH  34  35
ENDBRANCH   1  34
TORSDOF 14
ENDMDL
MODEL 3
REMARK VINA RESULT:     -11.6      5.157     10.148
REMARK SMILES Cc1c(CCC(=O)N2CCC(C(=O)OCCOC(=O)c3ccc(-c4c5nc(c(-c6ccccc6)c6ccc([nH]6)c(-c6ccccc6)c6nc(c(-c7ccccc7)c7ccc4[nH]7)C=C6)C=C5)cc3)CC2)c(=O)oc2cc3oc4c(c3cc12)CCCC4
REMARK SMILES IDX 15 1 14 2 12 3 13 4 11 5 6 6 7 7 8 8 9 9 69 10 10 11 68 12
REMARK SMILES IDX 5 13 4 14 3 15 1 16 2 17 81 18 70 19 73 20 80 21 71 22 72 23
REMARK SMILES IDX 74 24 79 25 75 26 78 27 76 28 77 29 82 30 85 31 83 32 84 33
REMARK SMILES IDX 16 34 17 35 18 36 19 37 20 38 21 39 67 40 22 41 66 42 23 43
REMARK SMILES IDX 24 44 25 45 60 46 26 47 65 48 59 49 61 50 27 51 64 52 58 53
REMARK SMILES IDX 57 54 28 56 50 57 35 58 49 59 36 60 39 61 48 62 62 63 37 64
REMARK SMILES IDX 38 65 47 67 63 68 40 69 29 70 30 71 34 72 31 73 33 74 32 75
REMARK SMILES IDX 51 76 52 77 56 78 53 79 55 80 54 81 41 82 42 83 46 84 43 85
REMARK SMILES IDX 45 86 44 87
REMARK H PARENT 61 55 39 66
REMARK Flexibility Score: inf
ROOT
ATOM      1  C   UNL A   1      47.119  25.229  37.763  1.00  0.00     0.274 C 
ENDROOT
BRANCH   1   2
ATOM      2  O   UNL A   1      46.475  26.302  37.053  1.00  0.00    -0.462 OA
BRANCH   2   3
ATOM      3  C   UNL A   1      45.308  26.780  37.584  1.00  0.00     0.309 C 
ATOM      4  O   UNL A   1      45.187  27.178  38.733  1.00  0.00    -0.252 OA
BRANCH   3   5
ATOM      5  C   UNL A   1      44.188  26.693  36.553  1.00  0.00     0.103 C 
ATOM      6  C   UNL A   1      41.041  28.829  34.933  1.00  0.00     0.222 C 
ATOM      7  O   UNL A   1      40.419  29.302  35.887  1.00  0.00    -0.275 OA
ATOM      8  N   UNL A   1      41.847  27.698  35.091  1.00  0.00    -0.343 N 
ATOM      9  C   UNL A   1      41.630  26.678  36.128  1.00  0.00     0.120 C 
ATOM     10  C   UNL A   1      43.172  27.678  34.548  1.00  0.00     0.120 C 
ATOM     11  C   UNL A   1      42.786  26.519  37.153  1.00  0.00     0.037 C 
ATOM     12  C   UNL A   1      44.143  27.949  35.698  1.00  0.00     0.037 C 
BRANCH   6  13
ATOM     13  C   UNL A   1      40.797  29.374  33.487  1.00  0.00     0.105 C 
BRANCH  13  14
ATOM     14  C   UNL A   1      41.281  30.774  33.010  1.00  0.00     0.053 C 
BRANCH  14  15
ATOM     15  C   UNL A   1      40.209  31.849  32.984  1.00  0.00     0.042 A 
ATOM     16  C   UNL A   1      40.004  31.833  30.455  1.00  0.00     0.046 C 
ATOM     17  C   UNL A   1      39.571  32.169  31.852  1.00  0.00    -0.030 A 
ATOM     18  C   UNL A   1      38.229  32.674  32.063  1.00  0.00     0.022 A 
ATOM     19  C   UNL A   1      39.876  32.671  34.203  1.00  0.00     0.339 A 
ATOM     20  C   UNL A   1      37.985  33.623  33.024  1.00  0.00     0.142 A 
ATOM     21  C   UNL A   1      37.173  32.151  31.352  1.00  0.00     0.024 A 
ATOM     22  O   UNL A   1      40.467  32.497  35.263  1.00  0.00    -0.246 OA
ATOM     23  O   UNL A   1      38.952  33.738  34.038  1.00  0.00    -0.422 OA
ATOM     24  C   UNL A   1      36.819  34.408  32.974  1.00  0.00     0.095 A 
ATOM     25  C   UNL A   1      35.963  32.808  31.336  1.00  0.00     0.025 A 
ATOM     26  C   UNL A   1      35.874  34.016  32.007  1.00  0.00     0.138 A 
ATOM     27  C   UNL A   1      34.891  32.687  30.445  1.00  0.00     0.001 A 
ATOM     28  O   UNL A   1      34.870  34.743  31.408  1.00  0.00    -0.461 OA
ATOM     29  C   UNL A   1      34.417  33.974  30.369  1.00  0.00     0.108 A 
ATOM     30  C   UNL A   1      34.789  31.793  29.264  1.00  0.00     0.040 C 
ATOM     31  C   UNL A   1      34.138  34.538  29.014  1.00  0.00     0.076 C 
ATOM     32  C   UNL A   1      35.411  32.497  28.049  1.00  0.00     0.005 C 
ATOM     33  C   UNL A   1      35.288  34.049  28.093  1.00  0.00     0.008 C 
ENDBRANCH  14  15
ENDBRANCH  13  14
ENDBRANCH   6  13
ENDBRANCH   3   5
ENDBRANCH   2   3
ENDBRANCH   1   2
BRANCH   1  34
ATOM     34  C   UNL A   1      46.513  23.868  37.411  1.00  0.00     0.275 C 
BRANCH  34  35
ATOM     35  O   UNL A   1      46.656  23.566  36.008  1.00  0.00    -0.458 OA
BRANCH  35  36
ATOM     36  C   UNL A   1      45.510  23.258  35.331  1.00  0.00     0.338 C 
ATOM     37  O   UNL A   1      44.668  22.463  35.646  1.00  0.00    -0.246 OA
BRANCH  36  38
ATOM     38  C   UNL A   1      45.378  24.227  34.208  1.00  0.00     0.060 A 
ATOM     39  C   UNL A   1      44.321  24.168  33.299  1.00  0.00     0.016 A 
ATOM     40  C   UNL A   1      46.436  25.111  33.987  1.00  0.00     0.016 A 
ATOM     41  C   UNL A   1      44.367  24.935  32.126  1.00  0.00     0.010 A 
ATOM     42  C   UNL A   1      46.500  25.833  32.789  1.00  0.00     0.010 A 
ATOM     43  C   UNL A   1      45.483  25.741  31.823  1.00  0.00    -0.014 A 
BRANCH  43  44
ATOM     44  C   UNL A   1      45.509  26.549  30.557  1.00  0.00     0.031 A 
ATOM     45  C   UNL A   1      45.306  25.779  29.268  1.00  0.00     0.074 A 
ATOM     46  C   UNL A   1      45.109  27.842  30.573  1.00  0.00     0.049 A 
ATOM     47  N   UNL A   1      44.177  25.530  28.660  1.00  0.00    -0.248 NA
ATOM     48  C   UNL A   1      46.439  25.018  28.732  1.00  0.00     0.031 C 
ATOM     49  C   UNL A   1      43.809  28.247  31.096  1.00  0.00     0.029 A 
ATOM     50  N   UNL A   1      45.554  28.966  29.908  1.00  0.00    -0.354 N 
ATOM     51  C   UNL A   1      44.438  24.564  27.687  1.00  0.00     0.074 A 
ATOM     52  C   UNL A   1      45.852  24.271  27.789  1.00  0.00     0.031 C 
ATOM     53  C   UNL A   1      43.489  29.473  30.654  1.00  0.00     0.029 A 
ATOM     54  C   UNL A   1      44.597  29.985  29.858  1.00  0.00     0.049 A 
ATOM     55  H   UNL A   1      46.451  29.041  29.510  1.00  0.00     0.167 HD
ATOM     56  C   UNL A   1      43.528  24.034  26.818  1.00  0.00     0.031 A 
ATOM     57  C   UNL A   1      44.457  30.881  28.840  1.00  0.00     0.031 A 
ATOM     58  C   UNL A   1      42.204  24.571  26.839  1.00  0.00     0.049 A 
ATOM     59  C   UNL A   1      43.632  30.074  27.865  1.00  0.00     0.074 A 
ATOM     60  C   UNL A   1      40.908  24.151  27.040  1.00  0.00     0.029 A 
ATOM     61  N   UNL A   1      42.022  25.826  26.325  1.00  0.00    -0.354 N 
ATOM     62  N   UNL A   1      42.343  29.851  27.893  1.00  0.00    -0.248 NA
ATOM     63  C   UNL A   1      44.401  29.150  27.033  1.00  0.00     0.031 C 
ATOM     64  C   UNL A   1      40.138  25.352  27.199  1.00  0.00     0.029 A 
ATOM     65  C   UNL A   1      41.011  26.424  27.021  1.00  0.00     0.049 A 
ATOM     66  H   UNL A   1      42.531  26.227  25.584  1.00  0.00     0.167 HD
ATOM     67  C   UNL A   1      42.172  28.592  27.306  1.00  0.00     0.074 A 
ATOM     68  C   UNL A   1      43.489  28.215  26.828  1.00  0.00     0.031 C 
ATOM     69  C   UNL A   1      41.040  27.827  27.384  1.00  0.00     0.031 A 
BRANCH  56  70
ATOM     70  C   UNL A   1      43.865  23.068  25.740  1.00  0.00    -0.014 A 
ATOM     71  C   UNL A   1      44.442  23.449  24.524  1.00  0.00     0.009 A 
ATOM     72  C   UNL A   1      43.764  21.698  26.042  1.00  0.00     0.009 A 
ATOM     73  C   UNL A   1      44.920  22.471  23.640  1.00  0.00     0.001 A 
ATOM     74  C   UNL A   1      44.249  20.728  25.169  1.00  0.00     0.001 A 
ATOM     75  C   UNL A   1      44.831  21.116  23.967  1.00  0.00     0.000 A 
ENDBRANCH  56  70
BRANCH  57  76
ATOM     76  C   UNL A   1      45.698  31.622  28.454  1.00  0.00    -0.014 A 
ATOM     77  C   UNL A   1      46.749  31.959  29.320  1.00  0.00     0.009 A 
ATOM     78  C   UNL A   1      45.808  32.044  27.114  1.00  0.00     0.009 A 
ATOM     79  C   UNL A   1      47.779  32.813  28.908  1.00  0.00     0.001 A 
ATOM     80  C   UNL A   1      46.854  32.866  26.691  1.00  0.00     0.001 A 
ATOM     81  C   UNL A   1      47.821  33.282  27.599  1.00  0.00     0.000 A 
ENDBRANCH  57  76
BRANCH  69  82
ATOM     82  C   UNL A   1      39.849  28.410  28.085  1.00  0.00    -0.014 A 
ATOM     83  C   UNL A   1      39.576  28.046  29.413  1.00  0.00     0.009 A 
ATOM     84  C   UNL A   1      38.941  29.245  27.430  1.00  0.00     0.009 A 
ATOM     85  C   UNL A   1      38.424  28.480  30.072  1.00  0.00     0.001 A 
ATOM     86  C   UNL A   1      37.784  29.685  28.086  1.00  0.00     0.001 A 
ATOM     87  C   UNL A   1      37.523  29.299  29.402  1.00  0.00     0.000 A 
ENDBRANCH  69  82
ENDBRANCH  43  44
ENDBRANCH  36  38
ENDBRANCH  35  36
ENDBRANCH  34  35
ENDBRANCH   1  34
TORSDOF 14
ENDMDL
