MODEL 1
REMARK VINA RESULT:     -11.6      0.000      0.000
REMARK SMILES C[C@H](Nc1ncccc1C(=O)OCCOC(=O)c1ccc(-c2c3nc(c(-c4ccccc4)c4ccc([nH]4)c(-c4ccccc4)c4nc(c(-c5ccccc5)c5ccc2[nH]5)C=C4)C=C3)cc1)c1ccc(Cl)cc1
REMARK SMILES IDX 13 1 12 2 10 3 11 4 9 5 4 6 5 7 6 8 8 9 7 10 3 11 2 13 1 14
REMARK SMILES IDX 66 15 67 16 72 17 68 18 71 19 69 20 70 21 14 22 15 23 16 24
REMARK SMILES IDX 17 25 18 26 19 27 65 28 20 29 64 30 21 31 22 32 23 33 58 34
REMARK SMILES IDX 24 35 63 36 57 37 59 38 25 39 62 40 56 41 55 42 26 44 48 45
REMARK SMILES IDX 33 46 47 47 34 48 37 49 46 50 60 51 35 52 36 53 45 55 61 56
REMARK SMILES IDX 38 57 27 58 28 59 32 60 29 61 31 62 30 63 49 64 50 65 54 66
REMARK SMILES IDX 51 67 53 68 52 69 39 70 40 71 44 72 41 73 43 74 42 75
REMARK H PARENT 3 12 59 43 37 54
REMARK Flexibility Score: inf
ROOT
ATOM      1  C   UNL A   1      31.944  23.746  23.168  1.00  0.00     0.275 C 
ENDROOT
BRANCH   1   2
ATOM      2  O   UNL A   1      31.895  22.442  23.808  1.00  0.00    -0.458 OA
BRANCH   2   3
ATOM      3  C   UNL A   1      32.175  21.369  23.014  1.00  0.00     0.342 C 
ATOM      4  O   UNL A   1      31.808  21.231  21.859  1.00  0.00    -0.246 OA
BRANCH   3   5
ATOM      5  C   UNL A   1      32.858  20.293  23.771  1.00  0.00     0.102 A 
ATOM      6  C   UNL A   1      34.111  20.427  24.403  1.00  0.00     0.141 A 
ATOM      7  N   UNL A   1      34.831  19.331  24.745  1.00  0.00    -0.239 NA
ATOM      8  C   UNL A   1      34.281  18.109  24.571  1.00  0.00     0.113 A 
ATOM      9  C   UNL A   1      32.290  19.014  23.657  1.00  0.00     0.021 A 
ATOM     10  C   UNL A   1      33.004  17.904  24.084  1.00  0.00     0.021 A 
BRANCH   6  11
ATOM     11  N   UNL A   1      34.692  21.591  24.888  1.00  0.00    -0.363 N 
ATOM     12  H   UNL A   1      34.298  22.051  25.664  1.00  0.00     0.162 HD
BRANCH  11  13
ATOM     13  C   UNL A   1      35.896  22.137  24.243  1.00  0.00     0.108 C 
ATOM     14  C   UNL A   1      35.492  23.287  23.304  1.00  0.00     0.036 C 
BRANCH  13  15
ATOM     15  C   UNL A   1      37.193  22.500  25.256  1.00  0.00    -0.026 A 
ATOM     16  C   UNL A   1      37.831  24.099  26.342  1.00  0.00     0.007 A 
ATOM     17  C   UNL A   1      38.246  21.050  25.254  1.00  0.00     0.007 A 
ATOM     18  C   UNL A   1      39.396  24.011  27.228  1.00  0.00     0.021 A 
ATOM     19  C   UNL A   1      39.680  21.068  26.246  1.00  0.00     0.021 A 
ATOM     20  C   UNL A   1      40.275  22.501  27.155  1.00  0.00     0.041 A 
ATOM     21  Cl  UNL A   1      41.625  22.323  28.220  1.00  0.00    -0.084 Cl
ENDBRANCH  13  15
ENDBRANCH  11  13
ENDBRANCH   6  11
ENDBRANCH   3   5
ENDBRANCH   2   3
ENDBRANCH   1   2
BRANCH   1  22
ATOM     22  C   UNL A   1      30.669  24.572  23.333  1.00  0.00     0.275 C 
BRANCH  22  23
ATOM     23  O   UNL A   1      30.649  25.161  24.647  1.00  0.00    -0.458 OA
BRANCH  23  24
ATOM     24  C   UNL A   1      31.079  26.427  24.585  1.00  0.00     0.338 C 
ATOM     25  O   UNL A   1      30.573  27.307  23.888  1.00  0.00    -0.246 OA
BRANCH  24  26
ATOM     26  C   UNL A   1      32.263  26.797  25.386  1.00  0.00     0.060 A 
ATOM     27  C   UNL A   1      32.257  27.367  27.088  1.00  0.00     0.016 A 
ATOM     28  C   UNL A   1      33.377  27.362  24.217  1.00  0.00     0.016 A 
ATOM     29  C   UNL A   1      33.401  28.620  27.712  1.00  0.00     0.010 A 
ATOM     30  C   UNL A   1      34.567  28.548  24.695  1.00  0.00     0.010 A 
ATOM     31  C   UNL A   1      34.689  29.293  26.585  1.00  0.00    -0.014 A 
BRANCH  31  32
ATOM     32  C   UNL A   1      35.841  30.125  27.607  1.00  0.00     0.031 A 
ATOM     33  C   UNL A   1      37.402  29.843  27.862  1.00  0.00     0.074 A 
ATOM     34  C   UNL A   1      35.392  31.178  28.357  1.00  0.00     0.049 A 
ATOM     35  N   UNL A   1      38.396  30.543  28.400  1.00  0.00    -0.248 NA
ATOM     36  C   UNL A   1      37.942  28.557  27.464  1.00  0.00     0.031 C 
ATOM     37  C   UNL A   1      34.027  31.714  28.392  1.00  0.00     0.029 A 
ATOM     38  N   UNL A   1      36.043  32.007  29.261  1.00  0.00    -0.354 N 
ATOM     39  C   UNL A   1      39.564  29.737  28.258  1.00  0.00     0.074 A 
ATOM     40  C   UNL A   1      39.241  28.705  27.310  1.00  0.00     0.031 C 
ATOM     41  C   UNL A   1      33.970  32.824  29.135  1.00  0.00     0.029 A 
ATOM     42  C   UNL A   1      35.236  32.981  29.820  1.00  0.00     0.049 A 
ATOM     43  H   UNL A   1      36.997  31.909  29.485  1.00  0.00     0.167 HD
ATOM     44  C   UNL A   1      40.674  29.569  29.039  1.00  0.00     0.031 A 
ATOM     45  C   UNL A   1      35.420  33.857  30.830  1.00  0.00     0.031 A 
ATOM     46  C   UNL A   1      40.895  30.313  30.241  1.00  0.00     0.049 A 
ATOM     47  C   UNL A   1      36.704  33.800  31.597  1.00  0.00     0.074 A 
ATOM     48  C   UNL A   1      41.934  30.214  31.148  1.00  0.00     0.029 A 
ATOM     49  N   UNL A   1      39.997  31.237  30.739  1.00  0.00    -0.354 N 
ATOM     50  N   UNL A   1      37.724  32.996  31.428  1.00  0.00    -0.248 NA
ATOM     51  C   UNL A   1      36.854  34.746  32.710  1.00  0.00     0.031 C 
ATOM     52  C   UNL A   1      41.624  31.032  32.238  1.00  0.00     0.029 A 
ATOM     53  C   UNL A   1      40.459  31.720  31.942  1.00  0.00     0.049 A 
ATOM     54  H   UNL A   1      39.156  31.506  30.301  1.00  0.00     0.167 HD
ATOM     55  C   UNL A   1      38.640  33.340  32.409  1.00  0.00     0.074 A 
ATOM     56  C   UNL A   1      38.067  34.444  33.151  1.00  0.00     0.031 C 
ATOM     57  C   UNL A   1      39.849  32.793  32.674  1.00  0.00     0.031 A 
BRANCH  44  58
ATOM     58  C   UNL A   1      41.566  28.338  28.783  1.00  0.00    -0.014 A 
ATOM     59  C   UNL A   1      42.717  28.383  27.974  1.00  0.00     0.009 A 
ATOM     60  C   UNL A   1      41.158  27.074  29.262  1.00  0.00     0.009 A 
ATOM     61  C   UNL A   1      43.376  27.204  27.592  1.00  0.00     0.001 A 
ATOM     62  C   UNL A   1      41.847  25.903  28.920  1.00  0.00     0.001 A 
ATOM     63  C   UNL A   1      42.942  25.966  28.064  1.00  0.00     0.000 A 
ENDBRANCH  44  58
BRANCH  45  64
ATOM     64  C   UNL A   1      34.321  34.795  31.224  1.00  0.00    -0.014 A 
ATOM     65  C   UNL A   1      33.866  35.779  30.332  1.00  0.00     0.009 A 
ATOM     66  C   UNL A   1      33.674  34.671  32.467  1.00  0.00     0.009 A 
ATOM     67  C   UNL A   1      32.784  36.601  30.668  1.00  0.00     0.001 A 
ATOM     68  C   UNL A   1      32.566  35.466  32.783  1.00  0.00     0.001 A 
ATOM     69  C   UNL A   1      32.123  36.431  31.884  1.00  0.00     0.000 A 
ENDBRANCH  45  64
BRANCH  57  70
ATOM     70  C   UNL A   1      40.659  33.409  33.768  1.00  0.00    -0.014 A 
ATOM     71  C   UNL A   1      40.626  32.917  35.079  1.00  0.00     0.009 A 
ATOM     72  C   UNL A   1      41.515  34.472  33.447  1.00  0.00     0.009 A 
ATOM     73  C   UNL A   1      41.409  33.516  36.064  1.00  0.00     0.001 A 
ATOM     74  C   UNL A   1      42.320  35.046  34.424  1.00  0.00     0.001 A 
ATOM     75  C   UNL A   1      42.257  34.575  35.734  1.00  0.00     0.000 A 
ENDBRANCH  57  70
ENDBRANCH  31  32
ENDBRANCH  24  26
ENDBRANCH  23  24
ENDBRANCH  22  23
ENDBRANCH   1  22
TORSDOF 14
ENDMDL
MODEL 2
REMARK VINA RESULT:     -10.9      6.862     10.243
REMARK SMILES C[C@H](Nc1ncccc1C(=O)OCCOC(=O)c1ccc(-c2c3nc(c(-c4ccccc4)c4ccc([nH]4)c(-c4ccccc4)c4nc(c(-c5ccccc5)c5ccc2[nH]5)C=C4)C=C3)cc1)c1ccc(Cl)cc1
REMARK SMILES IDX 13 1 12 2 10 3 11 4 9 5 4 6 5 7 6 8 8 9 7 10 3 11 2 13 1 14
REMARK SMILES IDX 66 15 67 16 72 17 68 18 71 19 69 20 70 21 14 22 15 23 16 24
REMARK SMILES IDX 17 25 18 26 19 27 65 28 20 29 64 30 21 31 22 32 23 33 58 34
REMARK SMILES IDX 24 35 63 36 57 37 59 38 25 39 62 40 56 41 55 42 26 44 48 45
REMARK SMILES IDX 33 46 47 47 34 48 37 49 46 50 60 51 35 52 36 53 45 55 61 56
REMARK SMILES IDX 38 57 27 58 28 59 32 60 29 61 31 62 30 63 49 64 50 65 54 66
REMARK SMILES IDX 51 67 53 68 52 69 39 70 40 71 44 72 41 73 43 74 42 75
REMARK H PARENT 3 12 59 43 37 54
REMARK Flexibility Score: inf
ROOT
ATOM      1  C   UNL A   1      37.830  22.266  25.734  1.00  0.00     0.275 C 
ENDROOT
BRANCH   1   2
ATOM      2  O   UNL A   1      36.933  21.186  25.358  1.00  0.00    -0.458 OA
BRANCH   2   3
ATOM      3  C   UNL A   1      35.641  21.300  25.780  1.00  0.00     0.342 C 
ATOM      4  O   UNL A   1      35.254  22.032  26.675  1.00  0.00    -0.246 OA
BRANCH   3   5
ATOM      5  C   UNL A   1      34.762  20.304  25.122  1.00  0.00     0.102 A 
ATOM      6  C   UNL A   1      33.358  20.399  25.047  1.00  0.00     0.141 A 
ATOM      7  N   UNL A   1      32.607  19.304  24.775  1.00  0.00    -0.239 NA
ATOM      8  C   UNL A   1      33.231  18.146  24.468  1.00  0.00     0.113 A 
ATOM      9  C   UNL A   1      35.381  19.102  24.743  1.00  0.00     0.021 A 
ATOM     10  C   UNL A   1      34.603  18.010  24.388  1.00  0.00     0.021 A 
BRANCH   6  11
ATOM     11  N   UNL A   1      32.586  21.553  25.073  1.00  0.00    -0.363 N 
ATOM     12  H   UNL A   1      31.862  21.645  25.734  1.00  0.00     0.162 HD
BRANCH  11  13
ATOM     13  C   UNL A   1      32.850  22.638  24.115  1.00  0.00     0.108 C 
ATOM     14  C   UNL A   1      32.441  22.180  22.705  1.00  0.00     0.036 C 
BRANCH  13  15
ATOM     15  C   UNL A   1      32.277  24.166  24.535  1.00  0.00    -0.026 A 
ATOM     16  C   UNL A   1      30.564  25.237  24.280  1.00  0.00     0.007 A 
ATOM     17  C   UNL A   1      33.634  24.995  25.364  1.00  0.00     0.007 A 
ATOM     18  C   UNL A   1      30.476  26.937  24.867  1.00  0.00     0.021 A 
ATOM     19  C   UNL A   1      33.369  26.606  25.976  1.00  0.00     0.021 A 
ATOM     20  C   UNL A   1      31.878  27.573  25.696  1.00  0.00     0.041 A 
ATOM     21  Cl  UNL A   1      31.697  29.094  26.496  1.00  0.00    -0.084 Cl
ENDBRANCH  13  15
ENDBRANCH  11  13
ENDBRANCH   6  11
ENDBRANCH   3   5
ENDBRANCH   2   3
ENDBRANCH   1   2
BRANCH   1  22
ATOM     22  C   UNL A   1      39.221  21.802  26.165  1.00  0.00     0.275 C 
BRANCH  22  23
ATOM     23  O   UNL A   1      39.797  22.779  27.052  1.00  0.00    -0.458 OA
BRANCH  23  24
ATOM     24  C   UNL A   1      41.128  22.782  26.923  1.00  0.00     0.338 C 
ATOM     25  O   UNL A   1      41.848  21.789  27.041  1.00  0.00    -0.246 OA
BRANCH  24  26
ATOM     26  C   UNL A   1      41.796  24.070  26.647  1.00  0.00     0.060 A 
ATOM     27  C   UNL A   1      42.860  24.436  25.248  1.00  0.00     0.016 A 
ATOM     28  C   UNL A   1      42.039  24.739  28.202  1.00  0.00     0.016 A 
ATOM     29  C   UNL A   1      44.308  25.510  25.365  1.00  0.00     0.010 A 
ATOM     30  C   UNL A   1      43.382  25.827  28.449  1.00  0.00     0.010 A 
ATOM     31  C   UNL A   1      44.677  26.339  26.964  1.00  0.00    -0.014 A 
BRANCH  31  32
ATOM     32  C   UNL A   1      45.849  27.589  26.605  1.00  0.00     0.031 A 
ATOM     33  C   UNL A   1      47.410  27.480  26.238  1.00  0.00     0.074 A 
ATOM     34  C   UNL A   1      45.436  28.892  26.656  1.00  0.00     0.049 A 
ATOM     35  N   UNL A   1      48.301  28.316  25.716  1.00  0.00    -0.248 NA
ATOM     36  C   UNL A   1      48.096  26.233  26.517  1.00  0.00     0.031 C 
ATOM     37  C   UNL A   1      44.087  29.375  26.969  1.00  0.00     0.029 A 
ATOM     38  N   UNL A   1      46.119  30.083  26.449  1.00  0.00    -0.354 N 
ATOM     39  C   UNL A   1      49.510  27.570  25.586  1.00  0.00     0.074 A 
ATOM     40  C   UNL A   1      49.157  26.184  25.740  1.00  0.00     0.031 C 
ATOM     41  C   UNL A   1      44.004  30.699  26.805  1.00  0.00     0.029 A 
ATOM     42  C   UNL A   1      45.339  31.217  26.585  1.00  0.00     0.049 A 
ATOM     43  H   UNL A   1      47.077  30.117  26.224  1.00  0.00     0.167 HD
ATOM     44  C   UNL A   1      50.828  27.915  25.697  1.00  0.00     0.031 A 
ATOM     45  C   UNL A   1      45.632  32.533  26.629  1.00  0.00     0.031 A 
ATOM     46  C   UNL A   1      51.259  29.259  25.929  1.00  0.00     0.049 A 
ATOM     47  C   UNL A   1      47.070  32.944  26.584  1.00  0.00     0.074 A 
ATOM     48  C   UNL A   1      52.542  29.743  26.112  1.00  0.00     0.029 A 
ATOM     49  N   UNL A   1      50.389  30.318  26.097  1.00  0.00    -0.354 N 
ATOM     50  N   UNL A   1      48.136  32.188  26.502  1.00  0.00    -0.248 NA
ATOM     51  C   UNL A   1      47.351  34.383  26.667  1.00  0.00     0.031 C 
ATOM     52  C   UNL A   1      52.439  31.091  26.466  1.00  0.00     0.029 A 
ATOM     53  C   UNL A   1      51.106  31.459  26.380  1.00  0.00     0.049 A 
ATOM     54  H   UNL A   1      49.408  30.265  26.027  1.00  0.00     0.167 HD
ATOM     55  C   UNL A   1      49.215  33.056  26.520  1.00  0.00     0.074 A 
ATOM     56  C   UNL A   1      48.674  34.398  26.592  1.00  0.00     0.031 C 
ATOM     57  C   UNL A   1      50.538  32.771  26.481  1.00  0.00     0.031 A 
BRANCH  44  58
ATOM     58  C   UNL A   1      51.864  26.787  25.876  1.00  0.00    -0.014 A 
ATOM     59  C   UNL A   1      52.508  26.528  27.100  1.00  0.00     0.009 A 
ATOM     60  C   UNL A   1      52.297  26.058  24.747  1.00  0.00     0.009 A 
ATOM     61  C   UNL A   1      53.594  25.641  27.169  1.00  0.00     0.001 A 
ATOM     62  C   UNL A   1      53.349  25.136  24.829  1.00  0.00     0.001 A 
ATOM     63  C   UNL A   1      54.015  24.948  26.036  1.00  0.00     0.000 A 
ENDBRANCH  44  58
BRANCH  45  64
ATOM     64  C   UNL A   1      44.541  33.542  26.811  1.00  0.00    -0.014 A 
ATOM     65  C   UNL A   1      44.153  33.955  28.096  1.00  0.00     0.009 A 
ATOM     66  C   UNL A   1      43.924  34.150  25.701  1.00  0.00     0.009 A 
ATOM     67  C   UNL A   1      43.192  34.958  28.264  1.00  0.00     0.001 A 
ATOM     68  C   UNL A   1      42.994  35.182  25.872  1.00  0.00     0.001 A 
ATOM     69  C   UNL A   1      42.628  35.584  27.153  1.00  0.00     0.000 A 
ENDBRANCH  45  64
BRANCH  57  70
ATOM     70  C   UNL A   1      51.489  33.922  26.454  1.00  0.00    -0.014 A 
ATOM     71  C   UNL A   1      52.038  34.455  27.628  1.00  0.00     0.009 A 
ATOM     72  C   UNL A   1      51.881  34.437  25.209  1.00  0.00     0.009 A 
ATOM     73  C   UNL A   1      52.933  35.521  27.553  1.00  0.00     0.001 A 
ATOM     74  C   UNL A   1      52.799  35.479  25.136  1.00  0.00     0.001 A 
ATOM     75  C   UNL A   1      53.314  36.028  26.309  1.00  0.00     0.000 A 
ENDBRANCH  57  70
ENDBRANCH  31  32
ENDBRANCH  24  26
ENDBRANCH  23  24
ENDBRANCH  22  23
ENDBRANCH   1  22
TORSDOF 14
ENDMDL
MODEL 3
REMARK VINA RESULT:     -10.5      7.013     12.124
REMARK SMILES C[C@H](Nc1ncccc1C(=O)OCCOC(=O)c1ccc(-c2c3nc(c(-c4ccccc4)c4ccc([nH]4)c(-c4ccccc4)c4nc(c(-c5ccccc5)c5ccc2[nH]5)C=C4)C=C3)cc1)c1ccc(Cl)cc1
REMARK SMILES IDX 13 1 12 2 10 3 11 4 9 5 4 6 5 7 6 8 8 9 7 10 3 11 2 13 1 14
REMARK SMILES IDX 66 15 67 16 72 17 68 18 71 19 69 20 70 21 14 22 15 23 16 24
REMARK SMILES IDX 17 25 18 26 19 27 65 28 20 29 64 30 21 31 22 32 23 33 58 34
REMARK SMILES IDX 24 35 63 36 57 37 59 38 25 39 62 40 56 41 55 42 26 44 48 45
REMARK SMILES IDX 33 46 47 47 34 48 37 49 46 50 60 51 35 52 36 53 45 55 61 56
REMARK SMILES IDX 38 57 27 58 28 59 32 60 29 61 31 62 30 63 49 64 50 65 54 66
REMARK SMILES IDX 51 67 53 68 52 69 39 70 40 71 44 72 41 73 43 74 42 75
REMARK H PARENT 3 12 59 43 37 54
REMARK Flexibility Score: inf
ROOT
ATOM      1  C   UNL A   1      38.509  22.330  25.594  1.00  0.00     0.275 C 
ENDROOT
BRANCH   1   2
ATOM      2  O   UNL A   1      37.257  21.610  25.756  1.00  0.00    -0.458 OA
BRANCH   2   3
ATOM      3  C   UNL A   1      36.118  22.356  25.676  1.00  0.00     0.342 C 
ATOM      4  O   UNL A   1      35.943  23.438  26.213  1.00  0.00    -0.246 OA
BRANCH   3   5
ATOM      5  C   UNL A   1      35.033  21.624  24.978  1.00  0.00     0.102 A 
ATOM      6  C   UNL A   1      33.841  22.211  24.511  1.00  0.00     0.141 A 
ATOM      7  N   UNL A   1      32.759  21.444  24.229  1.00  0.00    -0.239 NA
ATOM      8  C   UNL A   1      32.879  20.099  24.297  1.00  0.00     0.113 A 
ATOM      9  C   UNL A   1      35.144  20.224  24.983  1.00  0.00     0.021 A 
ATOM     10  C   UNL A   1      34.055  19.448  24.615  1.00  0.00     0.021 A 
BRANCH   6  11
ATOM     11  N   UNL A   1      33.639  23.533  24.138  1.00  0.00    -0.363 N 
ATOM     12  H   UNL A   1      34.244  23.958  23.487  1.00  0.00     0.162 HD
BRANCH  11  13
ATOM     13  C   UNL A   1      32.524  24.300  24.713  1.00  0.00     0.108 C 
ATOM     14  C   UNL A   1      32.677  24.349  26.243  1.00  0.00     0.036 C 
BRANCH  13  15
ATOM     15  C   UNL A   1      32.196  25.794  24.007  1.00  0.00    -0.026 A 
ATOM     16  C   UNL A   1      33.265  27.399  23.354  1.00  0.00     0.007 A 
ATOM     17  C   UNL A   1      30.410  25.917  23.909  1.00  0.00     0.007 A 
ATOM     18  C   UNL A   1      32.404  28.853  22.730  1.00  0.00     0.021 A 
ATOM     19  C   UNL A   1      29.717  27.341  23.181  1.00  0.00     0.021 A 
ATOM     20  C   UNL A   1      30.658  28.784  22.662  1.00  0.00     0.041 A 
ATOM     21  Cl  UNL A   1      29.852  30.056  21.814  1.00  0.00    -0.084 Cl
ENDBRANCH  13  15
ENDBRANCH  11  13
ENDBRANCH   6  11
ENDBRANCH   3   5
ENDBRANCH   2   3
ENDBRANCH   1   2
BRANCH   1  22
ATOM     22  C   UNL A   1      39.629  21.852  26.518  1.00  0.00     0.275 C 
BRANCH  22  23
ATOM     23  O   UNL A   1      40.679  22.837  26.543  1.00  0.00    -0.458 OA
BRANCH  23  24
ATOM     24  C   UNL A   1      41.759  22.334  27.153  1.00  0.00     0.338 C 
ATOM     25  O   UNL A   1      41.804  21.236  27.710  1.00  0.00    -0.246 OA
BRANCH  24  26
ATOM     26  C   UNL A   1      42.983  23.160  27.190  1.00  0.00     0.060 A 
ATOM     27  C   UNL A   1      43.520  24.203  28.549  1.00  0.00     0.016 A 
ATOM     28  C   UNL A   1      43.247  23.558  25.548  1.00  0.00     0.016 A 
ATOM     29  C   UNL A   1      44.351  25.789  28.305  1.00  0.00     0.010 A 
ATOM     30  C   UNL A   1      44.077  25.048  25.168  1.00  0.00     0.010 A 
ATOM     31  C   UNL A   1      44.746  26.336  26.594  1.00  0.00    -0.014 A 
BRANCH  31  32
ATOM     32  C   UNL A   1      45.888  27.652  26.757  1.00  0.00     0.031 A 
ATOM     33  C   UNL A   1      45.643  29.221  27.003  1.00  0.00     0.074 A 
ATOM     34  C   UNL A   1      47.221  27.365  26.635  1.00  0.00     0.049 A 
ATOM     35  N   UNL A   1      46.417  30.232  27.383  1.00  0.00    -0.248 NA
ATOM     36  C   UNL A   1      44.315  29.754  26.770  1.00  0.00     0.031 C 
ATOM     37  C   UNL A   1      47.818  26.047  26.395  1.00  0.00     0.029 A 
ATOM     38  N   UNL A   1      48.346  28.177  26.691  1.00  0.00    -0.354 N 
ATOM     39  C   UNL A   1      45.560  31.369  27.474  1.00  0.00     0.074 A 
ATOM     40  C   UNL A   1      44.211  30.870  27.460  1.00  0.00     0.031 C 
ATOM     41  C   UNL A   1      49.152  26.110  26.459  1.00  0.00     0.029 A 
ATOM     42  C   UNL A   1      49.542  27.503  26.527  1.00  0.00     0.049 A 
ATOM     43  H   UNL A   1      48.296  29.151  26.833  1.00  0.00     0.167 HD
ATOM     44  C   UNL A   1      45.757  32.700  27.229  1.00  0.00     0.031 A 
ATOM     45  C   UNL A   1      50.814  27.918  26.356  1.00  0.00     0.031 A 
ATOM     46  C   UNL A   1      47.029  33.238  26.856  1.00  0.00     0.049 A 
ATOM     47  C   UNL A   1      51.075  29.387  26.250  1.00  0.00     0.074 A 
ATOM     48  C   UNL A   1      47.362  34.541  26.532  1.00  0.00     0.029 A 
ATOM     49  N   UNL A   1      48.159  32.464  26.675  1.00  0.00    -0.354 N 
ATOM     50  N   UNL A   1      50.219  30.378  26.306  1.00  0.00    -0.248 NA
ATOM     51  C   UNL A   1      52.467  29.799  26.030  1.00  0.00     0.031 C 
ATOM     52  C   UNL A   1      48.685  34.539  26.080  1.00  0.00     0.029 A 
ATOM     53  C   UNL A   1      49.195  33.261  26.244  1.00  0.00     0.049 A 
ATOM     54  H   UNL A   1      48.213  31.492  26.829  1.00  0.00     0.167 HD
ATOM     55  C   UNL A   1      50.967  31.531  26.131  1.00  0.00     0.074 A 
ATOM     56  C   UNL A   1      52.349  31.119  25.997  1.00  0.00     0.031 C 
ATOM     57  C   UNL A   1      50.550  32.817  26.085  1.00  0.00     0.031 A 
BRANCH  44  58
ATOM     58  C   UNL A   1      44.518  33.601  27.057  1.00  0.00    -0.014 A 
ATOM     59  C   UNL A   1      43.967  33.911  25.800  1.00  0.00     0.009 A 
ATOM     60  C   UNL A   1      43.977  34.257  28.184  1.00  0.00     0.009 A 
ATOM     61  C   UNL A   1      42.979  34.900  25.671  1.00  0.00     0.001 A 
ATOM     62  C   UNL A   1      42.956  35.208  28.058  1.00  0.00     0.001 A 
ATOM     63  C   UNL A   1      42.475  35.548  26.798  1.00  0.00     0.000 A 
ENDBRANCH  44  58
BRANCH  45  64
ATOM     64  C   UNL A   1      51.916  26.919  26.182  1.00  0.00    -0.014 A 
ATOM     65  C   UNL A   1      52.708  26.529  27.274  1.00  0.00     0.009 A 
ATOM     66  C   UNL A   1      52.141  26.297  24.940  1.00  0.00     0.009 A 
ATOM     67  C   UNL A   1      53.683  25.535  27.131  1.00  0.00     0.001 A 
ATOM     68  C   UNL A   1      53.088  25.274  24.810  1.00  0.00     0.001 A 
ATOM     69  C   UNL A   1      53.858  24.895  25.904  1.00  0.00     0.000 A 
ENDBRANCH  45  64
BRANCH  57  70
ATOM     70  C   UNL A   1      51.594  33.876  25.943  1.00  0.00    -0.014 A 
ATOM     71  C   UNL A   1      52.235  34.436  27.055  1.00  0.00     0.009 A 
ATOM     72  C   UNL A   1      51.976  34.268  24.651  1.00  0.00     0.009 A 
ATOM     73  C   UNL A   1      53.213  35.412  26.873  1.00  0.00     0.001 A 
ATOM     74  C   UNL A   1      52.975  35.217  24.472  1.00  0.00     0.001 A 
ATOM     75  C   UNL A   1      53.584  35.797  25.583  1.00  0.00     0.000 A 
ENDBRANCH  57  70
ENDBRANCH  31  32
ENDBRANCH  24  26
ENDBRANCH  23  24
ENDBRANCH  22  23
ENDBRANCH   1  22
TORSDOF 14
ENDMDL
