MODEL 1
REMARK VINA RESULT:     -11.7      0.000      0.000
REMARK SMILES O=C(OCCOC(=O)c1cccc(Nc2ccnc3ccc(Cl)cc23)c1)c1ccc(-c2c3nc(c(-c4ccccc4)c4ccc([nH]4)c(-c4ccccc4)c4nc(c(-c5ccccc5)c5ccc2[nH]5)C=C4)C=C3)cc1
REMARK SMILES IDX 4 1 3 2 2 3 1 4 27 5 28 6 74 7 29 8 73 9 30 10 31 11 32 12
REMARK SMILES IDX 67 13 33 14 72 15 66 16 68 17 34 18 71 19 65 20 64 21 35 23
REMARK SMILES IDX 57 24 42 25 56 26 43 27 46 28 55 29 69 30 44 31 45 32 54 34
REMARK SMILES IDX 70 35 47 36 36 37 37 38 41 39 38 40 40 41 39 42 58 43 59 44
REMARK SMILES IDX 63 45 60 46 62 47 61 48 48 49 49 50 53 51 50 52 52 53 51 54
REMARK SMILES IDX 5 55 6 56 7 57 8 58 9 59 10 60 26 61 11 62 13 63 12 64 14 65
REMARK SMILES IDX 15 67 16 68 25 69 17 70 19 71 24 72 18 73 20 74 22 75 21 76
REMARK SMILES IDX 23 77
REMARK H PARENT 68 22 46 33 14 66
REMARK Flexibility Score: inf
ROOT
ATOM      1  C   UNL A   1      43.520  21.319  25.546  1.00  0.00     0.275 C 
ENDROOT
BRANCH   1   2
ATOM      2  O   UNL A   1      43.028  22.560  25.004  1.00  0.00    -0.458 OA
BRANCH   2   3
ATOM      3  C   UNL A   1      43.558  23.805  25.107  1.00  0.00     0.338 C 
ATOM      4  O   UNL A   1      44.543  24.090  24.429  1.00  0.00    -0.246 OA
BRANCH   3   5
ATOM      5  C   UNL A   1      43.122  24.800  26.135  1.00  0.00     0.060 A 
ATOM      6  C   UNL A   1      43.501  26.140  26.176  1.00  0.00     0.016 A 
ATOM      7  C   UNL A   1      42.296  24.313  27.168  1.00  0.00     0.016 A 
ATOM      8  C   UNL A   1      43.009  26.988  27.171  1.00  0.00     0.010 A 
ATOM      9  C   UNL A   1      41.788  25.160  28.158  1.00  0.00     0.010 A 
ATOM     10  C   UNL A   1      42.148  26.509  28.165  1.00  0.00    -0.014 A 
BRANCH  10  11
ATOM     11  C   UNL A   1      41.725  27.429  29.241  1.00  0.00     0.031 A 
ATOM     12  C   UNL A   1      40.460  28.220  29.079  1.00  0.00     0.074 A 
ATOM     13  C   UNL A   1      42.412  27.465  30.397  1.00  0.00     0.049 A 
ATOM     14  N   UNL A   1      39.819  28.935  29.966  1.00  0.00    -0.248 NA
ATOM     15  C   UNL A   1      39.818  28.179  27.755  1.00  0.00     0.031 C 
ATOM     16  C   UNL A   1      43.633  26.706  30.679  1.00  0.00     0.029 A 
ATOM     17  N   UNL A   1      42.171  28.152  31.558  1.00  0.00    -0.354 N 
ATOM     18  C   UNL A   1      38.675  29.388  29.324  1.00  0.00     0.074 A 
ATOM     19  C   UNL A   1      38.742  28.925  27.955  1.00  0.00     0.031 C 
ATOM     20  C   UNL A   1      44.035  26.973  31.933  1.00  0.00     0.029 A 
ATOM     21  C   UNL A   1      43.097  27.909  32.544  1.00  0.00     0.049 A 
ATOM     22  H   UNL A   1      41.408  28.763  31.674  1.00  0.00     0.167 HD
ATOM     23  C   UNL A   1      37.642  30.099  29.834  1.00  0.00     0.031 A 
ATOM     24  C   UNL A   1      43.167  28.378  33.804  1.00  0.00     0.031 A 
ATOM     25  C   UNL A   1      37.597  30.599  31.180  1.00  0.00     0.049 A 
ATOM     26  C   UNL A   1      42.056  29.253  34.316  1.00  0.00     0.074 A 
ATOM     27  C   UNL A   1      36.618  31.367  31.787  1.00  0.00     0.029 A 
ATOM     28  N   UNL A   1      38.588  30.387  32.127  1.00  0.00    -0.354 N 
ATOM     29  N   UNL A   1      40.956  29.631  33.709  1.00  0.00    -0.248 NA
ATOM     30  C   UNL A   1      42.181  29.738  35.698  1.00  0.00     0.031 C 
ATOM     31  C   UNL A   1      37.038  31.652  33.092  1.00  0.00     0.029 A 
ATOM     32  C   UNL A   1      38.255  31.025  33.309  1.00  0.00     0.049 A 
ATOM     33  H   UNL A   1      39.406  29.861  31.981  1.00  0.00     0.167 HD
ATOM     34  C   UNL A   1      40.248  30.379  34.641  1.00  0.00     0.074 A 
ATOM     35  C   UNL A   1      41.032  30.379  35.860  1.00  0.00     0.031 C 
ATOM     36  C   UNL A   1      39.057  31.010  34.505  1.00  0.00     0.031 A 
BRANCH  23  37
ATOM     37  C   UNL A   1      36.491  30.377  28.913  1.00  0.00    -0.014 A 
ATOM     38  C   UNL A   1      36.204  31.689  28.500  1.00  0.00     0.009 A 
ATOM     39  C   UNL A   1      35.675  29.329  28.465  1.00  0.00     0.009 A 
ATOM     40  C   UNL A   1      35.101  31.949  27.684  1.00  0.00     0.001 A 
ATOM     41  C   UNL A   1      34.585  29.589  27.633  1.00  0.00     0.001 A 
ATOM     42  C   UNL A   1      34.294  30.899  27.250  1.00  0.00     0.000 A 
ENDBRANCH  23  37
BRANCH  24  43
ATOM     43  C   UNL A   1      44.319  28.025  34.674  1.00  0.00    -0.014 A 
ATOM     44  C   UNL A   1      44.273  26.904  35.517  1.00  0.00     0.009 A 
ATOM     45  C   UNL A   1      45.463  28.839  34.690  1.00  0.00     0.009 A 
ATOM     46  C   UNL A   1      45.334  26.624  36.382  1.00  0.00     0.001 A 
ATOM     47  C   UNL A   1      46.533  28.542  35.537  1.00  0.00     0.001 A 
ATOM     48  C   UNL A   1      46.463  27.442  36.390  1.00  0.00     0.000 A 
ENDBRANCH  24  43
BRANCH  36  49
ATOM     49  C   UNL A   1      38.530  31.735  35.710  1.00  0.00    -0.014 A 
ATOM     50  C   UNL A   1      37.891  31.041  36.749  1.00  0.00     0.009 A 
ATOM     51  C   UNL A   1      38.704  33.123  35.820  1.00  0.00     0.009 A 
ATOM     52  C   UNL A   1      37.404  31.731  37.861  1.00  0.00     0.001 A 
ATOM     53  C   UNL A   1      38.239  33.806  36.943  1.00  0.00     0.001 A 
ATOM     54  C   UNL A   1      37.581  33.111  37.958  1.00  0.00     0.000 A 
ENDBRANCH  36  49
ENDBRANCH  10  11
ENDBRANCH   3   5
ENDBRANCH   2   3
ENDBRANCH   1   2
BRANCH   1  55
ATOM     55  C   UNL A   1      42.427  20.386  26.070  1.00  0.00     0.275 C 
BRANCH  55  56
ATOM     56  O   UNL A   1      41.234  21.124  26.349  1.00  0.00    -0.458 OA
BRANCH  56  57
ATOM     57  C   UNL A   1      40.066  20.533  25.996  1.00  0.00     0.338 C 
ATOM     58  O   UNL A   1      39.866  19.359  25.757  1.00  0.00    -0.246 OA
BRANCH  57  59
ATOM     59  C   UNL A   1      39.041  21.592  25.958  1.00  0.00     0.062 A 
ATOM     60  C   UNL A   1      39.297  22.793  26.627  1.00  0.00     0.016 A 
ATOM     61  C   UNL A   1      37.853  21.406  25.242  1.00  0.00     0.041 A 
ATOM     62  C   UNL A   1      38.407  23.851  26.505  1.00  0.00     0.003 A 
ATOM     63  C   UNL A   1      36.947  22.467  25.127  1.00  0.00     0.039 A 
ATOM     64  C   UNL A   1      37.260  23.696  25.733  1.00  0.00     0.026 A 
BRANCH  63  65
ATOM     65  N   UNL A   1      35.793  22.357  24.331  1.00  0.00    -0.355 N 
ATOM     66  H   UNL A   1      35.860  22.663  23.397  1.00  0.00     0.167 HD
BRANCH  65  67
ATOM     67  C   UNL A   1      34.546  21.848  24.757  1.00  0.00     0.050 A 
ATOM     68  C   UNL A   1      34.304  20.480  24.622  1.00  0.00     0.047 A 
ATOM     69  C   UNL A   1      33.552  22.663  25.340  1.00  0.00     0.025 A 
ATOM     70  C   UNL A   1      33.112  19.960  25.074  1.00  0.00     0.114 A 
ATOM     71  C   UNL A   1      32.356  22.028  25.755  1.00  0.00     0.072 A 
ATOM     72  C   UNL A   1      33.669  24.065  25.476  1.00  0.00     0.033 A 
ATOM     73  N   UNL A   1      32.146  20.708  25.638  1.00  0.00    -0.256 NA
ATOM     74  C   UNL A   1      31.338  22.800  26.294  1.00  0.00     0.030 A 
ATOM     75  C   UNL A   1      32.621  24.814  26.007  1.00  0.00     0.041 A 
ATOM     76  C   UNL A   1      31.454  24.186  26.421  1.00  0.00     0.023 A 
ATOM     77  Cl  UNL A   1      32.762  26.522  26.133  1.00  0.00    -0.084 Cl
ENDBRANCH  65  67
ENDBRANCH  63  65
ENDBRANCH  57  59
ENDBRANCH  56  57
ENDBRANCH  55  56
ENDBRANCH   1  55
TORSDOF 13
ENDMDL
MODEL 2
REMARK VINA RESULT:     -11.6      5.069      9.894
REMARK SMILES O=C(OCCOC(=O)c1cccc(Nc2ccnc3ccc(Cl)cc23)c1)c1ccc(-c2c3nc(c(-c4ccccc4)c4ccc([nH]4)c(-c4ccccc4)c4nc(c(-c5ccccc5)c5ccc2[nH]5)C=C4)C=C3)cc1
REMARK SMILES IDX 4 1 3 2 2 3 1 4 27 5 28 6 74 7 29 8 73 9 30 10 31 11 32 12
REMARK SMILES IDX 67 13 33 14 72 15 66 16 68 17 34 18 71 19 65 20 64 21 35 23
REMARK SMILES IDX 57 24 42 25 56 26 43 27 46 28 55 29 69 30 44 31 45 32 54 34
REMARK SMILES IDX 70 35 47 36 36 37 37 38 41 39 38 40 40 41 39 42 58 43 59 44
REMARK SMILES IDX 63 45 60 46 62 47 61 48 48 49 49 50 53 51 50 52 52 53 51 54
REMARK SMILES IDX 5 55 6 56 7 57 8 58 9 59 10 60 26 61 11 62 13 63 12 64 14 65
REMARK SMILES IDX 15 67 16 68 25 69 17 70 19 71 24 72 18 73 20 74 22 75 21 76
REMARK SMILES IDX 23 77
REMARK H PARENT 68 22 46 33 14 66
REMARK Flexibility Score: inf
ROOT
ATOM      1  C   UNL A   1      34.600  34.039  31.324  1.00  0.00     0.275 C 
ENDROOT
BRANCH   1   2
ATOM      2  O   UNL A   1      34.850  32.667  31.685  1.00  0.00    -0.458 OA
BRANCH   2   3
ATOM      3  C   UNL A   1      35.868  32.150  32.419  1.00  0.00     0.338 C 
ATOM      4  O   UNL A   1      35.864  32.309  33.638  1.00  0.00    -0.246 OA
BRANCH   3   5
ATOM      5  C   UNL A   1      37.095  31.550  31.810  1.00  0.00     0.060 A 
ATOM      6  C   UNL A   1      38.049  30.795  32.489  1.00  0.00     0.016 A 
ATOM      7  C   UNL A   1      37.314  31.819  30.444  1.00  0.00     0.016 A 
ATOM      8  C   UNL A   1      39.147  30.259  31.811  1.00  0.00     0.010 A 
ATOM      9  C   UNL A   1      38.402  31.272  29.756  1.00  0.00     0.010 A 
ATOM     10  C   UNL A   1      39.330  30.488  30.443  1.00  0.00    -0.014 A 
BRANCH  10  11
ATOM     11  C   UNL A   1      40.551  29.968  29.793  1.00  0.00     0.031 A 
ATOM     12  C   UNL A   1      40.538  28.593  29.193  1.00  0.00     0.074 A 
ATOM     13  C   UNL A   1      41.623  30.769  29.648  1.00  0.00     0.049 A 
ATOM     14  N   UNL A   1      41.429  28.023  28.425  1.00  0.00    -0.248 NA
ATOM     15  C   UNL A   1      39.355  27.761  29.468  1.00  0.00     0.031 C 
ATOM     16  C   UNL A   1      41.730  32.138  30.157  1.00  0.00     0.029 A 
ATOM     17  N   UNL A   1      42.818  30.554  29.012  1.00  0.00    -0.354 N 
ATOM     18  C   UNL A   1      40.895  26.787  28.086  1.00  0.00     0.074 A 
ATOM     19  C   UNL A   1      39.634  26.662  28.784  1.00  0.00     0.031 C 
ATOM     20  C   UNL A   1      42.929  32.640  29.814  1.00  0.00     0.029 A 
ATOM     21  C   UNL A   1      43.665  31.635  29.055  1.00  0.00     0.049 A 
ATOM     22  H   UNL A   1      43.047  29.707  28.568  1.00  0.00     0.167 HD
ATOM     23  C   UNL A   1      41.392  25.853  27.243  1.00  0.00     0.031 A 
ATOM     24  C   UNL A   1      44.892  31.798  28.524  1.00  0.00     0.031 A 
ATOM     25  C   UNL A   1      42.665  25.957  26.586  1.00  0.00     0.049 A 
ATOM     26  C   UNL A   1      45.467  30.699  27.674  1.00  0.00     0.074 A 
ATOM     27  C   UNL A   1      43.283  25.047  25.745  1.00  0.00     0.029 A 
ATOM     28  N   UNL A   1      43.523  27.039  26.709  1.00  0.00    -0.354 N 
ATOM     29  N   UNL A   1      44.926  29.556  27.324  1.00  0.00    -0.248 NA
ATOM     30  C   UNL A   1      46.809  30.926  27.119  1.00  0.00     0.031 C 
ATOM     31  C   UNL A   1      44.535  25.565  25.392  1.00  0.00     0.029 A 
ATOM     32  C   UNL A   1      44.675  26.814  25.977  1.00  0.00     0.049 A 
ATOM     33  H   UNL A   1      43.340  27.847  27.240  1.00  0.00     0.167 HD
ATOM     34  C   UNL A   1      45.849  28.940  26.490  1.00  0.00     0.074 A 
ATOM     35  C   UNL A   1      46.974  29.847  26.368  1.00  0.00     0.031 C 
ATOM     36  C   UNL A   1      45.779  27.733  25.878  1.00  0.00     0.031 A 
BRANCH  23  37
ATOM     37  C   UNL A   1      40.544  24.637  27.004  1.00  0.00    -0.014 A 
ATOM     38  C   UNL A   1      40.980  23.367  27.417  1.00  0.00     0.009 A 
ATOM     39  C   UNL A   1      39.309  24.754  26.351  1.00  0.00     0.009 A 
ATOM     40  C   UNL A   1      40.212  22.233  27.147  1.00  0.00     0.001 A 
ATOM     41  C   UNL A   1      38.533  23.621  26.101  1.00  0.00     0.001 A 
ATOM     42  C   UNL A   1      38.989  22.361  26.491  1.00  0.00     0.000 A 
ENDBRANCH  23  37
BRANCH  24  43
ATOM     43  C   UNL A   1      45.656  33.049  28.769  1.00  0.00    -0.014 A 
ATOM     44  C   UNL A   1      45.613  34.114  27.856  1.00  0.00     0.009 A 
ATOM     45  C   UNL A   1      46.468  33.166  29.909  1.00  0.00     0.009 A 
ATOM     46  C   UNL A   1      46.393  35.255  28.062  1.00  0.00     0.001 A 
ATOM     47  C   UNL A   1      47.225  34.318  30.126  1.00  0.00     0.001 A 
ATOM     48  C   UNL A   1      47.196  35.357  29.197  1.00  0.00     0.000 A 
ENDBRANCH  24  43
BRANCH  36  49
ATOM     49  C   UNL A   1      46.943  27.340  25.014  1.00  0.00    -0.014 A 
ATOM     50  C   UNL A   1      47.072  27.833  23.707  1.00  0.00     0.009 A 
ATOM     51  C   UNL A   1      47.935  26.490  25.526  1.00  0.00     0.009 A 
ATOM     52  C   UNL A   1      48.158  27.454  22.916  1.00  0.00     0.001 A 
ATOM     53  C   UNL A   1      49.032  26.133  24.743  1.00  0.00     0.001 A 
ATOM     54  C   UNL A   1      49.138  26.608  23.436  1.00  0.00     0.000 A 
ENDBRANCH  36  49
ENDBRANCH  10  11
ENDBRANCH   3   5
ENDBRANCH   2   3
ENDBRANCH   1   2
BRANCH   1  55
ATOM     55  C   UNL A   1      33.940  34.217  29.955  1.00  0.00     0.275 C 
BRANCH  55  56
ATOM     56  O   UNL A   1      33.864  32.963  29.272  1.00  0.00    -0.458 OA
BRANCH  56  57
ATOM     57  C   UNL A   1      34.622  32.841  28.155  1.00  0.00     0.338 C 
ATOM     58  O   UNL A   1      35.321  33.686  27.632  1.00  0.00    -0.246 OA
BRANCH  57  59
ATOM     59  C   UNL A   1      34.457  31.458  27.670  1.00  0.00     0.062 A 
ATOM     60  C   UNL A   1      35.580  30.626  27.631  1.00  0.00     0.016 A 
ATOM     61  C   UNL A   1      33.196  30.985  27.288  1.00  0.00     0.041 A 
ATOM     62  C   UNL A   1      35.432  29.287  27.298  1.00  0.00     0.003 A 
ATOM     63  C   UNL A   1      33.045  29.637  26.940  1.00  0.00     0.039 A 
ATOM     64  C   UNL A   1      34.168  28.793  26.989  1.00  0.00     0.026 A 
BRANCH  63  65
ATOM     65  N   UNL A   1      31.780  29.096  26.653  1.00  0.00    -0.355 N 
ATOM     66  H   UNL A   1      31.133  29.045  27.394  1.00  0.00     0.167 HD
BRANCH  65  67
ATOM     67  C   UNL A   1      31.358  28.619  25.391  1.00  0.00     0.050 A 
ATOM     68  C   UNL A   1      31.064  29.547  24.392  1.00  0.00     0.047 A 
ATOM     69  C   UNL A   1      31.253  27.242  25.097  1.00  0.00     0.025 A 
ATOM     70  C   UNL A   1      30.695  29.098  23.144  1.00  0.00     0.114 A 
ATOM     71  C   UNL A   1      30.849  26.890  23.787  1.00  0.00     0.072 A 
ATOM     72  C   UNL A   1      31.474  26.219  26.047  1.00  0.00     0.033 A 
ATOM     73  N   UNL A   1      30.590  27.794  22.830  1.00  0.00    -0.256 NA
ATOM     74  C   UNL A   1      30.692  25.549  23.470  1.00  0.00     0.030 A 
ATOM     75  C   UNL A   1      31.292  24.881  25.702  1.00  0.00     0.041 A 
ATOM     76  C   UNL A   1      30.905  24.541  24.412  1.00  0.00     0.023 A 
ATOM     77  Cl  UNL A   1      31.529  23.649  26.876  1.00  0.00    -0.084 Cl
ENDBRANCH  65  67
ENDBRANCH  63  65
ENDBRANCH  57  59
ENDBRANCH  56  57
ENDBRANCH  55  56
ENDBRANCH   1  55
TORSDOF 13
ENDMDL
MODEL 3
REMARK VINA RESULT:     -11.4      4.892     11.516
REMARK SMILES O=C(OCCOC(=O)c1cccc(Nc2ccnc3ccc(Cl)cc23)c1)c1ccc(-c2c3nc(c(-c4ccccc4)c4ccc([nH]4)c(-c4ccccc4)c4nc(c(-c5ccccc5)c5ccc2[nH]5)C=C4)C=C3)cc1
REMARK SMILES IDX 4 1 3 2 2 3 1 4 27 5 28 6 74 7 29 8 73 9 30 10 31 11 32 12
REMARK SMILES IDX 67 13 33 14 72 15 66 16 68 17 34 18 71 19 65 20 64 21 35 23
REMARK SMILES IDX 57 24 42 25 56 26 43 27 46 28 55 29 69 30 44 31 45 32 54 34
REMARK SMILES IDX 70 35 47 36 36 37 37 38 41 39 38 40 40 41 39 42 58 43 59 44
REMARK SMILES IDX 63 45 60 46 62 47 61 48 48 49 49 50 53 51 50 52 52 53 51 54
REMARK SMILES IDX 5 55 6 56 7 57 8 58 9 59 10 60 26 61 11 62 13 63 12 64 14 65
REMARK SMILES IDX 15 67 16 68 25 69 17 70 19 71 24 72 18 73 20 74 22 75 21 76
REMARK SMILES IDX 23 77
REMARK H PARENT 68 22 46 33 14 66
REMARK Flexibility Score: inf
ROOT
ATOM      1  C   UNL A   1      34.201  33.190  28.099  1.00  0.00     0.275 C 
ENDROOT
BRANCH   1   2
ATOM      2  O   UNL A   1      33.976  31.803  28.416  1.00  0.00    -0.458 OA
BRANCH   2   3
ATOM      3  C   UNL A   1      34.556  30.700  27.878  1.00  0.00     0.338 C 
ATOM      4  O   UNL A   1      33.869  29.934  27.206  1.00  0.00    -0.246 OA
BRANCH   3   5
ATOM      5  C   UNL A   1      35.949  30.263  28.205  1.00  0.00     0.060 A 
ATOM      6  C   UNL A   1      37.038  30.315  27.338  1.00  0.00     0.016 A 
ATOM      7  C   UNL A   1      36.148  29.713  29.487  1.00  0.00     0.016 A 
ATOM      8  C   UNL A   1      38.304  29.903  27.761  1.00  0.00     0.010 A 
ATOM      9  C   UNL A   1      37.416  29.314  29.922  1.00  0.00     0.010 A 
ATOM     10  C   UNL A   1      38.505  29.405  29.053  1.00  0.00    -0.014 A 
BRANCH  10  11
ATOM     11  C   UNL A   1      39.847  28.907  29.421  1.00  0.00     0.031 A 
ATOM     12  C   UNL A   1      40.678  29.682  30.400  1.00  0.00     0.074 A 
ATOM     13  C   UNL A   1      40.262  27.711  28.964  1.00  0.00     0.049 A 
ATOM     14  N   UNL A   1      41.790  29.332  30.992  1.00  0.00    -0.248 NA
ATOM     15  C   UNL A   1      40.180  31.013  30.784  1.00  0.00     0.031 C 
ATOM     16  C   UNL A   1      39.516  26.853  28.041  1.00  0.00     0.029 A 
ATOM     17  N   UNL A   1      41.404  27.002  29.232  1.00  0.00    -0.354 N 
ATOM     18  C   UNL A   1      42.099  30.377  31.853  1.00  0.00     0.074 A 
ATOM     19  C   UNL A   1      41.096  31.401  31.659  1.00  0.00     0.031 C 
ATOM     20  C   UNL A   1      40.224  25.732  27.816  1.00  0.00     0.029 A 
ATOM     21  C   UNL A   1      41.462  25.789  28.587  1.00  0.00     0.049 A 
ATOM     22  H   UNL A   1      42.115  27.330  29.827  1.00  0.00     0.167 HD
ATOM     23  C   UNL A   1      43.108  30.463  32.751  1.00  0.00     0.031 A 
ATOM     24  C   UNL A   1      42.403  24.827  28.630  1.00  0.00     0.031 A 
ATOM     25  C   UNL A   1      44.130  29.467  32.912  1.00  0.00     0.049 A 
ATOM     26  C   UNL A   1      43.571  24.995  29.562  1.00  0.00     0.074 A 
ATOM     27  C   UNL A   1      45.223  29.475  33.761  1.00  0.00     0.029 A 
ATOM     28  N   UNL A   1      44.190  28.284  32.191  1.00  0.00    -0.354 N 
ATOM     29  N   UNL A   1      43.821  25.968  30.406  1.00  0.00    -0.248 NA
ATOM     30  C   UNL A   1      44.570  23.917  29.570  1.00  0.00     0.031 C 
ATOM     31  C   UNL A   1      45.965  28.312  33.525  1.00  0.00     0.029 A 
ATOM     32  C   UNL A   1      45.310  27.561  32.561  1.00  0.00     0.049 A 
ATOM     33  H   UNL A   1      43.533  28.000  31.516  1.00  0.00     0.167 HD
ATOM     34  C   UNL A   1      44.991  25.608  31.062  1.00  0.00     0.074 A 
ATOM     35  C   UNL A   1      45.387  24.317  30.534  1.00  0.00     0.031 C 
ATOM     36  C   UNL A   1      45.680  26.281  32.015  1.00  0.00     0.031 A 
BRANCH  23  37
ATOM     37  C   UNL A   1      43.143  31.691  33.613  1.00  0.00    -0.014 A 
ATOM     38  C   UNL A   1      43.856  32.831  33.207  1.00  0.00     0.009 A 
ATOM     39  C   UNL A   1      42.475  31.708  34.846  1.00  0.00     0.009 A 
ATOM     40  C   UNL A   1      43.929  33.953  34.036  1.00  0.00     0.001 A 
ATOM     41  C   UNL A   1      42.532  32.838  35.664  1.00  0.00     0.001 A 
ATOM     42  C   UNL A   1      43.265  33.956  35.262  1.00  0.00     0.000 A 
ENDBRANCH  23  37
BRANCH  24  43
ATOM     43  C   UNL A   1      42.279  23.617  27.777  1.00  0.00    -0.014 A 
ATOM     44  C   UNL A   1      42.777  23.602  26.465  1.00  0.00     0.009 A 
ATOM     45  C   UNL A   1      41.622  22.476  28.266  1.00  0.00     0.009 A 
ATOM     46  C   UNL A   1      42.589  22.482  25.650  1.00  0.00     0.001 A 
ATOM     47  C   UNL A   1      41.459  21.350  27.457  1.00  0.00     0.001 A 
ATOM     48  C   UNL A   1      41.932  21.357  26.146  1.00  0.00     0.000 A 
ENDBRANCH  24  43
BRANCH  36  49
ATOM     49  C   UNL A   1      46.918  25.622  32.552  1.00  0.00    -0.014 A 
ATOM     50  C   UNL A   1      46.856  24.761  33.659  1.00  0.00     0.009 A 
ATOM     51  C   UNL A   1      48.153  25.842  31.925  1.00  0.00     0.009 A 
ATOM     52  C   UNL A   1      48.017  24.160  34.148  1.00  0.00     0.001 A 
ATOM     53  C   UNL A   1      49.307  25.220  32.399  1.00  0.00     0.001 A 
ATOM     54  C   UNL A   1      49.240  24.387  33.517  1.00  0.00     0.000 A 
ENDBRANCH  36  49
ENDBRANCH  10  11
ENDBRANCH   3   5
ENDBRANCH   2   3
ENDBRANCH   1   2
BRANCH   1  55
ATOM     55  C   UNL A   1      32.924  34.028  28.008  1.00  0.00     0.275 C 
BRANCH  55  56
ATOM     56  O   UNL A   1      32.589  34.566  29.290  1.00  0.00    -0.458 OA
BRANCH  56  57
ATOM     57  C   UNL A   1      32.902  35.869  29.495  1.00  0.00     0.338 C 
ATOM     58  O   UNL A   1      32.756  36.800  28.729  1.00  0.00    -0.246 OA
BRANCH  57  59
ATOM     59  C   UNL A   1      33.460  35.970  30.856  1.00  0.00     0.062 A 
ATOM     60  C   UNL A   1      33.235  37.143  31.584  1.00  0.00     0.016 A 
ATOM     61  C   UNL A   1      34.170  34.902  31.414  1.00  0.00     0.041 A 
ATOM     62  C   UNL A   1      33.640  37.218  32.909  1.00  0.00     0.003 A 
ATOM     63  C   UNL A   1      34.591  34.978  32.747  1.00  0.00     0.039 A 
ATOM     64  C   UNL A   1      34.282  36.129  33.492  1.00  0.00     0.026 A 
BRANCH  63  65
ATOM     65  N   UNL A   1      35.214  33.887  33.379  1.00  0.00    -0.355 N 
ATOM     66  H   UNL A   1      34.750  33.020  33.340  1.00  0.00     0.167 HD
BRANCH  65  67
ATOM     67  C   UNL A   1      36.449  33.931  34.065  1.00  0.00     0.050 A 
ATOM     68  C   UNL A   1      36.447  33.768  35.451  1.00  0.00     0.047 A 
ATOM     69  C   UNL A   1      37.682  34.105  33.399  1.00  0.00     0.025 A 
ATOM     70  C   UNL A   1      37.645  33.764  36.129  1.00  0.00     0.114 A 
ATOM     71  C   UNL A   1      38.852  34.101  34.195  1.00  0.00     0.072 A 
ATOM     72  C   UNL A   1      37.795  34.333  32.009  1.00  0.00     0.033 A 
ATOM     73  N   UNL A   1      38.836  33.922  35.525  1.00  0.00    -0.256 NA
ATOM     74  C   UNL A   1      40.080  34.311  33.585  1.00  0.00     0.030 A 
ATOM     75  C   UNL A   1      39.042  34.556  31.429  1.00  0.00     0.041 A 
ATOM     76  C   UNL A   1      40.189  34.542  32.212  1.00  0.00     0.023 A 
ATOM     77  Cl  UNL A   1      39.164  34.868  29.743  1.00  0.00    -0.084 Cl
ENDBRANCH  65  67
ENDBRANCH  63  65
ENDBRANCH  57  59
ENDBRANCH  56  57
ENDBRANCH  55  56
ENDBRANCH   1  55
TORSDOF 13
ENDMDL
