MODEL 1
REMARK VINA RESULT:     -11.4      0.000      0.000
REMARK SMILES O=C(CC[NH+]1CCN(C(=O)c2n[nH]c3ccccc23)CC1)OCCOC(=O)c1ccc(-c2c3nc(c(-c4ccccc4)c4ccc([nH]4)c(-c4ccccc4)c4nc(c(-c5ccccc5)c5ccc2[nH]5)C=C4)C=C3)cc1
REMARK SMILES IDX 23 1 22 2 2 3 1 4 3 5 4 6 5 7 6 8 21 9 7 11 20 12 8 13 9 14
REMARK SMILES IDX 10 15 11 16 12 17 19 18 13 19 14 20 18 21 15 23 17 24 16 25
REMARK SMILES IDX 24 26 25 27 26 28 27 29 28 30 29 31 75 32 30 33 74 34 31 35
REMARK SMILES IDX 32 36 33 37 68 38 34 39 73 40 67 41 69 42 35 43 72 44 66 45
REMARK SMILES IDX 65 46 36 48 58 49 43 50 57 51 44 52 47 53 56 54 70 55 45 56
REMARK SMILES IDX 46 57 55 59 71 60 48 61 37 62 38 63 42 64 39 65 41 66 40 67
REMARK SMILES IDX 59 68 60 69 64 70 61 71 63 72 62 73 49 74 50 75 54 76 51 77
REMARK SMILES IDX 53 78 52 79
REMARK H PARENT 5 10 13 22 69 47 47 58
REMARK Flexibility Score: inf
ROOT
ATOM      1  C   UNL A   1      35.897  21.461  25.752  1.00  0.00     0.274 C 
ENDROOT
BRANCH   1   2
ATOM      2  O   UNL A   1      34.612  20.788  25.713  1.00  0.00    -0.462 OA
BRANCH   2   3
ATOM      3  C   UNL A   1      33.421  21.229  26.187  1.00  0.00     0.311 C 
ATOM      4  O   UNL A   1      33.343  21.630  27.347  1.00  0.00    -0.252 OA
BRANCH   3   5
ATOM      5  C   UNL A   1      32.196  21.233  25.299  1.00  0.00     0.184 C 
BRANCH   5   6
ATOM      6  C   UNL A   1      32.030  22.558  24.525  1.00  0.00     0.274 C 
BRANCH   6   7
ATOM      7  N   UNL A   1      33.225  23.428  24.547  1.00  0.00    -0.332 N 
ATOM      8  C   UNL A   1      33.837  23.601  23.194  1.00  0.00     0.284 C 
ATOM      9  C   UNL A   1      32.948  24.769  25.081  1.00  0.00     0.284 C 
ATOM     10  H   UNL A   1      33.874  22.940  25.164  1.00  0.00     0.348 HD
ATOM     11  C   UNL A   1      33.237  24.710  22.266  1.00  0.00     0.181 C 
ATOM     12  C   UNL A   1      32.011  25.575  24.181  1.00  0.00     0.181 C 
ATOM     13  N   UNL A   1      32.788  25.898  23.005  1.00  0.00    -0.326 N 
ATOM     14  C   UNL A   1      33.209  27.191  22.687  1.00  0.00     0.275 C 
ATOM     15  O   UNL A   1      34.019  27.406  21.786  1.00  0.00    -0.267 OA
BRANCH  14  16
ATOM     16  C   UNL A   1      32.598  28.298  23.460  1.00  0.00     0.157 A 
ATOM     17  N   UNL A   1      31.470  28.887  23.017  1.00  0.00    -0.169 NA
ATOM     18  C   UNL A   1      32.965  28.808  24.754  1.00  0.00     0.033 A 
ATOM     19  N   UNL A   1      31.123  29.727  24.002  1.00  0.00    -0.277 N 
ATOM     20  C   UNL A   1      31.951  29.700  25.089  1.00  0.00     0.066 A 
ATOM     21  C   UNL A   1      33.984  28.573  25.703  1.00  0.00     0.013 A 
ATOM     22  H   UNL A   1      30.335  30.314  23.948  1.00  0.00     0.190 HD
ATOM     23  C   UNL A   1      31.883  30.365  26.318  1.00  0.00     0.028 A 
ATOM     24  C   UNL A   1      33.922  29.210  26.951  1.00  0.00     0.001 A 
ATOM     25  C   UNL A   1      32.886  30.092  27.251  1.00  0.00     0.002 A 
ENDBRANCH  14  16
ENDBRANCH   6   7
ENDBRANCH   5   6
ENDBRANCH   3   5
ENDBRANCH   2   3
ENDBRANCH   1   2
BRANCH   1  26
ATOM     26  C   UNL A   1      36.972  20.742  24.951  1.00  0.00     0.275 C 
BRANCH  26  27
ATOM     27  O   UNL A   1      38.157  21.539  24.919  1.00  0.00    -0.458 OA
BRANCH  27  28
ATOM     28  C   UNL A   1      39.093  21.172  25.833  1.00  0.00     0.338 C 
ATOM     29  O   UNL A   1      39.571  20.071  25.998  1.00  0.00    -0.246 OA
BRANCH  28  30
ATOM     30  C   UNL A   1      39.570  22.395  26.502  1.00  0.00     0.060 A 
ATOM     31  C   UNL A   1      39.005  23.622  26.129  1.00  0.00     0.016 A 
ATOM     32  C   UNL A   1      40.561  22.326  27.483  1.00  0.00     0.016 A 
ATOM     33  C   UNL A   1      39.483  24.801  26.696  1.00  0.00     0.010 A 
ATOM     34  C   UNL A   1      41.040  23.500  28.044  1.00  0.00     0.010 A 
ATOM     35  C   UNL A   1      40.537  24.739  27.613  1.00  0.00    -0.014 A 
BRANCH  35  36
ATOM     36  C   UNL A   1      41.320  25.942  27.950  1.00  0.00     0.031 A 
ATOM     37  C   UNL A   1      40.626  27.018  28.733  1.00  0.00     0.074 A 
ATOM     38  C   UNL A   1      42.560  26.118  27.472  1.00  0.00     0.049 A 
ATOM     39  N   UNL A   1      41.013  28.239  28.990  1.00  0.00    -0.248 NA
ATOM     40  C   UNL A   1      39.298  26.674  29.272  1.00  0.00     0.031 C 
ATOM     41  C   UNL A   1      43.322  25.134  26.708  1.00  0.00     0.029 A 
ATOM     42  N   UNL A   1      43.374  27.219  27.526  1.00  0.00    -0.354 N 
ATOM     43  C   UNL A   1      39.968  28.815  29.699  1.00  0.00     0.074 A 
ATOM     44  C   UNL A   1      38.922  27.823  29.810  1.00  0.00     0.031 C 
ATOM     45  C   UNL A   1      44.487  25.690  26.331  1.00  0.00     0.029 A 
ATOM     46  C   UNL A   1      44.526  27.075  26.796  1.00  0.00     0.049 A 
ATOM     47  H   UNL A   1      43.153  28.030  28.038  1.00  0.00     0.167 HD
ATOM     48  C   UNL A   1      39.885  30.065  30.207  1.00  0.00     0.031 A 
ATOM     49  C   UNL A   1      45.482  27.978  26.508  1.00  0.00     0.031 A 
ATOM     50  C   UNL A   1      40.917  31.053  30.063  1.00  0.00     0.049 A 
ATOM     51  C   UNL A   1      45.354  29.380  27.044  1.00  0.00     0.074 A 
ATOM     52  C   UNL A   1      40.958  32.340  30.566  1.00  0.00     0.029 A 
ATOM     53  N   UNL A   1      42.087  30.861  29.344  1.00  0.00    -0.354 N 
ATOM     54  N   UNL A   1      44.390  29.905  27.762  1.00  0.00    -0.248 NA
ATOM     55  C   UNL A   1      46.450  30.309  26.735  1.00  0.00     0.031 C 
ATOM     56  C   UNL A   1      42.130  32.946  30.104  1.00  0.00     0.029 A 
ATOM     57  C   UNL A   1      42.846  32.016  29.364  1.00  0.00     0.049 A 
ATOM     58  H   UNL A   1      42.340  30.026  28.889  1.00  0.00     0.167 HD
ATOM     59  C   UNL A   1      44.775  31.216  28.015  1.00  0.00     0.074 A 
ATOM     60  C   UNL A   1      46.061  31.404  27.377  1.00  0.00     0.031 C 
ATOM     61  C   UNL A   1      44.125  32.176  28.720  1.00  0.00     0.031 A 
BRANCH  48  62
ATOM     62  C   UNL A   1      38.609  30.431  30.911  1.00  0.00    -0.014 A 
ATOM     63  C   UNL A   1      37.496  30.916  30.204  1.00  0.00     0.009 A 
ATOM     64  C   UNL A   1      38.528  30.312  32.306  1.00  0.00     0.009 A 
ATOM     65  C   UNL A   1      36.348  31.322  30.887  1.00  0.00     0.001 A 
ATOM     66  C   UNL A   1      37.369  30.690  32.984  1.00  0.00     0.001 A 
ATOM     67  C   UNL A   1      36.285  31.208  32.275  1.00  0.00     0.000 A 
ENDBRANCH  48  62
BRANCH  49  68
ATOM     68  C   UNL A   1      46.630  27.581  25.655  1.00  0.00    -0.014 A 
ATOM     69  C   UNL A   1      47.731  26.912  26.208  1.00  0.00     0.009 A 
ATOM     70  C   UNL A   1      46.616  27.844  24.276  1.00  0.00     0.009 A 
ATOM     71  C   UNL A   1      48.802  26.527  25.399  1.00  0.00     0.001 A 
ATOM     72  C   UNL A   1      47.677  27.436  23.466  1.00  0.00     0.001 A 
ATOM     73  C   UNL A   1      48.772  26.782  24.029  1.00  0.00     0.000 A 
ENDBRANCH  49  68
BRANCH  61  74
ATOM     74  C   UNL A   1      44.810  33.504  28.877  1.00  0.00    -0.014 A 
ATOM     75  C   UNL A   1      45.730  33.735  29.909  1.00  0.00     0.009 A 
ATOM     76  C   UNL A   1      44.588  34.510  27.921  1.00  0.00     0.009 A 
ATOM     77  C   UNL A   1      46.402  34.956  29.991  1.00  0.00     0.001 A 
ATOM     78  C   UNL A   1      45.280  35.718  27.991  1.00  0.00     0.001 A 
ATOM     79  C   UNL A   1      46.183  35.943  29.030  1.00  0.00     0.000 A 
ENDBRANCH  61  74
ENDBRANCH  35  36
ENDBRANCH  28  30
ENDBRANCH  27  28
ENDBRANCH  26  27
ENDBRANCH   1  26
TORSDOF 14
ENDMDL
MODEL 2
REMARK VINA RESULT:     -11.3      3.026      6.277
REMARK SMILES O=C(CC[NH+]1CCN(C(=O)c2n[nH]c3ccccc23)CC1)OCCOC(=O)c1ccc(-c2c3nc(c(-c4ccccc4)c4ccc([nH]4)c(-c4ccccc4)c4nc(c(-c5ccccc5)c5ccc2[nH]5)C=C4)C=C3)cc1
REMARK SMILES IDX 23 1 22 2 2 3 1 4 3 5 4 6 5 7 6 8 21 9 7 11 20 12 8 13 9 14
REMARK SMILES IDX 10 15 11 16 12 17 19 18 13 19 14 20 18 21 15 23 17 24 16 25
REMARK SMILES IDX 24 26 25 27 26 28 27 29 28 30 29 31 75 32 30 33 74 34 31 35
REMARK SMILES IDX 32 36 33 37 68 38 34 39 73 40 67 41 69 42 35 43 72 44 66 45
REMARK SMILES IDX 65 46 36 48 58 49 43 50 57 51 44 52 47 53 56 54 70 55 45 56
REMARK SMILES IDX 46 57 55 59 71 60 48 61 37 62 38 63 42 64 39 65 41 66 40 67
REMARK SMILES IDX 59 68 60 69 64 70 61 71 63 72 62 73 49 74 50 75 54 76 51 77
REMARK SMILES IDX 53 78 52 79
REMARK H PARENT 5 10 13 22 69 47 47 58
REMARK Flexibility Score: inf
ROOT
ATOM      1  C   UNL A   1      37.271  20.818  25.158  1.00  0.00     0.274 C 
ENDROOT
BRANCH   1   2
ATOM      2  O   UNL A   1      35.889  21.077  24.803  1.00  0.00    -0.462 OA
BRANCH   2   3
ATOM      3  C   UNL A   1      34.847  21.342  25.629  1.00  0.00     0.311 C 
ATOM      4  O   UNL A   1      35.060  21.562  26.820  1.00  0.00    -0.252 OA
BRANCH   3   5
ATOM      5  C   UNL A   1      33.432  21.373  25.093  1.00  0.00     0.184 C 
BRANCH   5   6
ATOM      6  C   UNL A   1      32.925  22.809  24.843  1.00  0.00     0.274 C 
BRANCH   6   7
ATOM      7  N   UNL A   1      33.997  23.817  24.704  1.00  0.00    -0.332 N 
ATOM      8  C   UNL A   1      34.413  24.023  23.283  1.00  0.00     0.284 C 
ATOM      9  C   UNL A   1      33.625  25.130  25.250  1.00  0.00     0.284 C 
ATOM     10  H   UNL A   1      34.772  23.429  25.241  1.00  0.00     0.348 HD
ATOM     11  C   UNL A   1      33.573  25.025  22.421  1.00  0.00     0.181 C 
ATOM     12  C   UNL A   1      32.493  25.790  24.463  1.00  0.00     0.181 C 
ATOM     13  N   UNL A   1      33.075  26.171  23.195  1.00  0.00    -0.326 N 
ATOM     14  C   UNL A   1      33.292  27.496  22.809  1.00  0.00     0.275 C 
ATOM     15  O   UNL A   1      33.952  27.781  21.811  1.00  0.00    -0.267 OA
BRANCH  14  16
ATOM     16  C   UNL A   1      32.649  28.543  23.637  1.00  0.00     0.157 A 
ATOM     17  N   UNL A   1      31.432  29.014  23.301  1.00  0.00    -0.169 NA
ATOM     18  C   UNL A   1      33.081  29.096  24.893  1.00  0.00     0.033 A 
ATOM     19  N   UNL A   1      31.096  29.823  24.316  1.00  0.00    -0.277 N 
ATOM     20  C   UNL A   1      32.019  29.886  25.321  1.00  0.00     0.066 A 
ATOM     21  C   UNL A   1      34.201  28.969  25.743  1.00  0.00     0.013 A 
ATOM     22  H   UNL A   1      30.252  30.330  24.336  1.00  0.00     0.190 HD
ATOM     23  C   UNL A   1      31.999  30.550  26.553  1.00  0.00     0.028 A 
ATOM     24  C   UNL A   1      34.192  29.606  26.992  1.00  0.00     0.001 A 
ATOM     25  C   UNL A   1      33.106  30.384  27.389  1.00  0.00     0.002 A 
ENDBRANCH  14  16
ENDBRANCH   6   7
ENDBRANCH   5   6
ENDBRANCH   3   5
ENDBRANCH   2   3
ENDBRANCH   1   2
BRANCH   1  26
ATOM     26  C   UNL A   1      38.115  22.082  25.239  1.00  0.00     0.275 C 
BRANCH  26  27
ATOM     27  O   UNL A   1      38.817  22.108  26.483  1.00  0.00    -0.458 OA
BRANCH  27  28
ATOM     28  C   UNL A   1      40.070  22.626  26.397  1.00  0.00     0.338 C 
ATOM     29  O   UNL A   1      41.051  22.110  25.908  1.00  0.00    -0.246 OA
BRANCH  28  30
ATOM     30  C   UNL A   1      40.009  24.024  26.857  1.00  0.00     0.060 A 
ATOM     31  C   UNL A   1      40.631  25.010  26.079  1.00  0.00     0.016 A 
ATOM     32  C   UNL A   1      39.345  24.353  28.041  1.00  0.00     0.016 A 
ATOM     33  C   UNL A   1      40.647  26.330  26.523  1.00  0.00     0.010 A 
ATOM     34  C   UNL A   1      39.365  25.666  28.485  1.00  0.00     0.010 A 
ATOM     35  C   UNL A   1      40.059  26.644  27.753  1.00  0.00    -0.014 A 
BRANCH  35  36
ATOM     36  C   UNL A   1      40.367  27.912  28.439  1.00  0.00     0.031 A 
ATOM     37  C   UNL A   1      41.645  27.978  29.223  1.00  0.00     0.074 A 
ATOM     38  C   UNL A   1      39.484  28.920  28.460  1.00  0.00     0.049 A 
ATOM     39  N   UNL A   1      42.057  28.887  30.065  1.00  0.00    -0.248 NA
ATOM     40  C   UNL A   1      42.568  26.841  29.055  1.00  0.00     0.031 C 
ATOM     41  C   UNL A   1      38.221  28.958  27.727  1.00  0.00     0.029 A 
ATOM     42  N   UNL A   1      39.507  30.093  29.169  1.00  0.00    -0.354 N 
ATOM     43  C   UNL A   1      43.274  28.422  30.544  1.00  0.00     0.074 A 
ATOM     44  C   UNL A   1      43.522  27.142  29.921  1.00  0.00     0.031 C 
ATOM     45  C   UNL A   1      37.566  30.086  28.055  1.00  0.00     0.029 A 
ATOM     46  C   UNL A   1      38.352  30.822  29.044  1.00  0.00     0.049 A 
ATOM     47  H   UNL A   1      40.275  30.382  29.713  1.00  0.00     0.167 HD
ATOM     48  C   UNL A   1      44.108  29.009  31.431  1.00  0.00     0.031 A 
ATOM     49  C   UNL A   1      37.963  31.937  29.689  1.00  0.00     0.031 A 
ATOM     50  C   UNL A   1      43.835  30.267  32.068  1.00  0.00     0.049 A 
ATOM     51  C   UNL A   1      38.884  32.556  30.708  1.00  0.00     0.074 A 
ATOM     52  C   UNL A   1      44.624  30.975  32.956  1.00  0.00     0.029 A 
ATOM     53  N   UNL A   1      42.669  30.995  31.892  1.00  0.00    -0.354 N 
ATOM     54  N   UNL A   1      40.060  32.142  31.117  1.00  0.00    -0.248 NA
ATOM     55  C   UNL A   1      38.426  33.797  31.347  1.00  0.00     0.031 C 
ATOM     56  C   UNL A   1      43.908  32.106  33.361  1.00  0.00     0.029 A 
ATOM     57  C   UNL A   1      42.701  32.132  32.678  1.00  0.00     0.049 A 
ATOM     58  H   UNL A   1      41.928  30.741  31.295  1.00  0.00     0.167 HD
ATOM     59  C   UNL A   1      40.496  33.086  32.039  1.00  0.00     0.074 A 
ATOM     60  C   UNL A   1      39.459  34.095  32.126  1.00  0.00     0.031 C 
ATOM     61  C   UNL A   1      41.654  33.121  32.744  1.00  0.00     0.031 A 
BRANCH  48  62
ATOM     62  C   UNL A   1      45.357  28.257  31.792  1.00  0.00    -0.014 A 
ATOM     63  C   UNL A   1      46.556  28.447  31.086  1.00  0.00     0.009 A 
ATOM     64  C   UNL A   1      45.326  27.324  32.840  1.00  0.00     0.009 A 
ATOM     65  C   UNL A   1      47.684  27.682  31.389  1.00  0.00     0.001 A 
ATOM     66  C   UNL A   1      46.463  26.581  33.160  1.00  0.00     0.001 A 
ATOM     67  C   UNL A   1      47.637  26.750  32.426  1.00  0.00     0.000 A 
ENDBRANCH  48  62
BRANCH  49  68
ATOM     68  C   UNL A   1      36.631  32.524  29.399  1.00  0.00    -0.014 A 
ATOM     69  C   UNL A   1      35.532  32.242  30.224  1.00  0.00     0.009 A 
ATOM     70  C   UNL A   1      36.459  33.395  28.311  1.00  0.00     0.009 A 
ATOM     71  C   UNL A   1      34.285  32.809  29.956  1.00  0.00     0.001 A 
ATOM     72  C   UNL A   1      35.216  33.980  28.061  1.00  0.00     0.001 A 
ATOM     73  C   UNL A   1      34.129  33.682  28.881  1.00  0.00     0.000 A 
ENDBRANCH  49  68
BRANCH  61  74
ATOM     74  C   UNL A   1      41.885  34.303  33.642  1.00  0.00    -0.014 A 
ATOM     75  C   UNL A   1      42.528  35.459  33.176  1.00  0.00     0.009 A 
ATOM     76  C   UNL A   1      41.374  34.285  34.950  1.00  0.00     0.009 A 
ATOM     77  C   UNL A   1      42.670  36.569  34.012  1.00  0.00     0.001 A 
ATOM     78  C   UNL A   1      41.494  35.404  35.773  1.00  0.00     0.001 A 
ATOM     79  C   UNL A   1      42.147  36.544  35.304  1.00  0.00     0.000 A 
ENDBRANCH  61  74
ENDBRANCH  35  36
ENDBRANCH  28  30
ENDBRANCH  27  28
ENDBRANCH  26  27
ENDBRANCH   1  26
TORSDOF 14
ENDMDL
MODEL 3
REMARK VINA RESULT:     -11.2      1.521      2.213
REMARK SMILES O=C(CC[NH+]1CCN(C(=O)c2n[nH]c3ccccc23)CC1)OCCOC(=O)c1ccc(-c2c3nc(c(-c4ccccc4)c4ccc([nH]4)c(-c4ccccc4)c4nc(c(-c5ccccc5)c5ccc2[nH]5)C=C4)C=C3)cc1
REMARK SMILES IDX 23 1 22 2 2 3 1 4 3 5 4 6 5 7 6 8 21 9 7 11 20 12 8 13 9 14
REMARK SMILES IDX 10 15 11 16 12 17 19 18 13 19 14 20 18 21 15 23 17 24 16 25
REMARK SMILES IDX 24 26 25 27 26 28 27 29 28 30 29 31 75 32 30 33 74 34 31 35
REMARK SMILES IDX 32 36 33 37 68 38 34 39 73 40 67 41 69 42 35 43 72 44 66 45
REMARK SMILES IDX 65 46 36 48 58 49 43 50 57 51 44 52 47 53 56 54 70 55 45 56
REMARK SMILES IDX 46 57 55 59 71 60 48 61 37 62 38 63 42 64 39 65 41 66 40 67
REMARK SMILES IDX 59 68 60 69 64 70 61 71 63 72 62 73 49 74 50 75 54 76 51 77
REMARK SMILES IDX 53 78 52 79
REMARK H PARENT 5 10 13 22 69 47 47 58
REMARK Flexibility Score: inf
ROOT
ATOM      1  C   UNL A   1      36.251  20.869  24.998  1.00  0.00     0.274 C 
ENDROOT
BRANCH   1   2
ATOM      2  O   UNL A   1      35.120  19.967  24.881  1.00  0.00    -0.462 OA
BRANCH   2   3
ATOM      3  C   UNL A   1      33.800  20.264  24.968  1.00  0.00     0.311 C 
ATOM      4  O   UNL A   1      33.072  19.577  25.683  1.00  0.00    -0.252 OA
BRANCH   3   5
ATOM      5  C   UNL A   1      33.224  21.431  24.196  1.00  0.00     0.184 C 
BRANCH   5   6
ATOM      6  C   UNL A   1      33.040  22.687  25.075  1.00  0.00     0.274 C 
BRANCH   6   7
ATOM      7  N   UNL A   1      34.082  23.718  24.888  1.00  0.00    -0.332 N 
ATOM      8  C   UNL A   1      34.511  23.852  23.462  1.00  0.00     0.284 C 
ATOM      9  C   UNL A   1      33.663  25.049  25.350  1.00  0.00     0.284 C 
ATOM     10  H   UNL A   1      34.862  23.387  25.457  1.00  0.00     0.348 HD
ATOM     11  C   UNL A   1      33.652  24.773  22.532  1.00  0.00     0.181 C 
ATOM     12  C   UNL A   1      32.522  25.625  24.511  1.00  0.00     0.181 C 
ATOM     13  N   UNL A   1      33.108  25.947  23.229  1.00  0.00    -0.326 N 
ATOM     14  C   UNL A   1      33.290  27.253  22.767  1.00  0.00     0.275 C 
ATOM     15  O   UNL A   1      33.955  27.498  21.762  1.00  0.00    -0.267 OA
BRANCH  14  16
ATOM     16  C   UNL A   1      32.604  28.327  23.523  1.00  0.00     0.157 A 
ATOM     17  N   UNL A   1      31.417  28.800  23.094  1.00  0.00    -0.169 NA
ATOM     18  C   UNL A   1      32.957  28.909  24.790  1.00  0.00     0.033 A 
ATOM     19  N   UNL A   1      31.023  29.638  24.063  1.00  0.00    -0.277 N 
ATOM     20  C   UNL A   1      31.877  29.719  25.126  1.00  0.00     0.066 A 
ATOM     21  C   UNL A   1      34.016  28.795  25.717  1.00  0.00     0.013 A 
ATOM     22  H   UNL A   1      30.185  30.153  24.013  1.00  0.00     0.190 HD
ATOM     23  C   UNL A   1      31.782  30.416  26.336  1.00  0.00     0.028 A 
ATOM     24  C   UNL A   1      33.931  29.465  26.946  1.00  0.00     0.001 A 
ATOM     25  C   UNL A   1      32.829  30.262  27.248  1.00  0.00     0.002 A 
ENDBRANCH  14  16
ENDBRANCH   6   7
ENDBRANCH   5   6
ENDBRANCH   3   5
ENDBRANCH   2   3
ENDBRANCH   1   2
BRANCH   1  26
ATOM     26  C   UNL A   1      37.591  20.149  24.998  1.00  0.00     0.275 C 
BRANCH  26  27
ATOM     27  O   UNL A   1      38.580  20.980  25.607  1.00  0.00    -0.458 OA
BRANCH  27  28
ATOM     28  C   UNL A   1      39.723  20.325  25.938  1.00  0.00     0.338 C 
ATOM     29  O   UNL A   1      39.985  19.157  25.753  1.00  0.00    -0.246 OA
BRANCH  28  30
ATOM     30  C   UNL A   1      40.688  21.326  26.423  1.00  0.00     0.060 A 
ATOM     31  C   UNL A   1      40.930  21.407  27.801  1.00  0.00     0.016 A 
ATOM     32  C   UNL A   1      41.345  22.171  25.526  1.00  0.00     0.016 A 
ATOM     33  C   UNL A   1      41.787  22.387  28.295  1.00  0.00     0.010 A 
ATOM     34  C   UNL A   1      42.195  23.151  26.018  1.00  0.00     0.010 A 
ATOM     35  C   UNL A   1      42.375  23.291  27.404  1.00  0.00    -0.014 A 
BRANCH  35  36
ATOM     36  C   UNL A   1      42.970  24.551  27.886  1.00  0.00     0.031 A 
ATOM     37  C   UNL A   1      42.027  25.648  28.287  1.00  0.00     0.074 A 
ATOM     38  C   UNL A   1      44.295  24.750  27.850  1.00  0.00     0.049 A 
ATOM     39  N   UNL A   1      42.278  26.901  28.556  1.00  0.00    -0.248 NA
ATOM     40  C   UNL A   1      40.601  25.283  28.364  1.00  0.00     0.031 C 
ATOM     41  C   UNL A   1      45.294  23.749  27.482  1.00  0.00     0.029 A 
ATOM     42  N   UNL A   1      45.019  25.888  28.086  1.00  0.00    -0.354 N 
ATOM     43  C   UNL A   1      41.042  27.479  28.810  1.00  0.00     0.074 A 
ATOM     44  C   UNL A   1      40.041  26.449  28.639  1.00  0.00     0.031 C 
ATOM     45  C   UNL A   1      46.506  24.330  27.482  1.00  0.00     0.029 A 
ATOM     46  C   UNL A   1      46.355  25.747  27.813  1.00  0.00     0.049 A 
ATOM     47  H   UNL A   1      44.620  26.724  28.419  1.00  0.00     0.167 HD
ATOM     48  C   UNL A   1      40.764  28.757  29.150  1.00  0.00     0.031 A 
ATOM     49  C   UNL A   1      47.335  26.669  27.794  1.00  0.00     0.031 A 
ATOM     50  C   UNL A   1      41.764  29.780  29.286  1.00  0.00     0.049 A 
ATOM     51  C   UNL A   1      47.003  28.099  28.132  1.00  0.00     0.074 A 
ATOM     52  C   UNL A   1      41.604  31.101  29.660  1.00  0.00     0.029 A 
ATOM     53  N   UNL A   1      43.114  29.590  29.033  1.00  0.00    -0.354 N 
ATOM     54  N   UNL A   1      45.840  28.630  28.426  1.00  0.00    -0.248 NA
ATOM     55  C   UNL A   1      48.120  29.054  28.140  1.00  0.00     0.031 C 
ATOM     56  C   UNL A   1      42.852  31.726  29.579  1.00  0.00     0.029 A 
ATOM     57  C   UNL A   1      43.797  30.778  29.213  1.00  0.00     0.049 A 
ATOM     58  H   UNL A   1      43.525  28.736  28.765  1.00  0.00     0.167 HD
ATOM     59  C   UNL A   1      46.088  29.972  28.684  1.00  0.00     0.074 A 
ATOM     60  C   UNL A   1      47.513  30.173  28.513  1.00  0.00     0.031 C 
ATOM     61  C   UNL A   1      45.217  30.950  29.037  1.00  0.00     0.031 A 
BRANCH  48  62
ATOM     62  C   UNL A   1      39.317  29.114  29.338  1.00  0.00    -0.014 A 
ATOM     63  C   UNL A   1      38.699  29.026  30.596  1.00  0.00     0.009 A 
ATOM     64  C   UNL A   1      38.553  29.519  28.233  1.00  0.00     0.009 A 
ATOM     65  C   UNL A   1      37.335  29.288  30.734  1.00  0.00     0.001 A 
ATOM     66  C   UNL A   1      37.196  29.809  28.379  1.00  0.00     0.001 A 
ATOM     67  C   UNL A   1      36.585  29.680  29.625  1.00  0.00     0.000 A 
ENDBRANCH  48  62
BRANCH  49  68
ATOM     68  C   UNL A   1      48.714  26.266  27.426  1.00  0.00    -0.014 A 
ATOM     69  C   UNL A   1      49.142  26.322  26.091  1.00  0.00     0.009 A 
ATOM     70  C   UNL A   1      49.622  25.848  28.414  1.00  0.00     0.009 A 
ATOM     71  C   UNL A   1      50.446  25.956  25.752  1.00  0.00     0.001 A 
ATOM     72  C   UNL A   1      50.932  25.507  28.074  1.00  0.00     0.001 A 
ATOM     73  C   UNL A   1      51.341  25.556  26.742  1.00  0.00     0.000 A 
ENDBRANCH  49  68
BRANCH  61  74
ATOM     74  C   UNL A   1      45.780  32.317  29.306  1.00  0.00    -0.014 A 
ATOM     75  C   UNL A   1      45.889  33.275  28.287  1.00  0.00     0.009 A 
ATOM     76  C   UNL A   1      46.126  32.674  30.619  1.00  0.00     0.009 A 
ATOM     77  C   UNL A   1      46.353  34.560  28.578  1.00  0.00     0.001 A 
ATOM     78  C   UNL A   1      46.563  33.966  30.911  1.00  0.00     0.001 A 
ATOM     79  C   UNL A   1      46.681  34.906  29.888  1.00  0.00     0.000 A 
ENDBRANCH  61  74
ENDBRANCH  35  36
ENDBRANCH  28  30
ENDBRANCH  27  28
ENDBRANCH  26  27
ENDBRANCH   1  26
TORSDOF 14
ENDMDL
