MODEL 1
REMARK VINA RESULT:     -11.4      0.000      0.000
REMARK SMILES O=C(OCCOC(=O)c1c[nH]c(=O)c(-c2cccc([N+](=O)[O-])c2)c1)c1ccc(-c2c3nc(c(-c4ccccc4)c4ccc([nH]4)c(-c4ccccc4)c4nc(c(-c5ccccc5)c5ccc2[nH]5)C=C4)C=C3)cc1
REMARK SMILES IDX 4 1 3 2 2 3 1 4 25 5 26 6 72 7 27 8 71 9 28 10 29 11 30 12
REMARK SMILES IDX 65 13 31 14 70 15 64 16 66 17 32 18 69 19 63 20 62 21 33 23
REMARK SMILES IDX 55 24 40 25 54 26 41 27 44 28 53 29 67 30 42 31 43 32 52 34
REMARK SMILES IDX 68 35 45 36 34 37 35 38 39 39 36 40 38 41 37 42 56 43 57 44
REMARK SMILES IDX 61 45 58 46 60 47 59 48 46 49 47 50 51 51 48 52 50 53 49 54
REMARK SMILES IDX 5 55 6 56 7 57 8 58 9 59 10 60 24 61 11 62 14 63 12 64 13 66
REMARK SMILES IDX 15 67 16 68 23 69 17 70 19 71 18 72 20 73 21 74 22 75
REMARK H PARENT 66 22 44 33 11 65
REMARK Flexibility Score: inf
ROOT
ATOM      1  C   UNL A   1      39.135  19.724  25.379  1.00  0.00     0.275 C 
ENDROOT
BRANCH   1   2
ATOM      2  O   UNL A   1      40.303  19.081  25.924  1.00  0.00    -0.458 OA
BRANCH   2   3
ATOM      3  C   UNL A   1      41.592  19.492  25.960  1.00  0.00     0.338 C 
ATOM      4  O   UNL A   1      42.475  18.710  25.612  1.00  0.00    -0.246 OA
BRANCH   3   5
ATOM      5  C   UNL A   1      42.027  20.796  26.551  1.00  0.00     0.060 A 
ATOM      6  C   UNL A   1      41.943  21.148  27.899  1.00  0.00     0.016 A 
ATOM      7  C   UNL A   1      42.528  21.756  25.649  1.00  0.00     0.016 A 
ATOM      8  C   UNL A   1      42.395  22.393  28.345  1.00  0.00     0.010 A 
ATOM      9  C   UNL A   1      42.988  23.000  26.088  1.00  0.00     0.010 A 
ATOM     10  C   UNL A   1      42.910  23.330  27.445  1.00  0.00    -0.014 A 
BRANCH  10  11
ATOM     11  C   UNL A   1      43.169  24.710  27.912  1.00  0.00     0.031 A 
ATOM     12  C   UNL A   1      44.598  25.128  28.122  1.00  0.00     0.074 A 
ATOM     13  C   UNL A   1      42.164  25.596  28.044  1.00  0.00     0.049 A 
ATOM     14  N   UNL A   1      45.077  26.304  28.437  1.00  0.00    -0.248 NA
ATOM     15  C   UNL A   1      45.630  24.099  27.901  1.00  0.00     0.031 C 
ATOM     16  C   UNL A   1      40.749  25.330  27.779  1.00  0.00     0.029 A 
ATOM     17  N   UNL A   1      42.180  26.907  28.446  1.00  0.00    -0.354 N 
ATOM     18  C   UNL A   1      46.458  26.168  28.389  1.00  0.00     0.074 A 
ATOM     19  C   UNL A   1      46.745  24.783  28.097  1.00  0.00     0.031 C 
ATOM     20  C   UNL A   1      40.028  26.426  28.079  1.00  0.00     0.029 A 
ATOM     21  C   UNL A   1      40.930  27.471  28.548  1.00  0.00     0.049 A 
ATOM     22  H   UNL A   1      43.009  27.399  28.644  1.00  0.00     0.167 HD
ATOM     23  C   UNL A   1      47.404  27.125  28.530  1.00  0.00     0.031 A 
ATOM     24  C   UNL A   1      40.569  28.686  28.999  1.00  0.00     0.031 A 
ATOM     25  C   UNL A   1      47.114  28.485  28.887  1.00  0.00     0.049 A 
ATOM     26  C   UNL A   1      41.644  29.663  29.378  1.00  0.00     0.074 A 
ATOM     27  C   UNL A   1      47.988  29.542  29.063  1.00  0.00     0.029 A 
ATOM     28  N   UNL A   1      45.841  28.966  29.150  1.00  0.00    -0.354 N 
ATOM     29  N   UNL A   1      42.945  29.510  29.356  1.00  0.00    -0.248 NA
ATOM     30  C   UNL A   1      41.192  30.995  29.802  1.00  0.00     0.031 C 
ATOM     31  C   UNL A   1      47.244  30.654  29.474  1.00  0.00     0.029 A 
ATOM     32  C   UNL A   1      45.904  30.301  29.500  1.00  0.00     0.049 A 
ATOM     33  H   UNL A   1      45.013  28.435  29.094  1.00  0.00     0.167 HD
ATOM     34  C   UNL A   1      43.471  30.735  29.739  1.00  0.00     0.074 A 
ATOM     35  C   UNL A   1      42.347  31.611  30.007  1.00  0.00     0.031 C 
ATOM     36  C   UNL A   1      44.768  31.121  29.819  1.00  0.00     0.031 A 
BRANCH  23  37
ATOM     37  C   UNL A   1      48.828  26.719  28.280  1.00  0.00    -0.014 A 
ATOM     38  C   UNL A   1      49.645  26.293  29.343  1.00  0.00     0.009 A 
ATOM     39  C   UNL A   1      49.361  26.749  26.984  1.00  0.00     0.009 A 
ATOM     40  C   UNL A   1      50.976  25.937  29.116  1.00  0.00     0.001 A 
ATOM     41  C   UNL A   1      50.687  26.372  26.757  1.00  0.00     0.001 A 
ATOM     42  C   UNL A   1      51.494  25.975  27.823  1.00  0.00     0.000 A 
ENDBRANCH  23  37
BRANCH  24  43
ATOM     43  C   UNL A   1      39.142  29.065  29.162  1.00  0.00    -0.014 A 
ATOM     44  C   UNL A   1      38.445  28.821  30.350  1.00  0.00     0.009 A 
ATOM     45  C   UNL A   1      38.447  29.608  28.070  1.00  0.00     0.009 A 
ATOM     46  C   UNL A   1      37.082  29.127  30.443  1.00  0.00     0.001 A 
ATOM     47  C   UNL A   1      37.091  29.924  28.167  1.00  0.00     0.001 A 
ATOM     48  C   UNL A   1      36.408  29.682  29.355  1.00  0.00     0.000 A 
ENDBRANCH  24  43
BRANCH  36  49
ATOM     49  C   UNL A   1      45.009  32.556  30.179  1.00  0.00    -0.014 A 
ATOM     50  C   UNL A   1      45.164  32.958  31.513  1.00  0.00     0.009 A 
ATOM     51  C   UNL A   1      45.057  33.517  29.158  1.00  0.00     0.009 A 
ATOM     52  C   UNL A   1      45.327  34.309  31.821  1.00  0.00     0.001 A 
ATOM     53  C   UNL A   1      45.246  34.863  29.468  1.00  0.00     0.001 A 
ATOM     54  C   UNL A   1      45.368  35.258  30.799  1.00  0.00     0.000 A 
ENDBRANCH  36  49
ENDBRANCH  10  11
ENDBRANCH   3   5
ENDBRANCH   2   3
ENDBRANCH   1   2
BRANCH   1  55
ATOM     55  C   UNL A   1      38.888  21.150  25.881  1.00  0.00     0.275 C 
BRANCH  55  56
ATOM     56  O   UNL A   1      38.006  21.898  25.035  1.00  0.00    -0.458 OA
BRANCH  56  57
ATOM     57  C   UNL A   1      37.188  22.760  25.696  1.00  0.00     0.339 C 
ATOM     58  O   UNL A   1      37.510  23.839  26.171  1.00  0.00    -0.246 OA
BRANCH  57  59
ATOM     59  C   UNL A   1      35.793  22.267  25.641  1.00  0.00     0.077 A 
ATOM     60  C   UNL A   1      34.851  23.087  26.133  1.00  0.00     0.101 A 
ATOM     61  C   UNL A   1      35.410  20.990  25.069  1.00  0.00     0.031 A 
ATOM     62  N   UNL A   1      33.528  22.738  26.059  1.00  0.00    -0.328 N 
ATOM     63  C   UNL A   1      34.119  20.596  25.019  1.00  0.00     0.048 A 
ATOM     64  C   UNL A   1      33.068  21.560  25.523  1.00  0.00     0.255 A 
ATOM     65  H   UNL A   1      32.865  23.373  26.415  1.00  0.00     0.169 HD
ATOM     66  O   UNL A   1      31.865  21.324  25.465  1.00  0.00    -0.269 OA
BRANCH  63  67
ATOM     67  C   UNL A   1      33.735  19.256  24.524  1.00  0.00    -0.006 A 
ATOM     68  C   UNL A   1      32.889  19.123  23.408  1.00  0.00     0.009 A 
ATOM     69  C   UNL A   1      34.261  18.096  25.113  1.00  0.00     0.094 A 
ATOM     70  C   UNL A   1      32.597  17.868  22.870  1.00  0.00     0.008 A 
ATOM     71  C   UNL A   1      33.968  16.839  24.567  1.00  0.00     0.270 A 
ATOM     72  C   UNL A   1      33.154  16.724  23.435  1.00  0.00     0.085 A 
BRANCH  71  73
ATOM     73  N   UNL A   1      34.526  15.633  25.186  1.00  0.00     0.062 N 
ATOM     74  O   UNL A   1      35.722  15.661  25.515  1.00  0.00    -0.258 OA
ATOM     75  O   UNL A   1      33.775  14.661  25.345  1.00  0.00    -0.258 OA
ENDBRANCH  71  73
ENDBRANCH  63  67
ENDBRANCH  57  59
ENDBRANCH  56  57
ENDBRANCH  55  56
ENDBRANCH   1  55
TORSDOF 13
ENDMDL
MODEL 2
REMARK VINA RESULT:     -11.4      4.192      7.563
REMARK SMILES O=C(OCCOC(=O)c1c[nH]c(=O)c(-c2cccc([N+](=O)[O-])c2)c1)c1ccc(-c2c3nc(c(-c4ccccc4)c4ccc([nH]4)c(-c4ccccc4)c4nc(c(-c5ccccc5)c5ccc2[nH]5)C=C4)C=C3)cc1
REMARK SMILES IDX 4 1 3 2 2 3 1 4 25 5 26 6 72 7 27 8 71 9 28 10 29 11 30 12
REMARK SMILES IDX 65 13 31 14 70 15 64 16 66 17 32 18 69 19 63 20 62 21 33 23
REMARK SMILES IDX 55 24 40 25 54 26 41 27 44 28 53 29 67 30 42 31 43 32 52 34
REMARK SMILES IDX 68 35 45 36 34 37 35 38 39 39 36 40 38 41 37 42 56 43 57 44
REMARK SMILES IDX 61 45 58 46 60 47 59 48 46 49 47 50 51 51 48 52 50 53 49 54
REMARK SMILES IDX 5 55 6 56 7 57 8 58 9 59 10 60 24 61 11 62 14 63 12 64 13 66
REMARK SMILES IDX 15 67 16 68 23 69 17 70 19 71 18 72 20 73 21 74 22 75
REMARK H PARENT 66 22 44 33 11 65
REMARK Flexibility Score: inf
ROOT
ATOM      1  C   UNL A   1      40.727  20.811  27.076  1.00  0.00     0.275 C 
ENDROOT
BRANCH   1   2
ATOM      2  O   UNL A   1      40.310  21.844  26.162  1.00  0.00    -0.458 OA
BRANCH   2   3
ATOM      3  C   UNL A   1      39.334  22.775  26.278  1.00  0.00     0.338 C 
ATOM      4  O   UNL A   1      38.244  22.559  25.751  1.00  0.00    -0.246 OA
BRANCH   3   5
ATOM      5  C   UNL A   1      39.550  24.127  26.879  1.00  0.00     0.060 A 
ATOM      6  C   UNL A   1      40.347  25.139  26.342  1.00  0.00     0.016 A 
ATOM      7  C   UNL A   1      38.916  24.372  28.113  1.00  0.00     0.016 A 
ATOM      8  C   UNL A   1      40.464  26.376  26.983  1.00  0.00     0.010 A 
ATOM      9  C   UNL A   1      39.023  25.608  28.757  1.00  0.00     0.010 A 
ATOM     10  C   UNL A   1      39.814  26.615  28.197  1.00  0.00    -0.014 A 
BRANCH  10  11
ATOM     11  C   UNL A   1      40.137  27.845  28.955  1.00  0.00     0.031 A 
ATOM     12  C   UNL A   1      41.466  27.913  29.658  1.00  0.00     0.074 A 
ATOM     13  C   UNL A   1      39.315  28.910  28.929  1.00  0.00     0.049 A 
ATOM     14  N   UNL A   1      42.007  28.912  30.304  1.00  0.00    -0.248 NA
ATOM     15  C   UNL A   1      42.317  26.712  29.584  1.00  0.00     0.031 C 
ATOM     16  C   UNL A   1      38.045  28.992  28.205  1.00  0.00     0.029 A 
ATOM     17  N   UNL A   1      39.422  30.133  29.540  1.00  0.00    -0.354 N 
ATOM     18  C   UNL A   1      43.281  28.482  30.654  1.00  0.00     0.074 A 
ATOM     19  C   UNL A   1      43.405  27.109  30.225  1.00  0.00     0.031 C 
ATOM     20  C   UNL A   1      37.466  30.180  28.460  1.00  0.00     0.029 A 
ATOM     21  C   UNL A   1      38.327  30.943  29.355  1.00  0.00     0.049 A 
ATOM     22  H   UNL A   1      40.211  30.406  30.062  1.00  0.00     0.167 HD
ATOM     23  C   UNL A   1      44.277  29.187  31.240  1.00  0.00     0.031 A 
ATOM     24  C   UNL A   1      38.052  32.151  29.881  1.00  0.00     0.031 A 
ATOM     25  C   UNL A   1      44.124  30.529  31.724  1.00  0.00     0.049 A 
ATOM     26  C   UNL A   1      39.092  32.819  30.733  1.00  0.00     0.074 A 
ATOM     27  C   UNL A   1      45.058  31.343  32.339  1.00  0.00     0.029 A 
ATOM     28  N   UNL A   1      42.939  31.247  31.668  1.00  0.00    -0.354 N 
ATOM     29  N   UNL A   1      40.279  32.388  31.080  1.00  0.00    -0.248 NA
ATOM     30  C   UNL A   1      38.762  34.164  31.226  1.00  0.00     0.031 C 
ATOM     31  C   UNL A   1      44.424  32.539  32.693  1.00  0.00     0.029 A 
ATOM     32  C   UNL A   1      43.112  32.489  32.250  1.00  0.00     0.049 A 
ATOM     33  H   UNL A   1      42.098  30.920  31.273  1.00  0.00     0.167 HD
ATOM     34  C   UNL A   1      40.851  33.417  31.812  1.00  0.00     0.074 A 
ATOM     35  C   UNL A   1      39.871  34.484  31.876  1.00  0.00     0.031 C 
ATOM     36  C   UNL A   1      42.093  33.498  32.348  1.00  0.00     0.031 A 
BRANCH  23  37
ATOM     37  C   UNL A   1      45.610  28.507  31.366  1.00  0.00    -0.014 A 
ATOM     38  C   UNL A   1      46.559  28.602  30.333  1.00  0.00     0.009 A 
ATOM     39  C   UNL A   1      45.930  27.776  32.518  1.00  0.00     0.009 A 
ATOM     40  C   UNL A   1      47.790  27.951  30.439  1.00  0.00     0.001 A 
ATOM     41  C   UNL A   1      47.171  27.144  32.630  1.00  0.00     0.001 A 
ATOM     42  C   UNL A   1      48.095  27.225  31.589  1.00  0.00     0.000 A 
ENDBRANCH  23  37
BRANCH  24  43
ATOM     43  C   UNL A   1      36.740  32.814  29.667  1.00  0.00    -0.014 A 
ATOM     44  C   UNL A   1      35.702  32.713  30.600  1.00  0.00     0.009 A 
ATOM     45  C   UNL A   1      36.503  33.494  28.462  1.00  0.00     0.009 A 
ATOM     46  C   UNL A   1      34.456  33.291  30.332  1.00  0.00     0.001 A 
ATOM     47  C   UNL A   1      35.264  34.080  28.201  1.00  0.00     0.001 A 
ATOM     48  C   UNL A   1      34.239  33.978  29.138  1.00  0.00     0.000 A 
ENDBRANCH  24  43
BRANCH  36  49
ATOM     49  C   UNL A   1      42.445  34.796  33.008  1.00  0.00    -0.014 A 
ATOM     50  C   UNL A   1      42.038  35.082  34.319  1.00  0.00     0.009 A 
ATOM     51  C   UNL A   1      43.179  35.752  32.290  1.00  0.00     0.009 A 
ATOM     52  C   UNL A   1      42.328  36.323  34.886  1.00  0.00     0.001 A 
ATOM     53  C   UNL A   1      43.490  36.981  32.869  1.00  0.00     0.001 A 
ATOM     54  C   UNL A   1      43.054  37.269  34.161  1.00  0.00     0.000 A 
ENDBRANCH  36  49
ENDBRANCH  10  11
ENDBRANCH   3   5
ENDBRANCH   2   3
ENDBRANCH   1   2
BRANCH   1  55
ATOM     55  C   UNL A   1      41.198  19.513  26.413  1.00  0.00     0.275 C 
BRANCH  55  56
ATOM     56  O   UNL A   1      42.110  19.734  25.331  1.00  0.00    -0.458 OA
BRANCH  56  57
ATOM     57  C   UNL A   1      43.403  19.415  25.609  1.00  0.00     0.339 C 
ATOM     58  O   UNL A   1      43.811  18.327  25.987  1.00  0.00    -0.246 OA
BRANCH  57  59
ATOM     59  C   UNL A   1      44.285  20.549  25.252  1.00  0.00     0.077 A 
ATOM     60  C   UNL A   1      45.247  20.295  24.352  1.00  0.00     0.101 A 
ATOM     61  C   UNL A   1      44.139  21.887  25.793  1.00  0.00     0.031 A 
ATOM     62  N   UNL A   1      46.064  21.304  23.914  1.00  0.00    -0.328 N 
ATOM     63  C   UNL A   1      44.955  22.895  25.416  1.00  0.00     0.048 A 
ATOM     64  C   UNL A   1      45.993  22.603  24.356  1.00  0.00     0.255 A 
ATOM     65  H   UNL A   1      46.747  21.083  23.241  1.00  0.00     0.169 HD
ATOM     66  O   UNL A   1      46.740  23.463  23.900  1.00  0.00    -0.269 OA
BRANCH  63  67
ATOM     67  C   UNL A   1      44.869  24.236  26.036  1.00  0.00    -0.006 A 
ATOM     68  C   UNL A   1      45.612  24.536  27.192  1.00  0.00     0.009 A 
ATOM     69  C   UNL A   1      44.102  25.252  25.445  1.00  0.00     0.094 A 
ATOM     70  C   UNL A   1      45.616  25.824  27.733  1.00  0.00     0.008 A 
ATOM     71  C   UNL A   1      44.113  26.543  25.988  1.00  0.00     0.270 A 
ATOM     72  C   UNL A   1      44.884  26.836  27.118  1.00  0.00     0.085 A 
BRANCH  71  73
ATOM     73  N   UNL A   1      43.312  27.599  25.362  1.00  0.00     0.062 N 
ATOM     74  O   UNL A   1      42.550  27.267  24.440  1.00  0.00    -0.258 OA
ATOM     75  O   UNL A   1      43.439  28.755  25.787  1.00  0.00    -0.258 OA
ENDBRANCH  71  73
ENDBRANCH  63  67
ENDBRANCH  57  59
ENDBRANCH  56  57
ENDBRANCH  55  56
ENDBRANCH   1  55
TORSDOF 13
ENDMDL
MODEL 3
REMARK VINA RESULT:     -11.4      2.208      3.982
REMARK SMILES O=C(OCCOC(=O)c1c[nH]c(=O)c(-c2cccc([N+](=O)[O-])c2)c1)c1ccc(-c2c3nc(c(-c4ccccc4)c4ccc([nH]4)c(-c4ccccc4)c4nc(c(-c5ccccc5)c5ccc2[nH]5)C=C4)C=C3)cc1
REMARK SMILES IDX 4 1 3 2 2 3 1 4 25 5 26 6 72 7 27 8 71 9 28 10 29 11 30 12
REMARK SMILES IDX 65 13 31 14 70 15 64 16 66 17 32 18 69 19 63 20 62 21 33 23
REMARK SMILES IDX 55 24 40 25 54 26 41 27 44 28 53 29 67 30 42 31 43 32 52 34
REMARK SMILES IDX 68 35 45 36 34 37 35 38 39 39 36 40 38 41 37 42 56 43 57 44
REMARK SMILES IDX 61 45 58 46 60 47 59 48 46 49 47 50 51 51 48 52 50 53 49 54
REMARK SMILES IDX 5 55 6 56 7 57 8 58 9 59 10 60 24 61 11 62 14 63 12 64 13 66
REMARK SMILES IDX 15 67 16 68 23 69 17 70 19 71 18 72 20 73 21 74 22 75
REMARK H PARENT 66 22 44 33 11 65
REMARK Flexibility Score: inf
ROOT
ATOM      1  C   UNL A   1      38.593  19.869  25.056  1.00  0.00     0.275 C 
ENDROOT
BRANCH   1   2
ATOM      2  O   UNL A   1      39.626  19.142  25.750  1.00  0.00    -0.458 OA
BRANCH   2   3
ATOM      3  C   UNL A   1      40.928  19.450  25.953  1.00  0.00     0.338 C 
ATOM      4  O   UNL A   1      41.780  18.584  25.758  1.00  0.00    -0.246 OA
BRANCH   3   5
ATOM      5  C   UNL A   1      41.388  20.740  26.555  1.00  0.00     0.060 A 
ATOM      6  C   UNL A   1      41.262  21.104  27.896  1.00  0.00     0.016 A 
ATOM      7  C   UNL A   1      41.962  21.674  25.670  1.00  0.00     0.016 A 
ATOM      8  C   UNL A   1      41.743  22.334  28.354  1.00  0.00     0.010 A 
ATOM      9  C   UNL A   1      42.452  22.903  26.121  1.00  0.00     0.010 A 
ATOM     10  C   UNL A   1      42.330  23.244  27.471  1.00  0.00    -0.014 A 
BRANCH  10  11
ATOM     11  C   UNL A   1      42.623  24.616  27.943  1.00  0.00     0.031 A 
ATOM     12  C   UNL A   1      44.060  24.990  28.179  1.00  0.00     0.074 A 
ATOM     13  C   UNL A   1      41.644  25.534  28.053  1.00  0.00     0.049 A 
ATOM     14  N   UNL A   1      44.569  26.151  28.503  1.00  0.00    -0.248 NA
ATOM     15  C   UNL A   1      45.063  23.929  27.981  1.00  0.00     0.031 C 
ATOM     16  C   UNL A   1      40.226  25.311  27.761  1.00  0.00     0.029 A 
ATOM     17  N   UNL A   1      41.692  26.844  28.454  1.00  0.00    -0.354 N 
ATOM     18  C   UNL A   1      45.946  25.972  28.482  1.00  0.00     0.074 A 
ATOM     19  C   UNL A   1      46.196  24.579  28.197  1.00  0.00     0.031 C 
ATOM     20  C   UNL A   1      39.535  26.429  28.045  1.00  0.00     0.029 A 
ATOM     21  C   UNL A   1      40.459  27.446  28.531  1.00  0.00     0.049 A 
ATOM     22  H   UNL A   1      42.533  27.310  28.667  1.00  0.00     0.167 HD
ATOM     23  C   UNL A   1      46.919  26.900  28.641  1.00  0.00     0.031 A 
ATOM     24  C   UNL A   1      40.127  28.673  28.973  1.00  0.00     0.031 A 
ATOM     25  C   UNL A   1      46.664  28.269  28.990  1.00  0.00     0.049 A 
ATOM     26  C   UNL A   1      41.225  29.617  29.372  1.00  0.00     0.074 A 
ATOM     27  C   UNL A   1      47.567  29.299  29.182  1.00  0.00     0.029 A 
ATOM     28  N   UNL A   1      45.401  28.789  29.227  1.00  0.00    -0.354 N 
ATOM     29  N   UNL A   1      42.520  29.424  29.376  1.00  0.00    -0.248 NA
ATOM     30  C   UNL A   1      40.806  30.963  29.786  1.00  0.00     0.031 C 
ATOM     31  C   UNL A   1      46.850  30.434  29.577  1.00  0.00     0.029 A 
ATOM     32  C   UNL A   1      45.499  30.123  29.577  1.00  0.00     0.049 A 
ATOM     33  H   UNL A   1      44.559  28.284  29.156  1.00  0.00     0.167 HD
ATOM     34  C   UNL A   1      43.077  30.632  29.768  1.00  0.00     0.074 A 
ATOM     35  C   UNL A   1      41.976  31.543  30.013  1.00  0.00     0.031 C 
ATOM     36  C   UNL A   1      44.383  30.978  29.873  1.00  0.00     0.031 A 
BRANCH  23  37
ATOM     37  C   UNL A   1      48.334  26.449  28.419  1.00  0.00    -0.014 A 
ATOM     38  C   UNL A   1      49.100  25.954  29.489  1.00  0.00     0.009 A 
ATOM     39  C   UNL A   1      48.908  26.507  27.142  1.00  0.00     0.009 A 
ATOM     40  C   UNL A   1      50.424  25.556  29.290  1.00  0.00     0.001 A 
ATOM     41  C   UNL A   1      50.226  26.088  26.942  1.00  0.00     0.001 A 
ATOM     42  C   UNL A   1      50.984  25.622  28.016  1.00  0.00     0.000 A 
ENDBRANCH  23  37
BRANCH  24  43
ATOM     43  C   UNL A   1      38.710  29.097  29.107  1.00  0.00    -0.014 A 
ATOM     44  C   UNL A   1      38.027  29.731  28.063  1.00  0.00     0.009 A 
ATOM     45  C   UNL A   1      38.058  28.934  30.340  1.00  0.00     0.009 A 
ATOM     46  C   UNL A   1      36.715  30.179  28.249  1.00  0.00     0.001 A 
ATOM     47  C   UNL A   1      36.745  29.372  30.521  1.00  0.00     0.001 A 
ATOM     48  C   UNL A   1      36.074  29.996  29.474  1.00  0.00     0.000 A 
ENDBRANCH  24  43
BRANCH  36  49
ATOM     49  C   UNL A   1      44.661  32.405  30.236  1.00  0.00    -0.014 A 
ATOM     50  C   UNL A   1      44.762  33.401  29.254  1.00  0.00     0.009 A 
ATOM     51  C   UNL A   1      44.846  32.744  31.585  1.00  0.00     0.009 A 
ATOM     52  C   UNL A   1      45.082  34.710  29.618  1.00  0.00     0.001 A 
ATOM     53  C   UNL A   1      45.140  34.057  31.946  1.00  0.00     0.001 A 
ATOM     54  C   UNL A   1      45.269  35.036  30.962  1.00  0.00     0.000 A 
ENDBRANCH  36  49
ENDBRANCH  10  11
ENDBRANCH   3   5
ENDBRANCH   2   3
ENDBRANCH   1   2
BRANCH   1  55
ATOM     55  C   UNL A   1      38.399  21.316  25.518  1.00  0.00     0.275 C 
BRANCH  55  56
ATOM     56  O   UNL A   1      37.024  21.655  25.738  1.00  0.00    -0.458 OA
BRANCH  56  57
ATOM     57  C   UNL A   1      36.778  22.990  25.815  1.00  0.00     0.339 C 
ATOM     58  O   UNL A   1      37.572  23.885  25.568  1.00  0.00    -0.246 OA
BRANCH  57  59
ATOM     59  C   UNL A   1      35.345  23.218  26.112  1.00  0.00     0.077 A 
ATOM     60  C   UNL A   1      34.724  22.261  26.819  1.00  0.00     0.101 A 
ATOM     61  C   UNL A   1      34.616  24.406  25.711  1.00  0.00     0.031 A 
ATOM     62  N   UNL A   1      33.417  22.423  27.196  1.00  0.00    -0.328 N 
ATOM     63  C   UNL A   1      33.315  24.579  26.030  1.00  0.00     0.048 A 
ATOM     64  C   UNL A   1      32.650  23.518  26.878  1.00  0.00     0.255 A 
ATOM     65  H   UNL A   1      33.000  21.707  27.728  1.00  0.00     0.169 HD
ATOM     66  O   UNL A   1      31.492  23.609  27.273  1.00  0.00    -0.269 OA
BRANCH  63  67
ATOM     67  C   UNL A   1      32.545  25.743  25.542  1.00  0.00    -0.006 A 
ATOM     68  C   UNL A   1      32.239  26.810  26.407  1.00  0.00     0.009 A 
ATOM     69  C   UNL A   1      32.165  25.840  24.194  1.00  0.00     0.094 A 
ATOM     70  C   UNL A   1      31.598  27.959  25.938  1.00  0.00     0.008 A 
ATOM     71  C   UNL A   1      31.526  26.996  23.727  1.00  0.00     0.270 A 
ATOM     72  C   UNL A   1      31.260  28.064  24.592  1.00  0.00     0.085 A 
BRANCH  71  73
ATOM     73  N   UNL A   1      31.137  27.089  22.318  1.00  0.00     0.062 N 
ATOM     74  O   UNL A   1      31.695  26.320  21.519  1.00  0.00    -0.258 OA
ATOM     75  O   UNL A   1      30.278  27.924  22.005  1.00  0.00    -0.258 OA
ENDBRANCH  71  73
ENDBRANCH  63  67
ENDBRANCH  57  59
ENDBRANCH  56  57
ENDBRANCH  55  56
ENDBRANCH   1  55
TORSDOF 13
ENDMDL
