MODEL 1
REMARK VINA RESULT:     -10.6      0.000      0.000
REMARK SMILES O=C(CCn1ccnc1)N[C@H]1C=C[C@H](C(=O)OCCOC(=O)c2ccc(-c3c4nc(c(-c5ccccc5)c5ccc([nH]5)c(-c5ccccc5)c5nc(c(-c6ccccc6)c6ccc3[nH]6)C=C5)C=C4)cc2)C1
REMARK SMILES IDX 18 1 17 2 15 3 16 4 14 5 11 6 12 7 71 8 13 9 10 10 1 11 2 12
REMARK SMILES IDX 3 14 4 15 5 16 6 17 9 18 7 19 8 20 19 21 20 22 21 23 22 24
REMARK SMILES IDX 23 25 24 26 70 27 25 28 69 29 26 30 27 31 28 32 63 33 29 34
REMARK SMILES IDX 68 35 62 36 64 37 30 38 67 39 61 40 60 41 31 43 53 44 38 45
REMARK SMILES IDX 52 46 39 47 42 48 51 49 65 50 40 51 41 52 50 54 66 55 43 56
REMARK SMILES IDX 32 57 33 58 37 59 34 60 36 61 35 62 54 63 55 64 59 65 56 66
REMARK SMILES IDX 58 67 57 68 44 69 45 70 49 71 46 72 48 73 47 74
REMARK H PARENT 10 13 64 42 42 53
REMARK Flexibility Score: inf
ROOT
ATOM      1  C   UNL A   1      36.284  33.245  32.113  1.00  0.00     0.274 C 
ENDROOT
BRANCH   1   2
ATOM      2  O   UNL A   1      35.941  32.501  30.936  1.00  0.00    -0.462 OA
BRANCH   2   3
ATOM      3  C   UNL A   1      35.031  33.082  30.101  1.00  0.00     0.312 C 
ATOM      4  O   UNL A   1      34.040  33.704  30.461  1.00  0.00    -0.252 OA
BRANCH   3   5
ATOM      5  C   UNL A   1      35.461  32.880  28.653  1.00  0.00     0.124 C 
ATOM      6  C   UNL A   1      34.384  30.868  27.818  1.00  0.00     0.106 C 
ATOM      7  C   UNL A   1      35.821  30.625  28.150  1.00  0.00    -0.006 C 
ATOM      8  C   UNL A   1      34.308  32.398  27.763  1.00  0.00     0.048 C 
ATOM      9  C   UNL A   1      36.424  31.734  28.585  1.00  0.00    -0.014 C 
BRANCH   6  10
ATOM     10  N   UNL A   1      34.091  30.246  26.553  1.00  0.00    -0.350 N 
ATOM     11  O   UNL A   1      31.811  30.318  26.825  1.00  0.00    -0.275 OA
ATOM     12  C   UNL A   1      32.795  30.038  26.148  1.00  0.00     0.222 C 
ATOM     13  H   UNL A   1      34.831  29.966  25.969  1.00  0.00     0.164 HD
BRANCH  12  14
ATOM     14  C   UNL A   1      32.657  29.492  24.751  1.00  0.00     0.122 C 
BRANCH  14  15
ATOM     15  C   UNL A   1      31.325  28.762  24.636  1.00  0.00     0.133 C 
BRANCH  15  16
ATOM     16  N   UNL A   1      30.477  29.324  23.599  1.00  0.00    -0.337 N 
ATOM     17  C   UNL A   1      29.618  30.379  23.728  1.00  0.00     0.107 A 
ATOM     18  C   UNL A   1      30.418  28.901  22.304  1.00  0.00     0.199 A 
ATOM     19  C   UNL A   1      29.141  30.605  22.458  1.00  0.00     0.130 A 
ATOM     20  N   UNL A   1      29.643  29.677  21.581  1.00  0.00    -0.245 NA
ENDBRANCH  15  16
ENDBRANCH  14  15
ENDBRANCH  12  14
ENDBRANCH   6  10
ENDBRANCH   3   5
ENDBRANCH   2   3
ENDBRANCH   1   2
BRANCH   1  21
ATOM     21  C   UNL A   1      37.365  34.263  31.790  1.00  0.00     0.275 C 
BRANCH  21  22
ATOM     22  O   UNL A   1      38.275  33.775  30.803  1.00  0.00    -0.458 OA
BRANCH  22  23
ATOM     23  C   UNL A   1      39.537  33.550  31.225  1.00  0.00     0.338 C 
ATOM     24  O   UNL A   1      40.296  34.342  31.773  1.00  0.00    -0.246 OA
BRANCH  23  25
ATOM     25  C   UNL A   1      39.975  32.240  30.742  1.00  0.00     0.060 A 
ATOM     26  C   UNL A   1      39.118  31.147  30.904  1.00  0.00     0.016 A 
ATOM     27  C   UNL A   1      41.307  32.073  30.336  1.00  0.00     0.016 A 
ATOM     28  C   UNL A   1      39.632  29.872  30.751  1.00  0.00     0.010 A 
ATOM     29  C   UNL A   1      41.817  30.804  30.188  1.00  0.00     0.010 A 
ATOM     30  C   UNL A   1      40.990  29.714  30.446  1.00  0.00    -0.014 A 
BRANCH  30  31
ATOM     31  C   UNL A   1      41.515  28.370  30.273  1.00  0.00     0.031 A 
ATOM     32  C   UNL A   1      42.308  27.883  31.424  1.00  0.00     0.074 A 
ATOM     33  C   UNL A   1      41.188  27.574  29.238  1.00  0.00     0.049 A 
ATOM     34  N   UNL A   1      43.552  27.544  31.428  1.00  0.00    -0.248 NA
ATOM     35  C   UNL A   1      41.672  27.877  32.752  1.00  0.00     0.031 C 
ATOM     36  C   UNL A   1      40.201  27.839  28.186  1.00  0.00     0.029 A 
ATOM     37  N   UNL A   1      41.597  26.300  28.969  1.00  0.00    -0.354 N 
ATOM     38  C   UNL A   1      43.819  27.105  32.720  1.00  0.00     0.074 A 
ATOM     39  C   UNL A   1      42.677  27.461  33.523  1.00  0.00     0.031 C 
ATOM     40  C   UNL A   1      39.927  26.688  27.532  1.00  0.00     0.029 A 
ATOM     41  C   UNL A   1      40.826  25.654  28.016  1.00  0.00     0.049 A 
ATOM     42  H   UNL A   1      42.368  25.879  29.414  1.00  0.00     0.167 HD
ATOM     43  C   UNL A   1      44.844  26.249  32.969  1.00  0.00     0.031 A 
ATOM     44  C   UNL A   1      40.904  24.354  27.649  1.00  0.00     0.031 A 
ATOM     45  C   UNL A   1      45.759  26.171  31.862  1.00  0.00     0.049 A 
ATOM     46  C   UNL A   1      42.244  23.852  28.011  1.00  0.00     0.074 A 
ATOM     47  C   UNL A   1      46.759  26.952  31.329  1.00  0.00     0.029 A 
ATOM     48  N   UNL A   1      45.415  25.241  30.916  1.00  0.00    -0.354 N 
ATOM     49  N   UNL A   1      43.332  24.253  27.421  1.00  0.00    -0.248 NA
ATOM     50  C   UNL A   1      42.442  23.108  29.248  1.00  0.00     0.031 C 
ATOM     51  C   UNL A   1      46.843  26.596  29.950  1.00  0.00     0.029 A 
ATOM     52  C   UNL A   1      45.907  25.597  29.688  1.00  0.00     0.049 A 
ATOM     53  H   UNL A   1      44.887  24.429  31.094  1.00  0.00     0.167 HD
ATOM     54  C   UNL A   1      44.290  24.210  28.414  1.00  0.00     0.074 A 
ATOM     55  C   UNL A   1      43.749  23.320  29.431  1.00  0.00     0.031 C 
ATOM     56  C   UNL A   1      45.278  25.148  28.466  1.00  0.00     0.031 A 
BRANCH  43  57
ATOM     57  C   UNL A   1      44.751  25.121  33.969  1.00  0.00    -0.014 A 
ATOM     58  C   UNL A   1      45.796  24.962  34.897  1.00  0.00     0.009 A 
ATOM     59  C   UNL A   1      43.857  24.042  33.831  1.00  0.00     0.009 A 
ATOM     60  C   UNL A   1      45.972  23.763  35.597  1.00  0.00     0.001 A 
ATOM     61  C   UNL A   1      44.008  22.857  34.555  1.00  0.00     0.001 A 
ATOM     62  C   UNL A   1      45.083  22.707  35.419  1.00  0.00     0.000 A 
ENDBRANCH  43  57
BRANCH  44  63
ATOM     63  C   UNL A   1      39.867  23.465  27.100  1.00  0.00    -0.014 A 
ATOM     64  C   UNL A   1      38.639  23.979  26.656  1.00  0.00     0.009 A 
ATOM     65  C   UNL A   1      40.193  22.140  26.759  1.00  0.00     0.009 A 
ATOM     66  C   UNL A   1      37.787  23.208  25.858  1.00  0.00     0.001 A 
ATOM     67  C   UNL A   1      39.341  21.371  25.961  1.00  0.00     0.001 A 
ATOM     68  C   UNL A   1      38.147  21.911  25.495  1.00  0.00     0.000 A 
ENDBRANCH  44  63
BRANCH  56  69
ATOM     69  C   UNL A   1      45.556  25.917  27.206  1.00  0.00    -0.014 A 
ATOM     70  C   UNL A   1      46.655  25.651  26.371  1.00  0.00     0.009 A 
ATOM     71  C   UNL A   1      44.639  26.902  26.815  1.00  0.00     0.009 A 
ATOM     72  C   UNL A   1      46.848  26.380  25.194  1.00  0.00     0.001 A 
ATOM     73  C   UNL A   1      44.820  27.614  25.629  1.00  0.00     0.001 A 
ATOM     74  C   UNL A   1      45.927  27.358  24.823  1.00  0.00     0.000 A 
ENDBRANCH  56  69
ENDBRANCH  30  31
ENDBRANCH  23  25
ENDBRANCH  22  23
ENDBRANCH  21  22
ENDBRANCH   1  21
TORSDOF 15
ENDMDL
MODEL 2
REMARK VINA RESULT:     -10.4      3.094      4.906
REMARK SMILES O=C(CCn1ccnc1)N[C@H]1C=C[C@H](C(=O)OCCOC(=O)c2ccc(-c3c4nc(c(-c5ccccc5)c5ccc([nH]5)c(-c5ccccc5)c5nc(c(-c6ccccc6)c6ccc3[nH]6)C=C5)C=C4)cc2)C1
REMARK SMILES IDX 18 1 17 2 15 3 16 4 14 5 11 6 12 7 71 8 13 9 10 10 1 11 2 12
REMARK SMILES IDX 3 14 4 15 5 16 6 17 9 18 7 19 8 20 19 21 20 22 21 23 22 24
REMARK SMILES IDX 23 25 24 26 70 27 25 28 69 29 26 30 27 31 28 32 63 33 29 34
REMARK SMILES IDX 68 35 62 36 64 37 30 38 67 39 61 40 60 41 31 43 53 44 38 45
REMARK SMILES IDX 52 46 39 47 42 48 51 49 65 50 40 51 41 52 50 54 66 55 43 56
REMARK SMILES IDX 32 57 33 58 37 59 34 60 36 61 35 62 54 63 55 64 59 65 56 66
REMARK SMILES IDX 58 67 57 68 44 69 45 70 49 71 46 72 48 73 47 74
REMARK H PARENT 10 13 64 42 42 53
REMARK Flexibility Score: inf
ROOT
ATOM      1  C   UNL A   1      33.209  30.690  27.223  1.00  0.00     0.274 C 
ENDROOT
BRANCH   1   2
ATOM      2  O   UNL A   1      34.024  29.733  26.534  1.00  0.00    -0.462 OA
BRANCH   2   3
ATOM      3  C   UNL A   1      33.401  28.998  25.567  1.00  0.00     0.312 C 
ATOM      4  O   UNL A   1      33.233  29.355  24.408  1.00  0.00    -0.252 OA
BRANCH   3   5
ATOM      5  C   UNL A   1      32.991  27.645  26.136  1.00  0.00     0.124 C 
ATOM      6  C   UNL A   1      32.438  26.179  24.278  1.00  0.00     0.106 C 
ATOM      7  C   UNL A   1      31.210  26.698  24.953  1.00  0.00    -0.006 C 
ATOM      8  C   UNL A   1      33.535  26.474  25.308  1.00  0.00     0.048 C 
ATOM      9  C   UNL A   1      31.508  27.484  25.990  1.00  0.00    -0.014 C 
BRANCH   6  10
ATOM     10  N   UNL A   1      32.269  24.772  24.027  1.00  0.00    -0.350 N 
ATOM     11  O   UNL A   1      34.176  24.568  22.762  1.00  0.00    -0.275 OA
ATOM     12  C   UNL A   1      33.187  24.067  23.288  1.00  0.00     0.222 C 
ATOM     13  H   UNL A   1      31.481  24.308  24.391  1.00  0.00     0.164 HD
BRANCH  12  14
ATOM     14  C   UNL A   1      32.929  22.584  23.221  1.00  0.00     0.122 C 
BRANCH  14  15
ATOM     15  C   UNL A   1      33.962  21.864  24.077  1.00  0.00     0.133 C 
BRANCH  15  16
ATOM     16  N   UNL A   1      33.537  20.525  24.445  1.00  0.00    -0.337 N 
ATOM     17  C   UNL A   1      34.341  19.440  24.653  1.00  0.00     0.107 A 
ATOM     18  C   UNL A   1      32.250  20.134  24.672  1.00  0.00     0.199 A 
ATOM     19  C   UNL A   1      33.493  18.450  25.092  1.00  0.00     0.130 A 
ATOM     20  N   UNL A   1      32.195  18.891  25.096  1.00  0.00    -0.245 NA
ENDBRANCH  15  16
ENDBRANCH  14  15
ENDBRANCH  12  14
ENDBRANCH   6  10
ENDBRANCH   3   5
ENDBRANCH   2   3
ENDBRANCH   1   2
BRANCH   1  21
ATOM     21  C   UNL A   1      34.085  31.728  27.905  1.00  0.00     0.275 C 
BRANCH  21  22
ATOM     22  O   UNL A   1      35.469  31.530  27.610  1.00  0.00    -0.458 OA
BRANCH  22  23
ATOM     23  C   UNL A   1      36.341  32.150  28.431  1.00  0.00     0.338 C 
ATOM     24  O   UNL A   1      36.499  33.356  28.584  1.00  0.00    -0.246 OA
BRANCH  23  25
ATOM     25  C   UNL A   1      37.256  31.156  28.995  1.00  0.00     0.060 A 
ATOM     26  C   UNL A   1      38.494  31.585  29.482  1.00  0.00     0.016 A 
ATOM     27  C   UNL A   1      36.964  29.793  28.835  1.00  0.00     0.016 A 
ATOM     28  C   UNL A   1      39.478  30.644  29.717  1.00  0.00     0.010 A 
ATOM     29  C   UNL A   1      37.946  28.859  29.065  1.00  0.00     0.010 A 
ATOM     30  C   UNL A   1      39.210  29.293  29.455  1.00  0.00    -0.014 A 
BRANCH  30  31
ATOM     31  C   UNL A   1      40.248  28.312  29.719  1.00  0.00     0.031 A 
ATOM     32  C   UNL A   1      40.688  28.270  31.132  1.00  0.00     0.074 A 
ATOM     33  C   UNL A   1      40.668  27.413  28.810  1.00  0.00     0.049 A 
ATOM     34  N   UNL A   1      41.868  28.512  31.590  1.00  0.00    -0.248 NA
ATOM     35  C   UNL A   1      39.668  28.037  32.168  1.00  0.00     0.031 C 
ATOM     36  C   UNL A   1      40.117  27.176  27.471  1.00  0.00     0.029 A 
ATOM     37  N   UNL A   1      41.616  26.440  28.935  1.00  0.00    -0.354 N 
ATOM     38  C   UNL A   1      41.793  28.287  32.960  1.00  0.00     0.074 A 
ATOM     39  C   UNL A   1      40.397  28.136  33.281  1.00  0.00     0.031 C 
ATOM     40  C   UNL A   1      40.583  25.997  27.001  1.00  0.00     0.029 A 
ATOM     41  C   UNL A   1      41.572  25.483  27.932  1.00  0.00     0.049 A 
ATOM     42  H   UNL A   1      42.270  26.418  29.671  1.00  0.00     0.167 HD
ATOM     43  C   UNL A   1      42.905  27.980  33.679  1.00  0.00     0.031 A 
ATOM     44  C   UNL A   1      42.288  24.336  27.868  1.00  0.00     0.031 A 
ATOM     45  C   UNL A   1      44.111  28.268  32.951  1.00  0.00     0.049 A 
ATOM     46  C   UNL A   1      43.482  24.490  28.722  1.00  0.00     0.074 A 
ATOM     47  C   UNL A   1      44.838  29.388  32.617  1.00  0.00     0.029 A 
ATOM     48  N   UNL A   1      44.537  27.246  32.145  1.00  0.00    -0.354 N 
ATOM     49  N   UNL A   1      44.455  25.305  28.436  1.00  0.00    -0.248 NA
ATOM     50  C   UNL A   1      43.491  23.958  30.079  1.00  0.00     0.031 C 
ATOM     51  C   UNL A   1      45.556  29.051  31.431  1.00  0.00     0.029 A 
ATOM     52  C   UNL A   1      45.259  27.733  31.088  1.00  0.00     0.049 A 
ATOM     53  H   UNL A   1      44.350  26.292  32.303  1.00  0.00     0.167 HD
ATOM     54  C   UNL A   1      44.915  25.727  29.667  1.00  0.00     0.074 A 
ATOM     55  C   UNL A   1      44.440  24.731  30.616  1.00  0.00     0.031 C 
ATOM     56  C   UNL A   1      45.356  27.005  29.843  1.00  0.00     0.031 A 
BRANCH  43  57
ATOM     57  C   UNL A   1      42.908  26.966  34.799  1.00  0.00    -0.014 A 
ATOM     58  C   UNL A   1      42.992  25.602  34.467  1.00  0.00     0.009 A 
ATOM     59  C   UNL A   1      42.515  27.274  36.116  1.00  0.00     0.009 A 
ATOM     60  C   UNL A   1      42.640  24.606  35.385  1.00  0.00     0.001 A 
ATOM     61  C   UNL A   1      42.196  26.281  37.046  1.00  0.00     0.001 A 
ATOM     62  C   UNL A   1      42.233  24.946  36.671  1.00  0.00     0.000 A 
ENDBRANCH  43  57
BRANCH  44  63
ATOM     63  C   UNL A   1      41.968  23.061  27.206  1.00  0.00    -0.014 A 
ATOM     64  C   UNL A   1      42.823  22.522  26.233  1.00  0.00     0.009 A 
ATOM     65  C   UNL A   1      40.956  22.237  27.730  1.00  0.00     0.009 A 
ATOM     66  C   UNL A   1      42.699  21.187  25.833  1.00  0.00     0.001 A 
ATOM     67  C   UNL A   1      40.834  20.904  27.330  1.00  0.00     0.001 A 
ATOM     68  C   UNL A   1      41.717  20.373  26.395  1.00  0.00     0.000 A 
ENDBRANCH  44  63
BRANCH  56  69
ATOM     69  C   UNL A   1      45.746  27.768  28.608  1.00  0.00    -0.014 A 
ATOM     70  C   UNL A   1      47.049  27.762  28.083  1.00  0.00     0.009 A 
ATOM     71  C   UNL A   1      44.746  28.466  27.917  1.00  0.00     0.009 A 
ATOM     72  C   UNL A   1      47.349  28.466  26.913  1.00  0.00     0.001 A 
ATOM     73  C   UNL A   1      45.042  29.151  26.738  1.00  0.00     0.001 A 
ATOM     74  C   UNL A   1      46.343  29.157  26.240  1.00  0.00     0.000 A 
ENDBRANCH  56  69
ENDBRANCH  30  31
ENDBRANCH  23  25
ENDBRANCH  22  23
ENDBRANCH  21  22
ENDBRANCH   1  21
TORSDOF 15
ENDMDL
MODEL 3
REMARK VINA RESULT:     -10.4      4.198      8.744
REMARK SMILES O=C(CCn1ccnc1)N[C@H]1C=C[C@H](C(=O)OCCOC(=O)c2ccc(-c3c4nc(c(-c5ccccc5)c5ccc([nH]5)c(-c5ccccc5)c5nc(c(-c6ccccc6)c6ccc3[nH]6)C=C5)C=C4)cc2)C1
REMARK SMILES IDX 18 1 17 2 15 3 16 4 14 5 11 6 12 7 71 8 13 9 10 10 1 11 2 12
REMARK SMILES IDX 3 14 4 15 5 16 6 17 9 18 7 19 8 20 19 21 20 22 21 23 22 24
REMARK SMILES IDX 23 25 24 26 70 27 25 28 69 29 26 30 27 31 28 32 63 33 29 34
REMARK SMILES IDX 68 35 62 36 64 37 30 38 67 39 61 40 60 41 31 43 53 44 38 45
REMARK SMILES IDX 52 46 39 47 42 48 51 49 65 50 40 51 41 52 50 54 66 55 43 56
REMARK SMILES IDX 32 57 33 58 37 59 34 60 36 61 35 62 54 63 55 64 59 65 56 66
REMARK SMILES IDX 58 67 57 68 44 69 45 70 49 71 46 72 48 73 47 74
REMARK H PARENT 10 13 64 42 42 53
REMARK Flexibility Score: inf
ROOT
ATOM      1  C   UNL A   1      37.161  21.153  25.016  1.00  0.00     0.274 C 
ENDROOT
BRANCH   1   2
ATOM      2  O   UNL A   1      36.281  21.448  26.109  1.00  0.00    -0.462 OA
BRANCH   2   3
ATOM      3  C   UNL A   1      35.021  21.855  25.774  1.00  0.00     0.312 C 
ATOM      4  O   UNL A   1      34.229  21.211  25.099  1.00  0.00    -0.252 OA
BRANCH   3   5
ATOM      5  C   UNL A   1      34.733  23.209  26.410  1.00  0.00     0.124 C 
ATOM      6  C   UNL A   1      33.039  24.327  25.074  1.00  0.00     0.106 C 
ATOM      7  C   UNL A   1      34.402  24.880  24.809  1.00  0.00    -0.006 C 
ATOM      8  C   UNL A   1      33.240  23.560  26.386  1.00  0.00     0.048 C 
ATOM      9  C   UNL A   1      35.333  24.286  25.559  1.00  0.00    -0.014 C 
BRANCH   6  10
ATOM     10  N   UNL A   1      32.112  25.422  25.201  1.00  0.00    -0.350 N 
ATOM     11  O   UNL A   1      30.500  24.469  23.871  1.00  0.00    -0.275 OA
ATOM     12  C   UNL A   1      30.884  25.387  24.589  1.00  0.00     0.222 C 
ATOM     13  H   UNL A   1      32.365  26.207  25.737  1.00  0.00     0.164 HD
BRANCH  12  14
ATOM     14  C   UNL A   1      29.987  26.552  24.920  1.00  0.00     0.122 C 
BRANCH  14  15
ATOM     15  C   UNL A   1      28.942  26.697  23.822  1.00  0.00     0.133 C 
BRANCH  15  16
ATOM     16  N   UNL A   1      29.138  27.899  23.030  1.00  0.00    -0.337 N 
ATOM     17  C   UNL A   1      28.249  28.923  22.864  1.00  0.00     0.107 A 
ATOM     18  C   UNL A   1      30.268  28.218  22.335  1.00  0.00     0.199 A 
ATOM     19  C   UNL A   1      28.932  29.871  22.138  1.00  0.00     0.130 A 
ATOM     20  N   UNL A   1      30.184  29.420  21.811  1.00  0.00    -0.245 NA
ENDBRANCH  15  16
ENDBRANCH  14  15
ENDBRANCH  12  14
ENDBRANCH   6  10
ENDBRANCH   3   5
ENDBRANCH   2   3
ENDBRANCH   1   2
BRANCH   1  21
ATOM     21  C   UNL A   1      38.600  21.111  25.501  1.00  0.00     0.275 C 
BRANCH  21  22
ATOM     22  O   UNL A   1      39.070  22.406  25.880  1.00  0.00    -0.458 OA
BRANCH  22  23
ATOM     23  C   UNL A   1      39.950  22.438  26.902  1.00  0.00     0.338 C 
ATOM     24  O   UNL A   1      40.344  21.497  27.582  1.00  0.00    -0.246 OA
BRANCH  23  25
ATOM     25  C   UNL A   1      40.235  23.833  27.242  1.00  0.00     0.060 A 
ATOM     26  C   UNL A   1      41.393  24.120  27.972  1.00  0.00     0.016 A 
ATOM     27  C   UNL A   1      39.247  24.804  27.023  1.00  0.00     0.016 A 
ATOM     28  C   UNL A   1      41.512  25.363  28.566  1.00  0.00     0.010 A 
ATOM     29  C   UNL A   1      39.366  26.038  27.619  1.00  0.00     0.010 A 
ATOM     30  C   UNL A   1      40.471  26.291  28.427  1.00  0.00    -0.014 A 
BRANCH  30  31
ATOM     31  C   UNL A   1      40.614  27.598  29.044  1.00  0.00     0.031 A 
ATOM     32  C   UNL A   1      41.669  28.438  28.433  1.00  0.00     0.074 A 
ATOM     33  C   UNL A   1      39.772  28.072  29.980  1.00  0.00     0.049 A 
ATOM     34  N   UNL A   1      42.729  28.900  29.004  1.00  0.00    -0.248 NA
ATOM     35  C   UNL A   1      41.591  28.704  26.987  1.00  0.00     0.031 C 
ATOM     36  C   UNL A   1      38.535  27.449  30.465  1.00  0.00     0.029 A 
ATOM     37  N   UNL A   1      39.788  29.276  30.623  1.00  0.00    -0.354 N 
ATOM     38  C   UNL A   1      43.369  29.671  28.040  1.00  0.00     0.074 A 
ATOM     39  C   UNL A   1      42.708  29.404  26.788  1.00  0.00     0.031 C 
ATOM     40  C   UNL A   1      37.813  28.365  31.148  1.00  0.00     0.029 A 
ATOM     41  C   UNL A   1      38.603  29.578  31.276  1.00  0.00     0.049 A 
ATOM     42  H   UNL A   1      40.570  29.875  30.621  1.00  0.00     0.167 HD
ATOM     43  C   UNL A   1      44.221  30.668  28.397  1.00  0.00     0.031 A 
ATOM     44  C   UNL A   1      38.278  30.747  31.875  1.00  0.00     0.031 A 
ATOM     45  C   UNL A   1      44.617  30.567  29.776  1.00  0.00     0.049 A 
ATOM     46  C   UNL A   1      39.528  31.465  32.195  1.00  0.00     0.074 A 
ATOM     47  C   UNL A   1      45.477  29.791  30.519  1.00  0.00     0.029 A 
ATOM     48  N   UNL A   1      43.766  31.190  30.650  1.00  0.00    -0.354 N 
ATOM     49  N   UNL A   1      40.370  31.050  33.096  1.00  0.00    -0.248 NA
ATOM     50  C   UNL A   1      40.024  32.510  31.309  1.00  0.00     0.031 C 
ATOM     51  C   UNL A   1      44.964  29.801  31.851  1.00  0.00     0.029 A 
ATOM     52  C   UNL A   1      43.820  30.596  31.883  1.00  0.00     0.049 A 
ATOM     53  H   UNL A   1      43.194  31.960  30.424  1.00  0.00     0.167 HD
ATOM     54  C   UNL A   1      41.602  31.441  32.611  1.00  0.00     0.074 A 
ATOM     55  C   UNL A   1      41.318  32.491  31.644  1.00  0.00     0.031 C 
ATOM     56  C   UNL A   1      42.702  30.658  32.798  1.00  0.00     0.031 A 
BRANCH  43  57
ATOM     57  C   UNL A   1      44.289  31.992  27.674  1.00  0.00    -0.014 A 
ATOM     58  C   UNL A   1      43.821  33.141  28.335  1.00  0.00     0.009 A 
ATOM     59  C   UNL A   1      44.491  32.099  26.284  1.00  0.00     0.009 A 
ATOM     60  C   UNL A   1      43.511  34.311  27.633  1.00  0.00     0.001 A 
ATOM     61  C   UNL A   1      44.216  33.277  25.584  1.00  0.00     0.001 A 
ATOM     62  C   UNL A   1      43.700  34.375  26.255  1.00  0.00     0.000 A 
ENDBRANCH  43  57
BRANCH  44  63
ATOM     63  C   UNL A   1      36.956  31.355  32.102  1.00  0.00    -0.014 A 
ATOM     64  C   UNL A   1      36.649  31.973  33.323  1.00  0.00     0.009 A 
ATOM     65  C   UNL A   1      36.090  31.566  31.015  1.00  0.00     0.009 A 
ATOM     66  C   UNL A   1      35.537  32.814  33.439  1.00  0.00     0.001 A 
ATOM     67  C   UNL A   1      34.979  32.406  31.132  1.00  0.00     0.001 A 
ATOM     68  C   UNL A   1      34.713  33.044  32.339  1.00  0.00     0.000 A 
ENDBRANCH  44  63
BRANCH  56  69
ATOM     69  C   UNL A   1      42.632  29.634  33.896  1.00  0.00    -0.014 A 
ATOM     70  C   UNL A   1      42.118  28.339  33.705  1.00  0.00     0.009 A 
ATOM     71  C   UNL A   1      43.161  29.968  35.150  1.00  0.00     0.009 A 
ATOM     72  C   UNL A   1      42.105  27.417  34.756  1.00  0.00     0.001 A 
ATOM     73  C   UNL A   1      43.167  29.040  36.191  1.00  0.00     0.001 A 
ATOM     74  C   UNL A   1      42.632  27.768  35.997  1.00  0.00     0.000 A 
ENDBRANCH  56  69
ENDBRANCH  30  31
ENDBRANCH  23  25
ENDBRANCH  22  23
ENDBRANCH  21  22
ENDBRANCH   1  21
TORSDOF 15
ENDMDL
