MODEL 1
REMARK VINA RESULT:      -9.0      0.000      0.000
REMARK SMILES C=Cc1cccc(-c2ccc([C@@H](C)C(=O)OCCOC(=O)c3ccc(-c4c5nc(c(-c6ccccc6)c6ccc([nH]6)c(-c6ccccc6)c6nc(c(-c7ccccc7)c7ccc4[nH]7)C=C6)C=C5)cc3)cc2)c1
REMARK SMILES IDX 17 1 16 2 14 3 15 4 12 5 13 6 11 7 8 8 9 9 71 10 10 11 70 12
REMARK SMILES IDX 7 13 3 14 4 15 72 16 5 17 6 18 2 19 1 20 18 21 19 22 20 23
REMARK SMILES IDX 21 24 22 25 23 26 69 27 24 28 68 29 25 30 26 31 27 32 62 33
REMARK SMILES IDX 28 34 67 35 61 36 63 37 29 38 66 39 60 40 59 41 30 43 52 44
REMARK SMILES IDX 37 45 51 46 38 47 41 48 50 49 64 50 39 51 40 52 49 54 65 55
REMARK SMILES IDX 42 56 31 57 32 58 36 59 33 60 35 61 34 62 53 63 54 64 58 65
REMARK SMILES IDX 55 66 57 67 56 68 43 69 44 70 48 71 45 72 47 73 46 74
REMARK H PARENT 63 42 41 53
REMARK Flexibility Score: inf
ROOT
ATOM      1  C   UNL A   1      44.854  18.829  25.363  1.00  0.00     0.274 C 
ENDROOT
BRANCH   1   2
ATOM      2  O   UNL A   1      44.921  19.953  24.463  1.00  0.00    -0.462 OA
BRANCH   2   3
ATOM      3  C   UNL A   1      45.397  21.118  24.974  1.00  0.00     0.313 C 
ATOM      4  O   UNL A   1      46.325  21.195  25.775  1.00  0.00    -0.252 OA
BRANCH   3   5
ATOM      5  C   UNL A   1      44.627  22.350  24.511  1.00  0.00     0.126 C 
ATOM      6  C   UNL A   1      44.471  22.321  22.991  1.00  0.00     0.025 C 
BRANCH   5   7
ATOM      7  C   UNL A   1      45.142  23.688  25.022  1.00  0.00    -0.034 A 
ATOM      8  C   UNL A   1      46.062  26.222  25.930  1.00  0.00    -0.018 A 
ATOM      9  C   UNL A   1      46.932  25.126  25.832  1.00  0.00     0.009 A 
ATOM     10  C   UNL A   1      44.720  26.026  25.579  1.00  0.00     0.009 A 
ATOM     11  C   UNL A   1      46.480  23.878  25.386  1.00  0.00     0.005 A 
ATOM     12  C   UNL A   1      44.270  24.783  25.121  1.00  0.00     0.005 A 
BRANCH   8  13
ATOM     13  C   UNL A   1      46.551  27.545  26.345  1.00  0.00    -0.018 A 
ATOM     14  C   UNL A   1      46.139  29.842  27.094  1.00  0.00    -0.026 A 
ATOM     15  C   UNL A   1      47.517  30.086  27.072  1.00  0.00     0.008 A 
ATOM     16  C   UNL A   1      45.667  28.575  26.716  1.00  0.00     0.016 A 
ATOM     17  C   UNL A   1      48.409  29.078  26.711  1.00  0.00     0.001 A 
ATOM     18  C   UNL A   1      47.928  27.819  26.353  1.00  0.00     0.009 A 
BRANCH  14  19
ATOM     19  C   UNL A   1      45.236  30.943  27.453  1.00  0.00     0.000 C 
ATOM     20  C   UNL A   1      44.022  31.127  26.920  1.00  0.00     0.009 C 
ENDBRANCH  14  19
ENDBRANCH   8  13
ENDBRANCH   5   7
ENDBRANCH   3   5
ENDBRANCH   2   3
ENDBRANCH   1   2
BRANCH   1  21
ATOM     21  C   UNL A   1      43.406  18.422  25.638  1.00  0.00     0.275 C 
BRANCH  21  22
ATOM     22  O   UNL A   1      42.492  19.405  25.120  1.00  0.00    -0.458 OA
BRANCH  22  23
ATOM     23  C   UNL A   1      41.387  19.615  25.872  1.00  0.00     0.338 C 
ATOM     24  O   UNL A   1      40.445  18.863  26.043  1.00  0.00    -0.246 OA
BRANCH  23  25
ATOM     25  C   UNL A   1      41.526  20.886  26.596  1.00  0.00     0.060 A 
ATOM     26  C   UNL A   1      41.384  22.066  25.866  1.00  0.00     0.016 A 
ATOM     27  C   UNL A   1      41.885  20.924  27.944  1.00  0.00     0.016 A 
ATOM     28  C   UNL A   1      41.629  23.295  26.469  1.00  0.00     0.010 A 
ATOM     29  C   UNL A   1      42.115  22.162  28.556  1.00  0.00     0.010 A 
ATOM     30  C   UNL A   1      42.008  23.352  27.816  1.00  0.00    -0.014 A 
BRANCH  30  31
ATOM     31  C   UNL A   1      42.330  24.672  28.411  1.00  0.00     0.031 A 
ATOM     32  C   UNL A   1      43.737  24.990  28.825  1.00  0.00     0.074 A 
ATOM     33  C   UNL A   1      41.370  25.609  28.509  1.00  0.00     0.049 A 
ATOM     34  N   UNL A   1      44.222  26.105  29.313  1.00  0.00    -0.248 NA
ATOM     35  C   UNL A   1      44.733  23.918  28.668  1.00  0.00     0.031 C 
ATOM     36  C   UNL A   1      39.973  25.435  28.107  1.00  0.00     0.029 A 
ATOM     37  N   UNL A   1      41.432  26.904  28.957  1.00  0.00    -0.354 N 
ATOM     38  C   UNL A   1      45.572  25.868  29.530  1.00  0.00     0.074 A 
ATOM     39  C   UNL A   1      45.828  24.496  29.141  1.00  0.00     0.031 C 
ATOM     40  C   UNL A   1      39.316  26.590  28.302  1.00  0.00     0.029 A 
ATOM     41  C   UNL A   1      40.236  27.572  28.869  1.00  0.00     0.049 A 
ATOM     42  H   UNL A   1      42.255  27.315  29.308  1.00  0.00     0.167 HD
ATOM     43  C   UNL A   1      46.516  26.715  30.005  1.00  0.00     0.031 A 
ATOM     44  C   UNL A   1      39.916  28.835  29.206  1.00  0.00     0.031 A 
ATOM     45  C   UNL A   1      46.269  28.078  30.396  1.00  0.00     0.049 A 
ATOM     46  C   UNL A   1      40.975  29.743  29.764  1.00  0.00     0.074 A 
ATOM     47  C   UNL A   1      47.165  29.010  30.892  1.00  0.00     0.029 A 
ATOM     48  N   UNL A   1      45.035  28.703  30.333  1.00  0.00    -0.354 N 
ATOM     49  N   UNL A   1      42.248  29.503  29.962  1.00  0.00    -0.248 NA
ATOM     50  C   UNL A   1      40.550  31.099  30.139  1.00  0.00     0.031 C 
ATOM     51  C   UNL A   1      46.463  30.191  31.162  1.00  0.00     0.029 A 
ATOM     52  C   UNL A   1      45.141  30.005  30.794  1.00  0.00     0.049 A 
ATOM     53  H   UNL A   1      44.205  28.285  30.008  1.00  0.00     0.167 HD
ATOM     54  C   UNL A   1      42.780  30.680  30.471  1.00  0.00     0.074 A 
ATOM     55  C   UNL A   1      41.695  31.639  30.531  1.00  0.00     0.031 C 
ATOM     56  C   UNL A   1      44.051  30.943  30.857  1.00  0.00     0.031 A 
BRANCH  43  57
ATOM     57  C   UNL A   1      47.908  26.172  30.159  1.00  0.00    -0.014 A 
ATOM     58  C   UNL A   1      48.747  26.001  29.048  1.00  0.00     0.009 A 
ATOM     59  C   UNL A   1      48.393  25.851  31.436  1.00  0.00     0.009 A 
ATOM     60  C   UNL A   1      50.037  25.491  29.210  1.00  0.00     0.001 A 
ATOM     61  C   UNL A   1      49.689  25.360  31.597  1.00  0.00     0.001 A 
ATOM     62  C   UNL A   1      50.507  25.174  30.484  1.00  0.00     0.000 A 
ENDBRANCH  43  57
BRANCH  44  63
ATOM     63  C   UNL A   1      38.525  29.319  29.028  1.00  0.00    -0.014 A 
ATOM     64  C   UNL A   1      37.622  29.306  30.102  1.00  0.00     0.009 A 
ATOM     65  C   UNL A   1      38.092  29.787  27.778  1.00  0.00     0.009 A 
ATOM     66  C   UNL A   1      36.306  29.737  29.922  1.00  0.00     0.001 A 
ATOM     67  C   UNL A   1      36.782  30.239  27.607  1.00  0.00     0.001 A 
ATOM     68  C   UNL A   1      35.888  30.207  28.677  1.00  0.00     0.000 A 
ENDBRANCH  44  63
BRANCH  56  69
ATOM     69  C   UNL A   1      44.333  32.328  31.362  1.00  0.00    -0.014 A 
ATOM     70  C   UNL A   1      44.426  32.594  32.737  1.00  0.00     0.009 A 
ATOM     71  C   UNL A   1      44.517  33.379  30.450  1.00  0.00     0.009 A 
ATOM     72  C   UNL A   1      44.661  33.893  33.190  1.00  0.00     0.001 A 
ATOM     73  C   UNL A   1      44.774  34.672  30.905  1.00  0.00     0.001 A 
ATOM     74  C   UNL A   1      44.836  34.930  32.275  1.00  0.00     0.000 A 
ENDBRANCH  56  69
ENDBRANCH  30  31
ENDBRANCH  23  25
ENDBRANCH  22  23
ENDBRANCH  21  22
ENDBRANCH   1  21
TORSDOF 14
ENDMDL
MODEL 2
REMARK VINA RESULT:      -8.7      3.969      6.733
REMARK SMILES C=Cc1cccc(-c2ccc([C@@H](C)C(=O)OCCOC(=O)c3ccc(-c4c5nc(c(-c6ccccc6)c6ccc([nH]6)c(-c6ccccc6)c6nc(c(-c7ccccc7)c7ccc4[nH]7)C=C6)C=C5)cc3)cc2)c1
REMARK SMILES IDX 17 1 16 2 14 3 15 4 12 5 13 6 11 7 8 8 9 9 71 10 10 11 70 12
REMARK SMILES IDX 7 13 3 14 4 15 72 16 5 17 6 18 2 19 1 20 18 21 19 22 20 23
REMARK SMILES IDX 21 24 22 25 23 26 69 27 24 28 68 29 25 30 26 31 27 32 62 33
REMARK SMILES IDX 28 34 67 35 61 36 63 37 29 38 66 39 60 40 59 41 30 43 52 44
REMARK SMILES IDX 37 45 51 46 38 47 41 48 50 49 64 50 39 51 40 52 49 54 65 55
REMARK SMILES IDX 42 56 31 57 32 58 36 59 33 60 35 61 34 62 53 63 54 64 58 65
REMARK SMILES IDX 55 66 57 67 56 68 43 69 44 70 48 71 45 72 47 73 46 74
REMARK H PARENT 63 42 41 53
REMARK Flexibility Score: inf
ROOT
ATOM      1  C   UNL A   1      44.355  21.409  25.000  1.00  0.00     0.274 C 
ENDROOT
BRANCH   1   2
ATOM      2  O   UNL A   1      42.930  21.595  25.106  1.00  0.00    -0.462 OA
BRANCH   2   3
ATOM      3  C   UNL A   1      42.235  20.633  25.767  1.00  0.00     0.313 C 
ATOM      4  O   UNL A   1      42.268  19.438  25.485  1.00  0.00    -0.252 OA
BRANCH   3   5
ATOM      5  C   UNL A   1      41.339  21.176  26.874  1.00  0.00     0.126 C 
ATOM      6  C   UNL A   1      41.155  20.115  27.957  1.00  0.00     0.025 C 
BRANCH   5   7
ATOM      7  C   UNL A   1      40.020  21.789  26.422  1.00  0.00    -0.034 A 
ATOM      8  C   UNL A   1      37.562  22.896  25.517  1.00  0.00    -0.018 A 
ATOM      9  C   UNL A   1      38.486  23.669  26.236  1.00  0.00     0.009 A 
ATOM     10  C   UNL A   1      37.882  21.554  25.271  1.00  0.00     0.009 A 
ATOM     11  C   UNL A   1      39.696  23.126  26.682  1.00  0.00     0.005 A 
ATOM     12  C   UNL A   1      39.096  21.013  25.706  1.00  0.00     0.005 A 
BRANCH   8  13
ATOM     13  C   UNL A   1      36.317  23.485  25.001  1.00  0.00    -0.018 A 
ATOM     14  C   UNL A   1      34.404  24.997  25.240  1.00  0.00    -0.026 A 
ATOM     15  C   UNL A   1      33.906  24.546  24.013  1.00  0.00     0.008 A 
ATOM     16  C   UNL A   1      35.601  24.452  25.730  1.00  0.00     0.016 A 
ATOM     17  C   UNL A   1      34.603  23.592  23.273  1.00  0.00     0.001 A 
ATOM     18  C   UNL A   1      35.799  23.069  23.764  1.00  0.00     0.009 A 
BRANCH  14  19
ATOM     19  C   UNL A   1      33.621  25.982  25.997  1.00  0.00     0.000 C 
ATOM     20  C   UNL A   1      33.614  27.297  25.742  1.00  0.00     0.009 C 
ENDBRANCH  14  19
ENDBRANCH   8  13
ENDBRANCH   5   7
ENDBRANCH   3   5
ENDBRANCH   2   3
ENDBRANCH   1   2
BRANCH   1  21
ATOM     21  C   UNL A   1      45.021  22.594  24.300  1.00  0.00     0.275 C 
BRANCH  21  22
ATOM     22  O   UNL A   1      44.241  23.791  24.469  1.00  0.00    -0.458 OA
BRANCH  22  23
ATOM     23  C   UNL A   1      44.907  24.842  25.001  1.00  0.00     0.338 C 
ATOM     24  O   UNL A   1      45.980  25.300  24.652  1.00  0.00    -0.246 OA
BRANCH  23  25
ATOM     25  C   UNL A   1      44.074  25.474  26.034  1.00  0.00     0.060 A 
ATOM     26  C   UNL A   1      44.294  26.824  26.304  1.00  0.00     0.016 A 
ATOM     27  C   UNL A   1      43.164  24.737  26.791  1.00  0.00     0.016 A 
ATOM     28  C   UNL A   1      43.627  27.444  27.355  1.00  0.00     0.010 A 
ATOM     29  C   UNL A   1      42.479  25.365  27.839  1.00  0.00     0.010 A 
ATOM     30  C   UNL A   1      42.722  26.716  28.139  1.00  0.00    -0.014 A 
BRANCH  30  31
ATOM     31  C   UNL A   1      42.079  27.386  29.294  1.00  0.00     0.031 A 
ATOM     32  C   UNL A   1      42.758  27.397  30.633  1.00  0.00     0.074 A 
ATOM     33  C   UNL A   1      40.921  28.048  29.121  1.00  0.00     0.049 A 
ATOM     34  N   UNL A   1      42.379  27.976  31.746  1.00  0.00    -0.248 NA
ATOM     35  C   UNL A   1      44.032  26.668  30.737  1.00  0.00     0.031 C 
ATOM     36  C   UNL A   1      40.183  28.142  27.860  1.00  0.00     0.029 A 
ATOM     37  N   UNL A   1      40.176  28.787  30.004  1.00  0.00    -0.354 N 
ATOM     38  C   UNL A   1      43.358  27.673  32.682  1.00  0.00     0.074 A 
ATOM     39  C   UNL A   1      44.339  26.842  32.015  1.00  0.00     0.031 C 
ATOM     40  C   UNL A   1      39.102  28.918  28.046  1.00  0.00     0.029 A 
ATOM     41  C   UNL A   1      39.058  29.349  29.440  1.00  0.00     0.049 A 
ATOM     42  H   UNL A   1      40.419  28.902  30.950  1.00  0.00     0.167 HD
ATOM     43  C   UNL A   1      43.438  28.055  33.980  1.00  0.00     0.031 A 
ATOM     44  C   UNL A   1      38.103  30.126  29.986  1.00  0.00     0.031 A 
ATOM     45  C   UNL A   1      42.466  28.878  34.650  1.00  0.00     0.049 A 
ATOM     46  C   UNL A   1      38.198  30.505  31.436  1.00  0.00     0.074 A 
ATOM     47  C   UNL A   1      42.463  29.313  35.965  1.00  0.00     0.029 A 
ATOM     48  N   UNL A   1      41.325  29.391  34.056  1.00  0.00    -0.354 N 
ATOM     49  N   UNL A   1      39.132  30.212  32.307  1.00  0.00    -0.248 NA
ATOM     50  C   UNL A   1      37.107  31.331  31.973  1.00  0.00     0.031 C 
ATOM     51  C   UNL A   1      41.299  30.062  36.175  1.00  0.00     0.029 A 
ATOM     52  C   UNL A   1      40.602  30.127  34.980  1.00  0.00     0.049 A 
ATOM     53  H   UNL A   1      41.066  29.254  33.117  1.00  0.00     0.167 HD
ATOM     54  C   UNL A   1      38.749  30.826  33.492  1.00  0.00     0.074 A 
ATOM     55  C   UNL A   1      37.510  31.527  33.221  1.00  0.00     0.031 C 
ATOM     56  C   UNL A   1      39.366  30.809  34.698  1.00  0.00     0.031 A 
BRANCH  43  57
ATOM     57  C   UNL A   1      44.611  27.552  34.770  1.00  0.00    -0.014 A 
ATOM     58  C   UNL A   1      44.555  26.326  35.451  1.00  0.00     0.009 A 
ATOM     59  C   UNL A   1      45.795  28.303  34.814  1.00  0.00     0.009 A 
ATOM     60  C   UNL A   1      45.655  25.876  36.185  1.00  0.00     0.001 A 
ATOM     61  C   UNL A   1      46.900  27.841  35.531  1.00  0.00     0.001 A 
ATOM     62  C   UNL A   1      46.826  26.632  36.222  1.00  0.00     0.000 A 
ENDBRANCH  43  57
BRANCH  44  63
ATOM     63  C   UNL A   1      36.968  30.597  29.154  1.00  0.00    -0.014 A 
ATOM     64  C   UNL A   1      36.882  31.941  28.761  1.00  0.00     0.009 A 
ATOM     65  C   UNL A   1      35.960  29.704  28.758  1.00  0.00     0.009 A 
ATOM     66  C   UNL A   1      35.797  32.385  28.001  1.00  0.00     0.001 A 
ATOM     67  C   UNL A   1      34.890  30.146  27.979  1.00  0.00     0.001 A 
ATOM     68  C   UNL A   1      34.805  31.488  27.608  1.00  0.00     0.000 A 
ENDBRANCH  44  63
BRANCH  56  69
ATOM     69  C   UNL A   1      38.714  31.587  35.804  1.00  0.00    -0.014 A 
ATOM     70  C   UNL A   1      38.788  32.988  35.846  1.00  0.00     0.009 A 
ATOM     71  C   UNL A   1      38.009  30.909  36.812  1.00  0.00     0.009 A 
ATOM     72  C   UNL A   1      38.199  33.694  36.897  1.00  0.00     0.001 A 
ATOM     73  C   UNL A   1      37.403  31.619  37.848  1.00  0.00     0.001 A 
ATOM     74  C   UNL A   1      37.507  33.009  37.896  1.00  0.00     0.000 A 
ENDBRANCH  56  69
ENDBRANCH  30  31
ENDBRANCH  23  25
ENDBRANCH  22  23
ENDBRANCH  21  22
ENDBRANCH   1  21
TORSDOF 14
ENDMDL
MODEL 3
REMARK VINA RESULT:      -8.5      4.529     10.077
REMARK SMILES C=Cc1cccc(-c2ccc([C@@H](C)C(=O)OCCOC(=O)c3ccc(-c4c5nc(c(-c6ccccc6)c6ccc([nH]6)c(-c6ccccc6)c6nc(c(-c7ccccc7)c7ccc4[nH]7)C=C6)C=C5)cc3)cc2)c1
REMARK SMILES IDX 17 1 16 2 14 3 15 4 12 5 13 6 11 7 8 8 9 9 71 10 10 11 70 12
REMARK SMILES IDX 7 13 3 14 4 15 72 16 5 17 6 18 2 19 1 20 18 21 19 22 20 23
REMARK SMILES IDX 21 24 22 25 23 26 69 27 24 28 68 29 25 30 26 31 27 32 62 33
REMARK SMILES IDX 28 34 67 35 61 36 63 37 29 38 66 39 60 40 59 41 30 43 52 44
REMARK SMILES IDX 37 45 51 46 38 47 41 48 50 49 64 50 39 51 40 52 49 54 65 55
REMARK SMILES IDX 42 56 31 57 32 58 36 59 33 60 35 61 34 62 53 63 54 64 58 65
REMARK SMILES IDX 55 66 57 67 56 68 43 69 44 70 48 71 45 72 47 73 46 74
REMARK H PARENT 63 42 41 53
REMARK Flexibility Score: inf
ROOT
ATOM      1  C   UNL A   1      33.858  34.634  29.257  1.00  0.00     0.274 C 
ENDROOT
BRANCH   1   2
ATOM      2  O   UNL A   1      33.620  34.165  30.599  1.00  0.00    -0.462 OA
BRANCH   2   3
ATOM      3  C   UNL A   1      34.542  34.505  31.537  1.00  0.00     0.313 C 
ATOM      4  O   UNL A   1      34.550  35.571  32.146  1.00  0.00    -0.252 OA
BRANCH   3   5
ATOM      5  C   UNL A   1      35.632  33.456  31.733  1.00  0.00     0.126 C 
ATOM      6  C   UNL A   1      35.697  33.048  33.204  1.00  0.00     0.025 C 
BRANCH   5   7
ATOM      7  C   UNL A   1      36.999  33.801  31.159  1.00  0.00    -0.034 A 
ATOM      8  C   UNL A   1      39.548  34.388  30.044  1.00  0.00    -0.018 A 
ATOM      9  C   UNL A   1      39.284  34.603  31.404  1.00  0.00     0.009 A 
ATOM     10  C   UNL A   1      38.511  33.887  29.246  1.00  0.00     0.009 A 
ATOM     11  C   UNL A   1      38.030  34.315  31.955  1.00  0.00     0.005 A 
ATOM     12  C   UNL A   1      37.260  33.588  29.797  1.00  0.00     0.005 A 
BRANCH   8  13
ATOM     13  C   UNL A   1      40.884  34.637  29.481  1.00  0.00    -0.018 A 
ATOM     14  C   UNL A   1      43.270  34.104  29.313  1.00  0.00    -0.026 A 
ATOM     15  C   UNL A   1      43.438  35.180  28.434  1.00  0.00     0.008 A 
ATOM     16  C   UNL A   1      41.993  33.850  29.839  1.00  0.00     0.016 A 
ATOM     17  C   UNL A   1      42.351  35.969  28.063  1.00  0.00     0.001 A 
ATOM     18  C   UNL A   1      41.085  35.697  28.582  1.00  0.00     0.009 A 
BRANCH  14  19
ATOM     19  C   UNL A   1      44.450  33.319  29.696  1.00  0.00     0.000 C 
ATOM     20  C   UNL A   1      44.433  32.003  29.942  1.00  0.00     0.009 C 
ENDBRANCH  14  19
ENDBRANCH   8  13
ENDBRANCH   5   7
ENDBRANCH   3   5
ENDBRANCH   2   3
ENDBRANCH   1   2
BRANCH   1  21
ATOM     21  C   UNL A   1      33.931  33.471  28.266  1.00  0.00     0.275 C 
BRANCH  21  22
ATOM     22  O   UNL A   1      34.225  32.238  28.947  1.00  0.00    -0.458 OA
BRANCH  22  23
ATOM     23  C   UNL A   1      34.359  31.156  28.145  1.00  0.00     0.338 C 
ATOM     24  O   UNL A   1      33.606  30.779  27.266  1.00  0.00    -0.246 OA
BRANCH  23  25
ATOM     25  C   UNL A   1      35.661  30.522  28.398  1.00  0.00     0.060 A 
ATOM     26  C   UNL A   1      35.823  29.835  29.600  1.00  0.00     0.016 A 
ATOM     27  C   UNL A   1      36.733  30.678  27.518  1.00  0.00     0.016 A 
ATOM     28  C   UNL A   1      37.067  29.323  29.950  1.00  0.00     0.010 A 
ATOM     29  C   UNL A   1      37.982  30.148  27.863  1.00  0.00     0.010 A 
ATOM     30  C   UNL A   1      38.161  29.485  29.089  1.00  0.00    -0.014 A 
BRANCH  30  31
ATOM     31  C   UNL A   1      39.489  28.990  29.522  1.00  0.00     0.031 A 
ATOM     32  C   UNL A   1      40.257  29.719  30.586  1.00  0.00     0.074 A 
ATOM     33  C   UNL A   1      39.971  27.843  29.009  1.00  0.00     0.049 A 
ATOM     34  N   UNL A   1      41.407  29.409  31.132  1.00  0.00    -0.248 NA
ATOM     35  C   UNL A   1      39.654  30.954  31.110  1.00  0.00     0.031 C 
ATOM     36  C   UNL A   1      39.303  27.023  27.997  1.00  0.00     0.029 A 
ATOM     37  N   UNL A   1      41.125  27.157  29.290  1.00  0.00    -0.354 N 
ATOM     38  C   UNL A   1      41.670  30.414  32.054  1.00  0.00     0.074 A 
ATOM     39  C   UNL A   1      40.571  31.354  31.980  1.00  0.00     0.031 C 
ATOM     40  C   UNL A   1      40.048  25.931  27.760  1.00  0.00     0.029 A 
ATOM     41  C   UNL A   1      41.255  25.989  28.580  1.00  0.00     0.049 A 
ATOM     42  H   UNL A   1      41.796  27.472  29.938  1.00  0.00     0.167 HD
ATOM     43  C   UNL A   1      42.728  30.541  32.891  1.00  0.00     0.031 A 
ATOM     44  C   UNL A   1      42.236  25.068  28.589  1.00  0.00     0.031 A 
ATOM     45  C   UNL A   1      43.825  29.612  32.968  1.00  0.00     0.049 A 
ATOM     46  C   UNL A   1      43.415  25.252  29.501  1.00  0.00     0.074 A 
ATOM     47  C   UNL A   1      44.942  29.662  33.784  1.00  0.00     0.029 A 
ATOM     48  N   UNL A   1      43.940  28.465  32.201  1.00  0.00    -0.354 N 
ATOM     49  N   UNL A   1      43.647  26.207  30.368  1.00  0.00    -0.248 NA
ATOM     50  C   UNL A   1      44.463  24.224  29.439  1.00  0.00     0.031 C 
ATOM     51  C   UNL A   1      45.752  28.560  33.485  1.00  0.00     0.029 A 
ATOM     52  C   UNL A   1      45.117  27.804  32.513  1.00  0.00     0.049 A 
ATOM     53  H   UNL A   1      43.283  28.163  31.533  1.00  0.00     0.167 HD
ATOM     54  C   UNL A   1      44.860  25.889  30.964  1.00  0.00     0.074 A 
ATOM     55  C   UNL A   1      45.304  24.642  30.375  1.00  0.00     0.031 C 
ATOM     56  C   UNL A   1      45.548  26.570  31.911  1.00  0.00     0.031 A 
BRANCH  43  57
ATOM     57  C   UNL A   1      42.761  31.756  33.772  1.00  0.00    -0.014 A 
ATOM     58  C   UNL A   1      42.253  31.719  35.079  1.00  0.00     0.009 A 
ATOM     59  C   UNL A   1      43.330  32.946  33.295  1.00  0.00     0.009 A 
ATOM     60  C   UNL A   1      42.289  32.860  35.883  1.00  0.00     0.001 A 
ATOM     61  C   UNL A   1      43.384  34.080  34.108  1.00  0.00     0.001 A 
ATOM     62  C   UNL A   1      42.857  34.038  35.398  1.00  0.00     0.000 A 
ENDBRANCH  43  57
BRANCH  44  63
ATOM     63  C   UNL A   1      42.147  23.884  27.699  1.00  0.00    -0.014 A 
ATOM     64  C   UNL A   1      41.535  22.703  28.143  1.00  0.00     0.009 A 
ATOM     65  C   UNL A   1      42.684  23.929  26.403  1.00  0.00     0.009 A 
ATOM     66  C   UNL A   1      41.478  21.582  27.311  1.00  0.00     0.001 A 
ATOM     67  C   UNL A   1      42.605  22.815  25.566  1.00  0.00     0.001 A 
ATOM     68  C   UNL A   1      42.009  21.641  26.023  1.00  0.00     0.000 A 
ENDBRANCH  44  63
BRANCH  56  69
ATOM     69  C   UNL A   1      46.841  25.966  32.376  1.00  0.00    -0.014 A 
ATOM     70  C   UNL A   1      48.049  26.242  31.715  1.00  0.00     0.009 A 
ATOM     71  C   UNL A   1      46.854  25.118  33.494  1.00  0.00     0.009 A 
ATOM     72  C   UNL A   1      49.238  25.649  32.142  1.00  0.00     0.001 A 
ATOM     73  C   UNL A   1      48.047  24.545  33.933  1.00  0.00     0.001 A 
ATOM     74  C   UNL A   1      49.237  24.803  33.251  1.00  0.00     0.000 A 
ENDBRANCH  56  69
ENDBRANCH  30  31
ENDBRANCH  23  25
ENDBRANCH  22  23
ENDBRANCH  21  22
ENDBRANCH   1  21
TORSDOF 14
ENDMDL
