MODEL 1
REMARK VINA RESULT:     -11.7      0.000      0.000
REMARK SMILES CCNC(=O)c1ccc(NC(=O)CC2(C(=O)OCCOC(=O)c3ccc(-c4c5nc(c(-c6ccccc6)c6ccc([nH]6)c(-c6ccccc6)c6nc(c(-c7ccccc7)c7ccc4[nH]7)C=C6)C=C5)cc3)CCCC2)cc1
REMARK SMILES IDX 17 1 15 2 16 3 14 4 71 5 74 6 72 7 73 8 13 9 11 10 10 11
REMARK SMILES IDX 12 13 9 14 6 15 7 16 76 17 8 18 75 19 4 20 3 21 5 23 2 24
REMARK SMILES IDX 1 25 18 26 19 27 20 28 21 29 22 30 23 31 24 32 70 33 25 34
REMARK SMILES IDX 69 35 26 36 27 37 28 38 63 39 29 40 68 41 62 42 64 43 30 44
REMARK SMILES IDX 67 45 61 46 60 47 31 49 53 50 38 51 52 52 39 53 42 54 51 55
REMARK SMILES IDX 65 56 40 57 41 58 50 60 66 61 43 62 32 63 33 64 37 65 34 66
REMARK SMILES IDX 36 67 35 68 54 69 55 70 59 71 56 72 58 73 57 74 44 75 45 76
REMARK SMILES IDX 49 77 46 78 48 79 47 80
REMARK H PARENT 10 12 3 22 64 48 42 59
REMARK Flexibility Score: inf
ROOT
ATOM      1  O   UNL A   1      33.466  21.233  25.042  1.00  0.00    -0.462 OA
ENDROOT
BRANCH   1   2
ATOM      2  C   UNL A   1      32.907  22.071  24.129  1.00  0.00     0.312 C 
ATOM      3  O   UNL A   1      32.864  21.851  22.926  1.00  0.00    -0.252 OA
BRANCH   2   4
ATOM      4  C   UNL A   1      32.434  23.388  24.769  1.00  0.00     0.077 C 
ATOM      5  C   UNL A   1      32.885  24.525  23.843  1.00  0.00     0.019 C 
ATOM      6  C   UNL A   1      33.176  23.742  26.083  1.00  0.00     0.019 C 
ATOM      7  C   UNL A   1      34.356  24.724  24.179  1.00  0.00     0.001 C 
ATOM      8  C   UNL A   1      34.423  24.542  25.688  1.00  0.00     0.001 C 
BRANCH   4   9
ATOM      9  C   UNL A   1      30.915  23.349  25.065  1.00  0.00     0.119 C 
BRANCH   9  10
ATOM     10  C   UNL A   1      30.428  23.917  26.398  1.00  0.00     0.225 C 
ATOM     11  N   UNL A   1      30.121  25.238  26.543  1.00  0.00    -0.326 N 
ATOM     12  H   UNL A   1      29.641  25.471  27.370  1.00  0.00     0.169 HD
ATOM     13  O   UNL A   1      30.255  23.174  27.368  1.00  0.00    -0.275 OA
BRANCH  11  14
ATOM     14  C   UNL A   1      30.390  26.307  25.688  1.00  0.00     0.041 A 
ATOM     15  C   UNL A   1      31.136  28.127  23.738  1.00  0.00     0.039 A 
ATOM     16  C   UNL A   1      31.773  28.159  24.977  1.00  0.00     0.016 A 
ATOM     17  C   UNL A   1      30.070  27.256  23.495  1.00  0.00     0.016 A 
ATOM     18  C   UNL A   1      31.377  27.259  25.964  1.00  0.00     0.027 A 
ATOM     19  C   UNL A   1      29.673  26.364  24.489  1.00  0.00     0.027 A 
BRANCH  15  20
ATOM     20  C   UNL A   1      31.636  28.980  22.653  1.00  0.00     0.251 C 
ATOM     21  N   UNL A   1      30.774  29.869  22.072  1.00  0.00    -0.352 N 
ATOM     22  H   UNL A   1      31.110  30.343  21.277  1.00  0.00     0.163 HD
ATOM     23  O   UNL A   1      32.803  28.879  22.295  1.00  0.00    -0.269 OA
BRANCH  21  24
ATOM     24  C   UNL A   1      29.424  30.195  22.488  1.00  0.00     0.112 C 
ATOM     25  C   UNL A   1      28.559  30.544  21.291  1.00  0.00     0.027 C 
ENDBRANCH  21  24
ENDBRANCH  15  20
ENDBRANCH  11  14
ENDBRANCH   9  10
ENDBRANCH   4   9
ENDBRANCH   2   4
ENDBRANCH   1   2
BRANCH   1  26
ATOM     26  C   UNL A   1      34.729  20.624  24.708  1.00  0.00     0.274 C 
BRANCH  26  27
ATOM     27  C   UNL A   1      35.770  21.062  25.730  1.00  0.00     0.275 C 
BRANCH  27  28
ATOM     28  O   UNL A   1      36.913  21.556  25.013  1.00  0.00    -0.458 OA
BRANCH  28  29
ATOM     29  C   UNL A   1      38.120  21.119  25.436  1.00  0.00     0.338 C 
ATOM     30  O   UNL A   1      38.590  20.000  25.332  1.00  0.00    -0.246 OA
BRANCH  29  31
ATOM     31  C   UNL A   1      38.846  22.251  26.040  1.00  0.00     0.060 A 
ATOM     32  C   UNL A   1      38.317  23.535  25.940  1.00  0.00     0.016 A 
ATOM     33  C   UNL A   1      40.100  22.059  26.612  1.00  0.00     0.016 A 
ATOM     34  C   UNL A   1      39.072  24.640  26.330  1.00  0.00     0.010 A 
ATOM     35  C   UNL A   1      40.812  23.162  27.100  1.00  0.00     0.010 A 
ATOM     36  C   UNL A   1      40.322  24.473  26.933  1.00  0.00    -0.014 A 
BRANCH  36  37
ATOM     37  C   UNL A   1      41.147  25.650  27.333  1.00  0.00     0.031 A 
ATOM     38  C   UNL A   1      40.602  26.638  28.332  1.00  0.00     0.074 A 
ATOM     39  C   UNL A   1      42.383  25.854  26.830  1.00  0.00     0.049 A 
ATOM     40  N   UNL A   1      41.021  27.844  28.623  1.00  0.00    -0.248 NA
ATOM     41  C   UNL A   1      39.420  26.212  29.099  1.00  0.00     0.031 C 
ATOM     42  C   UNL A   1      43.106  24.951  25.933  1.00  0.00     0.029 A 
ATOM     43  N   UNL A   1      43.255  26.903  27.013  1.00  0.00    -0.354 N 
ATOM     44  C   UNL A   1      40.113  28.345  29.547  1.00  0.00     0.074 A 
ATOM     45  C   UNL A   1      39.129  27.311  29.780  1.00  0.00     0.031 C 
ATOM     46  C   UNL A   1      44.317  25.469  25.670  1.00  0.00     0.029 A 
ATOM     47  C   UNL A   1      44.420  26.782  26.296  1.00  0.00     0.049 A 
ATOM     48  H   UNL A   1      43.061  27.669  27.601  1.00  0.00     0.167 HD
ATOM     49  C   UNL A   1      40.094  29.562  30.142  1.00  0.00     0.031 A 
ATOM     50  C   UNL A   1      45.437  27.645  26.113  1.00  0.00     0.031 A 
ATOM     51  C   UNL A   1      41.098  30.575  29.957  1.00  0.00     0.049 A 
ATOM     52  C   UNL A   1      45.367  29.013  26.729  1.00  0.00     0.074 A 
ATOM     53  C   UNL A   1      41.156  31.845  30.507  1.00  0.00     0.029 A 
ATOM     54  N   UNL A   1      42.234  30.424  29.178  1.00  0.00    -0.354 N 
ATOM     55  N   UNL A   1      44.451  29.519  27.519  1.00  0.00    -0.248 NA
ATOM     56  C   UNL A   1      46.461  29.942  26.404  1.00  0.00     0.031 C 
ATOM     57  C   UNL A   1      42.314  32.473  30.035  1.00  0.00     0.029 A 
ATOM     58  C   UNL A   1      42.995  31.579  29.226  1.00  0.00     0.049 A 
ATOM     59  H   UNL A   1      42.465  29.615  28.667  1.00  0.00     0.167 HD
ATOM     60  C   UNL A   1      44.862  30.817  27.790  1.00  0.00     0.074 A 
ATOM     61  C   UNL A   1      46.118  31.017  27.101  1.00  0.00     0.031 C 
ATOM     62  C   UNL A   1      44.245  31.763  28.539  1.00  0.00     0.031 A 
BRANCH  49  63
ATOM     63  C   UNL A   1      38.912  29.886  31.009  1.00  0.00    -0.014 A 
ATOM     64  C   UNL A   1      37.731  30.424  30.476  1.00  0.00     0.009 A 
ATOM     65  C   UNL A   1      38.981  29.624  32.387  1.00  0.00     0.009 A 
ATOM     66  C   UNL A   1      36.653  30.722  31.313  1.00  0.00     0.001 A 
ATOM     67  C   UNL A   1      37.894  29.899  33.216  1.00  0.00     0.001 A 
ATOM     68  C   UNL A   1      36.735  30.456  32.681  1.00  0.00     0.000 A 
ENDBRANCH  49  63
BRANCH  50  69
ATOM     69  C   UNL A   1      46.585  27.273  25.244  1.00  0.00    -0.014 A 
ATOM     70  C   UNL A   1      46.746  27.864  23.982  1.00  0.00     0.009 A 
ATOM     71  C   UNL A   1      47.517  26.311  25.668  1.00  0.00     0.009 A 
ATOM     72  C   UNL A   1      47.808  27.487  23.156  1.00  0.00     0.001 A 
ATOM     73  C   UNL A   1      48.593  25.958  24.853  1.00  0.00     0.001 A 
ATOM     74  C   UNL A   1      48.734  26.540  23.594  1.00  0.00     0.000 A 
ENDBRANCH  50  69
BRANCH  62  75
ATOM     75  C   UNL A   1      44.939  33.086  28.677  1.00  0.00    -0.014 A 
ATOM     76  C   UNL A   1      45.845  33.323  29.722  1.00  0.00     0.009 A 
ATOM     77  C   UNL A   1      44.711  34.095  27.729  1.00  0.00     0.009 A 
ATOM     78  C   UNL A   1      46.489  34.558  29.829  1.00  0.00     0.001 A 
ATOM     79  C   UNL A   1      45.371  35.320  27.826  1.00  0.00     0.001 A 
ATOM     80  C   UNL A   1      46.254  35.553  28.880  1.00  0.00     0.000 A 
ENDBRANCH  62  75
ENDBRANCH  36  37
ENDBRANCH  29  31
ENDBRANCH  28  29
ENDBRANCH  27  28
ENDBRANCH  26  27
ENDBRANCH   1  26
TORSDOF 16
ENDMDL
MODEL 2
REMARK VINA RESULT:     -11.4      2.514      7.201
REMARK SMILES CCNC(=O)c1ccc(NC(=O)CC2(C(=O)OCCOC(=O)c3ccc(-c4c5nc(c(-c6ccccc6)c6ccc([nH]6)c(-c6ccccc6)c6nc(c(-c7ccccc7)c7ccc4[nH]7)C=C6)C=C5)cc3)CCCC2)cc1
REMARK SMILES IDX 17 1 15 2 16 3 14 4 71 5 74 6 72 7 73 8 13 9 11 10 10 11
REMARK SMILES IDX 12 13 9 14 6 15 7 16 76 17 8 18 75 19 4 20 3 21 5 23 2 24
REMARK SMILES IDX 1 25 18 26 19 27 20 28 21 29 22 30 23 31 24 32 70 33 25 34
REMARK SMILES IDX 69 35 26 36 27 37 28 38 63 39 29 40 68 41 62 42 64 43 30 44
REMARK SMILES IDX 67 45 61 46 60 47 31 49 53 50 38 51 52 52 39 53 42 54 51 55
REMARK SMILES IDX 65 56 40 57 41 58 50 60 66 61 43 62 32 63 33 64 37 65 34 66
REMARK SMILES IDX 36 67 35 68 54 69 55 70 59 71 56 72 58 73 57 74 44 75 45 76
REMARK SMILES IDX 49 77 46 78 48 79 47 80
REMARK H PARENT 10 12 3 22 64 48 42 59
REMARK Flexibility Score: inf
ROOT
ATOM      1  O   UNL A   1      32.693  28.914  25.908  1.00  0.00    -0.462 OA
ENDROOT
BRANCH   1   2
ATOM      2  C   UNL A   1      32.132  27.769  26.378  1.00  0.00     0.312 C 
ATOM      3  O   UNL A   1      31.670  27.638  27.505  1.00  0.00    -0.252 OA
BRANCH   2   4
ATOM      4  C   UNL A   1      32.246  26.614  25.369  1.00  0.00     0.077 C 
ATOM      5  C   UNL A   1      30.968  26.632  24.519  1.00  0.00     0.019 C 
ATOM      6  C   UNL A   1      32.166  25.209  26.020  1.00  0.00     0.019 C 
ATOM      7  C   UNL A   1      29.923  25.955  25.394  1.00  0.00     0.001 C 
ATOM      8  C   UNL A   1      30.683  24.830  26.080  1.00  0.00     0.001 C 
BRANCH   4   9
ATOM      9  C   UNL A   1      33.566  26.703  24.567  1.00  0.00     0.119 C 
BRANCH   9  10
ATOM     10  C   UNL A   1      33.488  26.613  23.042  1.00  0.00     0.225 C 
ATOM     11  N   UNL A   1      33.426  25.411  22.399  1.00  0.00    -0.326 N 
ATOM     12  H   UNL A   1      33.188  25.455  21.445  1.00  0.00     0.169 HD
ATOM     13  O   UNL A   1      33.428  27.637  22.358  1.00  0.00    -0.275 OA
BRANCH  11  14
ATOM     14  C   UNL A   1      33.654  24.128  22.899  1.00  0.00     0.041 A 
ATOM     15  C   UNL A   1      33.918  21.736  24.267  1.00  0.00     0.039 A 
ATOM     16  C   UNL A   1      35.053  22.506  24.019  1.00  0.00     0.016 A 
ATOM     17  C   UNL A   1      32.668  22.104  23.761  1.00  0.00     0.016 A 
ATOM     18  C   UNL A   1      34.919  23.696  23.308  1.00  0.00     0.027 A 
ATOM     19  C   UNL A   1      32.543  23.292  23.043  1.00  0.00     0.027 A 
BRANCH  15  20
ATOM     20  C   UNL A   1      34.030  20.551  25.128  1.00  0.00     0.251 C 
ATOM     21  N   UNL A   1      34.287  20.734  26.459  1.00  0.00    -0.352 N 
ATOM     22  H   UNL A   1      34.466  19.918  26.981  1.00  0.00     0.163 HD
ATOM     23  O   UNL A   1      33.891  19.436  24.640  1.00  0.00    -0.269 OA
BRANCH  21  24
ATOM     24  C   UNL A   1      34.328  21.984  27.190  1.00  0.00     0.112 C 
ATOM     25  C   UNL A   1      33.039  22.203  27.959  1.00  0.00     0.027 C 
ENDBRANCH  21  24
ENDBRANCH  15  20
ENDBRANCH  11  14
ENDBRANCH   9  10
ENDBRANCH   4   9
ENDBRANCH   2   4
ENDBRANCH   1   2
BRANCH   1  26
ATOM     26  C   UNL A   1      31.979  30.148  26.123  1.00  0.00     0.274 C 
BRANCH  26  27
ATOM     27  C   UNL A   1      32.661  30.918  27.248  1.00  0.00     0.275 C 
BRANCH  27  28
ATOM     28  O   UNL A   1      34.039  30.512  27.290  1.00  0.00    -0.458 OA
BRANCH  28  29
ATOM     29  C   UNL A   1      34.771  30.987  28.322  1.00  0.00     0.338 C 
ATOM     30  O   UNL A   1      34.463  31.850  29.124  1.00  0.00    -0.246 OA
BRANCH  29  31
ATOM     31  C   UNL A   1      36.048  30.252  28.371  1.00  0.00     0.060 A 
ATOM     32  C   UNL A   1      36.472  29.696  29.574  1.00  0.00     0.016 A 
ATOM     33  C   UNL A   1      36.876  30.203  27.253  1.00  0.00     0.016 A 
ATOM     34  C   UNL A   1      37.757  29.167  29.692  1.00  0.00     0.010 A 
ATOM     35  C   UNL A   1      38.125  29.577  27.346  1.00  0.00     0.010 A 
ATOM     36  C   UNL A   1      38.597  29.080  28.577  1.00  0.00    -0.014 A 
BRANCH  36  37
ATOM     37  C   UNL A   1      39.982  28.537  28.698  1.00  0.00     0.031 A 
ATOM     38  C   UNL A   1      41.105  29.447  29.127  1.00  0.00     0.074 A 
ATOM     39  C   UNL A   1      40.261  27.242  28.443  1.00  0.00     0.049 A 
ATOM     40  N   UNL A   1      42.399  29.264  29.050  1.00  0.00    -0.248 NA
ATOM     41  C   UNL A   1      40.715  30.739  29.715  1.00  0.00     0.031 C 
ATOM     42  C   UNL A   1      39.286  26.201  28.114  1.00  0.00     0.029 A 
ATOM     43  N   UNL A   1      41.467  26.580  28.424  1.00  0.00    -0.354 N 
ATOM     44  C   UNL A   1      42.973  30.443  29.507  1.00  0.00     0.074 A 
ATOM     45  C   UNL A   1      41.890  31.330  29.872  1.00  0.00     0.031 C 
ATOM     46  C   UNL A   1      39.925  25.031  27.957  1.00  0.00     0.029 A 
ATOM     47  C   UNL A   1      41.362  25.255  28.076  1.00  0.00     0.049 A 
ATOM     48  H   UNL A   1      42.324  27.014  28.639  1.00  0.00     0.167 HD
ATOM     49  C   UNL A   1      44.286  30.765  29.603  1.00  0.00     0.031 A 
ATOM     50  C   UNL A   1      42.309  24.331  27.824  1.00  0.00     0.031 A 
ATOM     51  C   UNL A   1      45.368  29.869  29.294  1.00  0.00     0.049 A 
ATOM     52  C   UNL A   1      43.758  24.724  27.875  1.00  0.00     0.074 A 
ATOM     53  C   UNL A   1      46.731  30.111  29.348  1.00  0.00     0.029 A 
ATOM     54  N   UNL A   1      45.210  28.552  28.894  1.00  0.00    -0.354 N 
ATOM     55  N   UNL A   1      44.292  25.874  28.206  1.00  0.00    -0.248 NA
ATOM     56  C   UNL A   1      44.736  23.695  27.488  1.00  0.00     0.031 C 
ATOM     57  C   UNL A   1      47.397  28.946  28.951  1.00  0.00     0.029 A 
ATOM     58  C   UNL A   1      46.450  27.970  28.690  1.00  0.00     0.049 A 
ATOM     59  H   UNL A   1      44.345  28.098  28.773  1.00  0.00     0.167 HD
ATOM     60  C   UNL A   1      45.664  25.705  28.076  1.00  0.00     0.074 A 
ATOM     61  C   UNL A   1      45.884  24.337  27.657  1.00  0.00     0.031 C 
ATOM     62  C   UNL A   1      46.654  26.608  28.278  1.00  0.00     0.031 A 
BRANCH  49  63
ATOM     63  C   UNL A   1      44.623  32.169  30.012  1.00  0.00    -0.014 A 
ATOM     64  C   UNL A   1      44.857  32.512  31.352  1.00  0.00     0.009 A 
ATOM     65  C   UNL A   1      44.728  33.163  29.025  1.00  0.00     0.009 A 
ATOM     66  C   UNL A   1      45.160  33.831  31.698  1.00  0.00     0.001 A 
ATOM     67  C   UNL A   1      45.056  34.474  29.371  1.00  0.00     0.001 A 
ATOM     68  C   UNL A   1      45.262  34.809  30.708  1.00  0.00     0.000 A 
ENDBRANCH  49  63
BRANCH  50  69
ATOM     69  C   UNL A   1      41.920  22.953  27.424  1.00  0.00    -0.014 A 
ATOM     70  C   UNL A   1      41.712  21.960  28.392  1.00  0.00     0.009 A 
ATOM     71  C   UNL A   1      41.770  22.621  26.067  1.00  0.00     0.009 A 
ATOM     72  C   UNL A   1      41.377  20.659  28.009  1.00  0.00     0.001 A 
ATOM     73  C   UNL A   1      41.408  21.328  25.689  1.00  0.00     0.001 A 
ATOM     74  C   UNL A   1      41.219  20.345  26.659  1.00  0.00     0.000 A 
ENDBRANCH  50  69
BRANCH  62  75
ATOM     75  C   UNL A   1      48.064  26.133  28.080  1.00  0.00    -0.014 A 
ATOM     76  C   UNL A   1      48.818  25.636  29.154  1.00  0.00     0.009 A 
ATOM     77  C   UNL A   1      48.631  26.151  26.797  1.00  0.00     0.009 A 
ATOM     78  C   UNL A   1      50.126  25.191  28.950  1.00  0.00     0.001 A 
ATOM     79  C   UNL A   1      49.930  25.685  26.592  1.00  0.00     0.001 A 
ATOM     80  C   UNL A   1      50.679  25.212  27.669  1.00  0.00     0.000 A 
ENDBRANCH  62  75
ENDBRANCH  36  37
ENDBRANCH  29  31
ENDBRANCH  28  29
ENDBRANCH  27  28
ENDBRANCH  26  27
ENDBRANCH   1  26
TORSDOF 16
ENDMDL
MODEL 3
REMARK VINA RESULT:     -11.3      3.856      4.493
REMARK SMILES CCNC(=O)c1ccc(NC(=O)CC2(C(=O)OCCOC(=O)c3ccc(-c4c5nc(c(-c6ccccc6)c6ccc([nH]6)c(-c6ccccc6)c6nc(c(-c7ccccc7)c7ccc4[nH]7)C=C6)C=C5)cc3)CCCC2)cc1
REMARK SMILES IDX 17 1 15 2 16 3 14 4 71 5 74 6 72 7 73 8 13 9 11 10 10 11
REMARK SMILES IDX 12 13 9 14 6 15 7 16 76 17 8 18 75 19 4 20 3 21 5 23 2 24
REMARK SMILES IDX 1 25 18 26 19 27 20 28 21 29 22 30 23 31 24 32 70 33 25 34
REMARK SMILES IDX 69 35 26 36 27 37 28 38 63 39 29 40 68 41 62 42 64 43 30 44
REMARK SMILES IDX 67 45 61 46 60 47 31 49 53 50 38 51 52 52 39 53 42 54 51 55
REMARK SMILES IDX 65 56 40 57 41 58 50 60 66 61 43 62 32 63 33 64 37 65 34 66
REMARK SMILES IDX 36 67 35 68 54 69 55 70 59 71 56 72 58 73 57 74 44 75 45 76
REMARK SMILES IDX 49 77 46 78 48 79 47 80
REMARK H PARENT 10 12 3 22 64 48 42 59
REMARK Flexibility Score: inf
ROOT
ATOM      1  O   UNL A   1      35.214  22.059  25.094  1.00  0.00    -0.462 OA
ENDROOT
BRANCH   1   2
ATOM      2  C   UNL A   1      33.903  21.823  25.363  1.00  0.00     0.312 C 
ATOM      3  O   UNL A   1      33.466  20.763  25.793  1.00  0.00    -0.252 OA
BRANCH   2   4
ATOM      4  C   UNL A   1      33.009  23.008  24.959  1.00  0.00     0.077 C 
ATOM      5  C   UNL A   1      31.809  22.426  24.200  1.00  0.00     0.019 C 
ATOM      6  C   UNL A   1      33.643  23.925  23.882  1.00  0.00     0.019 C 
ATOM      7  C   UNL A   1      32.339  22.163  22.798  1.00  0.00     0.001 C 
ATOM      8  C   UNL A   1      33.256  23.344  22.518  1.00  0.00     0.001 C 
BRANCH   4   9
ATOM      9  C   UNL A   1      32.647  23.877  26.186  1.00  0.00     0.119 C 
BRANCH   9  10
ATOM     10  C   UNL A   1      31.191  23.890  26.654  1.00  0.00     0.225 C 
ATOM     11  N   UNL A   1      30.279  24.758  26.129  1.00  0.00    -0.326 N 
ATOM     12  H   UNL A   1      29.340  24.566  26.349  1.00  0.00     0.169 HD
ATOM     13  O   UNL A   1      30.796  23.073  27.490  1.00  0.00    -0.275 OA
BRANCH  11  14
ATOM     14  C   UNL A   1      30.487  25.879  25.324  1.00  0.00     0.041 A 
ATOM     15  C   UNL A   1      31.273  27.896  23.598  1.00  0.00     0.039 A 
ATOM     16  C   UNL A   1      31.368  28.103  24.972  1.00  0.00     0.016 A 
ATOM     17  C   UNL A   1      30.706  26.729  23.079  1.00  0.00     0.016 A 
ATOM     18  C   UNL A   1      30.948  27.096  25.838  1.00  0.00     0.027 A 
ATOM     19  C   UNL A   1      30.279  25.728  23.950  1.00  0.00     0.027 A 
BRANCH  15  20
ATOM     20  C   UNL A   1      31.836  28.897  22.682  1.00  0.00     0.251 C 
ATOM     21  N   UNL A   1      30.975  29.698  21.983  1.00  0.00    -0.352 N 
ATOM     22  H   UNL A   1      31.382  30.278  21.299  1.00  0.00     0.163 HD
ATOM     23  O   UNL A   1      33.051  28.991  22.565  1.00  0.00    -0.269 OA
BRANCH  21  24
ATOM     24  C   UNL A   1      29.536  29.795  22.131  1.00  0.00     0.112 C 
ATOM     25  C   UNL A   1      29.171  30.769  23.236  1.00  0.00     0.027 C 
ENDBRANCH  21  24
ENDBRANCH  15  20
ENDBRANCH  11  14
ENDBRANCH   9  10
ENDBRANCH   4   9
ENDBRANCH   2   4
ENDBRANCH   1   2
BRANCH   1  26
ATOM     26  C   UNL A   1      36.190  21.188  25.699  1.00  0.00     0.274 C 
BRANCH  26  27
ATOM     27  C   UNL A   1      37.389  21.071  24.765  1.00  0.00     0.275 C 
BRANCH  27  28
ATOM     28  O   UNL A   1      38.538  21.591  25.454  1.00  0.00    -0.458 OA
BRANCH  28  29
ATOM     29  C   UNL A   1      39.524  20.707  25.725  1.00  0.00     0.338 C 
ATOM     30  O   UNL A   1      39.546  19.514  25.485  1.00  0.00    -0.246 OA
BRANCH  29  31
ATOM     31  C   UNL A   1      40.645  21.430  26.352  1.00  0.00     0.060 A 
ATOM     32  C   UNL A   1      40.414  22.667  26.949  1.00  0.00     0.016 A 
ATOM     33  C   UNL A   1      41.943  20.936  26.257  1.00  0.00     0.016 A 
ATOM     34  C   UNL A   1      41.483  23.454  27.374  1.00  0.00     0.010 A 
ATOM     35  C   UNL A   1      43.006  21.683  26.781  1.00  0.00     0.010 A 
ATOM     36  C   UNL A   1      42.794  22.970  27.316  1.00  0.00    -0.014 A 
BRANCH  36  37
ATOM     37  C   UNL A   1      43.946  23.814  27.747  1.00  0.00     0.031 A 
ATOM     38  C   UNL A   1      44.252  23.964  29.216  1.00  0.00     0.074 A 
ATOM     39  C   UNL A   1      44.737  24.445  26.854  1.00  0.00     0.049 A 
ATOM     40  N   UNL A   1      45.021  24.834  29.820  1.00  0.00    -0.248 NA
ATOM     41  C   UNL A   1      43.595  23.010  30.124  1.00  0.00     0.031 C 
ATOM     42  C   UNL A   1      44.649  24.332  25.398  1.00  0.00     0.029 A 
ATOM     43  N   UNL A   1      45.784  25.316  27.054  1.00  0.00    -0.354 N 
ATOM     44  C   UNL A   1      44.881  24.580  31.178  1.00  0.00     0.074 A 
ATOM     45  C   UNL A   1      43.965  23.467  31.310  1.00  0.00     0.031 C 
ATOM     46  C   UNL A   1      45.617  25.076  24.839  1.00  0.00     0.029 A 
ATOM     47  C   UNL A   1      46.330  25.796  25.888  1.00  0.00     0.049 A 
ATOM     48  H   UNL A   1      46.109  25.571  27.947  1.00  0.00     0.167 HD
ATOM     49  C   UNL A   1      45.455  25.222  32.224  1.00  0.00     0.031 A 
ATOM     50  C   UNL A   1      47.260  26.746  25.676  1.00  0.00     0.031 A 
ATOM     51  C   UNL A   1      46.408  26.293  32.099  1.00  0.00     0.049 A 
ATOM     52  C   UNL A   1      47.838  27.491  26.846  1.00  0.00     0.074 A 
ATOM     53  C   UNL A   1      47.033  27.014  33.103  1.00  0.00     0.029 A 
ATOM     54  N   UNL A   1      46.890  26.780  30.895  1.00  0.00    -0.354 N 
ATOM     55  N   UNL A   1      47.621  27.317  28.126  1.00  0.00    -0.248 NA
ATOM     56  C   UNL A   1      48.770  28.586  26.537  1.00  0.00     0.031 C 
ATOM     57  C   UNL A   1      47.873  27.959  32.503  1.00  0.00     0.029 A 
ATOM     58  C   UNL A   1      47.799  27.797  31.129  1.00  0.00     0.049 A 
ATOM     59  H   UNL A   1      46.626  26.451  30.006  1.00  0.00     0.167 HD
ATOM     60  C   UNL A   1      48.394  28.271  28.774  1.00  0.00     0.074 A 
ATOM     61  C   UNL A   1      49.102  29.008  27.750  1.00  0.00     0.031 C 
ATOM     62  C   UNL A   1      48.499  28.519  30.102  1.00  0.00     0.031 A 
BRANCH  49  63
ATOM     63  C   UNL A   1      45.021  24.817  33.603  1.00  0.00    -0.014 A 
ATOM     64  C   UNL A   1      45.718  23.850  34.342  1.00  0.00     0.009 A 
ATOM     65  C   UNL A   1      43.901  25.439  34.179  1.00  0.00     0.009 A 
ATOM     66  C   UNL A   1      45.282  23.490  35.620  1.00  0.00     0.001 A 
ATOM     67  C   UNL A   1      43.482  25.096  35.464  1.00  0.00     0.001 A 
ATOM     68  C   UNL A   1      44.167  24.116  36.180  1.00  0.00     0.000 A 
ENDBRANCH  49  63
BRANCH  50  69
ATOM     69  C   UNL A   1      47.654  27.108  24.289  1.00  0.00    -0.014 A 
ATOM     70  C   UNL A   1      46.939  28.080  23.573  1.00  0.00     0.009 A 
ATOM     71  C   UNL A   1      48.741  26.470  23.668  1.00  0.00     0.009 A 
ATOM     72  C   UNL A   1      47.295  28.393  22.259  1.00  0.00     0.001 A 
ATOM     73  C   UNL A   1      49.111  26.805  22.365  1.00  0.00     0.001 A 
ATOM     74  C   UNL A   1      48.383  27.761  21.658  1.00  0.00     0.000 A 
ENDBRANCH  50  69
BRANCH  62  75
ATOM     75  C   UNL A   1      49.439  29.611  30.521  1.00  0.00    -0.014 A 
ATOM     76  C   UNL A   1      50.818  29.376  30.634  1.00  0.00     0.009 A 
ATOM     77  C   UNL A   1      48.943  30.900  30.770  1.00  0.00     0.009 A 
ATOM     78  C   UNL A   1      51.679  30.408  31.017  1.00  0.00     0.001 A 
ATOM     79  C   UNL A   1      49.808  31.933  31.131  1.00  0.00     0.001 A 
ATOM     80  C   UNL A   1      51.173  31.685  31.261  1.00  0.00     0.000 A 
ENDBRANCH  62  75
ENDBRANCH  36  37
ENDBRANCH  29  31
ENDBRANCH  28  29
ENDBRANCH  27  28
ENDBRANCH  26  27
ENDBRANCH   1  26
TORSDOF 16
ENDMDL
