MODEL 1
REMARK VINA RESULT:      -9.2      0.000      0.000
REMARK SMILES C[C@@H](CC(=O)OCCOC(=O)c1ccc(-c2c3nc(c(-c4ccccc4)c4ccc([nH]4)c(-c4ccccc4)c4nc(c(-c5ccccc5)c5ccc2[nH]5)C=C4)C=C3)cc1)NC(=O)CCn1cccn1
REMARK SMILES IDX 6 1 4 2 5 3 3 4 2 5 1 6 60 7 61 8 62 10 63 11 64 12 65 13
REMARK SMILES IDX 66 14 69 15 67 16 68 17 7 18 8 19 9 20 10 21 11 22 12 23
REMARK SMILES IDX 13 24 59 25 14 26 58 27 15 28 16 29 17 30 52 31 18 32 57 33
REMARK SMILES IDX 51 34 53 35 19 36 56 37 50 38 49 39 20 41 42 42 27 43 41 44
REMARK SMILES IDX 28 45 31 46 40 47 54 48 29 49 30 50 39 52 55 53 32 54 21 55
REMARK SMILES IDX 22 56 26 57 23 58 25 59 24 60 43 61 44 62 48 63 45 64 47 65
REMARK SMILES IDX 46 66 33 67 34 68 38 69 35 70 37 71 36 72
REMARK H PARENT 60 9 53 40 31 51
REMARK Flexibility Score: inf
ROOT
ATOM      1  O   UNL A   1      34.070  34.254  29.270  1.00  0.00    -0.462 OA
ENDROOT
BRANCH   1   2
ATOM      2  C   UNL A   1      33.938  33.285  28.334  1.00  0.00     0.307 C 
ATOM      3  O   UNL A   1      32.921  33.076  27.682  1.00  0.00    -0.252 OA
BRANCH   2   4
ATOM      4  C   UNL A   1      35.151  32.399  28.237  1.00  0.00     0.147 C 
BRANCH   4   5
ATOM      5  C   UNL A   1      34.977  30.948  27.788  1.00  0.00     0.090 C 
ATOM      6  C   UNL A   1      36.257  30.144  27.594  1.00  0.00     0.031 C 
BRANCH   5   7
ATOM      7  N   UNL A   1      34.073  30.730  26.665  1.00  0.00    -0.353 N 
ATOM      8  C   UNL A   1      33.340  29.628  26.336  1.00  0.00     0.222 C 
ATOM      9  H   UNL A   1      33.977  31.495  26.053  1.00  0.00     0.163 HD
ATOM     10  O   UNL A   1      32.849  29.552  25.208  1.00  0.00    -0.275 OA
BRANCH   8  11
ATOM     11  C   UNL A   1      33.048  28.553  27.364  1.00  0.00     0.123 C 
BRANCH  11  12
ATOM     12  C   UNL A   1      31.651  27.940  27.280  1.00  0.00     0.154 C 
BRANCH  12  13
ATOM     13  N   UNL A   1      31.620  26.622  26.659  1.00  0.00    -0.272 N 
ATOM     14  C   UNL A   1      32.676  25.938  26.117  1.00  0.00     0.108 A 
ATOM     15  N   UNL A   1      30.435  26.019  26.427  1.00  0.00    -0.182 NA
ATOM     16  C   UNL A   1      32.134  24.884  25.420  1.00  0.00     0.042 A 
ATOM     17  C   UNL A   1      30.751  24.972  25.660  1.00  0.00     0.135 A 
ENDBRANCH  12  13
ENDBRANCH  11  12
ENDBRANCH   8  11
ENDBRANCH   5   7
ENDBRANCH   4   5
ENDBRANCH   2   4
ENDBRANCH   1   2
BRANCH   1  18
ATOM     18  C   UNL A   1      33.795  35.600  28.842  1.00  0.00     0.274 C 
BRANCH  18  19
ATOM     19  C   UNL A   1      32.871  36.316  29.831  1.00  0.00     0.275 C 
BRANCH  19  20
ATOM     20  O   UNL A   1      32.416  35.431  30.872  1.00  0.00    -0.458 OA
BRANCH  20  21
ATOM     21  C   UNL A   1      32.726  35.813  32.132  1.00  0.00     0.338 C 
ATOM     22  O   UNL A   1      32.093  36.569  32.851  1.00  0.00    -0.246 OA
BRANCH  21  23
ATOM     23  C   UNL A   1      33.898  35.066  32.617  1.00  0.00     0.060 A 
ATOM     24  C   UNL A   1      35.153  35.667  32.506  1.00  0.00     0.016 A 
ATOM     25  C   UNL A   1      33.783  33.748  33.056  1.00  0.00     0.016 A 
ATOM     26  C   UNL A   1      36.304  34.950  32.812  1.00  0.00     0.010 A 
ATOM     27  C   UNL A   1      34.941  33.034  33.389  1.00  0.00     0.010 A 
ATOM     28  C   UNL A   1      36.211  33.625  33.254  1.00  0.00    -0.014 A 
BRANCH  28  29
ATOM     29  C   UNL A   1      37.456  32.866  33.528  1.00  0.00     0.031 A 
ATOM     30  C   UNL A   1      38.183  33.044  34.831  1.00  0.00     0.074 A 
ATOM     31  C   UNL A   1      37.907  31.975  32.625  1.00  0.00     0.049 A 
ATOM     32  N   UNL A   1      39.309  32.506  35.227  1.00  0.00    -0.248 NA
ATOM     33  C   UNL A   1      37.566  33.947  35.815  1.00  0.00     0.031 C 
ATOM     34  C   UNL A   1      37.270  31.669  31.344  1.00  0.00     0.029 A 
ATOM     35  N   UNL A   1      39.003  31.148  32.659  1.00  0.00    -0.354 N 
ATOM     36  C   UNL A   1      39.554  33.030  36.490  1.00  0.00     0.074 A 
ATOM     37  C   UNL A   1      38.464  33.936  36.790  1.00  0.00     0.031 C 
ATOM     38  C   UNL A   1      37.970  30.705  30.725  1.00  0.00     0.029 A 
ATOM     39  C   UNL A   1      39.130  30.361  31.542  1.00  0.00     0.049 A 
ATOM     40  H   UNL A   1      39.636  31.122  33.412  1.00  0.00     0.167 HD
ATOM     41  C   UNL A   1      40.591  32.780  37.325  1.00  0.00     0.031 A 
ATOM     42  C   UNL A   1      40.084  29.475  31.201  1.00  0.00     0.031 A 
ATOM     43  C   UNL A   1      41.665  31.863  37.042  1.00  0.00     0.049 A 
ATOM     44  C   UNL A   1      41.238  29.237  32.133  1.00  0.00     0.074 A 
ATOM     45  C   UNL A   1      42.758  31.544  37.830  1.00  0.00     0.029 A 
ATOM     46  N   UNL A   1      41.775  31.111  35.883  1.00  0.00    -0.354 N 
ATOM     47  N   UNL A   1      41.471  29.762  33.310  1.00  0.00    -0.248 NA
ATOM     48  C   UNL A   1      42.261  28.281  31.684  1.00  0.00     0.031 C 
ATOM     49  C   UNL A   1      43.547  30.623  37.133  1.00  0.00     0.029 A 
ATOM     50  C   UNL A   1      42.922  30.335  35.931  1.00  0.00     0.049 A 
ATOM     51  H   UNL A   1      41.133  31.126  35.137  1.00  0.00     0.167 HD
ATOM     52  C   UNL A   1      42.658  29.192  33.750  1.00  0.00     0.074 A 
ATOM     53  C   UNL A   1      43.084  28.264  32.722  1.00  0.00     0.031 C 
ATOM     54  C   UNL A   1      43.337  29.421  34.900  1.00  0.00     0.031 A 
BRANCH  41  55
ATOM     55  C   UNL A   1      40.634  33.546  38.617  1.00  0.00    -0.014 A 
ATOM     56  C   UNL A   1      40.079  33.025  39.795  1.00  0.00     0.009 A 
ATOM     57  C   UNL A   1      41.269  34.797  38.659  1.00  0.00     0.009 A 
ATOM     58  C   UNL A   1      40.132  33.757  40.984  1.00  0.00     0.001 A 
ATOM     59  C   UNL A   1      41.341  35.515  39.854  1.00  0.00     0.001 A 
ATOM     60  C   UNL A   1      40.765  34.999  41.013  1.00  0.00     0.000 A 
ENDBRANCH  41  55
BRANCH  42  61
ATOM     61  C   UNL A   1      40.001  28.759  29.903  1.00  0.00    -0.014 A 
ATOM     62  C   UNL A   1      39.464  27.464  29.836  1.00  0.00     0.009 A 
ATOM     63  C   UNL A   1      40.464  29.367  28.727  1.00  0.00     0.009 A 
ATOM     64  C   UNL A   1      39.412  26.786  28.615  1.00  0.00     0.001 A 
ATOM     65  C   UNL A   1      40.385  28.696  27.504  1.00  0.00     0.001 A 
ATOM     66  C   UNL A   1      39.867  27.404  27.452  1.00  0.00     0.000 A 
ENDBRANCH  42  61
BRANCH  54  67
ATOM     67  C   UNL A   1      44.596  28.631  35.113  1.00  0.00    -0.014 A 
ATOM     68  C   UNL A   1      45.844  29.130  34.710  1.00  0.00     0.009 A 
ATOM     69  C   UNL A   1      44.532  27.373  35.732  1.00  0.00     0.009 A 
ATOM     70  C   UNL A   1      46.999  28.367  34.888  1.00  0.00     0.001 A 
ATOM     71  C   UNL A   1      45.691  26.624  35.932  1.00  0.00     0.001 A 
ATOM     72  C   UNL A   1      46.922  27.116  35.501  1.00  0.00     0.000 A 
ENDBRANCH  54  67
ENDBRANCH  28  29
ENDBRANCH  21  23
ENDBRANCH  20  21
ENDBRANCH  19  20
ENDBRANCH  18  19
ENDBRANCH   1  18
TORSDOF 16
ENDMDL
MODEL 2
REMARK VINA RESULT:      -9.1      4.749      9.698
REMARK SMILES C[C@@H](CC(=O)OCCOC(=O)c1ccc(-c2c3nc(c(-c4ccccc4)c4ccc([nH]4)c(-c4ccccc4)c4nc(c(-c5ccccc5)c5ccc2[nH]5)C=C4)C=C3)cc1)NC(=O)CCn1cccn1
REMARK SMILES IDX 6 1 4 2 5 3 3 4 2 5 1 6 60 7 61 8 62 10 63 11 64 12 65 13
REMARK SMILES IDX 66 14 69 15 67 16 68 17 7 18 8 19 9 20 10 21 11 22 12 23
REMARK SMILES IDX 13 24 59 25 14 26 58 27 15 28 16 29 17 30 52 31 18 32 57 33
REMARK SMILES IDX 51 34 53 35 19 36 56 37 50 38 49 39 20 41 42 42 27 43 41 44
REMARK SMILES IDX 28 45 31 46 40 47 54 48 29 49 30 50 39 52 55 53 32 54 21 55
REMARK SMILES IDX 22 56 26 57 23 58 25 59 24 60 43 61 44 62 48 63 45 64 47 65
REMARK SMILES IDX 46 66 33 67 34 68 38 69 35 70 37 71 36 72
REMARK H PARENT 60 9 53 40 31 51
REMARK Flexibility Score: inf
ROOT
ATOM      1  O   UNL A   1      41.581  20.636  25.608  1.00  0.00    -0.462 OA
ENDROOT
BRANCH   1   2
ATOM      2  C   UNL A   1      40.598  20.780  26.527  1.00  0.00     0.307 C 
ATOM      3  O   UNL A   1      40.499  20.117  27.554  1.00  0.00    -0.252 OA
BRANCH   2   4
ATOM      4  C   UNL A   1      39.555  21.783  26.114  1.00  0.00     0.147 C 
BRANCH   4   5
ATOM      5  C   UNL A   1      38.205  21.281  25.600  1.00  0.00     0.090 C 
ATOM      6  C   UNL A   1      38.163  19.837  25.114  1.00  0.00     0.031 C 
BRANCH   5   7
ATOM      7  N   UNL A   1      37.520  22.149  24.651  1.00  0.00    -0.353 N 
ATOM      8  C   UNL A   1      36.188  22.268  24.381  1.00  0.00     0.222 C 
ATOM      9  H   UNL A   1      38.107  22.739  24.125  1.00  0.00     0.163 HD
ATOM     10  O   UNL A   1      35.836  22.863  23.361  1.00  0.00    -0.275 OA
BRANCH   8  11
ATOM     11  C   UNL A   1      35.148  21.764  25.362  1.00  0.00     0.123 C 
BRANCH  11  12
ATOM     12  C   UNL A   1      33.847  21.273  24.728  1.00  0.00     0.154 C 
BRANCH  12  13
ATOM     13  N   UNL A   1      33.639  19.835  24.844  1.00  0.00    -0.272 N 
ATOM     14  C   UNL A   1      34.544  18.844  24.568  1.00  0.00     0.108 A 
ATOM     15  N   UNL A   1      32.405  19.356  25.103  1.00  0.00    -0.182 NA
ATOM     16  C   UNL A   1      33.833  17.667  24.559  1.00  0.00     0.042 A 
ATOM     17  C   UNL A   1      32.524  18.040  24.913  1.00  0.00     0.135 A 
ENDBRANCH  12  13
ENDBRANCH  11  12
ENDBRANCH   8  11
ENDBRANCH   5   7
ENDBRANCH   4   5
ENDBRANCH   2   4
ENDBRANCH   1   2
BRANCH   1  18
ATOM     18  C   UNL A   1      42.928  20.590  26.112  1.00  0.00     0.274 C 
BRANCH  18  19
ATOM     19  C   UNL A   1      43.842  21.544  25.339  1.00  0.00     0.275 C 
BRANCH  19  20
ATOM     20  O   UNL A   1      43.132  22.717  24.893  1.00  0.00    -0.458 OA
BRANCH  20  21
ATOM     21  C   UNL A   1      43.810  23.881  25.009  1.00  0.00     0.338 C 
ATOM     22  O   UNL A   1      44.740  24.265  24.319  1.00  0.00    -0.246 OA
BRANCH  21  23
ATOM     23  C   UNL A   1      43.177  24.740  26.022  1.00  0.00     0.060 A 
ATOM     24  C   UNL A   1      43.650  26.045  26.168  1.00  0.00     0.016 A 
ATOM     25  C   UNL A   1      42.219  24.235  26.901  1.00  0.00     0.016 A 
ATOM     26  C   UNL A   1      43.189  26.848  27.204  1.00  0.00     0.010 A 
ATOM     27  C   UNL A   1      41.736  25.053  27.930  1.00  0.00     0.010 A 
ATOM     28  C   UNL A   1      42.229  26.361  28.098  1.00  0.00    -0.014 A 
BRANCH  28  29
ATOM     29  C   UNL A   1      41.787  27.220  29.224  1.00  0.00     0.031 A 
ATOM     30  C   UNL A   1      42.562  27.244  30.510  1.00  0.00     0.074 A 
ATOM     31  C   UNL A   1      40.716  28.023  29.071  1.00  0.00     0.049 A 
ATOM     32  N   UNL A   1      42.302  27.892  31.618  1.00  0.00    -0.248 NA
ATOM     33  C   UNL A   1      43.787  26.430  30.561  1.00  0.00     0.031 C 
ATOM     34  C   UNL A   1      39.906  28.134  27.858  1.00  0.00     0.029 A 
ATOM     35  N   UNL A   1      40.137  28.911  29.943  1.00  0.00    -0.354 N 
ATOM     36  C   UNL A   1      43.308  27.539  32.508  1.00  0.00     0.074 A 
ATOM     37  C   UNL A   1      44.179  26.612  31.814  1.00  0.00     0.031 C 
ATOM     38  C   UNL A   1      38.950  29.057  28.052  1.00  0.00     0.029 A 
ATOM     39  C   UNL A   1      39.050  29.565  29.417  1.00  0.00     0.049 A 
ATOM     40  H   UNL A   1      40.469  29.065  30.857  1.00  0.00     0.167 HD
ATOM     41  C   UNL A   1      43.492  27.948  33.786  1.00  0.00     0.031 A 
ATOM     42  C   UNL A   1      38.214  30.459  29.975  1.00  0.00     0.031 A 
ATOM     43  C   UNL A   1      42.644  28.887  34.473  1.00  0.00     0.049 A 
ATOM     44  C   UNL A   1      38.424  30.876  31.403  1.00  0.00     0.074 A 
ATOM     45  C   UNL A   1      42.754  29.364  35.769  1.00  0.00     0.029 A 
ATOM     46  N   UNL A   1      41.533  29.501  33.915  1.00  0.00    -0.354 N 
ATOM     47  N   UNL A   1      39.363  30.510  32.240  1.00  0.00    -0.248 NA
ATOM     48  C   UNL A   1      37.455  31.830  31.960  1.00  0.00     0.031 C 
ATOM     49  C   UNL A   1      41.690  30.241  36.006  1.00  0.00     0.029 A 
ATOM     50  C   UNL A   1      40.943  30.344  34.844  1.00  0.00     0.049 A 
ATOM     51  H   UNL A   1      41.211  29.358  32.997  1.00  0.00     0.167 HD
ATOM     52  C   UNL A   1      39.108  31.199  33.419  1.00  0.00     0.074 A 
ATOM     53  C   UNL A   1      37.938  32.021  33.179  1.00  0.00     0.031 C 
ATOM     54  C   UNL A   1      39.778  31.151  34.595  1.00  0.00     0.031 A 
BRANCH  41  55
ATOM     55  C   UNL A   1      44.643  27.347  34.543  1.00  0.00    -0.014 A 
ATOM     56  C   UNL A   1      45.873  28.013  34.653  1.00  0.00     0.009 A 
ATOM     57  C   UNL A   1      44.480  26.107  35.179  1.00  0.00     0.009 A 
ATOM     58  C   UNL A   1      46.928  27.432  35.362  1.00  0.00     0.001 A 
ATOM     59  C   UNL A   1      45.528  25.541  35.907  1.00  0.00     0.001 A 
ATOM     60  C   UNL A   1      46.753  26.199  35.990  1.00  0.00     0.000 A 
ENDBRANCH  41  55
BRANCH  42  61
ATOM     61  C   UNL A   1      37.082  31.008  29.187  1.00  0.00    -0.014 A 
ATOM     62  C   UNL A   1      37.138  32.311  28.669  1.00  0.00     0.009 A 
ATOM     63  C   UNL A   1      35.937  30.231  28.954  1.00  0.00     0.009 A 
ATOM     64  C   UNL A   1      36.059  32.830  27.950  1.00  0.00     0.001 A 
ATOM     65  C   UNL A   1      34.872  30.745  28.211  1.00  0.00     0.001 A 
ATOM     66  C   UNL A   1      34.931  32.046  27.718  1.00  0.00     0.000 A 
ENDBRANCH  42  61
BRANCH  54  67
ATOM     67  C   UNL A   1      39.275  32.034  35.699  1.00  0.00    -0.014 A 
ATOM     68  C   UNL A   1      38.253  31.608  36.562  1.00  0.00     0.009 A 
ATOM     69  C   UNL A   1      39.836  33.307  35.883  1.00  0.00     0.009 A 
ATOM     70  C   UNL A   1      37.776  32.457  37.563  1.00  0.00     0.001 A 
ATOM     71  C   UNL A   1      39.375  34.143  36.900  1.00  0.00     0.001 A 
ATOM     72  C   UNL A   1      38.339  33.722  37.733  1.00  0.00     0.000 A 
ENDBRANCH  54  67
ENDBRANCH  28  29
ENDBRANCH  21  23
ENDBRANCH  20  21
ENDBRANCH  19  20
ENDBRANCH  18  19
ENDBRANCH   1  18
TORSDOF 16
ENDMDL
MODEL 3
REMARK VINA RESULT:      -8.6      5.532     10.532
REMARK SMILES C[C@@H](CC(=O)OCCOC(=O)c1ccc(-c2c3nc(c(-c4ccccc4)c4ccc([nH]4)c(-c4ccccc4)c4nc(c(-c5ccccc5)c5ccc2[nH]5)C=C4)C=C3)cc1)NC(=O)CCn1cccn1
REMARK SMILES IDX 6 1 4 2 5 3 3 4 2 5 1 6 60 7 61 8 62 10 63 11 64 12 65 13
REMARK SMILES IDX 66 14 69 15 67 16 68 17 7 18 8 19 9 20 10 21 11 22 12 23
REMARK SMILES IDX 13 24 59 25 14 26 58 27 15 28 16 29 17 30 52 31 18 32 57 33
REMARK SMILES IDX 51 34 53 35 19 36 56 37 50 38 49 39 20 41 42 42 27 43 41 44
REMARK SMILES IDX 28 45 31 46 40 47 54 48 29 49 30 50 39 52 55 53 32 54 21 55
REMARK SMILES IDX 22 56 26 57 23 58 25 59 24 60 43 61 44 62 48 63 45 64 47 65
REMARK SMILES IDX 46 66 33 67 34 68 38 69 35 70 37 71 36 72
REMARK H PARENT 60 9 53 40 31 51
REMARK Flexibility Score: inf
ROOT
ATOM      1  O   UNL A   1      36.897  21.061  25.245  1.00  0.00    -0.462 OA
ENDROOT
BRANCH   1   2
ATOM      2  C   UNL A   1      36.276  22.004  24.500  1.00  0.00     0.307 C 
ATOM      3  O   UNL A   1      36.797  23.043  24.110  1.00  0.00    -0.252 OA
BRANCH   2   4
ATOM      4  C   UNL A   1      34.819  21.702  24.273  1.00  0.00     0.147 C 
BRANCH   4   5
ATOM      5  C   UNL A   1      33.829  22.862  24.161  1.00  0.00     0.090 C 
ATOM      6  C   UNL A   1      32.353  22.504  24.291  1.00  0.00     0.031 C 
BRANCH   5   7
ATOM      7  N   UNL A   1      34.028  23.765  23.034  1.00  0.00    -0.353 N 
ATOM      8  C   UNL A   1      33.855  25.116  22.957  1.00  0.00     0.222 C 
ATOM      9  H   UNL A   1      34.335  23.335  22.203  1.00  0.00     0.163 HD
ATOM     10  O   UNL A   1      33.818  25.651  21.848  1.00  0.00    -0.275 OA
BRANCH   8  11
ATOM     11  C   UNL A   1      33.801  25.966  24.211  1.00  0.00     0.123 C 
BRANCH  11  12
ATOM     12  C   UNL A   1      32.421  26.523  24.555  1.00  0.00     0.154 C 
BRANCH  12  13
ATOM     13  N   UNL A   1      32.453  27.845  25.167  1.00  0.00    -0.272 N 
ATOM     14  C   UNL A   1      31.557  28.865  24.980  1.00  0.00     0.108 A 
ATOM     15  N   UNL A   1      33.528  28.223  25.888  1.00  0.00    -0.182 NA
ATOM     16  C   UNL A   1      32.129  29.986  25.534  1.00  0.00     0.042 A 
ATOM     17  C   UNL A   1      33.335  29.528  26.095  1.00  0.00     0.135 A 
ENDBRANCH  12  13
ENDBRANCH  11  12
ENDBRANCH   8  11
ENDBRANCH   5   7
ENDBRANCH   4   5
ENDBRANCH   2   4
ENDBRANCH   1   2
BRANCH   1  18
ATOM     18  C   UNL A   1      38.320  21.205  25.405  1.00  0.00     0.274 C 
BRANCH  18  19
ATOM     19  C   UNL A   1      39.038  19.868  25.197  1.00  0.00     0.275 C 
BRANCH  19  20
ATOM     20  O   UNL A   1      39.890  19.542  26.313  1.00  0.00    -0.458 OA
BRANCH  20  21
ATOM     21  C   UNL A   1      41.217  19.659  26.080  1.00  0.00     0.338 C 
ATOM     22  O   UNL A   1      41.924  18.895  25.442  1.00  0.00    -0.246 OA
BRANCH  21  23
ATOM     23  C   UNL A   1      41.712  20.949  26.585  1.00  0.00     0.060 A 
ATOM     24  C   UNL A   1      41.599  21.206  27.952  1.00  0.00     0.016 A 
ATOM     25  C   UNL A   1      42.162  21.942  25.715  1.00  0.00     0.016 A 
ATOM     26  C   UNL A   1      41.914  22.462  28.459  1.00  0.00     0.010 A 
ATOM     27  C   UNL A   1      42.503  23.199  26.230  1.00  0.00     0.010 A 
ATOM     28  C   UNL A   1      42.367  23.472  27.604  1.00  0.00    -0.014 A 
BRANCH  28  29
ATOM     29  C   UNL A   1      42.652  24.818  28.161  1.00  0.00     0.031 A 
ATOM     30  C   UNL A   1      44.055  25.205  28.531  1.00  0.00     0.074 A 
ATOM     31  C   UNL A   1      41.654  25.713  28.286  1.00  0.00     0.049 A 
ATOM     32  N   UNL A   1      44.487  26.315  29.077  1.00  0.00    -0.248 NA
ATOM     33  C   UNL A   1      45.109  24.217  28.257  1.00  0.00     0.031 C 
ATOM     34  C   UNL A   1      40.257  25.483  27.916  1.00  0.00     0.029 A 
ATOM     35  N   UNL A   1      41.670  27.007  28.745  1.00  0.00    -0.354 N 
ATOM     36  C   UNL A   1      45.856  26.145  29.243  1.00  0.00     0.074 A 
ATOM     37  C   UNL A   1      46.180  24.822  28.750  1.00  0.00     0.031 C 
ATOM     38  C   UNL A   1      39.554  26.605  28.139  1.00  0.00     0.029 A 
ATOM     39  C   UNL A   1      40.439  27.615  28.710  1.00  0.00     0.049 A 
ATOM     40  H   UNL A   1      42.484  27.456  29.066  1.00  0.00     0.167 HD
ATOM     41  C   UNL A   1      46.761  27.011  29.760  1.00  0.00     0.031 A 
ATOM     42  C   UNL A   1      40.059  28.842  29.113  1.00  0.00     0.031 A 
ATOM     43  C   UNL A   1      46.448  28.335  30.230  1.00  0.00     0.049 A 
ATOM     44  C   UNL A   1      41.078  29.773  29.707  1.00  0.00     0.074 A 
ATOM     45  C   UNL A   1      47.301  29.285  30.767  1.00  0.00     0.029 A 
ATOM     46  N   UNL A   1      45.183  28.901  30.210  1.00  0.00    -0.354 N 
ATOM     47  N   UNL A   1      42.362  29.586  29.885  1.00  0.00    -0.248 NA
ATOM     48  C   UNL A   1      40.588  31.084  30.156  1.00  0.00     0.031 C 
ATOM     49  C   UNL A   1      46.545  30.414  31.103  1.00  0.00     0.029 A 
ATOM     50  C   UNL A   1      45.230  30.183  30.734  1.00  0.00     0.049 A 
ATOM     51  H   UNL A   1      44.371  28.457  29.873  1.00  0.00     0.167 HD
ATOM     52  C   UNL A   1      42.839  30.760  30.454  1.00  0.00     0.074 A 
ATOM     53  C   UNL A   1      41.709  31.660  30.569  1.00  0.00     0.031 C 
ATOM     54  C   UNL A   1      44.098  31.064  30.849  1.00  0.00     0.031 A 
BRANCH  41  55
ATOM     55  C   UNL A   1      48.181  26.533  29.879  1.00  0.00    -0.014 A 
ATOM     56  C   UNL A   1      48.621  25.820  31.004  1.00  0.00     0.009 A 
ATOM     57  C   UNL A   1      49.083  26.776  28.831  1.00  0.00     0.009 A 
ATOM     58  C   UNL A   1      49.946  25.387  31.091  1.00  0.00     0.001 A 
ATOM     59  C   UNL A   1      50.400  26.321  28.910  1.00  0.00     0.001 A 
ATOM     60  C   UNL A   1      50.833  25.635  30.043  1.00  0.00     0.000 A 
ENDBRANCH  41  55
BRANCH  42  61
ATOM     61  C   UNL A   1      38.639  29.256  28.988  1.00  0.00    -0.014 A 
ATOM     62  C   UNL A   1      38.150  29.770  27.778  1.00  0.00     0.009 A 
ATOM     63  C   UNL A   1      37.768  29.143  30.083  1.00  0.00     0.009 A 
ATOM     64  C   UNL A   1      36.819  30.182  27.674  1.00  0.00     0.001 A 
ATOM     65  C   UNL A   1      36.432  29.531  29.966  1.00  0.00     0.001 A 
ATOM     66  C   UNL A   1      35.961  30.057  28.765  1.00  0.00     0.000 A 
ENDBRANCH  42  61
BRANCH  54  67
ATOM     67  C   UNL A   1      44.319  32.436  31.416  1.00  0.00    -0.014 A 
ATOM     68  C   UNL A   1      44.186  32.684  32.791  1.00  0.00     0.009 A 
ATOM     69  C   UNL A   1      44.672  33.494  30.564  1.00  0.00     0.009 A 
ATOM     70  C   UNL A   1      44.364  33.974  33.295  1.00  0.00     0.001 A 
ATOM     71  C   UNL A   1      44.874  34.776  31.074  1.00  0.00     0.001 A 
ATOM     72  C   UNL A   1      44.710  35.018  32.437  1.00  0.00     0.000 A 
ENDBRANCH  54  67
ENDBRANCH  28  29
ENDBRANCH  21  23
ENDBRANCH  20  21
ENDBRANCH  19  20
ENDBRANCH  18  19
ENDBRANCH   1  18
TORSDOF 16
ENDMDL
