MODEL 1
REMARK VINA RESULT:      -8.7      0.000      0.000
REMARK SMILES C[C@@H](c1cccc(F)c1)[C@@](C)(O)C(=O)OCCOC(=O)c1ccc(-c2c3nc(c(-c4ccccc4)c4ccc([nH]4)c(-c4ccccc4)c4nc(c(-c5ccccc5)c5ccc2[nH]5)C=C4)C=C3)cc1
REMARK SMILES IDX 16 1 15 2 13 3 14 4 10 5 11 6 2 7 1 8 3 9 4 10 9 11 5 12
REMARK SMILES IDX 7 13 6 14 8 15 12 16 17 18 18 19 19 20 20 21 21 22 22 23
REMARK SMILES IDX 68 24 23 25 67 26 24 27 25 28 26 29 61 30 27 31 66 32 60 33
REMARK SMILES IDX 62 34 28 35 65 36 59 37 58 38 29 40 51 41 36 42 50 43 37 44
REMARK SMILES IDX 40 45 49 46 63 47 38 48 39 49 48 51 64 52 41 53 30 54 31 55
REMARK SMILES IDX 35 56 32 57 34 58 33 59 52 60 53 61 57 62 54 63 56 64 55 65
REMARK SMILES IDX 42 66 43 67 47 68 44 69 46 70 45 71
REMARK H PARENT 12 17 62 39 40 50
REMARK Flexibility Score: inf
ROOT
ATOM      1  C   UNL A   1      34.221  34.580  29.180  1.00  0.00     0.274 C 
ENDROOT
BRANCH   1   2
ATOM      2  O   UNL A   1      33.931  34.054  30.496  1.00  0.00    -0.460 OA
BRANCH   2   3
ATOM      3  C   UNL A   1      34.142  34.909  31.542  1.00  0.00     0.338 C 
ATOM      4  O   UNL A   1      33.622  36.014  31.644  1.00  0.00    -0.249 OA
BRANCH   3   5
ATOM      5  C   UNL A   1      35.175  34.338  32.555  1.00  0.00     0.165 C 
ATOM      6  C   UNL A   1      34.343  33.458  33.509  1.00  0.00     0.055 C 
BRANCH   5   7
ATOM      7  C   UNL A   1      36.319  33.499  31.876  1.00  0.00     0.059 C 
ATOM      8  C   UNL A   1      37.419  34.364  31.227  1.00  0.00     0.016 C 
BRANCH   7   9
ATOM      9  C   UNL A   1      36.950  32.340  32.667  1.00  0.00    -0.039 A 
ATOM     10  C   UNL A   1      37.768  32.655  33.775  1.00  0.00     0.004 A 
ATOM     11  C   UNL A   1      36.795  30.983  32.356  1.00  0.00     0.043 A 
ATOM     12  C   UNL A   1      38.397  31.663  34.536  1.00  0.00     0.003 A 
ATOM     13  C   UNL A   1      37.435  30.000  33.114  1.00  0.00     0.123 A 
ATOM     14  C   UNL A   1      38.236  30.326  34.197  1.00  0.00     0.039 A 
ATOM     15  F   UNL A   1      37.264  28.712  32.788  1.00  0.00    -0.207 F 
ENDBRANCH   7   9
ENDBRANCH   5   7
BRANCH   5  16
ATOM     16  O   UNL A   1      35.768  35.305  33.435  1.00  0.00    -0.378 OA
ATOM     17  H   UNL A   1      36.424  34.868  34.001  1.00  0.00     0.212 HD
ENDBRANCH   5  16
ENDBRANCH   3   5
ENDBRANCH   2   3
ENDBRANCH   1   2
BRANCH   1  18
ATOM     18  C   UNL A   1      33.570  33.728  28.091  1.00  0.00     0.275 C 
BRANCH  18  19
ATOM     19  O   UNL A   1      34.568  32.869  27.525  1.00  0.00    -0.458 OA
BRANCH  19  20
ATOM     20  C   UNL A   1      34.487  31.560  27.856  1.00  0.00     0.338 C 
ATOM     21  O   UNL A   1      33.484  30.863  27.788  1.00  0.00    -0.246 OA
BRANCH  20  22
ATOM     22  C   UNL A   1      35.832  31.065  28.260  1.00  0.00     0.060 A 
ATOM     23  C   UNL A   1      36.035  29.726  28.604  1.00  0.00     0.016 A 
ATOM     24  C   UNL A   1      36.900  31.959  28.364  1.00  0.00     0.016 A 
ATOM     25  C   UNL A   1      37.261  29.299  29.113  1.00  0.00     0.010 A 
ATOM     26  C   UNL A   1      38.158  31.507  28.786  1.00  0.00     0.010 A 
ATOM     27  C   UNL A   1      38.353  30.171  29.176  1.00  0.00    -0.014 A 
BRANCH  27  28
ATOM     28  C   UNL A   1      39.693  29.681  29.605  1.00  0.00     0.031 A 
ATOM     29  C   UNL A   1      40.262  28.401  29.055  1.00  0.00     0.074 A 
ATOM     30  C   UNL A   1      40.408  30.374  30.514  1.00  0.00     0.049 A 
ATOM     31  N   UNL A   1      41.305  27.717  29.459  1.00  0.00    -0.248 NA
ATOM     32  C   UNL A   1      39.575  27.813  27.895  1.00  0.00     0.031 C 
ATOM     33  C   UNL A   1      40.032  31.665  31.096  1.00  0.00     0.029 A 
ATOM     34  N   UNL A   1      41.606  30.078  31.123  1.00  0.00    -0.354 N 
ATOM     35  C   UNL A   1      41.377  26.606  28.630  1.00  0.00     0.074 A 
ATOM     36  C   UNL A   1      40.278  26.705  27.694  1.00  0.00     0.031 C 
ATOM     37  C   UNL A   1      40.979  32.053  31.961  1.00  0.00     0.029 A 
ATOM     38  C   UNL A   1      41.976  30.997  32.073  1.00  0.00     0.049 A 
ATOM     39  H   UNL A   1      42.145  29.285  30.897  1.00  0.00     0.167 HD
ATOM     40  C   UNL A   1      42.271  25.587  28.653  1.00  0.00     0.031 A 
ATOM     41  C   UNL A   1      42.962  30.974  32.991  1.00  0.00     0.031 A 
ATOM     42  C   UNL A   1      43.362  25.475  29.586  1.00  0.00     0.049 A 
ATOM     43  C   UNL A   1      43.861  29.777  33.082  1.00  0.00     0.074 A 
ATOM     44  C   UNL A   1      44.307  24.467  29.690  1.00  0.00     0.029 A 
ATOM     45  N   UNL A   1      43.651  26.397  30.577  1.00  0.00    -0.354 N 
ATOM     46  N   UNL A   1      43.884  28.704  32.331  1.00  0.00    -0.248 NA
ATOM     47  C   UNL A   1      44.855  29.781  34.164  1.00  0.00     0.031 C 
ATOM     48  C   UNL A   1      45.139  24.757  30.778  1.00  0.00     0.029 A 
ATOM     49  C   UNL A   1      44.743  25.969  31.315  1.00  0.00     0.049 A 
ATOM     50  H   UNL A   1      43.155  27.232  30.735  1.00  0.00     0.167 HD
ATOM     51  C   UNL A   1      44.898  27.909  32.843  1.00  0.00     0.074 A 
ATOM     52  C   UNL A   1      45.480  28.631  33.956  1.00  0.00     0.031 C 
ATOM     53  C   UNL A   1      45.309  26.686  32.428  1.00  0.00     0.031 A 
BRANCH  40  54
ATOM     54  C   UNL A   1      42.078  24.471  27.666  1.00  0.00    -0.014 A 
ATOM     55  C   UNL A   1      42.746  24.464  26.432  1.00  0.00     0.009 A 
ATOM     56  C   UNL A   1      41.263  23.380  28.006  1.00  0.00     0.009 A 
ATOM     57  C   UNL A   1      42.585  23.393  25.550  1.00  0.00     0.001 A 
ATOM     58  C   UNL A   1      41.120  22.302  27.131  1.00  0.00     0.001 A 
ATOM     59  C   UNL A   1      41.776  22.311  25.903  1.00  0.00     0.000 A 
ENDBRANCH  40  54
BRANCH  41  60
ATOM     60  C   UNL A   1      43.083  32.089  33.965  1.00  0.00    -0.014 A 
ATOM     61  C   UNL A   1      42.337  32.088  35.151  1.00  0.00     0.009 A 
ATOM     62  C   UNL A   1      43.960  33.157  33.711  1.00  0.00     0.009 A 
ATOM     63  C   UNL A   1      42.461  33.141  36.060  1.00  0.00     0.001 A 
ATOM     64  C   UNL A   1      44.105  34.190  34.636  1.00  0.00     0.001 A 
ATOM     65  C   UNL A   1      43.350  34.185  35.807  1.00  0.00     0.000 A 
ENDBRANCH  41  60
BRANCH  53  66
ATOM     66  C   UNL A   1      46.460  26.068  33.164  1.00  0.00    -0.014 A 
ATOM     67  C   UNL A   1      47.786  26.307  32.772  1.00  0.00     0.009 A 
ATOM     68  C   UNL A   1      46.215  25.246  34.276  1.00  0.00     0.009 A 
ATOM     69  C   UNL A   1      48.843  25.709  33.460  1.00  0.00     0.001 A 
ATOM     70  C   UNL A   1      47.276  24.670  34.976  1.00  0.00     0.001 A 
ATOM     71  C   UNL A   1      48.587  24.895  34.562  1.00  0.00     0.000 A 
ENDBRANCH  53  66
ENDBRANCH  27  28
ENDBRANCH  20  22
ENDBRANCH  19  20
ENDBRANCH  18  19
ENDBRANCH   1  18
TORSDOF 14
ENDMDL
MODEL 2
REMARK VINA RESULT:      -8.7      1.650      6.477
REMARK SMILES C[C@@H](c1cccc(F)c1)[C@@](C)(O)C(=O)OCCOC(=O)c1ccc(-c2c3nc(c(-c4ccccc4)c4ccc([nH]4)c(-c4ccccc4)c4nc(c(-c5ccccc5)c5ccc2[nH]5)C=C4)C=C3)cc1
REMARK SMILES IDX 16 1 15 2 13 3 14 4 10 5 11 6 2 7 1 8 3 9 4 10 9 11 5 12
REMARK SMILES IDX 7 13 6 14 8 15 12 16 17 18 18 19 19 20 20 21 21 22 22 23
REMARK SMILES IDX 68 24 23 25 67 26 24 27 25 28 26 29 61 30 27 31 66 32 60 33
REMARK SMILES IDX 62 34 28 35 65 36 59 37 58 38 29 40 51 41 36 42 50 43 37 44
REMARK SMILES IDX 40 45 49 46 63 47 38 48 39 49 48 51 64 52 41 53 30 54 31 55
REMARK SMILES IDX 35 56 32 57 34 58 33 59 52 60 53 61 57 62 54 63 56 64 55 65
REMARK SMILES IDX 42 66 43 67 47 68 44 69 46 70 45 71
REMARK H PARENT 12 17 62 39 40 50
REMARK Flexibility Score: inf
ROOT
ATOM      1  C   UNL A   1      33.673  33.943  28.914  1.00  0.00     0.274 C 
ENDROOT
BRANCH   1   2
ATOM      2  O   UNL A   1      34.107  33.505  30.222  1.00  0.00    -0.460 OA
BRANCH   2   3
ATOM      3  C   UNL A   1      34.266  34.487  31.161  1.00  0.00     0.338 C 
ATOM      4  O   UNL A   1      33.598  35.513  31.203  1.00  0.00    -0.249 OA
BRANCH   3   5
ATOM      5  C   UNL A   1      35.442  34.176  32.130  1.00  0.00     0.165 C 
ATOM      6  C   UNL A   1      34.765  33.656  33.413  1.00  0.00     0.055 C 
BRANCH   5   7
ATOM      7  C   UNL A   1      36.455  33.115  31.564  1.00  0.00     0.059 C 
ATOM      8  C   UNL A   1      37.239  33.606  30.329  1.00  0.00     0.016 C 
BRANCH   7   9
ATOM      9  C   UNL A   1      37.400  32.402  32.546  1.00  0.00    -0.039 A 
ATOM     10  C   UNL A   1      37.145  31.048  32.856  1.00  0.00     0.004 A 
ATOM     11  C   UNL A   1      38.493  33.005  33.183  1.00  0.00     0.043 A 
ATOM     12  C   UNL A   1      37.942  30.331  33.755  1.00  0.00     0.003 A 
ATOM     13  C   UNL A   1      39.277  32.285  34.087  1.00  0.00     0.123 A 
ATOM     14  C   UNL A   1      39.012  30.957  34.381  1.00  0.00     0.039 A 
ATOM     15  F   UNL A   1      40.315  32.893  34.677  1.00  0.00    -0.207 F 
ENDBRANCH   7   9
ENDBRANCH   5   7
BRANCH   5  16
ATOM     16  O   UNL A   1      36.177  35.321  32.588  1.00  0.00    -0.378 OA
ATOM     17  H   UNL A   1      35.625  35.839  33.194  1.00  0.00     0.212 HD
ENDBRANCH   5  16
ENDBRANCH   3   5
ENDBRANCH   2   3
ENDBRANCH   1   2
BRANCH   1  18
ATOM     18  C   UNL A   1      33.480  32.756  27.972  1.00  0.00     0.275 C 
BRANCH  18  19
ATOM     19  O   UNL A   1      34.747  32.115  27.780  1.00  0.00    -0.458 OA
BRANCH  19  20
ATOM     20  C   UNL A   1      34.744  30.763  27.818  1.00  0.00     0.338 C 
ATOM     21  O   UNL A   1      33.808  30.038  27.511  1.00  0.00    -0.246 OA
BRANCH  20  22
ATOM     22  C   UNL A   1      36.087  30.274  28.233  1.00  0.00     0.060 A 
ATOM     23  C   UNL A   1      37.174  30.313  27.355  1.00  0.00     0.016 A 
ATOM     24  C   UNL A   1      36.260  29.702  29.496  1.00  0.00     0.016 A 
ATOM     25  C   UNL A   1      38.391  29.727  27.700  1.00  0.00     0.010 A 
ATOM     26  C   UNL A   1      37.512  29.200  29.877  1.00  0.00     0.010 A 
ATOM     27  C   UNL A   1      38.593  29.197  28.979  1.00  0.00    -0.014 A 
BRANCH  27  28
ATOM     28  C   UNL A   1      39.932  28.684  29.386  1.00  0.00     0.031 A 
ATOM     29  C   UNL A   1      40.874  29.535  30.194  1.00  0.00     0.074 A 
ATOM     30  C   UNL A   1      40.326  27.450  29.013  1.00  0.00     0.049 A 
ATOM     31  N   UNL A   1      42.143  29.342  30.460  1.00  0.00    -0.248 NA
ATOM     32  C   UNL A   1      40.320  30.761  30.788  1.00  0.00     0.031 C 
ATOM     33  C   UNL A   1      39.510  26.474  28.285  1.00  0.00     0.029 A 
ATOM     34  N   UNL A   1      41.529  26.806  29.186  1.00  0.00    -0.354 N 
ATOM     35  C   UNL A   1      42.545  30.434  31.218  1.00  0.00     0.074 A 
ATOM     36  C   UNL A   1      41.386  31.286  31.377  1.00  0.00     0.031 C 
ATOM     37  C   UNL A   1      40.226  25.359  28.088  1.00  0.00     0.029 A 
ATOM     38  C   UNL A   1      41.580  25.574  28.580  1.00  0.00     0.049 A 
ATOM     39  H   UNL A   1      42.279  27.189  29.695  1.00  0.00     0.167 HD
ATOM     40  C   UNL A   1      43.771  30.708  31.726  1.00  0.00     0.031 A 
ATOM     41  C   UNL A   1      42.611  24.733  28.371  1.00  0.00     0.031 A 
ATOM     42  C   UNL A   1      44.931  29.871  31.566  1.00  0.00     0.049 A 
ATOM     43  C   UNL A   1      43.985  25.117  28.830  1.00  0.00     0.074 A 
ATOM     44  C   UNL A   1      46.218  30.081  32.035  1.00  0.00     0.029 A 
ATOM     45  N   UNL A   1      44.948  28.668  30.881  1.00  0.00    -0.354 N 
ATOM     46  N   UNL A   1      44.366  26.179  29.495  1.00  0.00    -0.248 NA
ATOM     47  C   UNL A   1      45.076  24.193  28.489  1.00  0.00     0.031 C 
ATOM     48  C   UNL A   1      47.024  29.027  31.590  1.00  0.00     0.029 A 
ATOM     49  C   UNL A   1      46.228  28.137  30.891  1.00  0.00     0.049 A 
ATOM     50  H   UNL A   1      44.167  28.252  30.450  1.00  0.00     0.167 HD
ATOM     51  C   UNL A   1      45.737  26.049  29.658  1.00  0.00     0.074 A 
ATOM     52  C   UNL A   1      46.119  24.795  29.042  1.00  0.00     0.031 C 
ATOM     53  C   UNL A   1      46.603  26.897  30.265  1.00  0.00     0.031 A 
BRANCH  40  54
ATOM     54  C   UNL A   1      43.942  32.004  32.467  1.00  0.00    -0.014 A 
ATOM     55  C   UNL A   1      43.741  32.085  33.853  1.00  0.00     0.009 A 
ATOM     56  C   UNL A   1      44.371  33.146  31.773  1.00  0.00     0.009 A 
ATOM     57  C   UNL A   1      43.950  33.292  34.526  1.00  0.00     0.001 A 
ATOM     58  C   UNL A   1      44.598  34.345  32.451  1.00  0.00     0.001 A 
ATOM     59  C   UNL A   1      44.383  34.418  33.825  1.00  0.00     0.000 A 
ENDBRANCH  40  54
BRANCH  41  60
ATOM     60  C   UNL A   1      42.391  23.482  27.601  1.00  0.00    -0.014 A 
ATOM     61  C   UNL A   1      42.607  23.444  26.217  1.00  0.00     0.009 A 
ATOM     62  C   UNL A   1      41.970  22.312  28.258  1.00  0.00     0.009 A 
ATOM     63  C   UNL A   1      42.399  22.261  25.504  1.00  0.00     0.001 A 
ATOM     64  C   UNL A   1      41.794  21.125  27.548  1.00  0.00     0.001 A 
ATOM     65  C   UNL A   1      42.002  21.102  26.171  1.00  0.00     0.000 A 
ENDBRANCH  41  60
BRANCH  53  66
ATOM     66  C   UNL A   1      48.043  26.479  30.315  1.00  0.00    -0.014 A 
ATOM     67  C   UNL A   1      48.934  26.816  29.285  1.00  0.00     0.009 A 
ATOM     68  C   UNL A   1      48.518  25.751  31.417  1.00  0.00     0.009 A 
ATOM     69  C   UNL A   1      50.266  26.403  29.342  1.00  0.00     0.001 A 
ATOM     70  C   UNL A   1      49.857  25.361  31.483  1.00  0.00     0.001 A 
ATOM     71  C   UNL A   1      50.726  25.679  30.441  1.00  0.00     0.000 A 
ENDBRANCH  53  66
ENDBRANCH  27  28
ENDBRANCH  20  22
ENDBRANCH  19  20
ENDBRANCH  18  19
ENDBRANCH   1  18
TORSDOF 14
ENDMDL
MODEL 3
REMARK VINA RESULT:      -8.6      4.318      8.953
REMARK SMILES C[C@@H](c1cccc(F)c1)[C@@](C)(O)C(=O)OCCOC(=O)c1ccc(-c2c3nc(c(-c4ccccc4)c4ccc([nH]4)c(-c4ccccc4)c4nc(c(-c5ccccc5)c5ccc2[nH]5)C=C4)C=C3)cc1
REMARK SMILES IDX 16 1 15 2 13 3 14 4 10 5 11 6 2 7 1 8 3 9 4 10 9 11 5 12
REMARK SMILES IDX 7 13 6 14 8 15 12 16 17 18 18 19 19 20 20 21 21 22 22 23
REMARK SMILES IDX 68 24 23 25 67 26 24 27 25 28 26 29 61 30 27 31 66 32 60 33
REMARK SMILES IDX 62 34 28 35 65 36 59 37 58 38 29 40 51 41 36 42 50 43 37 44
REMARK SMILES IDX 40 45 49 46 63 47 38 48 39 49 48 51 64 52 41 53 30 54 31 55
REMARK SMILES IDX 35 56 32 57 34 58 33 59 52 60 53 61 57 62 54 63 56 64 55 65
REMARK SMILES IDX 42 66 43 67 47 68 44 69 46 70 45 71
REMARK H PARENT 12 17 62 39 40 50
REMARK Flexibility Score: inf
ROOT
ATOM      1  C   UNL A   1      32.346  29.452  26.271  1.00  0.00     0.274 C 
ENDROOT
BRANCH   1   2
ATOM      2  O   UNL A   1      32.716  29.567  24.877  1.00  0.00    -0.460 OA
BRANCH   2   3
ATOM      3  C   UNL A   1      33.064  28.403  24.252  1.00  0.00     0.338 C 
ATOM      4  O   UNL A   1      33.956  27.655  24.636  1.00  0.00    -0.249 OA
BRANCH   3   5
ATOM      5  C   UNL A   1      32.237  28.172  22.955  1.00  0.00     0.165 C 
ATOM      6  C   UNL A   1      33.008  27.081  22.187  1.00  0.00     0.055 C 
BRANCH   5   7
ATOM      7  C   UNL A   1      30.756  27.719  23.231  1.00  0.00     0.059 C 
ATOM      8  C   UNL A   1      30.618  26.755  24.428  1.00  0.00     0.016 C 
BRANCH   7   9
ATOM      9  C   UNL A   1      29.655  28.791  23.280  1.00  0.00    -0.039 A 
ATOM     10  C   UNL A   1      28.345  28.421  22.902  1.00  0.00     0.004 A 
ATOM     11  C   UNL A   1      29.856  30.127  23.652  1.00  0.00     0.043 A 
ATOM     12  C   UNL A   1      27.288  29.339  22.898  1.00  0.00     0.003 A 
ATOM     13  C   UNL A   1      28.799  31.039  23.635  1.00  0.00     0.123 A 
ATOM     14  C   UNL A   1      27.520  30.660  23.259  1.00  0.00     0.039 A 
ATOM     15  F   UNL A   1      29.028  32.308  23.998  1.00  0.00    -0.207 F 
ENDBRANCH   7   9
ENDBRANCH   5   7
BRANCH   5  16
ATOM     16  O   UNL A   1      32.221  29.273  22.035  1.00  0.00    -0.378 OA
ATOM     17  H   UNL A   1      32.615  28.996  21.193  1.00  0.00     0.212 HD
ENDBRANCH   5  16
ENDBRANCH   3   5
ENDBRANCH   2   3
ENDBRANCH   1   2
BRANCH   1  18
ATOM     18  C   UNL A   1      33.030  30.529  27.113  1.00  0.00     0.275 C 
BRANCH  18  19
ATOM     19  O   UNL A   1      34.326  30.052  27.499  1.00  0.00    -0.458 OA
BRANCH  19  20
ATOM     20  C   UNL A   1      34.975  30.781  28.435  1.00  0.00     0.338 C 
ATOM     21  O   UNL A   1      34.492  31.680  29.109  1.00  0.00    -0.246 OA
BRANCH  20  22
ATOM     22  C   UNL A   1      36.370  30.280  28.575  1.00  0.00     0.060 A 
ATOM     23  C   UNL A   1      37.273  30.348  27.510  1.00  0.00     0.016 A 
ATOM     24  C   UNL A   1      36.774  29.671  29.765  1.00  0.00     0.016 A 
ATOM     25  C   UNL A   1      38.530  29.753  27.602  1.00  0.00     0.010 A 
ATOM     26  C   UNL A   1      38.074  29.158  29.888  1.00  0.00     0.010 A 
ATOM     27  C   UNL A   1      38.967  29.184  28.803  1.00  0.00    -0.014 A 
BRANCH  27  28
ATOM     28  C   UNL A   1      40.355  28.660  28.936  1.00  0.00     0.031 A 
ATOM     29  C   UNL A   1      41.493  29.569  29.320  1.00  0.00     0.074 A 
ATOM     30  C   UNL A   1      40.615  27.360  28.689  1.00  0.00     0.049 A 
ATOM     31  N   UNL A   1      42.783  29.341  29.281  1.00  0.00    -0.248 NA
ATOM     32  C   UNL A   1      41.136  30.905  29.819  1.00  0.00     0.031 C 
ATOM     33  C   UNL A   1      39.619  26.334  28.371  1.00  0.00     0.029 A 
ATOM     34  N   UNL A   1      41.810  26.678  28.656  1.00  0.00    -0.354 N 
ATOM     35  C   UNL A   1      43.390  30.513  29.715  1.00  0.00     0.074 A 
ATOM     36  C   UNL A   1      42.329  31.450  30.018  1.00  0.00     0.031 C 
ATOM     37  C   UNL A   1      40.237  25.159  28.189  1.00  0.00     0.029 A 
ATOM     38  C   UNL A   1      41.677  25.365  28.274  1.00  0.00     0.049 A 
ATOM     39  H   UNL A   1      42.674  27.091  28.884  1.00  0.00     0.167 HD
ATOM     40  C   UNL A   1      44.711  30.788  29.839  1.00  0.00     0.031 A 
ATOM     41  C   UNL A   1      42.601  24.439  27.954  1.00  0.00     0.031 A 
ATOM     42  C   UNL A   1      45.773  29.866  29.531  1.00  0.00     0.049 A 
ATOM     43  C   UNL A   1      44.054  24.805  27.976  1.00  0.00     0.074 A 
ATOM     44  C   UNL A   1      47.141  30.067  29.613  1.00  0.00     0.029 A 
ATOM     45  N   UNL A   1      45.587  28.570  29.079  1.00  0.00    -0.354 N 
ATOM     46  N   UNL A   1      44.616  25.934  28.331  1.00  0.00    -0.248 NA
ATOM     47  C   UNL A   1      45.000  23.773  27.529  1.00  0.00     0.031 C 
ATOM     48  C   UNL A   1      47.783  28.908  29.163  1.00  0.00     0.029 A 
ATOM     49  C   UNL A   1      46.815  27.969  28.851  1.00  0.00     0.049 A 
ATOM     50  H   UNL A   1      44.713  28.140  28.939  1.00  0.00     0.167 HD
ATOM     51  C   UNL A   1      45.979  25.746  28.158  1.00  0.00     0.074 A 
ATOM     52  C   UNL A   1      46.163  24.389  27.687  1.00  0.00     0.031 C 
ATOM     53  C   UNL A   1      46.990  26.625  28.371  1.00  0.00     0.031 A 
BRANCH  40  54
ATOM     54  C   UNL A   1      45.094  32.172  30.280  1.00  0.00    -0.014 A 
ATOM     55  C   UNL A   1      45.270  33.211  29.354  1.00  0.00     0.009 A 
ATOM     56  C   UNL A   1      45.220  32.451  31.650  1.00  0.00     0.009 A 
ATOM     57  C   UNL A   1      45.582  34.501  29.793  1.00  0.00     0.001 A 
ATOM     58  C   UNL A   1      45.512  33.744  32.087  1.00  0.00     0.001 A 
ATOM     59  C   UNL A   1      45.698  34.766  31.159  1.00  0.00     0.000 A 
ENDBRANCH  40  54
BRANCH  41  60
ATOM     60  C   UNL A   1      42.163  23.098  27.491  1.00  0.00    -0.014 A 
ATOM     61  C   UNL A   1      42.030  22.821  26.123  1.00  0.00     0.009 A 
ATOM     62  C   UNL A   1      41.887  22.083  28.422  1.00  0.00     0.009 A 
ATOM     63  C   UNL A   1      41.620  21.555  25.699  1.00  0.00     0.001 A 
ATOM     64  C   UNL A   1      41.509  20.810  27.994  1.00  0.00     0.001 A 
ATOM     65  C   UNL A   1      41.369  20.549  26.632  1.00  0.00     0.000 A 
ENDBRANCH  41  60
BRANCH  53  66
ATOM     66  C   UNL A   1      48.384  26.131  28.121  1.00  0.00    -0.014 A 
ATOM     67  C   UNL A   1      49.156  25.579  29.156  1.00  0.00     0.009 A 
ATOM     68  C   UNL A   1      48.928  26.205  26.829  1.00  0.00     0.009 A 
ATOM     69  C   UNL A   1      50.457  25.142  28.906  1.00  0.00     0.001 A 
ATOM     70  C   UNL A   1      50.221  25.744  26.579  1.00  0.00     0.001 A 
ATOM     71  C   UNL A   1      50.987  25.221  27.619  1.00  0.00     0.000 A 
ENDBRANCH  53  66
ENDBRANCH  27  28
ENDBRANCH  20  22
ENDBRANCH  19  20
ENDBRANCH  18  19
ENDBRANCH   1  18
TORSDOF 14
ENDMDL
