MODEL 1
REMARK VINA RESULT:     -11.0      0.000      0.000
REMARK SMILES Cc1cc(-c2cc(C(=O)OCCOC(=O)c3ccc(-c4c5nc(c(-c6ccccc6)c6ccc([nH]6)c(-c6ccccc6)c6nc(c(-c7ccccc7)c7ccc4[nH]7)C=C6)C=C5)cc3)c[nH]c2=O)ccc1Cl
REMARK SMILES IDX 12 1 11 2 10 3 8 4 9 5 7 6 5 7 6 8 66 9 65 10 67 11 64 12
REMARK SMILES IDX 4 14 1 15 2 16 3 17 70 18 69 19 71 20 68 21 13 22 14 23
REMARK SMILES IDX 15 24 16 25 17 26 63 27 18 28 62 29 19 30 20 31 21 32 56 33
REMARK SMILES IDX 22 34 61 35 55 36 57 37 23 38 60 39 54 40 53 41 24 43 46 44
REMARK SMILES IDX 31 45 45 46 32 47 35 48 44 49 58 50 33 51 34 52 43 54 59 55
REMARK SMILES IDX 36 56 25 57 26 58 30 59 27 60 29 61 28 62 47 63 48 64 52 65
REMARK SMILES IDX 49 66 51 67 50 68 37 69 38 70 42 71 39 72 41 73 40 74
REMARK H PARENT 65 13 57 42 35 53
REMARK Flexibility Score: inf
ROOT
ATOM      1  C   UNL A   1      33.068  36.557  29.786  1.00  0.00     0.275 C 
ENDROOT
BRANCH   1   2
ATOM      2  C   UNL A   1      33.785  35.672  28.767  1.00  0.00     0.275 C 
BRANCH   2   3
ATOM      3  O   UNL A   1      33.559  34.276  29.062  1.00  0.00    -0.458 OA
BRANCH   3   4
ATOM      4  C   UNL A   1      33.052  33.525  28.051  1.00  0.00     0.339 C 
ATOM      5  O   UNL A   1      32.128  33.837  27.314  1.00  0.00    -0.246 OA
BRANCH   4   6
ATOM      6  C   UNL A   1      33.845  32.278  27.885  1.00  0.00     0.077 A 
ATOM      7  C   UNL A   1      34.003  29.897  27.366  1.00  0.00     0.048 A 
ATOM      8  C   UNL A   1      33.248  30.999  27.558  1.00  0.00     0.031 A 
ATOM      9  C   UNL A   1      35.488  29.990  27.607  1.00  0.00     0.255 A 
ATOM     10  N   UNL A   1      35.969  31.250  27.872  1.00  0.00    -0.328 N 
ATOM     11  O   UNL A   1      36.238  29.023  27.556  1.00  0.00    -0.269 OA
ATOM     12  C   UNL A   1      35.182  32.367  27.982  1.00  0.00     0.101 A 
ATOM     13  H   UNL A   1      36.941  31.357  27.992  1.00  0.00     0.169 HD
BRANCH   7  14
ATOM     14  C   UNL A   1      33.398  28.658  26.850  1.00  0.00    -0.012 A 
ATOM     15  C   UNL A   1      33.936  26.166  24.019  1.00  0.00     0.046 C 
ATOM     16  C   UNL A   1      33.328  26.842  25.214  1.00  0.00    -0.032 A 
ATOM     17  C   UNL A   1      33.949  27.983  25.752  1.00  0.00     0.014 A 
ATOM     18  C   UNL A   1      32.137  26.385  25.799  1.00  0.00     0.044 A 
ATOM     19  C   UNL A   1      31.581  27.049  26.893  1.00  0.00     0.021 A 
ATOM     20  Cl  UNL A   1      31.301  25.002  25.189  1.00  0.00    -0.084 Cl
ATOM     21  C   UNL A   1      32.207  28.181  27.414  1.00  0.00     0.010 A 
ENDBRANCH   7  14
ENDBRANCH   4   6
ENDBRANCH   3   4
ENDBRANCH   2   3
ENDBRANCH   1   2
BRANCH   1  22
ATOM     22  O   UNL A   1      32.424  35.722  30.763  1.00  0.00    -0.458 OA
BRANCH  22  23
ATOM     23  C   UNL A   1      32.674  36.014  32.060  1.00  0.00     0.338 C 
ATOM     24  O   UNL A   1      32.083  36.799  32.777  1.00  0.00    -0.246 OA
BRANCH  23  25
ATOM     25  C   UNL A   1      33.806  35.191  32.520  1.00  0.00     0.060 A 
ATOM     26  C   UNL A   1      35.089  35.734  32.509  1.00  0.00     0.016 A 
ATOM     27  C   UNL A   1      33.616  33.860  32.877  1.00  0.00     0.016 A 
ATOM     28  C   UNL A   1      36.196  34.939  32.792  1.00  0.00     0.010 A 
ATOM     29  C   UNL A   1      34.720  33.084  33.254  1.00  0.00     0.010 A 
ATOM     30  C   UNL A   1      36.026  33.608  33.193  1.00  0.00    -0.014 A 
BRANCH  30  31
ATOM     31  C   UNL A   1      37.207  32.762  33.521  1.00  0.00     0.031 A 
ATOM     32  C   UNL A   1      37.922  32.936  34.835  1.00  0.00     0.074 A 
ATOM     33  C   UNL A   1      37.645  31.829  32.651  1.00  0.00     0.049 A 
ATOM     34  N   UNL A   1      39.067  32.434  35.225  1.00  0.00    -0.248 NA
ATOM     35  C   UNL A   1      37.273  33.799  35.833  1.00  0.00     0.031 C 
ATOM     36  C   UNL A   1      37.028  31.510  31.362  1.00  0.00     0.029 A 
ATOM     37  N   UNL A   1      38.716  30.972  32.726  1.00  0.00    -0.354 N 
ATOM     38  C   UNL A   1      39.305  32.970  36.485  1.00  0.00     0.074 A 
ATOM     39  C   UNL A   1      38.184  33.832  36.796  1.00  0.00     0.031 C 
ATOM     40  C   UNL A   1      37.706  30.507  30.786  1.00  0.00     0.029 A 
ATOM     41  C   UNL A   1      38.858  30.173  31.617  1.00  0.00     0.049 A 
ATOM     42  H   UNL A   1      39.324  30.934  33.499  1.00  0.00     0.167 HD
ATOM     43  C   UNL A   1      40.366  32.771  37.304  1.00  0.00     0.031 A 
ATOM     44  C   UNL A   1      39.827  29.304  31.275  1.00  0.00     0.031 A 
ATOM     45  C   UNL A   1      41.460  31.881  37.018  1.00  0.00     0.049 A 
ATOM     46  C   UNL A   1      41.008  29.121  32.182  1.00  0.00     0.074 A 
ATOM     47  C   UNL A   1      42.568  31.597  37.799  1.00  0.00     0.029 A 
ATOM     48  N   UNL A   1      41.575  31.119  35.867  1.00  0.00    -0.354 N 
ATOM     49  N   UNL A   1      41.246  29.678  33.345  1.00  0.00    -0.248 NA
ATOM     50  C   UNL A   1      42.064  28.210  31.719  1.00  0.00     0.031 C 
ATOM     51  C   UNL A   1      43.375  30.692  37.100  1.00  0.00     0.029 A 
ATOM     52  C   UNL A   1      42.747  30.380  35.906  1.00  0.00     0.049 A 
ATOM     53  H   UNL A   1      40.923  31.105  35.130  1.00  0.00     0.167 HD
ATOM     54  C   UNL A   1      42.479  29.187  33.752  1.00  0.00     0.074 A 
ATOM     55  C   UNL A   1      42.926  28.267  32.725  1.00  0.00     0.031 C 
ATOM     56  C   UNL A   1      43.183  29.480  34.871  1.00  0.00     0.031 A 
BRANCH  43  57
ATOM     57  C   UNL A   1      40.417  33.574  38.573  1.00  0.00    -0.014 A 
ATOM     58  C   UNL A   1      41.043  34.829  38.627  1.00  0.00     0.009 A 
ATOM     59  C   UNL A   1      39.801  33.070  39.729  1.00  0.00     0.009 A 
ATOM     60  C   UNL A   1      41.078  35.547  39.825  1.00  0.00     0.001 A 
ATOM     61  C   UNL A   1      39.817  33.801  40.919  1.00  0.00     0.001 A 
ATOM     62  C   UNL A   1      40.464  35.035  40.968  1.00  0.00     0.000 A 
ENDBRANCH  43  57
BRANCH  44  63
ATOM     63  C   UNL A   1      39.751  28.593  29.973  1.00  0.00    -0.014 A 
ATOM     64  C   UNL A   1      40.123  29.235  28.783  1.00  0.00     0.009 A 
ATOM     65  C   UNL A   1      39.323  27.256  29.919  1.00  0.00     0.009 A 
ATOM     66  C   UNL A   1      40.062  28.555  27.565  1.00  0.00     0.001 A 
ATOM     67  C   UNL A   1      39.291  26.569  28.704  1.00  0.00     0.001 A 
ATOM     68  C   UNL A   1      39.655  27.221  27.527  1.00  0.00     0.000 A 
ENDBRANCH  44  63
BRANCH  56  69
ATOM     69  C   UNL A   1      44.504  28.791  35.046  1.00  0.00    -0.014 A 
ATOM     70  C   UNL A   1      45.696  29.398  34.619  1.00  0.00     0.009 A 
ATOM     71  C   UNL A   1      44.562  27.537  35.671  1.00  0.00     0.009 A 
ATOM     72  C   UNL A   1      46.918  28.747  34.792  1.00  0.00     0.001 A 
ATOM     73  C   UNL A   1      45.788  26.898  35.862  1.00  0.00     0.001 A 
ATOM     74  C   UNL A   1      46.964  27.501  35.415  1.00  0.00     0.000 A 
ENDBRANCH  56  69
ENDBRANCH  30  31
ENDBRANCH  23  25
ENDBRANCH  22  23
ENDBRANCH   1  22
TORSDOF 12
ENDMDL
MODEL 2
REMARK VINA RESULT:     -10.9      5.273     10.785
REMARK SMILES Cc1cc(-c2cc(C(=O)OCCOC(=O)c3ccc(-c4c5nc(c(-c6ccccc6)c6ccc([nH]6)c(-c6ccccc6)c6nc(c(-c7ccccc7)c7ccc4[nH]7)C=C6)C=C5)cc3)c[nH]c2=O)ccc1Cl
REMARK SMILES IDX 12 1 11 2 10 3 8 4 9 5 7 6 5 7 6 8 66 9 65 10 67 11 64 12
REMARK SMILES IDX 4 14 1 15 2 16 3 17 70 18 69 19 71 20 68 21 13 22 14 23
REMARK SMILES IDX 15 24 16 25 17 26 63 27 18 28 62 29 19 30 20 31 21 32 56 33
REMARK SMILES IDX 22 34 61 35 55 36 57 37 23 38 60 39 54 40 53 41 24 43 46 44
REMARK SMILES IDX 31 45 45 46 32 47 35 48 44 49 58 50 33 51 34 52 43 54 59 55
REMARK SMILES IDX 36 56 25 57 26 58 30 59 27 60 29 61 28 62 47 63 48 64 52 65
REMARK SMILES IDX 49 66 51 67 50 68 37 69 38 70 42 71 39 72 41 73 40 74
REMARK H PARENT 65 13 57 42 35 53
REMARK Flexibility Score: inf
ROOT
ATOM      1  C   UNL A   1      40.113  20.788  26.437  1.00  0.00     0.275 C 
ENDROOT
BRANCH   1   2
ATOM      2  C   UNL A   1      41.263  20.088  27.160  1.00  0.00     0.275 C 
BRANCH   2   3
ATOM      3  O   UNL A   1      42.522  20.718  26.836  1.00  0.00    -0.458 OA
BRANCH   3   4
ATOM      4  C   UNL A   1      43.140  20.276  25.711  1.00  0.00     0.339 C 
ATOM      5  O   UNL A   1      42.886  19.245  25.105  1.00  0.00    -0.246 OA
BRANCH   4   6
ATOM      6  C   UNL A   1      44.131  21.279  25.239  1.00  0.00     0.077 A 
ATOM      7  C   UNL A   1      44.929  23.582  25.071  1.00  0.00     0.048 A 
ATOM      8  C   UNL A   1      43.986  22.703  25.469  1.00  0.00     0.031 A 
ATOM      9  C   UNL A   1      46.101  23.068  24.273  1.00  0.00     0.255 A 
ATOM     10  N   UNL A   1      46.176  21.702  24.140  1.00  0.00    -0.328 N 
ATOM     11  O   UNL A   1      46.953  23.801  23.785  1.00  0.00    -0.269 OA
ATOM     12  C   UNL A   1      45.239  20.828  24.629  1.00  0.00     0.101 A 
ATOM     13  H   UNL A   1      46.952  21.327  23.663  1.00  0.00     0.169 HD
BRANCH   7  14
ATOM     14  C   UNL A   1      44.855  24.993  25.480  1.00  0.00    -0.012 A 
ATOM     15  C   UNL A   1      46.734  27.430  27.728  1.00  0.00     0.046 C 
ATOM     16  C   UNL A   1      45.700  26.880  26.787  1.00  0.00    -0.032 A 
ATOM     17  C   UNL A   1      45.814  25.552  26.337  1.00  0.00     0.014 A 
ATOM     18  C   UNL A   1      44.603  27.644  26.361  1.00  0.00     0.044 A 
ATOM     19  C   UNL A   1      43.645  27.097  25.507  1.00  0.00     0.021 A 
ATOM     20  Cl  UNL A   1      44.379  29.276  26.881  1.00  0.00    -0.084 Cl
ATOM     21  C   UNL A   1      43.769  25.779  25.072  1.00  0.00     0.010 A 
ENDBRANCH   7  14
ENDBRANCH   4   6
ENDBRANCH   3   4
ENDBRANCH   2   3
ENDBRANCH   1   2
BRANCH   1  22
ATOM     22  O   UNL A   1      40.312  22.211  26.503  1.00  0.00    -0.458 OA
BRANCH  22  23
ATOM     23  C   UNL A   1      39.219  22.979  26.294  1.00  0.00     0.338 C 
ATOM     24  O   UNL A   1      38.202  22.686  25.693  1.00  0.00    -0.246 OA
BRANCH  23  25
ATOM     25  C   UNL A   1      39.426  24.283  26.948  1.00  0.00     0.060 A 
ATOM     26  C   UNL A   1      40.099  25.289  26.258  1.00  0.00     0.016 A 
ATOM     27  C   UNL A   1      39.036  24.485  28.268  1.00  0.00     0.016 A 
ATOM     28  C   UNL A   1      40.443  26.477  26.897  1.00  0.00     0.010 A 
ATOM     29  C   UNL A   1      39.299  25.715  28.883  1.00  0.00     0.010 A 
ATOM     30  C   UNL A   1      40.027  26.717  28.213  1.00  0.00    -0.014 A 
BRANCH  30  31
ATOM     31  C   UNL A   1      40.372  27.997  28.891  1.00  0.00     0.031 A 
ATOM     32  C   UNL A   1      41.724  28.178  29.528  1.00  0.00     0.074 A 
ATOM     33  C   UNL A   1      39.481  29.009  28.938  1.00  0.00     0.049 A 
ATOM     34  N   UNL A   1      42.145  29.134  30.318  1.00  0.00    -0.248 NA
ATOM     35  C   UNL A   1      42.729  27.140  29.253  1.00  0.00     0.031 C 
ATOM     36  C   UNL A   1      38.151  29.003  28.326  1.00  0.00     0.029 A 
ATOM     37  N   UNL A   1      39.567  30.248  29.528  1.00  0.00    -0.354 N 
ATOM     38  C   UNL A   1      43.438  28.780  30.685  1.00  0.00     0.074 A 
ATOM     39  C   UNL A   1      43.734  27.525  30.028  1.00  0.00     0.031 C 
ATOM     40  C   UNL A   1      37.562  30.189  28.540  1.00  0.00     0.029 A 
ATOM     41  C   UNL A   1      38.430  31.005  29.381  1.00  0.00     0.049 A 
ATOM     42  H   UNL A   1      40.366  30.561  30.011  1.00  0.00     0.167 HD
ATOM     43  C   UNL A   1      44.296  29.436  31.503  1.00  0.00     0.031 A 
ATOM     44  C   UNL A   1      38.096  32.201  29.901  1.00  0.00     0.031 A 
ATOM     45  C   UNL A   1      44.021  30.705  32.122  1.00  0.00     0.049 A 
ATOM     46  C   UNL A   1      39.048  32.896  30.829  1.00  0.00     0.074 A 
ATOM     47  C   UNL A   1      44.840  31.457  32.949  1.00  0.00     0.029 A 
ATOM     48  N   UNL A   1      42.843  31.418  31.970  1.00  0.00    -0.354 N 
ATOM     49  N   UNL A   1      40.245  32.522  31.210  1.00  0.00    -0.248 NA
ATOM     50  C   UNL A   1      38.594  34.164  31.415  1.00  0.00     0.031 C 
ATOM     51  C   UNL A   1      44.139  32.607  33.329  1.00  0.00     0.029 A 
ATOM     52  C   UNL A   1      42.904  32.592  32.704  1.00  0.00     0.049 A 
ATOM     53  H   UNL A   1      42.076  31.133  31.422  1.00  0.00     0.167 HD
ATOM     54  C   UNL A   1      40.687  33.506  32.084  1.00  0.00     0.074 A 
ATOM     55  C   UNL A   1      39.641  34.507  32.153  1.00  0.00     0.031 C 
ATOM     56  C   UNL A   1      41.850  33.570  32.773  1.00  0.00     0.031 A 
BRANCH  43  57
ATOM     57  C   UNL A   1      45.601  28.761  31.816  1.00  0.00    -0.014 A 
ATOM     58  C   UNL A   1      45.719  27.830  32.860  1.00  0.00     0.009 A 
ATOM     59  C   UNL A   1      46.728  29.047  31.029  1.00  0.00     0.009 A 
ATOM     60  C   UNL A   1      46.950  27.226  33.129  1.00  0.00     0.001 A 
ATOM     61  C   UNL A   1      47.950  28.422  31.284  1.00  0.00     0.001 A 
ATOM     62  C   UNL A   1      48.063  27.519  32.340  1.00  0.00     0.000 A 
ENDBRANCH  43  57
BRANCH  44  63
ATOM     63  C   UNL A   1      36.760  32.781  29.607  1.00  0.00    -0.014 A 
ATOM     64  C   UNL A   1      36.526  33.469  28.407  1.00  0.00     0.009 A 
ATOM     65  C   UNL A   1      35.703  32.629  30.520  1.00  0.00     0.009 A 
ATOM     66  C   UNL A   1      35.263  33.999  28.132  1.00  0.00     0.001 A 
ATOM     67  C   UNL A   1      34.435  33.133  30.229  1.00  0.00     0.001 A 
ATOM     68  C   UNL A   1      34.217  33.823  29.039  1.00  0.00     0.000 A 
ENDBRANCH  44  63
BRANCH  56  69
ATOM     69  C   UNL A   1      42.056  34.766  33.655  1.00  0.00    -0.014 A 
ATOM     70  C   UNL A   1      41.614  34.764  34.987  1.00  0.00     0.009 A 
ATOM     71  C   UNL A   1      42.724  35.895  33.158  1.00  0.00     0.009 A 
ATOM     72  C   UNL A   1      41.815  35.883  35.798  1.00  0.00     0.001 A 
ATOM     73  C   UNL A   1      42.943  37.004  33.977  1.00  0.00     0.001 A 
ATOM     74  C   UNL A   1      42.482  36.999  35.293  1.00  0.00     0.000 A 
ENDBRANCH  56  69
ENDBRANCH  30  31
ENDBRANCH  23  25
ENDBRANCH  22  23
ENDBRANCH   1  22
TORSDOF 12
ENDMDL
MODEL 3
REMARK VINA RESULT:     -10.9      4.495      6.787
REMARK SMILES Cc1cc(-c2cc(C(=O)OCCOC(=O)c3ccc(-c4c5nc(c(-c6ccccc6)c6ccc([nH]6)c(-c6ccccc6)c6nc(c(-c7ccccc7)c7ccc4[nH]7)C=C6)C=C5)cc3)c[nH]c2=O)ccc1Cl
REMARK SMILES IDX 12 1 11 2 10 3 8 4 9 5 7 6 5 7 6 8 66 9 65 10 67 11 64 12
REMARK SMILES IDX 4 14 1 15 2 16 3 17 70 18 69 19 71 20 68 21 13 22 14 23
REMARK SMILES IDX 15 24 16 25 17 26 63 27 18 28 62 29 19 30 20 31 21 32 56 33
REMARK SMILES IDX 22 34 61 35 55 36 57 37 23 38 60 39 54 40 53 41 24 43 46 44
REMARK SMILES IDX 31 45 45 46 32 47 35 48 44 49 58 50 33 51 34 52 43 54 59 55
REMARK SMILES IDX 36 56 25 57 26 58 30 59 27 60 29 61 28 62 47 63 48 64 52 65
REMARK SMILES IDX 49 66 51 67 50 68 37 69 38 70 42 71 39 72 41 73 40 74
REMARK H PARENT 65 13 57 42 35 53
REMARK Flexibility Score: inf
ROOT
ATOM      1  C   UNL A   1      32.546  30.210  27.098  1.00  0.00     0.275 C 
ENDROOT
BRANCH   1   2
ATOM      2  C   UNL A   1      32.033  30.120  25.661  1.00  0.00     0.275 C 
BRANCH   2   3
ATOM      3  O   UNL A   1      31.693  28.756  25.329  1.00  0.00    -0.458 OA
BRANCH   3   4
ATOM      4  C   UNL A   1      32.715  27.973  24.897  1.00  0.00     0.339 C 
ATOM      5  O   UNL A   1      33.651  28.329  24.198  1.00  0.00    -0.246 OA
BRANCH   4   6
ATOM      6  C   UNL A   1      32.600  26.608  25.478  1.00  0.00     0.077 A 
ATOM      7  C   UNL A   1      33.436  24.333  25.773  1.00  0.00     0.048 A 
ATOM      8  C   UNL A   1      33.542  25.545  25.190  1.00  0.00     0.031 A 
ATOM      9  C   UNL A   1      32.245  24.059  26.654  1.00  0.00     0.255 A 
ATOM     10  N   UNL A   1      31.428  25.136  26.902  1.00  0.00    -0.328 N 
ATOM     11  O   UNL A   1      32.011  22.960  27.145  1.00  0.00    -0.269 OA
ATOM     12  C   UNL A   1      31.610  26.381  26.357  1.00  0.00     0.101 A 
ATOM     13  H   UNL A   1      30.664  25.006  27.510  1.00  0.00     0.169 HD
BRANCH   7  14
ATOM     14  C   UNL A   1      34.506  23.334  25.618  1.00  0.00    -0.012 A 
ATOM     15  C   UNL A   1      38.284  23.087  26.038  1.00  0.00     0.046 C 
ATOM     16  C   UNL A   1      36.868  22.709  25.713  1.00  0.00    -0.032 A 
ATOM     17  C   UNL A   1      35.837  23.639  25.933  1.00  0.00     0.014 A 
ATOM     18  C   UNL A   1      36.541  21.458  25.168  1.00  0.00     0.044 A 
ATOM     19  C   UNL A   1      35.218  21.143  24.853  1.00  0.00     0.021 A 
ATOM     20  Cl  UNL A   1      37.749  20.264  24.851  1.00  0.00    -0.084 Cl
ATOM     21  C   UNL A   1      34.208  22.077  25.074  1.00  0.00     0.010 A 
ENDBRANCH   7  14
ENDBRANCH   4   6
ENDBRANCH   3   4
ENDBRANCH   2   3
ENDBRANCH   1   2
BRANCH   1  22
ATOM     22  O   UNL A   1      33.980  30.308  27.080  1.00  0.00    -0.458 OA
BRANCH  22  23
ATOM     23  C   UNL A   1      34.555  30.893  28.155  1.00  0.00     0.338 C 
ATOM     24  O   UNL A   1      34.096  31.769  28.864  1.00  0.00    -0.246 OA
BRANCH  23  25
ATOM     25  C   UNL A   1      35.874  30.277  28.380  1.00  0.00     0.060 A 
ATOM     26  C   UNL A   1      36.170  29.743  29.633  1.00  0.00     0.016 A 
ATOM     27  C   UNL A   1      36.848  30.304  27.387  1.00  0.00     0.016 A 
ATOM     28  C   UNL A   1      37.454  29.292  29.924  1.00  0.00     0.010 A 
ATOM     29  C   UNL A   1      38.113  29.764  27.649  1.00  0.00     0.010 A 
ATOM     30  C   UNL A   1      38.439  29.273  28.928  1.00  0.00    -0.014 A 
BRANCH  30  31
ATOM     31  C   UNL A   1      39.807  28.767  29.229  1.00  0.00     0.031 A 
ATOM     32  C   UNL A   1      40.792  29.636  29.965  1.00  0.00     0.074 A 
ATOM     33  C   UNL A   1      40.176  27.526  28.852  1.00  0.00     0.049 A 
ATOM     34  N   UNL A   1      42.075  29.453  30.156  1.00  0.00    -0.248 NA
ATOM     35  C   UNL A   1      40.270  30.882  30.548  1.00  0.00     0.031 C 
ATOM     36  C   UNL A   1      39.320  26.550  28.176  1.00  0.00     0.029 A 
ATOM     37  N   UNL A   1      41.377  26.871  28.991  1.00  0.00    -0.354 N 
ATOM     38  C   UNL A   1      42.524  30.586  30.824  1.00  0.00     0.074 A 
ATOM     39  C   UNL A   1      41.376  31.449  31.009  1.00  0.00     0.031 C 
ATOM     40  C   UNL A   1      40.007  25.414  27.992  1.00  0.00     0.029 A 
ATOM     41  C   UNL A   1      41.378  25.607  28.451  1.00  0.00     0.049 A 
ATOM     42  H   UNL A   1      42.161  27.270  29.433  1.00  0.00     0.167 HD
ATOM     43  C   UNL A   1      43.779  30.885  31.236  1.00  0.00     0.031 A 
ATOM     44  C   UNL A   1      42.376  24.718  28.294  1.00  0.00     0.031 A 
ATOM     45  C   UNL A   1      44.913  30.010  31.093  1.00  0.00     0.049 A 
ATOM     46  C   UNL A   1      43.765  25.081  28.730  1.00  0.00     0.074 A 
ATOM     47  C   UNL A   1      46.220  30.219  31.502  1.00  0.00     0.029 A 
ATOM     48  N   UNL A   1      44.871  28.754  30.511  1.00  0.00    -0.354 N 
ATOM     49  N   UNL A   1      44.184  26.179  29.309  1.00  0.00    -0.248 NA
ATOM     50  C   UNL A   1      44.820  24.093  28.468  1.00  0.00     0.031 C 
ATOM     51  C   UNL A   1      46.978  29.103  31.128  1.00  0.00     0.029 A 
ATOM     52  C   UNL A   1      46.134  28.184  30.529  1.00  0.00     0.049 A 
ATOM     53  H   UNL A   1      44.064  28.330  30.138  1.00  0.00     0.167 HD
ATOM     54  C   UNL A   1      45.552  26.017  29.480  1.00  0.00     0.074 A 
ATOM     55  C   UNL A   1      45.887  24.702  28.968  1.00  0.00     0.031 C 
ATOM     56  C   UNL A   1      46.452  26.882  30.004  1.00  0.00     0.031 A 
BRANCH  43  57
ATOM     57  C   UNL A   1      44.002  32.243  31.838  1.00  0.00    -0.014 A 
ATOM     58  C   UNL A   1      43.883  32.468  33.218  1.00  0.00     0.009 A 
ATOM     59  C   UNL A   1      44.364  33.312  31.003  1.00  0.00     0.009 A 
ATOM     60  C   UNL A   1      44.090  33.745  33.744  1.00  0.00     0.001 A 
ATOM     61  C   UNL A   1      44.596  34.582  31.535  1.00  0.00     0.001 A 
ATOM     62  C   UNL A   1      44.449  34.800  32.904  1.00  0.00     0.000 A 
ENDBRANCH  43  57
BRANCH  44  63
ATOM     63  C   UNL A   1      42.102  23.418  27.627  1.00  0.00    -0.014 A 
ATOM     64  C   UNL A   1      41.557  22.345  28.346  1.00  0.00     0.009 A 
ATOM     65  C   UNL A   1      42.367  23.255  26.257  1.00  0.00     0.009 A 
ATOM     66  C   UNL A   1      41.290  21.132  27.707  1.00  0.00     0.001 A 
ATOM     67  C   UNL A   1      42.071  22.052  25.615  1.00  0.00     0.001 A 
ATOM     68  C   UNL A   1      41.538  20.989  26.342  1.00  0.00     0.000 A 
ENDBRANCH  44  63
BRANCH  56  69
ATOM     69  C   UNL A   1      47.881  26.430  30.058  1.00  0.00    -0.014 A 
ATOM     70  C   UNL A   1      48.750  26.656  28.979  1.00  0.00     0.009 A 
ATOM     71  C   UNL A   1      48.373  25.799  31.211  1.00  0.00     0.009 A 
ATOM     72  C   UNL A   1      50.079  26.234  29.044  1.00  0.00     0.001 A 
ATOM     73  C   UNL A   1      49.707  25.397  31.281  1.00  0.00     0.001 A 
ATOM     74  C   UNL A   1      50.556  25.608  30.195  1.00  0.00     0.000 A 
ENDBRANCH  56  69
ENDBRANCH  30  31
ENDBRANCH  23  25
ENDBRANCH  22  23
ENDBRANCH   1  22
TORSDOF 12
ENDMDL
