MODEL 1
REMARK VINA RESULT:     -10.4      0.000      0.000
REMARK SMILES C[C@H](c1ccc(C(=O)OCCOC(=O)c2ccc(-c3c4nc(c(-c5ccccc5)c5ccc([nH]5)c(-c5ccccc5)c5nc(c(-c6ccccc6)c6ccc3[nH]6)C=C5)C=C4)cc2)o1)[NH+]1Cc2ccccc2C1
REMARK SMILES IDX 10 1 9 2 7 3 8 4 6 5 3 6 4 7 63 8 5 9 2 10 1 11 64 12 65 13
REMARK SMILES IDX 72 14 66 16 71 17 67 18 70 19 68 20 69 21 11 22 12 23 13 24
REMARK SMILES IDX 14 25 15 26 16 27 62 28 17 29 61 30 18 31 19 32 20 33 55 34
REMARK SMILES IDX 21 35 60 36 54 37 56 38 22 39 59 40 53 41 52 42 23 44 45 45
REMARK SMILES IDX 30 46 44 47 31 48 34 49 43 50 57 51 32 52 33 53 42 55 58 56
REMARK SMILES IDX 35 57 24 58 25 59 29 60 26 61 28 62 27 63 46 64 47 65 51 66
REMARK SMILES IDX 48 67 50 68 49 69 36 70 37 71 41 72 38 73 40 74 39 75
REMARK H PARENT 64 15 56 43 34 54
REMARK Flexibility Score: inf
ROOT
ATOM      1  C   UNL A   1      41.047  19.851  26.322  1.00  0.00     0.275 C 
ENDROOT
BRANCH   1   2
ATOM      2  O   UNL A   1      41.923  19.311  25.320  1.00  0.00    -0.456 OA
BRANCH   2   3
ATOM      3  C   UNL A   1      42.964  18.575  25.815  1.00  0.00     0.374 C 
ATOM      4  O   UNL A   1      42.844  17.508  26.388  1.00  0.00    -0.242 OA
BRANCH   3   5
ATOM      5  C   UNL A   1      44.215  19.194  25.450  1.00  0.00     0.212 A 
ATOM      6  C   UNL A   1      45.551  20.946  25.306  1.00  0.00     0.162 A 
ATOM      7  C   UNL A   1      46.314  19.844  24.972  1.00  0.00     0.053 A 
ATOM      8  O   UNL A   1      44.274  20.554  25.563  1.00  0.00    -0.448 OA
ATOM      9  C   UNL A   1      45.454  18.718  25.066  1.00  0.00     0.059 A 
BRANCH   6  10
ATOM     10  C   UNL A   1      45.797  22.433  25.380  1.00  0.00     0.248 C 
ATOM     11  C   UNL A   1      45.688  23.060  23.975  1.00  0.00     0.084 C 
BRANCH  10  12
ATOM     12  N   UNL A   1      45.044  23.050  26.515  1.00  0.00    -0.319 N 
ATOM     13  C   UNL A   1      44.073  24.088  26.070  1.00  0.00     0.300 C 
ATOM     14  C   UNL A   1      45.927  23.787  27.462  1.00  0.00     0.300 C 
ATOM     15  H   UNL A   1      44.586  22.248  26.949  1.00  0.00     0.349 HD
ATOM     16  C   UNL A   1      44.861  25.352  26.071  1.00  0.00     0.015 A 
ATOM     17  C   UNL A   1      45.951  25.190  26.931  1.00  0.00     0.015 A 
ATOM     18  C   UNL A   1      44.683  26.498  25.323  1.00  0.00     0.010 A 
ATOM     19  C   UNL A   1      46.878  26.198  27.101  1.00  0.00     0.010 A 
ATOM     20  C   UNL A   1      45.634  27.508  25.456  1.00  0.00     0.001 A 
ATOM     21  C   UNL A   1      46.714  27.364  26.345  1.00  0.00     0.001 A 
ENDBRANCH  10  12
ENDBRANCH   6  10
ENDBRANCH   3   5
ENDBRANCH   2   3
ENDBRANCH   1   2
BRANCH   1  22
ATOM     22  C   UNL A   1      40.659  21.295  25.985  1.00  0.00     0.275 C 
BRANCH  22  23
ATOM     23  O   UNL A   1      39.553  21.777  26.779  1.00  0.00    -0.458 OA
BRANCH  23  24
ATOM     24  C   UNL A   1      38.922  22.872  26.289  1.00  0.00     0.338 C 
ATOM     25  O   UNL A   1      37.962  22.890  25.535  1.00  0.00    -0.246 OA
BRANCH  24  26
ATOM     26  C   UNL A   1      39.502  24.103  26.857  1.00  0.00     0.060 A 
ATOM     27  C   UNL A   1      39.223  24.405  28.190  1.00  0.00     0.016 A 
ATOM     28  C   UNL A   1      40.203  25.014  26.067  1.00  0.00     0.016 A 
ATOM     29  C   UNL A   1      39.634  25.616  28.744  1.00  0.00     0.010 A 
ATOM     30  C   UNL A   1      40.622  26.232  26.625  1.00  0.00     0.010 A 
ATOM     31  C   UNL A   1      40.329  26.547  27.964  1.00  0.00    -0.014 A 
BRANCH  31  32
ATOM     32  C   UNL A   1      40.702  27.859  28.552  1.00  0.00     0.031 A 
ATOM     33  C   UNL A   1      42.123  28.133  28.956  1.00  0.00     0.074 A 
ATOM     34  C   UNL A   1      39.773  28.825  28.688  1.00  0.00     0.049 A 
ATOM     35  N   UNL A   1      42.630  29.195  29.532  1.00  0.00    -0.248 NA
ATOM     36  C   UNL A   1      43.106  27.077  28.671  1.00  0.00     0.031 C 
ATOM     37  C   UNL A   1      38.370  28.713  28.284  1.00  0.00     0.029 A 
ATOM     38  N   UNL A   1      39.874  30.097  29.197  1.00  0.00    -0.354 N 
ATOM     39  C   UNL A   1      43.982  28.926  29.704  1.00  0.00     0.074 A 
ATOM     40  C   UNL A   1      44.214  27.596  29.181  1.00  0.00     0.031 C 
ATOM     41  C   UNL A   1      37.746  29.873  28.550  1.00  0.00     0.029 A 
ATOM     42  C   UNL A   1      38.688  30.788  29.188  1.00  0.00     0.049 A 
ATOM     43  H   UNL A   1      40.718  30.476  29.537  1.00  0.00     0.167 HD
ATOM     44  C   UNL A   1      44.942  29.713  30.246  1.00  0.00     0.031 A 
ATOM     45  C   UNL A   1      38.384  32.011  29.662  1.00  0.00     0.031 A 
ATOM     46  C   UNL A   1      44.718  31.039  30.760  1.00  0.00     0.049 A 
ATOM     47  C   UNL A   1      39.453  32.838  30.319  1.00  0.00     0.074 A 
ATOM     48  C   UNL A   1      45.635  31.915  31.317  1.00  0.00     0.029 A 
ATOM     49  N   UNL A   1      43.491  31.681  30.778  1.00  0.00    -0.354 N 
ATOM     50  N   UNL A   1      40.724  32.565  30.483  1.00  0.00    -0.248 NA
ATOM     51  C   UNL A   1      39.040  34.141  30.862  1.00  0.00     0.031 C 
ATOM     52  C   UNL A   1      44.952  33.069  31.715  1.00  0.00     0.029 A 
ATOM     53  C   UNL A   1      43.620  32.932  31.360  1.00  0.00     0.049 A 
ATOM     54  H   UNL A   1      42.650  31.305  30.429  1.00  0.00     0.167 HD
ATOM     55  C   UNL A   1      41.267  33.666  31.133  1.00  0.00     0.074 A 
ATOM     56  C   UNL A   1      40.191  34.619  31.316  1.00  0.00     0.031 C 
ATOM     57  C   UNL A   1      42.543  33.868  31.543  1.00  0.00     0.031 A 
BRANCH  44  58
ATOM     58  C   UNL A   1      46.327  29.138  30.351  1.00  0.00    -0.014 A 
ATOM     59  C   UNL A   1      47.279  29.330  29.338  1.00  0.00     0.009 A 
ATOM     60  C   UNL A   1      46.692  28.420  31.501  1.00  0.00     0.009 A 
ATOM     61  C   UNL A   1      48.559  28.785  29.461  1.00  0.00     0.001 A 
ATOM     62  C   UNL A   1      47.980  27.898  31.631  1.00  0.00     0.001 A 
ATOM     63  C   UNL A   1      48.910  28.074  30.608  1.00  0.00     0.000 A 
ENDBRANCH  44  58
BRANCH  45  64
ATOM     64  C   UNL A   1      36.990  32.518  29.563  1.00  0.00    -0.014 A 
ATOM     65  C   UNL A   1      36.585  33.289  28.464  1.00  0.00     0.009 A 
ATOM     66  C   UNL A   1      36.060  32.233  30.575  1.00  0.00     0.009 A 
ATOM     67  C   UNL A   1      35.279  33.780  28.389  1.00  0.00     0.001 A 
ATOM     68  C   UNL A   1      34.748  32.703  30.484  1.00  0.00     0.001 A 
ATOM     69  C   UNL A   1      34.362  33.482  29.396  1.00  0.00     0.000 A 
ENDBRANCH  45  64
BRANCH  57  70
ATOM     70  C   UNL A   1      42.848  35.180  32.207  1.00  0.00    -0.014 A 
ATOM     71  C   UNL A   1      42.521  35.405  33.554  1.00  0.00     0.009 A 
ATOM     72  C   UNL A   1      43.500  36.192  31.486  1.00  0.00     0.009 A 
ATOM     73  C   UNL A   1      42.813  36.631  34.155  1.00  0.00     0.001 A 
ATOM     74  C   UNL A   1      43.812  37.408  32.097  1.00  0.00     0.001 A 
ATOM     75  C   UNL A   1      43.461  37.630  33.427  1.00  0.00     0.000 A 
ENDBRANCH  57  70
ENDBRANCH  31  32
ENDBRANCH  24  26
ENDBRANCH  23  24
ENDBRANCH  22  23
ENDBRANCH   1  22
TORSDOF 13
ENDMDL
MODEL 2
REMARK VINA RESULT:     -10.2      4.039      6.678
REMARK SMILES C[C@H](c1ccc(C(=O)OCCOC(=O)c2ccc(-c3c4nc(c(-c5ccccc5)c5ccc([nH]5)c(-c5ccccc5)c5nc(c(-c6ccccc6)c6ccc3[nH]6)C=C5)C=C4)cc2)o1)[NH+]1Cc2ccccc2C1
REMARK SMILES IDX 10 1 9 2 7 3 8 4 6 5 3 6 4 7 63 8 5 9 2 10 1 11 64 12 65 13
REMARK SMILES IDX 72 14 66 16 71 17 67 18 70 19 68 20 69 21 11 22 12 23 13 24
REMARK SMILES IDX 14 25 15 26 16 27 62 28 17 29 61 30 18 31 19 32 20 33 55 34
REMARK SMILES IDX 21 35 60 36 54 37 56 38 22 39 59 40 53 41 52 42 23 44 45 45
REMARK SMILES IDX 30 46 44 47 31 48 34 49 43 50 57 51 32 52 33 53 42 55 58 56
REMARK SMILES IDX 35 57 24 58 25 59 29 60 26 61 28 62 27 63 46 64 47 65 51 66
REMARK SMILES IDX 48 67 50 68 49 69 36 70 37 71 41 72 38 73 40 74 39 75
REMARK H PARENT 64 15 56 43 34 54
REMARK Flexibility Score: inf
ROOT
ATOM      1  C   UNL A   1      42.752  21.082  26.109  1.00  0.00     0.275 C 
ENDROOT
BRANCH   1   2
ATOM      2  O   UNL A   1      41.378  21.341  25.783  1.00  0.00    -0.456 OA
BRANCH   2   3
ATOM      3  C   UNL A   1      40.581  21.611  26.861  1.00  0.00     0.374 C 
ATOM      4  O   UNL A   1      40.900  21.421  28.020  1.00  0.00    -0.242 OA
BRANCH   3   5
ATOM      5  C   UNL A   1      39.368  22.256  26.421  1.00  0.00     0.212 A 
ATOM      6  C   UNL A   1      37.311  22.196  25.621  1.00  0.00     0.162 A 
ATOM      7  C   UNL A   1      37.549  23.505  25.991  1.00  0.00     0.053 A 
ATOM      8  O   UNL A   1      38.424  21.449  25.852  1.00  0.00    -0.448 OA
ATOM      9  C   UNL A   1      38.871  23.543  26.507  1.00  0.00     0.059 A 
BRANCH   6  10
ATOM     10  C   UNL A   1      36.160  21.458  24.981  1.00  0.00     0.248 C 
ATOM     11  C   UNL A   1      36.497  19.958  24.854  1.00  0.00     0.084 C 
BRANCH  10  12
ATOM     12  N   UNL A   1      34.855  21.864  25.585  1.00  0.00    -0.319 N 
ATOM     13  C   UNL A   1      33.916  20.722  25.758  1.00  0.00     0.300 C 
ATOM     14  C   UNL A   1      34.090  22.811  24.725  1.00  0.00     0.300 C 
ATOM     15  H   UNL A   1      35.133  22.279  26.474  1.00  0.00     0.349 HD
ATOM     16  C   UNL A   1      33.162  20.668  24.474  1.00  0.00     0.015 A 
ATOM     17  C   UNL A   1      33.231  21.926  23.870  1.00  0.00     0.015 A 
ATOM     18  C   UNL A   1      32.549  19.594  23.860  1.00  0.00     0.010 A 
ATOM     19  C   UNL A   1      32.648  22.158  22.642  1.00  0.00     0.010 A 
ATOM     20  C   UNL A   1      31.989  19.806  22.601  1.00  0.00     0.001 A 
ATOM     21  C   UNL A   1      32.028  21.079  22.004  1.00  0.00     0.001 A 
ENDBRANCH  10  12
ENDBRANCH   6  10
ENDBRANCH   3   5
ENDBRANCH   2   3
ENDBRANCH   1   2
BRANCH   1  22
ATOM     22  C   UNL A   1      43.689  21.842  25.164  1.00  0.00     0.275 C 
BRANCH  22  23
ATOM     23  O   UNL A   1      43.171  23.135  24.783  1.00  0.00    -0.458 OA
BRANCH  23  24
ATOM     24  C   UNL A   1      43.960  24.191  25.096  1.00  0.00     0.338 C 
ATOM     25  O   UNL A   1      45.038  24.475  24.599  1.00  0.00    -0.246 OA
BRANCH  24  26
ATOM     26  C   UNL A   1      43.304  25.048  26.100  1.00  0.00     0.060 A 
ATOM     27  C   UNL A   1      43.783  26.348  26.267  1.00  0.00     0.016 A 
ATOM     28  C   UNL A   1      42.318  24.553  26.954  1.00  0.00     0.016 A 
ATOM     29  C   UNL A   1      43.291  27.160  27.287  1.00  0.00     0.010 A 
ATOM     30  C   UNL A   1      41.818  25.371  27.978  1.00  0.00     0.010 A 
ATOM     31  C   UNL A   1      42.309  26.677  28.160  1.00  0.00    -0.014 A 
BRANCH  31  32
ATOM     32  C   UNL A   1      41.843  27.533  29.281  1.00  0.00     0.031 A 
ATOM     33  C   UNL A   1      42.578  27.532  30.592  1.00  0.00     0.074 A 
ATOM     34  C   UNL A   1      40.782  28.346  29.113  1.00  0.00     0.049 A 
ATOM     35  N   UNL A   1      42.294  28.169  31.701  1.00  0.00    -0.248 NA
ATOM     36  C   UNL A   1      43.795  26.710  30.667  1.00  0.00     0.031 C 
ATOM     37  C   UNL A   1      40.013  28.488  27.876  1.00  0.00     0.029 A 
ATOM     38  N   UNL A   1      40.174  29.213  29.987  1.00  0.00    -0.354 N 
ATOM     39  C   UNL A   1      43.278  27.805  32.611  1.00  0.00     0.074 A 
ATOM     40  C   UNL A   1      44.161  26.882  31.929  1.00  0.00     0.031 C 
ATOM     41  C   UNL A   1      39.043  29.398  28.068  1.00  0.00     0.029 A 
ATOM     42  C   UNL A   1      39.090  29.863  29.451  1.00  0.00     0.049 A 
ATOM     43  H   UNL A   1      40.485  29.353  30.912  1.00  0.00     0.167 HD
ATOM     44  C   UNL A   1      43.433  28.202  33.897  1.00  0.00     0.031 A 
ATOM     45  C   UNL A   1      38.215  30.718  30.014  1.00  0.00     0.031 A 
ATOM     46  C   UNL A   1      42.564  29.125  34.578  1.00  0.00     0.049 A 
ATOM     47  C   UNL A   1      38.371  31.091  31.461  1.00  0.00     0.074 A 
ATOM     48  C   UNL A   1      42.651  29.595  35.878  1.00  0.00     0.029 A 
ATOM     49  N   UNL A   1      41.447  29.721  34.014  1.00  0.00    -0.354 N 
ATOM     50  N   UNL A   1      39.301  30.730  32.312  1.00  0.00    -0.248 NA
ATOM     51  C   UNL A   1      37.350  31.986  32.027  1.00  0.00     0.031 C 
ATOM     52  C   UNL A   1      41.560  30.439  36.114  1.00  0.00     0.029 A 
ATOM     53  C   UNL A   1      40.822  30.534  34.945  1.00  0.00     0.049 A 
ATOM     54  H   UNL A   1      41.143  29.587  33.086  1.00  0.00     0.167 HD
ATOM     55  C   UNL A   1      38.987  31.365  33.507  1.00  0.00     0.074 A 
ATOM     56  C   UNL A   1      37.793  32.148  33.266  1.00  0.00     0.031 C 
ATOM     57  C   UNL A   1      39.631  31.302  34.697  1.00  0.00     0.031 A 
BRANCH  44  58
ATOM     58  C   UNL A   1      44.573  27.602  34.672  1.00  0.00    -0.014 A 
ATOM     59  C   UNL A   1      44.426  26.397  35.376  1.00  0.00     0.009 A 
ATOM     60  C   UNL A   1      45.823  28.240  34.669  1.00  0.00     0.009 A 
ATOM     61  C   UNL A   1      45.501  25.860  36.088  1.00  0.00     0.001 A 
ATOM     62  C   UNL A   1      46.902  27.688  35.362  1.00  0.00     0.001 A 
ATOM     63  C   UNL A   1      46.738  26.503  36.077  1.00  0.00     0.000 A 
ENDBRANCH  44  58
BRANCH  45  64
ATOM     64  C   UNL A   1      37.086  31.256  29.212  1.00  0.00    -0.014 A 
ATOM     65  C   UNL A   1      37.111  32.574  28.735  1.00  0.00     0.009 A 
ATOM     66  C   UNL A   1      35.973  30.449  28.925  1.00  0.00     0.009 A 
ATOM     67  C   UNL A   1      36.035  33.080  28.000  1.00  0.00     0.001 A 
ATOM     68  C   UNL A   1      34.912  30.949  28.167  1.00  0.00     0.001 A 
ATOM     69  C   UNL A   1      34.940  32.265  27.713  1.00  0.00     0.000 A 
ENDBRANCH  45  64
BRANCH  57  70
ATOM     70  C   UNL A   1      39.070  32.123  35.823  1.00  0.00    -0.014 A 
ATOM     71  C   UNL A   1      38.135  31.582  36.719  1.00  0.00     0.009 A 
ATOM     72  C   UNL A   1      39.505  33.444  36.007  1.00  0.00     0.009 A 
ATOM     73  C   UNL A   1      37.623  32.361  37.760  1.00  0.00     0.001 A 
ATOM     74  C   UNL A   1      39.011  34.212  37.064  1.00  0.00     0.001 A 
ATOM     75  C   UNL A   1      38.065  33.673  37.933  1.00  0.00     0.000 A 
ENDBRANCH  57  70
ENDBRANCH  31  32
ENDBRANCH  24  26
ENDBRANCH  23  24
ENDBRANCH  22  23
ENDBRANCH   1  22
TORSDOF 13
ENDMDL
MODEL 3
REMARK VINA RESULT:     -10.2      4.023     11.442
REMARK SMILES C[C@H](c1ccc(C(=O)OCCOC(=O)c2ccc(-c3c4nc(c(-c5ccccc5)c5ccc([nH]5)c(-c5ccccc5)c5nc(c(-c6ccccc6)c6ccc3[nH]6)C=C5)C=C4)cc2)o1)[NH+]1Cc2ccccc2C1
REMARK SMILES IDX 10 1 9 2 7 3 8 4 6 5 3 6 4 7 63 8 5 9 2 10 1 11 64 12 65 13
REMARK SMILES IDX 72 14 66 16 71 17 67 18 70 19 68 20 69 21 11 22 12 23 13 24
REMARK SMILES IDX 14 25 15 26 16 27 62 28 17 29 61 30 18 31 19 32 20 33 55 34
REMARK SMILES IDX 21 35 60 36 54 37 56 38 22 39 59 40 53 41 52 42 23 44 45 45
REMARK SMILES IDX 30 46 44 47 31 48 34 49 43 50 57 51 32 52 33 53 42 55 58 56
REMARK SMILES IDX 35 57 24 58 25 59 29 60 26 61 28 62 27 63 46 64 47 65 51 66
REMARK SMILES IDX 48 67 50 68 49 69 36 70 37 71 41 72 38 73 40 74 39 75
REMARK H PARENT 64 15 56 43 34 54
REMARK Flexibility Score: inf
ROOT
ATOM      1  C   UNL A   1      33.295  33.925  27.974  1.00  0.00     0.275 C 
ENDROOT
BRANCH   1   2
ATOM      2  O   UNL A   1      32.877  34.263  29.306  1.00  0.00    -0.456 OA
BRANCH   2   3
ATOM      3  C   UNL A   1      32.894  35.602  29.583  1.00  0.00     0.374 C 
ATOM      4  O   UNL A   1      32.457  36.465  28.845  1.00  0.00    -0.242 OA
BRANCH   3   5
ATOM      5  C   UNL A   1      33.396  35.817  30.919  1.00  0.00     0.212 A 
ATOM      6  C   UNL A   1      34.828  35.409  32.549  1.00  0.00     0.162 A 
ATOM      7  C   UNL A   1      34.072  36.492  32.954  1.00  0.00     0.053 A 
ATOM      8  O   UNL A   1      34.395  34.983  31.332  1.00  0.00    -0.448 OA
ATOM      9  C   UNL A   1      33.153  36.754  31.905  1.00  0.00     0.059 A 
BRANCH   6  10
ATOM     10  C   UNL A   1      35.936  34.590  33.163  1.00  0.00     0.248 C 
ATOM     11  C   UNL A   1      35.439  33.909  34.455  1.00  0.00     0.084 C 
BRANCH  10  12
ATOM     12  N   UNL A   1      36.640  33.770  32.130  1.00  0.00    -0.319 N 
ATOM     13  C   UNL A   1      37.151  32.478  32.665  1.00  0.00     0.300 C 
ATOM     14  C   UNL A   1      37.865  34.433  31.602  1.00  0.00     0.300 C 
ATOM     15  H   UNL A   1      35.925  33.640  31.415  1.00  0.00     0.349 HD
ATOM     16  C   UNL A   1      38.519  32.800  33.160  1.00  0.00     0.015 A 
ATOM     17  C   UNL A   1      38.966  33.947  32.499  1.00  0.00     0.015 A 
ATOM     18  C   UNL A   1      39.259  32.191  34.153  1.00  0.00     0.010 A 
ATOM     19  C   UNL A   1      40.197  34.499  32.787  1.00  0.00     0.010 A 
ATOM     20  C   UNL A   1      40.488  32.762  34.480  1.00  0.00     0.001 A 
ATOM     21  C   UNL A   1      40.957  33.898  33.796  1.00  0.00     0.001 A 
ENDBRANCH  10  12
ENDBRANCH   6  10
ENDBRANCH   3   5
ENDBRANCH   2   3
ENDBRANCH   1   2
BRANCH   1  22
ATOM     22  C   UNL A   1      33.275  32.407  27.766  1.00  0.00     0.275 C 
BRANCH  22  23
ATOM     23  O   UNL A   1      34.275  31.721  28.549  1.00  0.00    -0.458 OA
BRANCH  23  24
ATOM     24  C   UNL A   1      34.625  30.493  28.096  1.00  0.00     0.338 C 
ATOM     25  O   UNL A   1      33.950  29.745  27.406  1.00  0.00    -0.246 OA
BRANCH  24  26
ATOM     26  C   UNL A   1      36.011  30.173  28.480  1.00  0.00     0.060 A 
ATOM     27  C   UNL A   1      36.996  30.223  27.493  1.00  0.00     0.016 A 
ATOM     28  C   UNL A   1      36.328  29.709  29.758  1.00  0.00     0.016 A 
ATOM     29  C   UNL A   1      38.297  29.807  27.765  1.00  0.00     0.010 A 
ATOM     30  C   UNL A   1      37.640  29.294  30.035  1.00  0.00     0.010 A 
ATOM     31  C   UNL A   1      38.631  29.329  29.037  1.00  0.00    -0.014 A 
BRANCH  31  32
ATOM     32  C   UNL A   1      40.006  28.828  29.291  1.00  0.00     0.031 A 
ATOM     33  C   UNL A   1      40.998  29.678  30.035  1.00  0.00     0.074 A 
ATOM     34  C   UNL A   1      40.358  27.591  28.891  1.00  0.00     0.049 A 
ATOM     35  N   UNL A   1      42.257  29.436  30.307  1.00  0.00    -0.248 NA
ATOM     36  C   UNL A   1      40.510  30.969  30.544  1.00  0.00     0.031 C 
ATOM     37  C   UNL A   1      39.479  26.639  28.211  1.00  0.00     0.029 A 
ATOM     38  N   UNL A   1      41.551  26.919  29.009  1.00  0.00    -0.354 N 
ATOM     39  C   UNL A   1      42.718  30.552  30.993  1.00  0.00     0.074 A 
ATOM     40  C   UNL A   1      41.608  31.477  31.086  1.00  0.00     0.031 C 
ATOM     41  C   UNL A   1      40.158  25.503  27.983  1.00  0.00     0.029 A 
ATOM     42  C   UNL A   1      41.531  25.664  28.452  1.00  0.00     0.049 A 
ATOM     43  H   UNL A   1      42.344  27.303  29.449  1.00  0.00     0.167 HD
ATOM     44  C   UNL A   1      43.952  30.786  31.500  1.00  0.00     0.031 A 
ATOM     45  C   UNL A   1      42.513  24.753  28.312  1.00  0.00     0.031 A 
ATOM     46  C   UNL A   1      45.057  29.868  31.417  1.00  0.00     0.049 A 
ATOM     47  C   UNL A   1      43.891  25.064  28.824  1.00  0.00     0.074 A 
ATOM     48  C   UNL A   1      46.342  30.016  31.913  1.00  0.00     0.029 A 
ATOM     49  N   UNL A   1      45.009  28.628  30.800  1.00  0.00    -0.354 N 
ATOM     50  N   UNL A   1      44.315  26.129  29.461  1.00  0.00    -0.248 NA
ATOM     51  C   UNL A   1      44.928  24.049  28.590  1.00  0.00     0.031 C 
ATOM     52  C   UNL A   1      47.084  28.885  31.554  1.00  0.00     0.029 A 
ATOM     53  C   UNL A   1      46.247  28.011  30.879  1.00  0.00     0.049 A 
ATOM     54  H   UNL A   1      44.212  28.242  30.368  1.00  0.00     0.167 HD
ATOM     55  C   UNL A   1      45.661  25.905  29.718  1.00  0.00     0.074 A 
ATOM     56  C   UNL A   1      45.979  24.596  29.185  1.00  0.00     0.031 C 
ATOM     57  C   UNL A   1      46.554  26.713  30.339  1.00  0.00     0.031 A 
BRANCH  44  58
ATOM     58  C   UNL A   1      44.187  32.118  32.157  1.00  0.00    -0.014 A 
ATOM     59  C   UNL A   1      44.394  33.282  31.402  1.00  0.00     0.009 A 
ATOM     60  C   UNL A   1      44.169  32.209  33.558  1.00  0.00     0.009 A 
ATOM     61  C   UNL A   1      44.610  34.506  32.038  1.00  0.00     0.001 A 
ATOM     62  C   UNL A   1      44.361  33.439  34.190  1.00  0.00     0.001 A 
ATOM     63  C   UNL A   1      44.590  34.585  33.430  1.00  0.00     0.000 A 
ENDBRANCH  44  58
BRANCH  45  64
ATOM     64  C   UNL A   1      42.235  23.466  27.623  1.00  0.00    -0.014 A 
ATOM     65  C   UNL A   1      41.618  22.408  28.305  1.00  0.00     0.009 A 
ATOM     66  C   UNL A   1      42.594  23.292  26.277  1.00  0.00     0.009 A 
ATOM     67  C   UNL A   1      41.380  21.193  27.656  1.00  0.00     0.001 A 
ATOM     68  C   UNL A   1      42.330  22.086  25.624  1.00  0.00     0.001 A 
ATOM     69  C   UNL A   1      41.732  21.036  26.316  1.00  0.00     0.000 A 
ENDBRANCH  45  64
BRANCH  57  70
ATOM     70  C   UNL A   1      47.954  26.193  30.497  1.00  0.00    -0.014 A 
ATOM     71  C   UNL A   1      48.876  26.259  29.440  1.00  0.00     0.009 A 
ATOM     72  C   UNL A   1      48.364  25.657  31.727  1.00  0.00     0.009 A 
ATOM     73  C   UNL A   1      50.174  25.770  29.605  1.00  0.00     0.001 A 
ATOM     74  C   UNL A   1      49.670  25.192  31.897  1.00  0.00     0.001 A 
ATOM     75  C   UNL A   1      50.570  25.240  30.834  1.00  0.00     0.000 A 
ENDBRANCH  57  70
ENDBRANCH  31  32
ENDBRANCH  24  26
ENDBRANCH  23  24
ENDBRANCH  22  23
ENDBRANCH   1  22
TORSDOF 13
ENDMDL
