MODEL 1
REMARK VINA RESULT:     -13.0      0.000      0.000
REMARK SMILES Cc1ccccc1/[NH+]=C1\S[C@@H](CC(=O)Nc2ccc(C(=O)OCCOC(=O)c3ccc(-c4c5nc(c(-c6ccccc6)c6ccc([nH]6)c(-c6ccccc6)c6nc(c(-c7ccccc7)c7ccc4[nH]7)C=C6)C=C5)cc3)cc2)C(=O)N1C
REMARK SMILES IDX 23 1 22 2 20 3 21 4 19 5 16 6 17 7 77 8 18 9 76 10 15 11
REMARK SMILES IDX 13 12 14 13 12 15 11 16 8 17 9 18 10 20 80 21 78 22 81 23
REMARK SMILES IDX 79 24 7 25 1 26 2 27 3 28 4 29 6 30 5 31 24 32 25 33 26 34
REMARK SMILES IDX 27 35 28 36 29 37 75 38 30 39 74 40 31 41 32 42 33 43 68 44
REMARK SMILES IDX 34 45 73 46 67 47 69 48 35 49 72 50 66 51 65 52 36 54 58 55
REMARK SMILES IDX 43 56 57 57 44 58 47 59 56 60 70 61 45 62 46 63 55 65 71 66
REMARK SMILES IDX 48 67 37 68 38 69 42 70 39 71 41 72 40 73 59 74 60 75 64 76
REMARK SMILES IDX 61 77 63 78 62 79 49 80 50 81 54 82 51 83 53 84 52 85
REMARK H PARENT 15 14 8 19 69 53 47 64
REMARK Flexibility Score: inf
ROOT
ATOM      1  C   UNL A   1      31.530  31.825  26.823  1.00  0.00     0.275 C 
ENDROOT
BRANCH   1   2
ATOM      2  O   UNL A   1      32.272  30.685  27.275  1.00  0.00    -0.458 OA
BRANCH   2   3
ATOM      3  C   UNL A   1      31.869  29.519  26.719  1.00  0.00     0.338 C 
ATOM      4  O   UNL A   1      31.472  28.521  27.300  1.00  0.00    -0.246 OA
BRANCH   3   5
ATOM      5  C   UNL A   1      32.073  29.529  25.265  1.00  0.00     0.060 A 
ATOM      6  C   UNL A   1      32.337  28.444  22.751  1.00  0.00     0.041 A 
ATOM      7  C   UNL A   1      33.476  28.660  23.524  1.00  0.00     0.027 A 
ATOM      8  C   UNL A   1      31.110  28.985  23.118  1.00  0.00     0.027 A 
ATOM      9  C   UNL A   1      33.341  29.184  24.807  1.00  0.00     0.018 A 
ATOM     10  C   UNL A   1      30.973  29.511  24.398  1.00  0.00     0.018 A 
BRANCH   6  11
ATOM     11  N   UNL A   1      32.369  27.398  21.820  1.00  0.00    -0.326 N 
ATOM     12  C   UNL A   1      32.023  26.099  22.152  1.00  0.00     0.226 C 
ATOM     13  O   UNL A   1      32.439  25.165  21.464  1.00  0.00    -0.275 OA
ATOM     14  H   UNL A   1      32.648  27.593  20.896  1.00  0.00     0.169 HD
BRANCH  12  15
ATOM     15  C   UNL A   1      31.088  25.842  23.329  1.00  0.00     0.128 C 
BRANCH  15  16
ATOM     16  C   UNL A   1      31.645  24.920  24.398  1.00  0.00     0.183 C 
ATOM     17  N   UNL A   1      32.192  21.709  26.009  1.00  0.00    -0.234 N 
ATOM     18  C   UNL A   1      31.569  22.593  25.321  1.00  0.00     0.319 C 
ATOM     19  H   UNL A   1      31.757  21.488  26.865  1.00  0.00     0.313 HD
ATOM     20  S   UNL A   1      31.795  23.214  23.727  1.00  0.00    -0.022 SA
ATOM     21  N   UNL A   1      30.626  23.361  25.929  1.00  0.00    -0.193 N 
ATOM     22  C   UNL A   1      30.822  24.700  25.666  1.00  0.00     0.324 C 
ATOM     23  C   UNL A   1      29.837  22.888  27.051  1.00  0.00     0.301 C 
ATOM     24  O   UNL A   1      30.556  25.599  26.457  1.00  0.00    -0.245 OA
BRANCH  17  25
ATOM     25  C   UNL A   1      33.374  20.998  25.772  1.00  0.00     0.128 A 
ATOM     26  C   UNL A   1      32.494  19.044  24.312  1.00  0.00     0.049 C 
ATOM     27  C   UNL A   1      33.573  19.858  24.965  1.00  0.00    -0.004 A 
ATOM     28  C   UNL A   1      34.888  19.434  24.673  1.00  0.00     0.008 A 
ATOM     29  C   UNL A   1      35.995  20.174  25.069  1.00  0.00     0.001 A 
ATOM     30  C   UNL A   1      34.520  21.713  26.173  1.00  0.00     0.052 A 
ATOM     31  C   UNL A   1      35.811  21.327  25.812  1.00  0.00     0.004 A 
ENDBRANCH  17  25
ENDBRANCH  15  16
ENDBRANCH  12  15
ENDBRANCH   6  11
ENDBRANCH   3   5
ENDBRANCH   2   3
ENDBRANCH   1   2
BRANCH   1  32
ATOM     32  C   UNL A   1      32.338  33.123  26.957  1.00  0.00     0.275 C 
BRANCH  32  33
ATOM     33  O   UNL A   1      32.187  33.902  28.180  1.00  0.00    -0.458 OA
BRANCH  33  34
ATOM     34  C   UNL A   1      33.131  34.620  28.849  1.00  0.00     0.338 C 
ATOM     35  O   UNL A   1      32.936  35.732  29.276  1.00  0.00    -0.246 OA
BRANCH  34  36
ATOM     36  C   UNL A   1      34.414  33.938  29.079  1.00  0.00     0.060 A 
ATOM     37  C   UNL A   1      34.440  32.863  29.973  1.00  0.00     0.016 A 
ATOM     38  C   UNL A   1      35.529  34.291  28.327  1.00  0.00     0.016 A 
ATOM     39  C   UNL A   1      35.555  32.039  30.022  1.00  0.00     0.010 A 
ATOM     40  C   UNL A   1      36.587  33.420  28.281  1.00  0.00     0.010 A 
ATOM     41  C   UNL A   1      36.605  32.318  29.148  1.00  0.00    -0.014 A 
BRANCH  41  42
ATOM     42  C   UNL A   1      37.932  31.780  29.355  1.00  0.00     0.031 A 
ATOM     43  C   UNL A   1      38.318  30.471  28.817  1.00  0.00     0.074 A 
ATOM     44  C   UNL A   1      38.697  32.645  30.058  1.00  0.00     0.049 A 
ATOM     45  N   UNL A   1      39.089  29.647  29.437  1.00  0.00    -0.248 NA
ATOM     46  C   UNL A   1      37.818  29.936  27.546  1.00  0.00     0.031 C 
ATOM     47  C   UNL A   1      40.114  32.687  30.349  1.00  0.00     0.029 A 
ATOM     48  N   UNL A   1      38.197  33.696  30.818  1.00  0.00    -0.354 N 
ATOM     49  C   UNL A   1      39.492  28.720  28.498  1.00  0.00     0.074 A 
ATOM     50  C   UNL A   1      38.547  28.817  27.413  1.00  0.00     0.031 C 
ATOM     51  C   UNL A   1      40.303  33.494  31.418  1.00  0.00     0.029 A 
ATOM     52  C   UNL A   1      38.989  33.889  31.927  1.00  0.00     0.049 A 
ATOM     53  H   UNL A   1      37.395  34.223  30.597  1.00  0.00     0.167 HD
ATOM     54  C   UNL A   1      40.737  28.178  28.600  1.00  0.00     0.031 A 
ATOM     55  C   UNL A   1      38.469  33.558  33.148  1.00  0.00     0.031 A 
ATOM     56  C   UNL A   1      41.450  28.785  29.719  1.00  0.00     0.049 A 
ATOM     57  C   UNL A   1      39.196  32.355  33.704  1.00  0.00     0.074 A 
ATOM     58  C   UNL A   1      42.304  29.877  29.752  1.00  0.00     0.029 A 
ATOM     59  N   UNL A   1      41.003  28.585  31.016  1.00  0.00    -0.354 N 
ATOM     60  N   UNL A   1      39.645  31.366  32.979  1.00  0.00    -0.248 NA
ATOM     61  C   UNL A   1      39.543  32.238  35.113  1.00  0.00     0.031 C 
ATOM     62  C   UNL A   1      42.329  30.367  31.079  1.00  0.00     0.029 A 
ATOM     63  C   UNL A   1      41.487  29.579  31.845  1.00  0.00     0.049 A 
ATOM     64  H   UNL A   1      40.424  27.843  31.305  1.00  0.00     0.167 HD
ATOM     65  C   UNL A   1      40.442  30.572  33.765  1.00  0.00     0.074 A 
ATOM     66  C   UNL A   1      40.311  31.135  35.098  1.00  0.00     0.031 C 
ATOM     67  C   UNL A   1      41.207  29.553  33.270  1.00  0.00     0.031 A 
BRANCH  54  68
ATOM     68  C   UNL A   1      41.436  27.442  27.488  1.00  0.00    -0.014 A 
ATOM     69  C   UNL A   1      41.785  28.143  26.315  1.00  0.00     0.009 A 
ATOM     70  C   UNL A   1      41.784  26.083  27.530  1.00  0.00     0.009 A 
ATOM     71  C   UNL A   1      42.394  27.520  25.221  1.00  0.00     0.001 A 
ATOM     72  C   UNL A   1      42.389  25.449  26.430  1.00  0.00     0.001 A 
ATOM     73  C   UNL A   1      42.687  26.166  25.274  1.00  0.00     0.000 A 
ENDBRANCH  54  68
BRANCH  55  74
ATOM     74  C   UNL A   1      36.999  33.830  33.335  1.00  0.00    -0.014 A 
ATOM     75  C   UNL A   1      36.483  35.084  32.926  1.00  0.00     0.009 A 
ATOM     76  C   UNL A   1      36.072  32.839  33.687  1.00  0.00     0.009 A 
ATOM     77  C   UNL A   1      35.109  35.301  32.768  1.00  0.00     0.001 A 
ATOM     78  C   UNL A   1      34.689  33.069  33.559  1.00  0.00     0.001 A 
ATOM     79  C   UNL A   1      34.210  34.286  33.073  1.00  0.00     0.000 A 
ENDBRANCH  55  74
BRANCH  67  80
ATOM     80  C   UNL A   1      41.890  28.477  34.075  1.00  0.00    -0.014 A 
ATOM     81  C   UNL A   1      41.271  27.299  34.502  1.00  0.00     0.009 A 
ATOM     82  C   UNL A   1      43.286  28.575  34.302  1.00  0.00     0.009 A 
ATOM     83  C   UNL A   1      41.992  26.300  35.164  1.00  0.00     0.001 A 
ATOM     84  C   UNL A   1      44.020  27.554  34.901  1.00  0.00     0.001 A 
ATOM     85  C   UNL A   1      43.366  26.418  35.349  1.00  0.00     0.000 A 
ENDBRANCH  67  80
ENDBRANCH  41  42
ENDBRANCH  34  36
ENDBRANCH  33  34
ENDBRANCH  32  33
ENDBRANCH   1  32
TORSDOF 15
ENDMDL
MODEL 2
REMARK VINA RESULT:     -12.9      4.735     10.152
REMARK SMILES Cc1ccccc1/[NH+]=C1\S[C@@H](CC(=O)Nc2ccc(C(=O)OCCOC(=O)c3ccc(-c4c5nc(c(-c6ccccc6)c6ccc([nH]6)c(-c6ccccc6)c6nc(c(-c7ccccc7)c7ccc4[nH]7)C=C6)C=C5)cc3)cc2)C(=O)N1C
REMARK SMILES IDX 23 1 22 2 20 3 21 4 19 5 16 6 17 7 77 8 18 9 76 10 15 11
REMARK SMILES IDX 13 12 14 13 12 15 11 16 8 17 9 18 10 20 80 21 78 22 81 23
REMARK SMILES IDX 79 24 7 25 1 26 2 27 3 28 4 29 6 30 5 31 24 32 25 33 26 34
REMARK SMILES IDX 27 35 28 36 29 37 75 38 30 39 74 40 31 41 32 42 33 43 68 44
REMARK SMILES IDX 34 45 73 46 67 47 69 48 35 49 72 50 66 51 65 52 36 54 58 55
REMARK SMILES IDX 43 56 57 57 44 58 47 59 56 60 70 61 45 62 46 63 55 65 71 66
REMARK SMILES IDX 48 67 37 68 38 69 42 70 39 71 41 72 40 73 59 74 60 75 64 76
REMARK SMILES IDX 61 77 63 78 62 79 49 80 50 81 54 82 51 83 53 84 52 85
REMARK H PARENT 15 14 8 19 69 53 47 64
REMARK Flexibility Score: inf
ROOT
ATOM      1  C   UNL A   1      43.289  18.497  25.365  1.00  0.00     0.275 C 
ENDROOT
BRANCH   1   2
ATOM      2  O   UNL A   1      42.093  19.287  25.349  1.00  0.00    -0.458 OA
BRANCH   2   3
ATOM      3  C   UNL A   1      41.733  19.754  26.566  1.00  0.00     0.338 C 
ATOM      4  O   UNL A   1      42.351  19.644  27.614  1.00  0.00    -0.246 OA
BRANCH   3   5
ATOM      5  C   UNL A   1      40.390  20.348  26.527  1.00  0.00     0.060 A 
ATOM      6  C   UNL A   1      38.362  21.927  25.546  1.00  0.00     0.041 A 
ATOM      7  C   UNL A   1      39.228  22.447  26.507  1.00  0.00     0.027 A 
ATOM      8  C   UNL A   1      38.347  20.567  25.258  1.00  0.00     0.027 A 
ATOM      9  C   UNL A   1      40.272  21.658  26.984  1.00  0.00     0.018 A 
ATOM     10  C   UNL A   1      39.388  19.777  25.734  1.00  0.00     0.018 A 
BRANCH   6  11
ATOM     11  N   UNL A   1      37.779  22.823  24.641  1.00  0.00    -0.326 N 
ATOM     12  C   UNL A   1      36.458  23.225  24.743  1.00  0.00     0.226 C 
ATOM     13  O   UNL A   1      35.878  23.663  23.748  1.00  0.00    -0.275 OA
ATOM     14  H   UNL A   1      38.328  23.179  23.905  1.00  0.00     0.169 HD
BRANCH  12  15
ATOM     15  C   UNL A   1      35.754  23.176  26.095  1.00  0.00     0.128 C 
BRANCH  15  16
ATOM     16  C   UNL A   1      34.718  22.076  26.236  1.00  0.00     0.183 C 
ATOM     17  N   UNL A   1      32.173  19.784  25.021  1.00  0.00    -0.234 N 
ATOM     18  C   UNL A   1      32.868  20.860  25.064  1.00  0.00     0.319 C 
ATOM     19  H   UNL A   1      31.223  19.911  25.248  1.00  0.00     0.313 HD
ATOM     20  S   UNL A   1      34.494  21.226  24.619  1.00  0.00    -0.022 SA
ATOM     21  N   UNL A   1      32.368  21.945  25.714  1.00  0.00    -0.193 N 
ATOM     22  C   UNL A   1      33.287  22.470  26.597  1.00  0.00     0.324 C 
ATOM     23  C   UNL A   1      30.945  22.211  25.810  1.00  0.00     0.301 C 
ATOM     24  O   UNL A   1      32.986  23.007  27.657  1.00  0.00    -0.245 OA
BRANCH  17  25
ATOM     25  C   UNL A   1      32.511  18.461  24.711  1.00  0.00     0.128 A 
ATOM     26  C   UNL A   1      32.528  18.547  22.119  1.00  0.00     0.049 C 
ATOM     27  C   UNL A   1      32.756  17.885  23.446  1.00  0.00    -0.004 A 
ATOM     28  C   UNL A   1      33.313  16.589  23.370  1.00  0.00     0.008 A 
ATOM     29  C   UNL A   1      33.730  15.908  24.507  1.00  0.00     0.001 A 
ATOM     30  C   UNL A   1      32.928  17.734  25.844  1.00  0.00     0.052 A 
ATOM     31  C   UNL A   1      33.549  16.489  25.750  1.00  0.00     0.004 A 
ENDBRANCH  17  25
ENDBRANCH  15  16
ENDBRANCH  12  15
ENDBRANCH   6  11
ENDBRANCH   3   5
ENDBRANCH   2   3
ENDBRANCH   1   2
BRANCH   1  32
ATOM     32  C   UNL A   1      44.437  19.183  24.612  1.00  0.00     0.275 C 
BRANCH  32  33
ATOM     33  O   UNL A   1      44.814  20.532  25.016  1.00  0.00    -0.458 OA
BRANCH  33  34
ATOM     34  C   UNL A   1      44.546  21.711  24.388  1.00  0.00     0.338 C 
ATOM     35  O   UNL A   1      44.529  21.832  23.188  1.00  0.00    -0.246 OA
BRANCH  34  36
ATOM     36  C   UNL A   1      44.219  22.845  25.266  1.00  0.00     0.060 A 
ATOM     37  C   UNL A   1      44.071  22.601  26.635  1.00  0.00     0.016 A 
ATOM     38  C   UNL A   1      44.179  24.134  24.745  1.00  0.00     0.016 A 
ATOM     39  C   UNL A   1      44.019  23.668  27.519  1.00  0.00     0.010 A 
ATOM     40  C   UNL A   1      44.247  25.191  25.615  1.00  0.00     0.010 A 
ATOM     41  C   UNL A   1      44.138  24.953  26.992  1.00  0.00    -0.014 A 
BRANCH  41  42
ATOM     42  C   UNL A   1      43.737  26.124  27.741  1.00  0.00     0.031 A 
ATOM     43  C   UNL A   1      42.384  26.681  27.622  1.00  0.00     0.074 A 
ATOM     44  C   UNL A   1      44.746  26.563  28.525  1.00  0.00     0.049 A 
ATOM     45  N   UNL A   1      42.130  27.942  27.642  1.00  0.00    -0.248 NA
ATOM     46  C   UNL A   1      41.186  25.863  27.406  1.00  0.00     0.031 C 
ATOM     47  C   UNL A   1      44.806  27.539  29.592  1.00  0.00     0.029 A 
ATOM     48  N   UNL A   1      46.081  26.216  28.353  1.00  0.00    -0.354 N 
ATOM     49  C   UNL A   1      40.772  28.056  27.857  1.00  0.00     0.074 A 
ATOM     50  C   UNL A   1      40.207  26.774  27.514  1.00  0.00     0.031 C 
ATOM     51  C   UNL A   1      46.097  27.910  29.755  1.00  0.00     0.029 A 
ATOM     52  C   UNL A   1      46.888  27.275  28.700  1.00  0.00     0.049 A 
ATOM     53  H   UNL A   1      46.402  25.343  28.029  1.00  0.00     0.167 HD
ATOM     54  C   UNL A   1      40.305  29.116  28.573  1.00  0.00     0.031 A 
ATOM     55  C   UNL A   1      47.557  27.923  27.698  1.00  0.00     0.031 A 
ATOM     56  C   UNL A   1      41.424  29.922  29.049  1.00  0.00     0.049 A 
ATOM     57  C   UNL A   1      46.994  29.315  27.526  1.00  0.00     0.074 A 
ATOM     58  C   UNL A   1      42.124  29.869  30.244  1.00  0.00     0.029 A 
ATOM     59  N   UNL A   1      42.230  30.593  28.141  1.00  0.00    -0.354 N 
ATOM     60  N   UNL A   1      45.734  29.623  27.674  1.00  0.00    -0.248 NA
ATOM     61  C   UNL A   1      47.840  30.470  27.262  1.00  0.00     0.031 C 
ATOM     62  C   UNL A   1      43.386  30.474  30.036  1.00  0.00     0.029 A 
ATOM     63  C   UNL A   1      43.453  30.884  28.716  1.00  0.00     0.049 A 
ATOM     64  H   UNL A   1      41.970  30.827  27.221  1.00  0.00     0.167 HD
ATOM     65  C   UNL A   1      45.613  30.991  27.671  1.00  0.00     0.074 A 
ATOM     66  C   UNL A   1      46.950  31.471  27.367  1.00  0.00     0.031 C 
ATOM     67  C   UNL A   1      44.452  31.642  27.980  1.00  0.00     0.031 A 
BRANCH  54  68
ATOM     68  C   UNL A   1      38.929  29.191  29.178  1.00  0.00    -0.014 A 
ATOM     69  C   UNL A   1      37.863  29.688  28.399  1.00  0.00     0.009 A 
ATOM     70  C   UNL A   1      38.612  28.789  30.485  1.00  0.00     0.009 A 
ATOM     71  C   UNL A   1      36.567  29.831  28.903  1.00  0.00     0.001 A 
ATOM     72  C   UNL A   1      37.312  28.939  31.000  1.00  0.00     0.001 A 
ATOM     73  C   UNL A   1      36.292  29.466  30.212  1.00  0.00     0.000 A 
ENDBRANCH  54  68
BRANCH  55  74
ATOM     74  C   UNL A   1      48.057  27.057  26.571  1.00  0.00    -0.014 A 
ATOM     75  C   UNL A   1      47.289  26.979  25.383  1.00  0.00     0.009 A 
ATOM     76  C   UNL A   1      49.342  26.497  26.544  1.00  0.00     0.009 A 
ATOM     77  C   UNL A   1      47.822  26.467  24.193  1.00  0.00     0.001 A 
ATOM     78  C   UNL A   1      49.864  25.953  25.354  1.00  0.00     0.001 A 
ATOM     79  C   UNL A   1      49.117  25.966  24.176  1.00  0.00     0.000 A 
ENDBRANCH  55  74
BRANCH  67  80
ATOM     80  C   UNL A   1      44.156  33.102  27.746  1.00  0.00    -0.014 A 
ATOM     81  C   UNL A   1      44.028  34.052  28.762  1.00  0.00     0.009 A 
ATOM     82  C   UNL A   1      44.148  33.593  26.417  1.00  0.00     0.009 A 
ATOM     83  C   UNL A   1      43.848  35.408  28.469  1.00  0.00     0.001 A 
ATOM     84  C   UNL A   1      44.037  34.950  26.121  1.00  0.00     0.001 A 
ATOM     85  C   UNL A   1      43.868  35.859  27.153  1.00  0.00     0.000 A 
ENDBRANCH  67  80
ENDBRANCH  41  42
ENDBRANCH  34  36
ENDBRANCH  33  34
ENDBRANCH  32  33
ENDBRANCH   1  32
TORSDOF 15
ENDMDL
MODEL 3
REMARK VINA RESULT:     -12.7      4.759     10.341
REMARK SMILES Cc1ccccc1/[NH+]=C1\S[C@@H](CC(=O)Nc2ccc(C(=O)OCCOC(=O)c3ccc(-c4c5nc(c(-c6ccccc6)c6ccc([nH]6)c(-c6ccccc6)c6nc(c(-c7ccccc7)c7ccc4[nH]7)C=C6)C=C5)cc3)cc2)C(=O)N1C
REMARK SMILES IDX 23 1 22 2 20 3 21 4 19 5 16 6 17 7 77 8 18 9 76 10 15 11
REMARK SMILES IDX 13 12 14 13 12 15 11 16 8 17 9 18 10 20 80 21 78 22 81 23
REMARK SMILES IDX 79 24 7 25 1 26 2 27 3 28 4 29 6 30 5 31 24 32 25 33 26 34
REMARK SMILES IDX 27 35 28 36 29 37 75 38 30 39 74 40 31 41 32 42 33 43 68 44
REMARK SMILES IDX 34 45 73 46 67 47 69 48 35 49 72 50 66 51 65 52 36 54 58 55
REMARK SMILES IDX 43 56 57 57 44 58 47 59 56 60 70 61 45 62 46 63 55 65 71 66
REMARK SMILES IDX 48 67 37 68 38 69 42 70 39 71 41 72 40 73 59 74 60 75 64 76
REMARK SMILES IDX 61 77 63 78 62 79 49 80 50 81 54 82 51 83 53 84 52 85
REMARK H PARENT 15 14 8 19 69 53 47 64
REMARK Flexibility Score: inf
ROOT
ATOM      1  C   UNL A   1      42.629  19.326  26.219  1.00  0.00     0.275 C 
ENDROOT
BRANCH   1   2
ATOM      2  O   UNL A   1      41.584  20.194  25.763  1.00  0.00    -0.458 OA
BRANCH   2   3
ATOM      3  C   UNL A   1      41.146  21.060  26.705  1.00  0.00     0.338 C 
ATOM      4  O   UNL A   1      41.747  21.439  27.699  1.00  0.00    -0.246 OA
BRANCH   3   5
ATOM      5  C   UNL A   1      39.748  21.441  26.463  1.00  0.00     0.060 A 
ATOM      6  C   UNL A   1      37.645  22.564  25.090  1.00  0.00     0.041 A 
ATOM      7  C   UNL A   1      38.326  23.325  26.038  1.00  0.00     0.027 A 
ATOM      8  C   UNL A   1      37.843  21.190  25.001  1.00  0.00     0.027 A 
ATOM      9  C   UNL A   1      39.408  22.767  26.714  1.00  0.00     0.018 A 
ATOM     10  C   UNL A   1      38.922  20.630  25.676  1.00  0.00     0.018 A 
BRANCH   6  11
ATOM     11  N   UNL A   1      37.048  23.238  24.018  1.00  0.00    -0.326 N 
ATOM     12  C   UNL A   1      35.725  23.042  23.663  1.00  0.00     0.226 C 
ATOM     13  O   UNL A   1      35.356  23.316  22.519  1.00  0.00    -0.275 OA
ATOM     14  H   UNL A   1      37.590  23.875  23.497  1.00  0.00     0.169 HD
BRANCH  12  15
ATOM     15  C   UNL A   1      34.727  22.545  24.704  1.00  0.00     0.128 C 
BRANCH  15  16
ATOM     16  C   UNL A   1      33.410  23.299  24.736  1.00  0.00     0.183 C 
ATOM     17  N   UNL A   1      30.963  25.581  26.155  1.00  0.00    -0.234 N 
ATOM     18  C   UNL A   1      31.910  24.717  26.155  1.00  0.00     0.319 C 
ATOM     19  H   UNL A   1      30.118  25.249  26.535  1.00  0.00     0.313 HD
ATOM     20  S   UNL A   1      33.588  24.813  25.766  1.00  0.00    -0.022 SA
ATOM     21  N   UNL A   1      31.607  23.403  26.333  1.00  0.00    -0.193 N 
ATOM     22  C   UNL A   1      32.200  22.615  25.371  1.00  0.00     0.324 C 
ATOM     23  C   UNL A   1      30.467  22.964  27.117  1.00  0.00     0.301 C 
ATOM     24  O   UNL A   1      31.700  21.587  24.925  1.00  0.00    -0.245 OA
BRANCH  17  25
ATOM     25  C   UNL A   1      30.907  26.909  25.716  1.00  0.00     0.128 A 
ATOM     26  C   UNL A   1      32.191  28.117  27.617  1.00  0.00     0.049 C 
ATOM     27  C   UNL A   1      31.500  28.055  26.287  1.00  0.00    -0.004 A 
ATOM     28  C   UNL A   1      31.516  29.264  25.558  1.00  0.00     0.008 A 
ATOM     29  C   UNL A   1      31.061  29.331  24.247  1.00  0.00     0.001 A 
ATOM     30  C   UNL A   1      30.436  27.017  24.392  1.00  0.00     0.052 A 
ATOM     31  C   UNL A   1      30.530  28.198  23.655  1.00  0.00     0.004 A 
ENDBRANCH  17  25
ENDBRANCH  15  16
ENDBRANCH  12  15
ENDBRANCH   6  11
ENDBRANCH   3   5
ENDBRANCH   2   3
ENDBRANCH   1   2
BRANCH   1  32
ATOM     32  C   UNL A   1      43.870  19.405  25.319  1.00  0.00     0.275 C 
BRANCH  32  33
ATOM     33  O   UNL A   1      44.224  20.699  24.749  1.00  0.00    -0.458 OA
BRANCH  33  34
ATOM     34  C   UNL A   1      45.236  21.536  25.109  1.00  0.00     0.338 C 
ATOM     35  O   UNL A   1      46.390  21.346  24.808  1.00  0.00    -0.246 OA
BRANCH  34  36
ATOM     36  C   UNL A   1      44.839  22.740  25.856  1.00  0.00     0.060 A 
ATOM     37  C   UNL A   1      44.693  22.639  27.243  1.00  0.00     0.016 A 
ATOM     38  C   UNL A   1      44.734  23.960  25.196  1.00  0.00     0.016 A 
ATOM     39  C   UNL A   1      44.575  23.792  28.005  1.00  0.00     0.010 A 
ATOM     40  C   UNL A   1      44.736  25.108  25.945  1.00  0.00     0.010 A 
ATOM     41  C   UNL A   1      44.627  25.016  27.340  1.00  0.00    -0.014 A 
BRANCH  41  42
ATOM     42  C   UNL A   1      44.156  26.238  27.954  1.00  0.00     0.031 A 
ATOM     43  C   UNL A   1      42.780  26.710  27.759  1.00  0.00     0.074 A 
ATOM     44  C   UNL A   1      45.128  26.807  28.702  1.00  0.00     0.049 A 
ATOM     45  N   UNL A   1      42.465  27.952  27.641  1.00  0.00    -0.248 NA
ATOM     46  C   UNL A   1      41.628  25.815  27.615  1.00  0.00     0.031 C 
ATOM     47  C   UNL A   1      45.120  27.892  29.659  1.00  0.00     0.029 A 
ATOM     48  N   UNL A   1      46.481  26.511  28.585  1.00  0.00    -0.354 N 
ATOM     49  C   UNL A   1      41.099  28.020  27.824  1.00  0.00     0.074 A 
ATOM     50  C   UNL A   1      40.603  26.682  27.612  1.00  0.00     0.031 C 
ATOM     51  C   UNL A   1      46.388  28.342  29.799  1.00  0.00     0.029 A 
ATOM     52  C   UNL A   1      47.229  27.640  28.830  1.00  0.00     0.049 A 
ATOM     53  H   UNL A   1      46.850  25.626  28.361  1.00  0.00     0.167 HD
ATOM     54  C   UNL A   1      40.568  29.124  28.417  1.00  0.00     0.031 A 
ATOM     55  C   UNL A   1      47.884  28.212  27.773  1.00  0.00     0.031 A 
ATOM     56  C   UNL A   1      41.637  30.032  28.820  1.00  0.00     0.049 A 
ATOM     57  C   UNL A   1      47.258  29.548  27.446  1.00  0.00     0.074 A 
ATOM     58  C   UNL A   1      42.316  30.140  30.024  1.00  0.00     0.029 A 
ATOM     59  N   UNL A   1      42.427  30.643  27.857  1.00  0.00    -0.354 N 
ATOM     60  N   UNL A   1      45.981  29.806  27.543  1.00  0.00    -0.248 NA
ATOM     61  C   UNL A   1      48.052  30.710  27.073  1.00  0.00     0.031 C 
ATOM     62  C   UNL A   1      43.551  30.782  29.769  1.00  0.00     0.029 A 
ATOM     63  C   UNL A   1      43.623  31.053  28.414  1.00  0.00     0.049 A 
ATOM     64  H   UNL A   1      42.173  30.765  26.914  1.00  0.00     0.167 HD
ATOM     65  C   UNL A   1      45.794  31.158  27.394  1.00  0.00     0.074 A 
ATOM     66  C   UNL A   1      47.112  31.671  27.059  1.00  0.00     0.031 C 
ATOM     67  C   UNL A   1      44.597  31.779  27.617  1.00  0.00     0.031 A 
BRANCH  54  68
ATOM     68  C   UNL A   1      39.178  29.194  28.992  1.00  0.00    -0.014 A 
ATOM     69  C   UNL A   1      38.976  28.841  30.343  1.00  0.00     0.009 A 
ATOM     70  C   UNL A   1      38.041  29.598  28.275  1.00  0.00     0.009 A 
ATOM     71  C   UNL A   1      37.710  28.835  30.936  1.00  0.00     0.001 A 
ATOM     72  C   UNL A   1      36.764  29.586  28.864  1.00  0.00     0.001 A 
ATOM     73  C   UNL A   1      36.599  29.199  30.192  1.00  0.00     0.000 A 
ENDBRANCH  54  68
BRANCH  55  74
ATOM     74  C   UNL A   1      48.447  27.258  26.751  1.00  0.00    -0.014 A 
ATOM     75  C   UNL A   1      47.775  27.116  25.513  1.00  0.00     0.009 A 
ATOM     76  C   UNL A   1      49.713  26.667  26.867  1.00  0.00     0.009 A 
ATOM     77  C   UNL A   1      48.386  26.511  24.408  1.00  0.00     0.001 A 
ATOM     78  C   UNL A   1      50.312  26.030  25.763  1.00  0.00     0.001 A 
ATOM     79  C   UNL A   1      49.663  25.978  24.529  1.00  0.00     0.000 A 
ENDBRANCH  55  74
BRANCH  67  80
ATOM     80  C   UNL A   1      44.236  33.189  27.225  1.00  0.00    -0.014 A 
ATOM     81  C   UNL A   1      43.991  33.604  25.913  1.00  0.00     0.009 A 
ATOM     82  C   UNL A   1      43.980  34.139  28.245  1.00  0.00     0.009 A 
ATOM     83  C   UNL A   1      43.567  34.906  25.631  1.00  0.00     0.001 A 
ATOM     84  C   UNL A   1      43.494  35.416  27.974  1.00  0.00     0.001 A 
ATOM     85  C   UNL A   1      43.304  35.806  26.659  1.00  0.00     0.000 A 
ENDBRANCH  67  80
ENDBRANCH  41  42
ENDBRANCH  34  36
ENDBRANCH  33  34
ENDBRANCH  32  33
ENDBRANCH   1  32
TORSDOF 15
ENDMDL
