MODEL 1
REMARK VINA RESULT:      -9.9      0.000      0.000
REMARK SMILES Cc1c(Br)c(C)c2c(c1Br)O[C@H](C(F)(F)F)C(C(=O)OCCOC(=O)c1ccc(-c3c4nc(c(-c5ccccc5)c5ccc([nH]5)c(-c5ccccc5)c5nc(c(-c6ccccc6)c6ccc3[nH]6)C=C5)C=C4)cc1)=C2
REMARK SMILES IDX 22 1 21 2 20 3 18 4 19 5 17 6 1 7 2 8 3 9 9 10 4 11 5 12
REMARK SMILES IDX 8 13 10 14 6 15 7 16 11 17 74 18 12 19 13 20 14 21 15 22
REMARK SMILES IDX 16 23 23 24 24 25 25 26 26 27 27 28 73 29 28 30 72 31 29 32
REMARK SMILES IDX 30 33 31 34 66 35 32 36 71 37 65 38 67 39 33 40 70 41 64 42
REMARK SMILES IDX 63 43 34 45 56 46 41 47 55 48 42 49 45 50 54 51 68 52 43 53
REMARK SMILES IDX 44 54 53 56 69 57 46 58 35 59 36 60 40 61 37 62 39 63 38 64
REMARK SMILES IDX 57 65 58 66 62 67 59 68 61 69 60 70 47 71 48 72 52 73 49 74
REMARK SMILES IDX 51 75 50 76
REMARK H PARENT 67 44 45 55
REMARK Flexibility Score: inf
ROOT
ATOM      1  C   UNL A   1      41.052  19.905  25.995  1.00  0.00     0.275 C 
ENDROOT
BRANCH   1   2
ATOM      2  C   UNL A   1      42.435  20.004  26.638  1.00  0.00     0.275 C 
BRANCH   2   3
ATOM      3  O   UNL A   1      43.384  20.604  25.731  1.00  0.00    -0.459 OA
BRANCH   3   4
ATOM      4  C   UNL A   1      43.319  21.950  25.624  1.00  0.00     0.338 C 
ATOM      5  O   UNL A   1      42.469  22.600  25.036  1.00  0.00    -0.246 OA
BRANCH   4   6
ATOM      6  C   UNL A   1      44.442  22.579  26.342  1.00  0.00     0.087 C 
ATOM      7  C   UNL A   1      48.341  26.583  29.736  1.00  0.00     0.047 C 
ATOM      8  C   UNL A   1      47.285  25.647  29.195  1.00  0.00    -0.019 A 
ATOM      9  C   UNL A   1      46.004  25.601  29.804  1.00  0.00     0.025 A 
ATOM     10  C   UNL A   1      47.515  24.838  28.063  1.00  0.00     0.064 A 
ATOM     11  Br  UNL A   1      45.656  26.745  31.310  1.00  0.00    -0.050 Br
ATOM     12  C   UNL A   1      44.977  24.760  29.308  1.00  0.00    -0.026 A 
ATOM     13  C   UNL A   1      46.497  24.019  27.539  1.00  0.00     0.142 A 
ATOM     14  Br  UNL A   1      49.202  24.850  27.154  1.00  0.00    -0.046 Br
ATOM     15  C   UNL A   1      43.616  24.683  29.964  1.00  0.00     0.046 C 
ATOM     16  C   UNL A   1      45.233  23.991  28.143  1.00  0.00     0.022 A 
ATOM     17  O   UNL A   1      46.816  23.243  26.451  1.00  0.00    -0.474 OA
ATOM     18  C   UNL A   1      44.188  23.190  27.504  1.00  0.00     0.027 C 
ATOM     19  C   UNL A   1      45.769  22.634  25.661  1.00  0.00     0.316 C 
BRANCH  19  20
ATOM     20  C   UNL A   1      45.682  23.335  24.296  1.00  0.00     0.430 C 
ATOM     21  F   UNL A   1      44.925  24.454  24.362  1.00  0.00    -0.167 F 
ATOM     22  F   UNL A   1      46.907  23.723  23.862  1.00  0.00    -0.167 F 
ATOM     23  F   UNL A   1      45.151  22.535  23.346  1.00  0.00    -0.167 F 
ENDBRANCH  19  20
ENDBRANCH   4   6
ENDBRANCH   3   4
ENDBRANCH   2   3
ENDBRANCH   1   2
BRANCH   1  24
ATOM     24  O   UNL A   1      40.074  20.534  26.844  1.00  0.00    -0.458 OA
BRANCH  24  25
ATOM     25  C   UNL A   1      39.307  21.479  26.256  1.00  0.00     0.338 C 
ATOM     26  O   UNL A   1      38.463  21.321  25.391  1.00  0.00    -0.246 OA
BRANCH  25  27
ATOM     27  C   UNL A   1      39.578  22.792  26.865  1.00  0.00     0.060 A 
ATOM     28  C   UNL A   1      39.058  23.934  26.266  1.00  0.00     0.016 A 
ATOM     29  C   UNL A   1      40.489  22.909  27.912  1.00  0.00     0.016 A 
ATOM     30  C   UNL A   1      39.565  25.185  26.602  1.00  0.00     0.010 A 
ATOM     31  C   UNL A   1      40.889  24.181  28.342  1.00  0.00     0.010 A 
ATOM     32  C   UNL A   1      40.483  25.337  27.651  1.00  0.00    -0.014 A 
BRANCH  32  33
ATOM     33  C   UNL A   1      41.050  26.685  27.962  1.00  0.00     0.031 A 
ATOM     34  C   UNL A   1      42.373  27.116  27.370  1.00  0.00     0.074 A 
ATOM     35  C   UNL A   1      40.361  27.563  28.722  1.00  0.00     0.049 A 
ATOM     36  N   UNL A   1      43.082  28.189  27.628  1.00  0.00    -0.248 NA
ATOM     37  C   UNL A   1      42.990  26.225  26.373  1.00  0.00     0.031 C 
ATOM     38  C   UNL A   1      39.044  27.322  29.317  1.00  0.00     0.029 A 
ATOM     39  N   UNL A   1      40.653  28.852  29.094  1.00  0.00    -0.354 N 
ATOM     40  C   UNL A   1      44.249  28.065  26.880  1.00  0.00     0.074 A 
ATOM     41  C   UNL A   1      44.160  26.812  26.165  1.00  0.00     0.031 C 
ATOM     42  C   UNL A   1      38.604  28.450  29.892  1.00  0.00     0.029 A 
ATOM     43  C   UNL A   1      39.653  29.459  29.819  1.00  0.00     0.049 A 
ATOM     44  H   UNL A   1      41.499  29.301  28.865  1.00  0.00     0.167 HD
ATOM     45  C   UNL A   1      45.298  28.918  26.792  1.00  0.00     0.031 A 
ATOM     46  C   UNL A   1      39.590  30.673  30.398  1.00  0.00     0.031 A 
ATOM     47  C   UNL A   1      45.362  30.196  27.447  1.00  0.00     0.049 A 
ATOM     48  C   UNL A   1      40.785  31.578  30.334  1.00  0.00     0.074 A 
ATOM     49  C   UNL A   1      46.378  31.136  27.403  1.00  0.00     0.029 A 
ATOM     50  N   UNL A   1      44.359  30.726  28.244  1.00  0.00    -0.354 N 
ATOM     51  N   UNL A   1      41.909  31.411  29.682  1.00  0.00    -0.248 NA
ATOM     52  C   UNL A   1      40.720  32.820  31.116  1.00  0.00     0.031 C 
ATOM     53  C   UNL A   1      46.010  32.215  28.211  1.00  0.00     0.029 A 
ATOM     54  C   UNL A   1      44.744  31.968  28.718  1.00  0.00     0.049 A 
ATOM     55  H   UNL A   1      43.503  30.285  28.443  1.00  0.00     0.167 HD
ATOM     56  C   UNL A   1      42.688  32.520  29.980  1.00  0.00     0.074 A 
ATOM     57  C   UNL A   1      41.897  33.370  30.846  1.00  0.00     0.031 C 
ATOM     58  C   UNL A   1      43.951  32.800  29.584  1.00  0.00     0.031 A 
BRANCH  45  59
ATOM     59  C   UNL A   1      46.486  28.489  25.975  1.00  0.00    -0.014 A 
ATOM     60  C   UNL A   1      47.761  28.353  26.546  1.00  0.00     0.009 A 
ATOM     61  C   UNL A   1      46.309  28.155  24.623  1.00  0.00     0.009 A 
ATOM     62  C   UNL A   1      48.838  27.916  25.771  1.00  0.00     0.001 A 
ATOM     63  C   UNL A   1      47.381  27.692  23.858  1.00  0.00     0.001 A 
ATOM     64  C   UNL A   1      48.647  27.580  24.431  1.00  0.00     0.000 A 
ENDBRANCH  45  59
BRANCH  46  65
ATOM     65  C   UNL A   1      38.365  31.080  31.138  1.00  0.00    -0.014 A 
ATOM     66  C   UNL A   1      38.246  30.827  32.511  1.00  0.00     0.009 A 
ATOM     67  C   UNL A   1      37.318  31.746  30.478  1.00  0.00     0.009 A 
ATOM     68  C   UNL A   1      37.105  31.233  33.209  1.00  0.00     0.001 A 
ATOM     69  C   UNL A   1      36.194  32.179  31.184  1.00  0.00     0.001 A 
ATOM     70  C   UNL A   1      36.086  31.917  32.548  1.00  0.00     0.000 A 
ENDBRANCH  46  65
BRANCH  58  71
ATOM     71  C   UNL A   1      44.570  34.072  30.081  1.00  0.00    -0.014 A 
ATOM     72  C   UNL A   1      44.480  35.254  29.330  1.00  0.00     0.009 A 
ATOM     73  C   UNL A   1      45.167  34.113  31.351  1.00  0.00     0.009 A 
ATOM     74  C   UNL A   1      44.987  36.451  29.837  1.00  0.00     0.001 A 
ATOM     75  C   UNL A   1      45.651  35.317  31.865  1.00  0.00     0.001 A 
ATOM     76  C   UNL A   1      45.563  36.483  31.106  1.00  0.00     0.000 A 
ENDBRANCH  58  71
ENDBRANCH  32  33
ENDBRANCH  25  27
ENDBRANCH  24  25
ENDBRANCH   1  24
TORSDOF 12
ENDMDL
MODEL 2
REMARK VINA RESULT:      -9.8      6.013     10.072
REMARK SMILES Cc1c(Br)c(C)c2c(c1Br)O[C@H](C(F)(F)F)C(C(=O)OCCOC(=O)c1ccc(-c3c4nc(c(-c5ccccc5)c5ccc([nH]5)c(-c5ccccc5)c5nc(c(-c6ccccc6)c6ccc3[nH]6)C=C5)C=C4)cc1)=C2
REMARK SMILES IDX 22 1 21 2 20 3 18 4 19 5 17 6 1 7 2 8 3 9 9 10 4 11 5 12
REMARK SMILES IDX 8 13 10 14 6 15 7 16 11 17 74 18 12 19 13 20 14 21 15 22
REMARK SMILES IDX 16 23 23 24 24 25 25 26 26 27 27 28 73 29 28 30 72 31 29 32
REMARK SMILES IDX 30 33 31 34 66 35 32 36 71 37 65 38 67 39 33 40 70 41 64 42
REMARK SMILES IDX 63 43 34 45 56 46 41 47 55 48 42 49 45 50 54 51 68 52 43 53
REMARK SMILES IDX 44 54 53 56 69 57 46 58 35 59 36 60 40 61 37 62 39 63 38 64
REMARK SMILES IDX 57 65 58 66 62 67 59 68 61 69 60 70 47 71 48 72 52 73 49 74
REMARK SMILES IDX 51 75 50 76
REMARK H PARENT 67 44 45 55
REMARK Flexibility Score: inf
ROOT
ATOM      1  C   UNL A   1      33.278  33.920  28.231  1.00  0.00     0.275 C 
ENDROOT
BRANCH   1   2
ATOM      2  C   UNL A   1      34.279  34.817  28.959  1.00  0.00     0.275 C 
BRANCH   2   3
ATOM      3  O   UNL A   1      34.121  34.712  30.391  1.00  0.00    -0.459 OA
BRANCH   3   4
ATOM      4  C   UNL A   1      34.761  33.672  30.973  1.00  0.00     0.338 C 
ATOM      5  O   UNL A   1      34.422  32.499  30.956  1.00  0.00    -0.246 OA
BRANCH   4   6
ATOM      6  C   UNL A   1      35.980  34.136  31.658  1.00  0.00     0.087 C 
ATOM      7  C   UNL A   1      41.996  34.777  34.138  1.00  0.00     0.047 C 
ATOM      8  C   UNL A   1      40.739  34.643  33.310  1.00  0.00    -0.019 A 
ATOM      9  C   UNL A   1      40.823  34.182  31.970  1.00  0.00     0.025 A 
ATOM     10  C   UNL A   1      39.462  34.920  33.841  1.00  0.00     0.064 A 
ATOM     11  Br  UNL A   1      42.551  33.740  31.252  1.00  0.00    -0.050 Br
ATOM     12  C   UNL A   1      39.665  34.013  31.170  1.00  0.00    -0.026 A 
ATOM     13  C   UNL A   1      38.300  34.730  33.070  1.00  0.00     0.142 A 
ATOM     14  Br  UNL A   1      39.242  35.520  35.647  1.00  0.00    -0.046 Br
ATOM     15  C   UNL A   1      39.745  33.547  29.732  1.00  0.00     0.046 C 
ATOM     16  C   UNL A   1      38.396  34.264  31.752  1.00  0.00     0.022 A 
ATOM     17  O   UNL A   1      37.100  35.051  33.657  1.00  0.00    -0.474 OA
ATOM     18  C   UNL A   1      37.151  34.000  31.029  1.00  0.00     0.027 C 
ATOM     19  C   UNL A   1      35.860  34.589  33.076  1.00  0.00     0.316 C 
BRANCH  19  20
ATOM     20  C   UNL A   1      35.246  33.501  33.973  1.00  0.00     0.430 C 
ATOM     21  F   UNL A   1      33.900  33.462  33.852  1.00  0.00    -0.167 F 
ATOM     22  F   UNL A   1      35.701  32.269  33.634  1.00  0.00    -0.167 F 
ATOM     23  F   UNL A   1      35.537  33.694  35.278  1.00  0.00    -0.167 F 
ENDBRANCH  19  20
ENDBRANCH   4   6
ENDBRANCH   3   4
ENDBRANCH   2   3
ENDBRANCH   1   2
BRANCH   1  24
ATOM     24  O   UNL A   1      33.968  33.099  27.272  1.00  0.00    -0.458 OA
BRANCH  24  25
ATOM     25  C   UNL A   1      33.848  31.764  27.448  1.00  0.00     0.338 C 
ATOM     26  O   UNL A   1      32.853  31.078  27.282  1.00  0.00    -0.246 OA
BRANCH  25  27
ATOM     27  C   UNL A   1      35.151  31.189  27.818  1.00  0.00     0.060 A 
ATOM     28  C   UNL A   1      35.210  29.866  28.241  1.00  0.00     0.016 A 
ATOM     29  C   UNL A   1      36.277  32.003  27.923  1.00  0.00     0.016 A 
ATOM     30  C   UNL A   1      36.336  29.402  28.912  1.00  0.00     0.010 A 
ATOM     31  C   UNL A   1      37.457  31.485  28.472  1.00  0.00     0.010 A 
ATOM     32  C   UNL A   1      37.485  30.196  29.035  1.00  0.00    -0.014 A 
BRANCH  32  33
ATOM     33  C   UNL A   1      38.666  29.693  29.802  1.00  0.00     0.031 A 
ATOM     34  C   UNL A   1      39.730  28.865  29.118  1.00  0.00     0.074 A 
ATOM     35  C   UNL A   1      38.835  30.024  31.101  1.00  0.00     0.049 A 
ATOM     36  N   UNL A   1      40.752  28.235  29.645  1.00  0.00    -0.248 NA
ATOM     37  C   UNL A   1      39.629  28.709  27.657  1.00  0.00     0.031 C 
ATOM     38  C   UNL A   1      37.929  30.865  31.888  1.00  0.00     0.029 A 
ATOM     39  N   UNL A   1      39.847  29.726  31.980  1.00  0.00    -0.354 N 
ATOM     40  C   UNL A   1      41.369  27.561  28.597  1.00  0.00     0.074 A 
ATOM     41  C   UNL A   1      40.605  27.848  27.403  1.00  0.00     0.031 C 
ATOM     42  C   UNL A   1      38.472  31.092  33.093  1.00  0.00     0.029 A 
ATOM     43  C   UNL A   1      39.700  30.317  33.213  1.00  0.00     0.049 A 
ATOM     44  H   UNL A   1      40.607  29.143  31.750  1.00  0.00     0.167 HD
ATOM     45  C   UNL A   1      42.473  26.776  28.621  1.00  0.00     0.031 A 
ATOM     46  C   UNL A   1      40.439  30.223  34.335  1.00  0.00     0.031 A 
ATOM     47  C   UNL A   1      43.276  26.541  29.791  1.00  0.00     0.049 A 
ATOM     48  C   UNL A   1      41.625  29.305  34.355  1.00  0.00     0.074 A 
ATOM     49  C   UNL A   1      44.422  25.773  29.908  1.00  0.00     0.029 A 
ATOM     50  N   UNL A   1      43.033  27.092  31.039  1.00  0.00    -0.354 N 
ATOM     51  N   UNL A   1      42.150  28.616  33.371  1.00  0.00    -0.248 NA
ATOM     52  C   UNL A   1      42.299  29.118  35.648  1.00  0.00     0.031 C 
ATOM     53  C   UNL A   1      44.847  25.822  31.239  1.00  0.00     0.029 A 
ATOM     54  C   UNL A   1      43.992  26.660  31.938  1.00  0.00     0.049 A 
ATOM     55  H   UNL A   1      42.288  27.699  31.254  1.00  0.00     0.167 HD
ATOM     56  C   UNL A   1      43.208  27.910  33.925  1.00  0.00     0.074 A 
ATOM     57  C   UNL A   1      43.273  28.277  35.325  1.00  0.00     0.031 C 
ATOM     58  C   UNL A   1      44.041  27.026  33.328  1.00  0.00     0.031 A 
BRANCH  45  59
ATOM     59  C   UNL A   1      42.873  26.083  27.347  1.00  0.00    -0.014 A 
ATOM     60  C   UNL A   1      43.801  26.649  26.461  1.00  0.00     0.009 A 
ATOM     61  C   UNL A   1      42.355  24.808  27.065  1.00  0.00     0.009 A 
ATOM     62  C   UNL A   1      44.182  25.964  25.305  1.00  0.00     0.001 A 
ATOM     63  C   UNL A   1      42.758  24.114  25.923  1.00  0.00     0.001 A 
ATOM     64  C   UNL A   1      43.666  24.696  25.040  1.00  0.00     0.000 A 
ENDBRANCH  45  59
BRANCH  46  65
ATOM     65  C   UNL A   1      40.042  30.982  35.551  1.00  0.00    -0.014 A 
ATOM     66  C   UNL A   1      40.942  31.864  36.166  1.00  0.00     0.009 A 
ATOM     67  C   UNL A   1      38.751  30.847  36.090  1.00  0.00     0.009 A 
ATOM     68  C   UNL A   1      40.557  32.596  37.293  1.00  0.00     0.001 A 
ATOM     69  C   UNL A   1      38.359  31.604  37.195  1.00  0.00     0.001 A 
ATOM     70  C   UNL A   1      39.265  32.473  37.800  1.00  0.00     0.000 A 
ENDBRANCH  46  65
BRANCH  58  71
ATOM     71  C   UNL A   1      45.095  26.382  34.179  1.00  0.00    -0.014 A 
ATOM     72  C   UNL A   1      46.334  27.009  34.382  1.00  0.00     0.009 A 
ATOM     73  C   UNL A   1      44.815  25.185  34.857  1.00  0.00     0.009 A 
ATOM     74  C   UNL A   1      47.277  26.442  35.240  1.00  0.00     0.001 A 
ATOM     75  C   UNL A   1      45.752  24.634  35.732  1.00  0.00     0.001 A 
ATOM     76  C   UNL A   1      46.983  25.262  35.921  1.00  0.00     0.000 A 
ENDBRANCH  58  71
ENDBRANCH  32  33
ENDBRANCH  25  27
ENDBRANCH  24  25
ENDBRANCH   1  24
TORSDOF 12
ENDMDL
MODEL 3
REMARK VINA RESULT:      -9.6      5.215      9.738
REMARK SMILES Cc1c(Br)c(C)c2c(c1Br)O[C@H](C(F)(F)F)C(C(=O)OCCOC(=O)c1ccc(-c3c4nc(c(-c5ccccc5)c5ccc([nH]5)c(-c5ccccc5)c5nc(c(-c6ccccc6)c6ccc3[nH]6)C=C5)C=C4)cc1)=C2
REMARK SMILES IDX 22 1 21 2 20 3 18 4 19 5 17 6 1 7 2 8 3 9 9 10 4 11 5 12
REMARK SMILES IDX 8 13 10 14 6 15 7 16 11 17 74 18 12 19 13 20 14 21 15 22
REMARK SMILES IDX 16 23 23 24 24 25 25 26 26 27 27 28 73 29 28 30 72 31 29 32
REMARK SMILES IDX 30 33 31 34 66 35 32 36 71 37 65 38 67 39 33 40 70 41 64 42
REMARK SMILES IDX 63 43 34 45 56 46 41 47 55 48 42 49 45 50 54 51 68 52 43 53
REMARK SMILES IDX 44 54 53 56 69 57 46 58 35 59 36 60 40 61 37 62 39 63 38 64
REMARK SMILES IDX 57 65 58 66 62 67 59 68 61 69 60 70 47 71 48 72 52 73 49 74
REMARK SMILES IDX 51 75 50 76
REMARK H PARENT 67 44 45 55
REMARK Flexibility Score: inf
ROOT
ATOM      1  C   UNL A   1      35.984  20.942  25.292  1.00  0.00     0.275 C 
ENDROOT
BRANCH   1   2
ATOM      2  C   UNL A   1      34.859  21.694  24.582  1.00  0.00     0.275 C 
BRANCH   2   3
ATOM      3  O   UNL A   1      35.010  23.121  24.741  1.00  0.00    -0.459 OA
BRANCH   3   4
ATOM      4  C   UNL A   1      34.239  23.688  25.696  1.00  0.00     0.338 C 
ATOM      5  O   UNL A   1      34.090  23.301  26.845  1.00  0.00    -0.246 OA
BRANCH   4   6
ATOM      6  C   UNL A   1      33.570  24.891  25.171  1.00  0.00     0.087 C 
ATOM      7  C   UNL A   1      30.322  30.518  24.434  1.00  0.00     0.047 C 
ATOM      8  C   UNL A   1      31.269  29.380  24.738  1.00  0.00    -0.019 A 
ATOM      9  C   UNL A   1      32.207  29.507  25.795  1.00  0.00     0.025 A 
ATOM     10  C   UNL A   1      31.224  28.162  24.029  1.00  0.00     0.064 A 
ATOM     11  Br  UNL A   1      32.237  31.139  26.812  1.00  0.00    -0.050 Br
ATOM     12  C   UNL A   1      33.092  28.453  26.131  1.00  0.00    -0.026 A 
ATOM     13  C   UNL A   1      32.075  27.094  24.369  1.00  0.00     0.142 A 
ATOM     14  Br  UNL A   1      29.974  27.883  22.604  1.00  0.00    -0.046 Br
ATOM     15  C   UNL A   1      34.114  28.586  27.240  1.00  0.00     0.046 C 
ATOM     16  C   UNL A   1      32.990  27.228  25.422  1.00  0.00     0.022 A 
ATOM     17  O   UNL A   1      31.984  25.954  23.608  1.00  0.00    -0.474 OA
ATOM     18  C   UNL A   1      33.786  26.056  25.789  1.00  0.00     0.027 C 
ATOM     19  C   UNL A   1      32.568  24.717  24.078  1.00  0.00     0.316 C 
BRANCH  19  20
ATOM     20  C   UNL A   1      31.450  23.740  24.477  1.00  0.00     0.430 C 
ATOM     21  F   UNL A   1      30.334  23.936  23.738  1.00  0.00    -0.167 F 
ATOM     22  F   UNL A   1      31.826  22.453  24.275  1.00  0.00    -0.167 F 
ATOM     23  F   UNL A   1      31.108  23.862  25.778  1.00  0.00    -0.167 F 
ENDBRANCH  19  20
ENDBRANCH   4   6
ENDBRANCH   3   4
ENDBRANCH   2   3
ENDBRANCH   1   2
BRANCH   1  24
ATOM     24  O   UNL A   1      37.253  21.324  24.732  1.00  0.00    -0.458 OA
BRANCH  24  25
ATOM     25  C   UNL A   1      38.343  20.963  25.446  1.00  0.00     0.338 C 
ATOM     26  O   UNL A   1      38.863  19.862  25.507  1.00  0.00    -0.246 OA
BRANCH  25  27
ATOM     27  C   UNL A   1      38.903  22.140  26.130  1.00  0.00     0.060 A 
ATOM     28  C   UNL A   1      38.337  23.389  25.899  1.00  0.00     0.016 A 
ATOM     29  C   UNL A   1      40.092  22.039  26.850  1.00  0.00     0.016 A 
ATOM     30  C   UNL A   1      39.034  24.542  26.244  1.00  0.00     0.010 A 
ATOM     31  C   UNL A   1      40.718  23.201  27.320  1.00  0.00     0.010 A 
ATOM     32  C   UNL A   1      40.233  24.474  26.968  1.00  0.00    -0.014 A 
BRANCH  32  33
ATOM     33  C   UNL A   1      40.989  25.724  27.286  1.00  0.00     0.031 A 
ATOM     34  C   UNL A   1      40.461  26.700  28.314  1.00  0.00     0.074 A 
ATOM     35  C   UNL A   1      42.185  25.971  26.709  1.00  0.00     0.049 A 
ATOM     36  N   UNL A   1      40.908  27.893  28.625  1.00  0.00    -0.248 NA
ATOM     37  C   UNL A   1      39.271  26.295  29.081  1.00  0.00     0.031 C 
ATOM     38  C   UNL A   1      42.858  25.099  25.743  1.00  0.00     0.029 A 
ATOM     39  N   UNL A   1      43.068  27.009  26.879  1.00  0.00    -0.354 N 
ATOM     40  C   UNL A   1      40.020  28.400  29.568  1.00  0.00     0.074 A 
ATOM     41  C   UNL A   1      39.003  27.393  29.774  1.00  0.00     0.031 C 
ATOM     42  C   UNL A   1      44.080  25.587  25.483  1.00  0.00     0.029 A 
ATOM     43  C   UNL A   1      44.233  26.867  26.163  1.00  0.00     0.049 A 
ATOM     44  H   UNL A   1      42.883  27.784  27.459  1.00  0.00     0.167 HD
ATOM     45  C   UNL A   1      40.048  29.593  30.209  1.00  0.00     0.031 A 
ATOM     46  C   UNL A   1      45.296  27.684  26.027  1.00  0.00     0.031 A 
ATOM     47  C   UNL A   1      41.093  30.570  30.059  1.00  0.00     0.049 A 
ATOM     48  C   UNL A   1      45.279  29.024  26.702  1.00  0.00     0.074 A 
ATOM     49  C   UNL A   1      41.214  31.802  30.680  1.00  0.00     0.029 A 
ATOM     50  N   UNL A   1      42.208  30.416  29.251  1.00  0.00    -0.354 N 
ATOM     51  N   UNL A   1      44.393  29.517  27.532  1.00  0.00    -0.248 NA
ATOM     52  C   UNL A   1      46.388  29.937  26.391  1.00  0.00     0.031 C 
ATOM     53  C   UNL A   1      42.381  32.414  30.213  1.00  0.00     0.029 A 
ATOM     54  C   UNL A   1      43.009  31.542  29.338  1.00  0.00     0.049 A 
ATOM     55  H   UNL A   1      42.400  29.626  28.697  1.00  0.00     0.167 HD
ATOM     56  C   UNL A   1      44.832  30.797  27.838  1.00  0.00     0.074 A 
ATOM     57  C   UNL A   1      46.079  30.996  27.129  1.00  0.00     0.031 C 
ATOM     58  C   UNL A   1      44.243  31.729  28.623  1.00  0.00     0.031 A 
BRANCH  45  59
ATOM     59  C   UNL A   1      38.898  29.932  31.118  1.00  0.00    -0.014 A 
ATOM     60  C   UNL A   1      38.964  29.709  32.502  1.00  0.00     0.009 A 
ATOM     61  C   UNL A   1      37.753  30.545  30.582  1.00  0.00     0.009 A 
ATOM     62  C   UNL A   1      37.895  30.069  33.326  1.00  0.00     0.001 A 
ATOM     63  C   UNL A   1      36.698  30.929  31.412  1.00  0.00     0.001 A 
ATOM     64  C   UNL A   1      36.767  30.684  32.782  1.00  0.00     0.000 A 
ENDBRANCH  45  59
BRANCH  46  65
ATOM     65  C   UNL A   1      46.441  27.275  25.170  1.00  0.00    -0.014 A 
ATOM     66  C   UNL A   1      47.264  26.205  25.545  1.00  0.00     0.009 A 
ATOM     67  C   UNL A   1      46.701  27.939  23.959  1.00  0.00     0.009 A 
ATOM     68  C   UNL A   1      48.324  25.806  24.725  1.00  0.00     0.001 A 
ATOM     69  C   UNL A   1      47.739  27.517  23.127  1.00  0.00     0.001 A 
ATOM     70  C   UNL A   1      48.554  26.455  23.514  1.00  0.00     0.000 A 
ENDBRANCH  46  65
BRANCH  58  71
ATOM     71  C   UNL A   1      44.930  33.056  28.760  1.00  0.00    -0.014 A 
ATOM     72  C   UNL A   1      45.934  33.246  29.722  1.00  0.00     0.009 A 
ATOM     73  C   UNL A   1      44.637  34.094  27.862  1.00  0.00     0.009 A 
ATOM     74  C   UNL A   1      46.624  34.457  29.789  1.00  0.00     0.001 A 
ATOM     75  C   UNL A   1      45.346  35.295  27.917  1.00  0.00     0.001 A 
ATOM     76  C   UNL A   1      46.336  35.476  28.881  1.00  0.00     0.000 A 
ENDBRANCH  58  71
ENDBRANCH  32  33
ENDBRANCH  25  27
ENDBRANCH  24  25
ENDBRANCH   1  24
TORSDOF 12
ENDMDL
