MODEL 1
REMARK VINA RESULT:     -11.6      0.000      0.000
REMARK SMILES O=C(CSc1nnc2sc3ccccc3n12)N[C@H](Cc1c[nH]c2ccccc12)C(=O)OCCOC(=O)c1ccc(-c2c3nc(c(-c4ccccc4)c4ccc([nH]4)c(-c4ccccc4)c4nc(c(-c5ccccc5)c5ccc2[nH]5)C=C4)C=C3)cc1
REMARK SMILES IDX 32 1 31 2 29 3 30 4 18 5 17 6 1 7 2 8 3 10 4 11 5 12 6 13
REMARK SMILES IDX 16 14 7 15 8 16 15 17 9 18 10 19 14 20 11 21 13 22 12 23
REMARK SMILES IDX 19 24 20 25 21 26 28 27 22 28 23 29 27 30 24 32 26 33 25 34
REMARK SMILES IDX 33 35 34 36 35 37 36 38 37 39 38 40 84 41 39 42 83 43 40 44
REMARK SMILES IDX 41 45 42 46 77 47 43 48 82 49 76 50 78 51 44 52 81 53 75 54
REMARK SMILES IDX 74 55 45 57 67 58 52 59 66 60 53 61 56 62 65 63 79 64 54 65
REMARK SMILES IDX 55 66 64 68 80 69 57 70 46 71 47 72 51 73 48 74 50 75 49 76
REMARK SMILES IDX 68 77 69 78 73 79 70 80 72 81 71 82 58 83 59 84 63 85 60 86
REMARK SMILES IDX 62 87 61 88
REMARK H PARENT 17 9 22 31 78 56 56 67
REMARK Flexibility Score: inf
ROOT
ATOM      1  C   UNL A   1      31.948  29.304  26.390  1.00  0.00     0.274 C 
ENDROOT
BRANCH   1   2
ATOM      2  O   UNL A   1      32.942  28.261  26.331  1.00  0.00    -0.461 OA
BRANCH   2   3
ATOM      3  C   UNL A   1      33.422  27.939  25.108  1.00  0.00     0.329 C 
ATOM      4  O   UNL A   1      34.189  28.643  24.457  1.00  0.00    -0.250 OA
BRANCH   3   5
ATOM      5  C   UNL A   1      32.791  26.660  24.515  1.00  0.00     0.196 C 
BRANCH   5   6
ATOM      6  N   UNL A   1      33.815  25.590  24.700  1.00  0.00    -0.342 N 
ATOM      7  O   UNL A   1      32.696  24.609  26.432  1.00  0.00    -0.274 OA
ATOM      8  C   UNL A   1      33.649  24.598  25.651  1.00  0.00     0.231 C 
ATOM      9  H   UNL A   1      34.622  25.589  24.137  1.00  0.00     0.164 HD
BRANCH   8  10
ATOM     10  C   UNL A   1      34.760  23.580  25.826  1.00  0.00     0.178 C 
BRANCH  10  11
ATOM     11  S   UNL A   1      36.415  24.099  25.343  1.00  0.00    -0.076 SA
BRANCH  11  12
ATOM     12  C   UNL A   1      37.384  22.689  25.613  1.00  0.00     0.197 A 
ATOM     13  N   UNL A   1      37.127  21.477  25.154  1.00  0.00    -0.122 NA
ATOM     14  N   UNL A   1      38.624  22.688  26.198  1.00  0.00    -0.260 N 
ATOM     15  N   UNL A   1      38.247  20.676  25.377  1.00  0.00    -0.118 NA
ATOM     16  C   UNL A   1      39.129  21.444  25.956  1.00  0.00     0.217 A 
ATOM     17  C   UNL A   1      39.453  23.534  26.934  1.00  0.00     0.068 A 
ATOM     18  S   UNL A   1      40.739  21.221  26.550  1.00  0.00    -0.094 S 
ATOM     19  C   UNL A   1      40.677  22.892  27.201  1.00  0.00     0.055 A 
ATOM     20  C   UNL A   1      39.172  24.799  27.419  1.00  0.00     0.028 A 
ATOM     21  C   UNL A   1      41.664  23.533  27.932  1.00  0.00     0.021 A 
ATOM     22  C   UNL A   1      40.163  25.438  28.170  1.00  0.00     0.002 A 
ATOM     23  C   UNL A   1      41.400  24.817  28.417  1.00  0.00     0.002 A 
ENDBRANCH  11  12
ENDBRANCH  10  11
ENDBRANCH   8  10
ENDBRANCH   5   6
BRANCH   5  24
ATOM     24  C   UNL A   1      32.237  26.698  23.075  1.00  0.00     0.074 C 
BRANCH  24  25
ATOM     25  C   UNL A   1      31.360  27.877  22.697  1.00  0.00    -0.020 A 
ATOM     26  C   UNL A   1      31.775  29.069  22.121  1.00  0.00     0.087 A 
ATOM     27  C   UNL A   1      29.954  28.044  22.964  1.00  0.00     0.003 A 
ATOM     28  N   UNL A   1      30.689  29.899  21.988  1.00  0.00    -0.361 N 
ATOM     29  C   UNL A   1      29.555  29.275  22.439  1.00  0.00     0.046 A 
ATOM     30  C   UNL A   1      28.973  27.263  23.606  1.00  0.00     0.010 A 
ATOM     31  H   UNL A   1      30.722  30.812  21.620  1.00  0.00     0.166 HD
ATOM     32  C   UNL A   1      28.221  29.710  22.440  1.00  0.00     0.026 A 
ATOM     33  C   UNL A   1      27.631  27.662  23.585  1.00  0.00     0.001 A 
ATOM     34  C   UNL A   1      27.259  28.862  22.992  1.00  0.00     0.002 A 
ENDBRANCH  24  25
ENDBRANCH   5  24
ENDBRANCH   3   5
ENDBRANCH   2   3
ENDBRANCH   1   2
BRANCH   1  35
ATOM     35  C   UNL A   1      32.569  30.658  26.744  1.00  0.00     0.275 C 
BRANCH  35  36
ATOM     36  O   UNL A   1      33.677  30.458  27.625  1.00  0.00    -0.458 OA
BRANCH  36  37
ATOM     37  C   UNL A   1      34.396  31.551  27.983  1.00  0.00     0.338 C 
ATOM     38  O   UNL A   1      33.994  32.593  28.463  1.00  0.00    -0.246 OA
BRANCH  37  39
ATOM     39  C   UNL A   1      35.803  31.114  27.949  1.00  0.00     0.060 A 
ATOM     40  C   UNL A   1      36.079  29.805  27.559  1.00  0.00     0.016 A 
ATOM     41  C   UNL A   1      36.774  31.911  28.580  1.00  0.00     0.016 A 
ATOM     42  C   UNL A   1      37.271  29.239  27.956  1.00  0.00     0.010 A 
ATOM     43  C   UNL A   1      37.988  31.338  28.960  1.00  0.00     0.010 A 
ATOM     44  C   UNL A   1      38.202  29.986  28.700  1.00  0.00    -0.014 A 
BRANCH  44  45
ATOM     45  C   UNL A   1      39.447  29.282  28.964  1.00  0.00     0.031 A 
ATOM     46  C   UNL A   1      39.640  28.995  30.392  1.00  0.00     0.074 A 
ATOM     47  C   UNL A   1      40.452  29.012  28.113  1.00  0.00     0.049 A 
ATOM     48  N   UNL A   1      40.315  29.695  31.239  1.00  0.00    -0.248 NA
ATOM     49  C   UNL A   1      38.885  27.875  30.960  1.00  0.00     0.031 C 
ATOM     50  C   UNL A   1      40.396  28.852  26.667  1.00  0.00     0.029 A 
ATOM     51  N   UNL A   1      41.768  28.772  28.422  1.00  0.00    -0.354 N 
ATOM     52  C   UNL A   1      40.209  29.012  32.436  1.00  0.00     0.074 A 
ATOM     53  C   UNL A   1      39.202  27.994  32.248  1.00  0.00     0.031 C 
ATOM     54  C   UNL A   1      41.585  28.362  26.240  1.00  0.00     0.029 A 
ATOM     55  C   UNL A   1      42.534  28.380  27.342  1.00  0.00     0.049 A 
ATOM     56  H   UNL A   1      42.132  28.872  29.331  1.00  0.00     0.167 HD
ATOM     57  C   UNL A   1      41.135  29.172  33.414  1.00  0.00     0.031 A 
ATOM     58  C   UNL A   1      43.860  28.107  27.319  1.00  0.00     0.031 A 
ATOM     59  C   UNL A   1      41.974  30.324  33.208  1.00  0.00     0.049 A 
ATOM     60  C   UNL A   1      44.515  28.747  28.482  1.00  0.00     0.074 A 
ATOM     61  C   UNL A   1      41.906  31.676  33.462  1.00  0.00     0.029 A 
ATOM     62  N   UNL A   1      43.008  30.126  32.332  1.00  0.00    -0.354 N 
ATOM     63  N   UNL A   1      44.657  30.036  28.624  1.00  0.00    -0.248 NA
ATOM     64  C   UNL A   1      44.828  27.951  29.664  1.00  0.00     0.031 C 
ATOM     65  C   UNL A   1      42.857  32.301  32.599  1.00  0.00     0.029 A 
ATOM     66  C   UNL A   1      43.476  31.317  31.834  1.00  0.00     0.049 A 
ATOM     67  H   UNL A   1      43.369  29.243  32.091  1.00  0.00     0.167 HD
ATOM     68  C   UNL A   1      44.698  30.231  29.992  1.00  0.00     0.074 A 
ATOM     69  C   UNL A   1      44.962  28.923  30.569  1.00  0.00     0.031 C 
ATOM     70  C   UNL A   1      44.192  31.353  30.573  1.00  0.00     0.031 A 
BRANCH  57  71
ATOM     71  C   UNL A   1      41.556  28.046  34.317  1.00  0.00    -0.014 A 
ATOM     72  C   UNL A   1      42.300  26.937  33.866  1.00  0.00     0.009 A 
ATOM     73  C   UNL A   1      41.446  28.212  35.707  1.00  0.00     0.009 A 
ATOM     74  C   UNL A   1      42.881  26.025  34.747  1.00  0.00     0.001 A 
ATOM     75  C   UNL A   1      42.064  27.323  36.594  1.00  0.00     0.001 A 
ATOM     76  C   UNL A   1      42.778  26.229  36.114  1.00  0.00     0.000 A 
ENDBRANCH  57  71
BRANCH  58  77
ATOM     77  C   UNL A   1      44.597  27.223  26.392  1.00  0.00    -0.014 A 
ATOM     78  C   UNL A   1      44.195  25.885  26.230  1.00  0.00     0.009 A 
ATOM     79  C   UNL A   1      45.832  27.605  25.846  1.00  0.00     0.009 A 
ATOM     80  C   UNL A   1      45.000  24.957  25.565  1.00  0.00     0.001 A 
ATOM     81  C   UNL A   1      46.646  26.673  25.188  1.00  0.00     0.001 A 
ATOM     82  C   UNL A   1      46.234  25.349  25.056  1.00  0.00     0.000 A 
ENDBRANCH  58  77
BRANCH  70  83
ATOM     83  C   UNL A   1      44.171  32.620  29.774  1.00  0.00    -0.014 A 
ATOM     84  C   UNL A   1      45.334  33.409  29.762  1.00  0.00     0.009 A 
ATOM     85  C   UNL A   1      43.033  33.092  29.106  1.00  0.00     0.009 A 
ATOM     86  C   UNL A   1      45.359  34.640  29.103  1.00  0.00     0.001 A 
ATOM     87  C   UNL A   1      43.064  34.318  28.434  1.00  0.00     0.001 A 
ATOM     88  C   UNL A   1      44.224  35.093  28.436  1.00  0.00     0.000 A 
ENDBRANCH  70  83
ENDBRANCH  44  45
ENDBRANCH  37  39
ENDBRANCH  36  37
ENDBRANCH  35  36
ENDBRANCH   1  35
TORSDOF 17
ENDMDL
MODEL 2
REMARK VINA RESULT:     -11.5      3.160      8.231
REMARK SMILES O=C(CSc1nnc2sc3ccccc3n12)N[C@H](Cc1c[nH]c2ccccc12)C(=O)OCCOC(=O)c1ccc(-c2c3nc(c(-c4ccccc4)c4ccc([nH]4)c(-c4ccccc4)c4nc(c(-c5ccccc5)c5ccc2[nH]5)C=C4)C=C3)cc1
REMARK SMILES IDX 32 1 31 2 29 3 30 4 18 5 17 6 1 7 2 8 3 10 4 11 5 12 6 13
REMARK SMILES IDX 16 14 7 15 8 16 15 17 9 18 10 19 14 20 11 21 13 22 12 23
REMARK SMILES IDX 19 24 20 25 21 26 28 27 22 28 23 29 27 30 24 32 26 33 25 34
REMARK SMILES IDX 33 35 34 36 35 37 36 38 37 39 38 40 84 41 39 42 83 43 40 44
REMARK SMILES IDX 41 45 42 46 77 47 43 48 82 49 76 50 78 51 44 52 81 53 75 54
REMARK SMILES IDX 74 55 45 57 67 58 52 59 66 60 53 61 56 62 65 63 79 64 54 65
REMARK SMILES IDX 55 66 64 68 80 69 57 70 46 71 47 72 51 73 48 74 50 75 49 76
REMARK SMILES IDX 68 77 69 78 73 79 70 80 72 81 71 82 58 83 59 84 63 85 60 86
REMARK SMILES IDX 62 87 61 88
REMARK H PARENT 17 9 22 31 78 56 56 67
REMARK Flexibility Score: inf
ROOT
ATOM      1  C   UNL A   1      36.615  21.286  25.363  1.00  0.00     0.274 C 
ENDROOT
BRANCH   1   2
ATOM      2  O   UNL A   1      36.079  22.554  24.935  1.00  0.00    -0.461 OA
BRANCH   2   3
ATOM      3  C   UNL A   1      35.079  23.080  25.678  1.00  0.00     0.329 C 
ATOM      4  O   UNL A   1      34.949  22.908  26.887  1.00  0.00    -0.250 OA
BRANCH   3   5
ATOM      5  C   UNL A   1      34.002  23.803  24.840  1.00  0.00     0.196 C 
BRANCH   5   6
ATOM      6  N   UNL A   1      33.986  25.209  25.341  1.00  0.00    -0.342 N 
ATOM      7  O   UNL A   1      33.771  26.110  23.255  1.00  0.00    -0.274 OA
ATOM      8  C   UNL A   1      33.824  26.275  24.475  1.00  0.00     0.231 C 
ATOM      9  H   UNL A   1      34.093  25.381  26.305  1.00  0.00     0.164 HD
BRANCH   8  10
ATOM     10  C   UNL A   1      33.882  27.679  25.046  1.00  0.00     0.178 C 
BRANCH  10  11
ATOM     11  S   UNL A   1      33.165  27.916  26.682  1.00  0.00    -0.076 SA
BRANCH  11  12
ATOM     12  C   UNL A   1      33.015  29.636  26.819  1.00  0.00     0.197 A 
ATOM     13  N   UNL A   1      31.926  30.338  26.564  1.00  0.00    -0.122 NA
ATOM     14  N   UNL A   1      33.958  30.466  27.369  1.00  0.00    -0.260 N 
ATOM     15  N   UNL A   1      32.126  31.642  27.017  1.00  0.00    -0.118 NA
ATOM     16  C   UNL A   1      33.326  31.664  27.529  1.00  0.00     0.217 A 
ATOM     17  C   UNL A   1      35.295  30.439  27.769  1.00  0.00     0.068 A 
ATOM     18  S   UNL A   1      34.311  32.872  28.281  1.00  0.00    -0.094 S 
ATOM     19  C   UNL A   1      35.655  31.685  28.317  1.00  0.00     0.055 A 
ATOM     20  C   UNL A   1      36.210  29.411  27.628  1.00  0.00     0.028 A 
ATOM     21  C   UNL A   1      36.944  31.905  28.777  1.00  0.00     0.021 A 
ATOM     22  C   UNL A   1      37.514  29.641  28.078  1.00  0.00     0.002 A 
ATOM     23  C   UNL A   1      37.876  30.871  28.655  1.00  0.00     0.002 A 
ENDBRANCH  11  12
ENDBRANCH  10  11
ENDBRANCH   8  10
ENDBRANCH   5   6
BRANCH   5  24
ATOM     24  C   UNL A   1      32.586  23.195  24.757  1.00  0.00     0.074 C 
BRANCH  24  25
ATOM     25  C   UNL A   1      32.382  22.031  23.805  1.00  0.00    -0.020 A 
ATOM     26  C   UNL A   1      31.964  22.102  22.484  1.00  0.00     0.087 A 
ATOM     27  C   UNL A   1      32.466  20.625  24.110  1.00  0.00     0.003 A 
ATOM     28  N   UNL A   1      31.850  20.828  21.985  1.00  0.00    -0.361 N 
ATOM     29  C   UNL A   1      32.209  19.910  22.939  1.00  0.00     0.046 A 
ATOM     30  C   UNL A   1      32.737  19.884  25.277  1.00  0.00     0.010 A 
ATOM     31  H   UNL A   1      31.554  20.606  21.073  1.00  0.00     0.166 HD
ATOM     32  C   UNL A   1      32.305  18.513  22.859  1.00  0.00     0.026 A 
ATOM     33  C   UNL A   1      32.874  18.492  25.211  1.00  0.00     0.001 A 
ATOM     34  C   UNL A   1      32.680  17.819  24.012  1.00  0.00     0.002 A 
ENDBRANCH  24  25
ENDBRANCH   5  24
ENDBRANCH   3   5
ENDBRANCH   2   3
ENDBRANCH   1   2
BRANCH   1  35
ATOM     35  C   UNL A   1      38.146  21.297  25.384  1.00  0.00     0.275 C 
BRANCH  35  36
ATOM     36  O   UNL A   1      38.605  22.473  26.055  1.00  0.00    -0.458 OA
BRANCH  36  37
ATOM     37  C   UNL A   1      39.896  22.494  26.469  1.00  0.00     0.338 C 
ATOM     38  O   UNL A   1      40.844  21.889  26.007  1.00  0.00    -0.246 OA
BRANCH  37  39
ATOM     39  C   UNL A   1      39.981  23.625  27.410  1.00  0.00     0.060 A 
ATOM     40  C   UNL A   1      38.925  24.533  27.449  1.00  0.00     0.016 A 
ATOM     41  C   UNL A   1      41.219  23.915  28.008  1.00  0.00     0.016 A 
ATOM     42  C   UNL A   1      39.164  25.799  27.935  1.00  0.00     0.010 A 
ATOM     43  C   UNL A   1      41.449  25.193  28.519  1.00  0.00     0.010 A 
ATOM     44  C   UNL A   1      40.437  26.146  28.422  1.00  0.00    -0.014 A 
BRANCH  44  45
ATOM     45  C   UNL A   1      40.509  27.485  28.985  1.00  0.00     0.031 A 
ATOM     46  C   UNL A   1      41.501  28.329  28.306  1.00  0.00     0.074 A 
ATOM     47  C   UNL A   1      39.908  27.962  30.089  1.00  0.00     0.049 A 
ATOM     48  N   UNL A   1      42.721  28.538  28.670  1.00  0.00    -0.248 NA
ATOM     49  C   UNL A   1      41.127  28.894  27.007  1.00  0.00     0.031 C 
ATOM     50  C   UNL A   1      38.671  27.513  30.713  1.00  0.00     0.029 A 
ATOM     51  N   UNL A   1      40.301  29.026  30.862  1.00  0.00    -0.354 N 
ATOM     52  C   UNL A   1      43.236  29.405  27.725  1.00  0.00     0.074 A 
ATOM     53  C   UNL A   1      42.274  29.469  26.650  1.00  0.00     0.031 C 
ATOM     54  C   UNL A   1      38.315  28.411  31.661  1.00  0.00     0.029 A 
ATOM     55  C   UNL A   1      39.397  29.365  31.849  1.00  0.00     0.049 A 
ATOM     56  H   UNL A   1      41.150  29.504  30.725  1.00  0.00     0.167 HD
ATOM     57  C   UNL A   1      44.299  30.198  28.011  1.00  0.00     0.031 A 
ATOM     58  C   UNL A   1      39.512  30.337  32.784  1.00  0.00     0.031 A 
ATOM     59  C   UNL A   1      44.994  29.792  29.205  1.00  0.00     0.049 A 
ATOM     60  C   UNL A   1      40.940  30.692  32.952  1.00  0.00     0.074 A 
ATOM     61  C   UNL A   1      45.965  28.875  29.541  1.00  0.00     0.029 A 
ATOM     62  N   UNL A   1      44.422  30.224  30.372  1.00  0.00    -0.354 N 
ATOM     63  N   UNL A   1      41.833  29.903  33.482  1.00  0.00    -0.248 NA
ATOM     64  C   UNL A   1      41.470  31.883  32.295  1.00  0.00     0.031 C 
ATOM     65  C   UNL A   1      45.864  28.673  30.952  1.00  0.00     0.029 A 
ATOM     66  C   UNL A   1      44.830  29.464  31.441  1.00  0.00     0.049 A 
ATOM     67  H   UNL A   1      43.798  30.983  30.436  1.00  0.00     0.167 HD
ATOM     68  C   UNL A   1      43.026  30.290  32.901  1.00  0.00     0.074 A 
ATOM     69  C   UNL A   1      42.773  31.597  32.315  1.00  0.00     0.031 C 
ATOM     70  C   UNL A   1      44.022  29.400  32.644  1.00  0.00     0.031 A 
BRANCH  57  71
ATOM     71  C   UNL A   1      44.442  31.586  27.453  1.00  0.00    -0.014 A 
ATOM     72  C   UNL A   1      44.777  31.842  26.108  1.00  0.00     0.009 A 
ATOM     73  C   UNL A   1      43.973  32.673  28.207  1.00  0.00     0.009 A 
ATOM     74  C   UNL A   1      44.679  33.115  25.547  1.00  0.00     0.001 A 
ATOM     75  C   UNL A   1      43.832  33.944  27.636  1.00  0.00     0.001 A 
ATOM     76  C   UNL A   1      44.188  34.165  26.309  1.00  0.00     0.000 A 
ENDBRANCH  57  71
BRANCH  58  77
ATOM     77  C   UNL A   1      38.435  31.067  33.484  1.00  0.00    -0.014 A 
ATOM     78  C   UNL A   1      37.410  31.683  32.745  1.00  0.00     0.009 A 
ATOM     79  C   UNL A   1      38.529  31.372  34.852  1.00  0.00     0.009 A 
ATOM     80  C   UNL A   1      36.521  32.583  33.339  1.00  0.00     0.001 A 
ATOM     81  C   UNL A   1      37.645  32.281  35.447  1.00  0.00     0.001 A 
ATOM     82  C   UNL A   1      36.648  32.892  34.689  1.00  0.00     0.000 A 
ENDBRANCH  58  77
BRANCH  70  83
ATOM     83  C   UNL A   1      44.131  28.185  33.514  1.00  0.00    -0.014 A 
ATOM     84  C   UNL A   1      45.015  28.235  34.605  1.00  0.00     0.009 A 
ATOM     85  C   UNL A   1      43.457  26.985  33.250  1.00  0.00     0.009 A 
ATOM     86  C   UNL A   1      45.224  27.114  35.411  1.00  0.00     0.001 A 
ATOM     87  C   UNL A   1      43.656  25.866  34.067  1.00  0.00     0.001 A 
ATOM     88  C   UNL A   1      44.542  25.930  35.143  1.00  0.00     0.000 A 
ENDBRANCH  70  83
ENDBRANCH  44  45
ENDBRANCH  37  39
ENDBRANCH  36  37
ENDBRANCH  35  36
ENDBRANCH   1  35
TORSDOF 17
ENDMDL
MODEL 3
REMARK VINA RESULT:     -11.0      2.349      5.771
REMARK SMILES O=C(CSc1nnc2sc3ccccc3n12)N[C@H](Cc1c[nH]c2ccccc12)C(=O)OCCOC(=O)c1ccc(-c2c3nc(c(-c4ccccc4)c4ccc([nH]4)c(-c4ccccc4)c4nc(c(-c5ccccc5)c5ccc2[nH]5)C=C4)C=C3)cc1
REMARK SMILES IDX 32 1 31 2 29 3 30 4 18 5 17 6 1 7 2 8 3 10 4 11 5 12 6 13
REMARK SMILES IDX 16 14 7 15 8 16 15 17 9 18 10 19 14 20 11 21 13 22 12 23
REMARK SMILES IDX 19 24 20 25 21 26 28 27 22 28 23 29 27 30 24 32 26 33 25 34
REMARK SMILES IDX 33 35 34 36 35 37 36 38 37 39 38 40 84 41 39 42 83 43 40 44
REMARK SMILES IDX 41 45 42 46 77 47 43 48 82 49 76 50 78 51 44 52 81 53 75 54
REMARK SMILES IDX 74 55 45 57 67 58 52 59 66 60 53 61 56 62 65 63 79 64 54 65
REMARK SMILES IDX 55 66 64 68 80 69 57 70 46 71 47 72 51 73 48 74 50 75 49 76
REMARK SMILES IDX 68 77 69 78 73 79 70 80 72 81 71 82 58 83 59 84 63 85 60 86
REMARK SMILES IDX 62 87 61 88
REMARK H PARENT 17 9 22 31 78 56 56 67
REMARK Flexibility Score: inf
ROOT
ATOM      1  C   UNL A   1      34.119  28.564  27.092  1.00  0.00     0.274 C 
ENDROOT
BRANCH   1   2
ATOM      2  O   UNL A   1      33.269  28.815  25.955  1.00  0.00    -0.461 OA
BRANCH   2   3
ATOM      3  C   UNL A   1      33.551  28.140  24.817  1.00  0.00     0.329 C 
ATOM      4  O   UNL A   1      34.355  28.515  23.969  1.00  0.00    -0.250 OA
BRANCH   3   5
ATOM      5  C   UNL A   1      32.646  26.909  24.591  1.00  0.00     0.196 C 
BRANCH   5   6
ATOM      6  N   UNL A   1      33.542  25.724  24.737  1.00  0.00    -0.342 N 
ATOM      7  O   UNL A   1      32.233  24.740  26.328  1.00  0.00    -0.274 OA
ATOM      8  C   UNL A   1      33.222  24.687  25.595  1.00  0.00     0.231 C 
ATOM      9  H   UNL A   1      34.375  25.680  24.215  1.00  0.00     0.164 HD
BRANCH   8  10
ATOM     10  C   UNL A   1      34.211  23.546  25.740  1.00  0.00     0.178 C 
BRANCH  10  11
ATOM     11  S   UNL A   1      34.981  22.946  24.227  1.00  0.00    -0.076 SA
BRANCH  11  12
ATOM     12  C   UNL A   1      35.894  21.570  24.748  1.00  0.00     0.197 A 
ATOM     13  N   UNL A   1      35.591  20.307  24.508  1.00  0.00    -0.122 NA
ATOM     14  N   UNL A   1      37.134  21.625  25.332  1.00  0.00    -0.260 N 
ATOM     15  N   UNL A   1      36.680  19.516  24.877  1.00  0.00    -0.118 NA
ATOM     16  C   UNL A   1      37.591  20.340  25.317  1.00  0.00     0.217 A 
ATOM     17  C   UNL A   1      37.995  22.556  25.914  1.00  0.00     0.068 A 
ATOM     18  S   UNL A   1      39.191  20.164  25.952  1.00  0.00    -0.094 S 
ATOM     19  C   UNL A   1      39.193  21.925  26.298  1.00  0.00     0.055 A 
ATOM     20  C   UNL A   1      37.763  23.896  26.166  1.00  0.00     0.028 A 
ATOM     21  C   UNL A   1      40.205  22.647  26.911  1.00  0.00     0.021 A 
ATOM     22  C   UNL A   1      38.777  24.620  26.800  1.00  0.00     0.002 A 
ATOM     23  C   UNL A   1      39.990  24.006  27.161  1.00  0.00     0.002 A 
ENDBRANCH  11  12
ENDBRANCH  10  11
ENDBRANCH   8  10
ENDBRANCH   5   6
BRANCH   5  24
ATOM     24  C   UNL A   1      31.785  26.838  23.312  1.00  0.00     0.074 C 
BRANCH  24  25
ATOM     25  C   UNL A   1      30.281  26.959  23.476  1.00  0.00    -0.020 A 
ATOM     26  C   UNL A   1      29.410  25.966  23.898  1.00  0.00     0.087 A 
ATOM     27  C   UNL A   1      29.449  28.079  23.117  1.00  0.00     0.003 A 
ATOM     28  N   UNL A   1      28.128  26.455  23.858  1.00  0.00    -0.361 N 
ATOM     29  C   UNL A   1      28.129  27.762  23.443  1.00  0.00     0.046 A 
ATOM     30  C   UNL A   1      29.690  29.342  22.542  1.00  0.00     0.010 A 
ATOM     31  H   UNL A   1      27.322  25.940  24.095  1.00  0.00     0.166 HD
ATOM     32  C   UNL A   1      27.069  28.672  23.313  1.00  0.00     0.026 A 
ATOM     33  C   UNL A   1      28.654  30.278  22.439  1.00  0.00     0.001 A 
ATOM     34  C   UNL A   1      27.364  29.952  22.839  1.00  0.00     0.002 A 
ENDBRANCH  24  25
ENDBRANCH   5  24
ENDBRANCH   3   5
ENDBRANCH   2   3
ENDBRANCH   1   2
BRANCH   1  35
ATOM     35  C   UNL A   1      34.826  29.838  27.564  1.00  0.00     0.275 C 
BRANCH  35  36
ATOM     36  O   UNL A   1      36.241  29.663  27.460  1.00  0.00    -0.458 OA
BRANCH  36  37
ATOM     37  C   UNL A   1      36.927  29.423  28.606  1.00  0.00     0.338 C 
ATOM     38  O   UNL A   1      36.509  29.427  29.747  1.00  0.00    -0.246 OA
BRANCH  37  39
ATOM     39  C   UNL A   1      38.219  28.864  28.171  1.00  0.00     0.060 A 
ATOM     40  C   UNL A   1      38.958  28.117  29.086  1.00  0.00     0.016 A 
ATOM     41  C   UNL A   1      38.792  29.337  26.978  1.00  0.00     0.016 A 
ATOM     42  C   UNL A   1      40.316  27.993  28.889  1.00  0.00     0.010 A 
ATOM     43  C   UNL A   1      40.164  29.189  26.773  1.00  0.00     0.010 A 
ATOM     44  C   UNL A   1      40.928  28.571  27.762  1.00  0.00    -0.014 A 
BRANCH  44  45
ATOM     45  C   UNL A   1      42.347  28.276  27.645  1.00  0.00     0.031 A 
ATOM     46  C   UNL A   1      42.602  26.981  26.999  1.00  0.00     0.074 A 
ATOM     47  C   UNL A   1      43.387  28.950  28.165  1.00  0.00     0.049 A 
ATOM     48  N   UNL A   1      42.818  25.852  27.584  1.00  0.00    -0.248 NA
ATOM     49  C   UNL A   1      42.467  26.920  25.542  1.00  0.00     0.031 C 
ATOM     50  C   UNL A   1      43.471  30.362  28.510  1.00  0.00     0.029 A 
ATOM     51  N   UNL A   1      44.640  28.466  28.448  1.00  0.00    -0.354 N 
ATOM     52  C   UNL A   1      43.013  24.947  26.558  1.00  0.00     0.074 A 
ATOM     53  C   UNL A   1      42.638  25.615  25.335  1.00  0.00     0.031 C 
ATOM     54  C   UNL A   1      44.762  30.664  28.783  1.00  0.00     0.029 A 
ATOM     55  C   UNL A   1      45.541  29.437  28.840  1.00  0.00     0.049 A 
ATOM     56  H   UNL A   1      44.876  27.513  28.377  1.00  0.00     0.167 HD
ATOM     57  C   UNL A   1      43.707  23.799  26.764  1.00  0.00     0.031 A 
ATOM     58  C   UNL A   1      46.831  29.272  29.214  1.00  0.00     0.031 A 
ATOM     59  C   UNL A   1      43.885  23.495  28.160  1.00  0.00     0.049 A 
ATOM     60  C   UNL A   1      47.047  27.868  29.632  1.00  0.00     0.074 A 
ATOM     61  C   UNL A   1      43.158  22.885  29.157  1.00  0.00     0.029 A 
ATOM     62  N   UNL A   1      44.916  24.166  28.762  1.00  0.00    -0.354 N 
ATOM     63  N   UNL A   1      46.537  27.338  30.709  1.00  0.00    -0.248 NA
ATOM     64  C   UNL A   1      47.664  26.925  28.704  1.00  0.00     0.031 C 
ATOM     65  C   UNL A   1      43.715  23.325  30.397  1.00  0.00     0.029 A 
ATOM     66  C   UNL A   1      44.763  24.199  30.126  1.00  0.00     0.049 A 
ATOM     67  H   UNL A   1      45.671  24.573  28.278  1.00  0.00     0.167 HD
ATOM     68  C   UNL A   1      46.427  25.992  30.414  1.00  0.00     0.074 A 
ATOM     69  C   UNL A   1      47.273  25.772  29.252  1.00  0.00     0.031 C 
ATOM     70  C   UNL A   1      45.418  25.228  30.912  1.00  0.00     0.031 A 
BRANCH  57  71
ATOM     71  C   UNL A   1      44.589  23.190  25.710  1.00  0.00    -0.014 A 
ATOM     72  C   UNL A   1      45.618  23.905  25.063  1.00  0.00     0.009 A 
ATOM     73  C   UNL A   1      44.582  21.797  25.539  1.00  0.00     0.009 A 
ATOM     74  C   UNL A   1      46.573  23.274  24.266  1.00  0.00     0.001 A 
ATOM     75  C   UNL A   1      45.563  21.155  24.775  1.00  0.00     0.001 A 
ATOM     76  C   UNL A   1      46.555  21.893  24.136  1.00  0.00     0.000 A 
ENDBRANCH  57  71
BRANCH  58  77
ATOM     77  C   UNL A   1      47.940  30.246  29.134  1.00  0.00    -0.014 A 
ATOM     78  C   UNL A   1      48.368  30.721  27.882  1.00  0.00     0.009 A 
ATOM     79  C   UNL A   1      48.740  30.533  30.251  1.00  0.00     0.009 A 
ATOM     80  C   UNL A   1      49.557  31.440  27.742  1.00  0.00     0.001 A 
ATOM     81  C   UNL A   1      49.938  31.246  30.111  1.00  0.00     0.001 A 
ATOM     82  C   UNL A   1      50.350  31.690  28.857  1.00  0.00     0.000 A 
ENDBRANCH  58  77
BRANCH  70  83
ATOM     83  C   UNL A   1      44.812  25.619  32.226  1.00  0.00    -0.014 A 
ATOM     84  C   UNL A   1      45.177  24.879  33.364  1.00  0.00     0.009 A 
ATOM     85  C   UNL A   1      43.848  26.627  32.360  1.00  0.00     0.009 A 
ATOM     86  C   UNL A   1      44.592  25.138  34.605  1.00  0.00     0.001 A 
ATOM     87  C   UNL A   1      43.274  26.896  33.608  1.00  0.00     0.001 A 
ATOM     88  C   UNL A   1      43.642  26.149  34.727  1.00  0.00     0.000 A 
ENDBRANCH  70  83
ENDBRANCH  44  45
ENDBRANCH  37  39
ENDBRANCH  36  37
ENDBRANCH  35  36
ENDBRANCH   1  35
TORSDOF 17
ENDMDL
