MODEL 1
REMARK VINA RESULT:     -10.5      0.000      0.000
REMARK SMILES C[C@@H]1[C@@H](C(=O)OCCOC(=O)c2ccc(-c3c4nc(c(-c5ccccc5)c5ccc([nH]5)c(-c5ccccc5)c5nc(c(-c6ccccc6)c6ccc3[nH]6)C=C5)C=C4)cc2)CCN1C(=O)N1CCC[C@H]2CCC[C@@H]21
REMARK SMILES IDX 7 1 6 2 4 3 5 4 3 5 1 6 2 7 62 8 60 9 61 10 63 11 64 12
REMARK SMILES IDX 65 13 66 14 73 15 67 16 69 17 72 18 68 19 70 20 71 21 8 22
REMARK SMILES IDX 9 23 10 24 11 25 12 26 13 27 59 28 14 29 58 30 15 31 16 32
REMARK SMILES IDX 17 33 52 34 18 35 57 36 51 37 53 38 19 39 56 40 50 41 49 42
REMARK SMILES IDX 20 44 42 45 27 46 41 47 28 48 31 49 40 50 54 51 29 52 30 53
REMARK SMILES IDX 39 55 55 56 32 57 21 58 22 59 26 60 23 61 25 62 24 63 43 64
REMARK SMILES IDX 44 65 48 66 45 67 47 68 46 69 33 70 34 71 38 72 35 73 37 74
REMARK SMILES IDX 36 75
REMARK H PARENT 53 43 31 54
REMARK Flexibility Score: inf
ROOT
ATOM      1  C   UNL A   1      31.809  29.175  26.754  1.00  0.00     0.274 C 
ENDROOT
BRANCH   1   2
ATOM      2  O   UNL A   1      31.218  28.388  25.702  1.00  0.00    -0.462 OA
BRANCH   2   3
ATOM      3  C   UNL A   1      31.348  27.035  25.821  1.00  0.00     0.311 C 
ATOM      4  O   UNL A   1      31.188  26.416  26.862  1.00  0.00    -0.252 OA
BRANCH   3   5
ATOM      5  C   UNL A   1      31.597  26.410  24.459  1.00  0.00     0.123 C 
ATOM      6  C   UNL A   1      31.203  24.259  23.226  1.00  0.00     0.032 C 
ATOM      7  C   UNL A   1      31.672  24.876  24.549  1.00  0.00     0.098 C 
ATOM      8  N   UNL A   1      33.090  24.609  24.825  1.00  0.00    -0.321 N 
ATOM      9  C   UNL A   1      32.957  26.779  23.869  1.00  0.00     0.039 C 
ATOM     10  C   UNL A   1      33.909  25.758  24.479  1.00  0.00     0.122 C 
BRANCH   8  11
ATOM     11  C   UNL A   1      33.600  23.701  25.743  1.00  0.00     0.320 C 
ATOM     12  O   UNL A   1      33.346  23.770  26.944  1.00  0.00    -0.248 OA
BRANCH  11  13
ATOM     13  N   UNL A   1      34.282  22.638  25.208  1.00  0.00    -0.321 N 
ATOM     14  C   UNL A   1      33.608  21.605  24.433  1.00  0.00     0.121 C 
ATOM     15  C   UNL A   1      35.715  22.674  25.000  1.00  0.00     0.090 C 
ATOM     16  C   UNL A   1      34.156  20.220  24.779  1.00  0.00     0.022 C 
ATOM     17  C   UNL A   1      36.272  21.360  25.550  1.00  0.00     0.012 C 
ATOM     18  C   UNL A   1      36.567  23.707  25.730  1.00  0.00     0.025 C 
ATOM     19  C   UNL A   1      35.693  20.179  24.770  1.00  0.00     0.007 C 
ATOM     20  C   UNL A   1      37.776  21.581  25.503  1.00  0.00     0.006 C 
ATOM     21  C   UNL A   1      37.963  23.078  25.768  1.00  0.00     0.002 C 
ENDBRANCH  11  13
ENDBRANCH   8  11
ENDBRANCH   3   5
ENDBRANCH   2   3
ENDBRANCH   1   2
BRANCH   1  22
ATOM     22  C   UNL A   1      33.284  29.497  26.479  1.00  0.00     0.275 C 
BRANCH  22  23
ATOM     23  O   UNL A   1      34.131  29.202  27.608  1.00  0.00    -0.458 OA
BRANCH  23  24
ATOM     24  C   UNL A   1      34.805  30.262  28.116  1.00  0.00     0.338 C 
ATOM     25  O   UNL A   1      34.338  31.345  28.428  1.00  0.00    -0.246 OA
BRANCH  24  26
ATOM     26  C   UNL A   1      36.204  29.891  28.408  1.00  0.00     0.060 A 
ATOM     27  C   UNL A   1      37.133  30.065  27.378  1.00  0.00     0.016 A 
ATOM     28  C   UNL A   1      36.604  29.335  29.627  1.00  0.00     0.016 A 
ATOM     29  C   UNL A   1      38.463  29.706  27.569  1.00  0.00     0.010 A 
ATOM     30  C   UNL A   1      37.942  28.950  29.808  1.00  0.00     0.010 A 
ATOM     31  C   UNL A   1      38.878  29.137  28.780  1.00  0.00    -0.014 A 
BRANCH  31  32
ATOM     32  C   UNL A   1      40.292  28.700  28.896  1.00  0.00     0.031 A 
ATOM     33  C   UNL A   1      40.691  27.349  28.391  1.00  0.00     0.074 A 
ATOM     34  C   UNL A   1      41.235  29.564  29.316  1.00  0.00     0.049 A 
ATOM     35  N   UNL A   1      41.887  26.828  28.294  1.00  0.00    -0.248 NA
ATOM     36  C   UNL A   1      39.603  26.461  27.957  1.00  0.00     0.031 C 
ATOM     37  C   UNL A   1      40.963  30.910  29.803  1.00  0.00     0.029 A 
ATOM     38  N   UNL A   1      42.605  29.479  29.315  1.00  0.00    -0.354 N 
ATOM     39  C   UNL A   1      41.693  25.529  27.851  1.00  0.00     0.074 A 
ATOM     40  C   UNL A   1      40.269  25.357  27.646  1.00  0.00     0.031 C 
ATOM     41  C   UNL A   1      42.125  31.578  29.909  1.00  0.00     0.029 A 
ATOM     42  C   UNL A   1      43.224  30.684  29.567  1.00  0.00     0.049 A 
ATOM     43  H   UNL A   1      43.096  28.642  29.150  1.00  0.00     0.167 HD
ATOM     44  C   UNL A   1      42.617  24.553  27.685  1.00  0.00     0.031 A 
ATOM     45  C   UNL A   1      44.526  31.027  29.501  1.00  0.00     0.031 A 
ATOM     46  C   UNL A   1      44.026  24.725  27.921  1.00  0.00     0.049 A 
ATOM     47  C   UNL A   1      45.538  29.941  29.254  1.00  0.00     0.074 A 
ATOM     48  C   UNL A   1      45.032  23.775  27.882  1.00  0.00     0.029 A 
ATOM     49  N   UNL A   1      44.629  25.934  28.233  1.00  0.00    -0.354 N 
ATOM     50  N   UNL A   1      45.341  28.691  28.912  1.00  0.00    -0.248 NA
ATOM     51  C   UNL A   1      46.952  30.299  29.447  1.00  0.00     0.031 C 
ATOM     52  C   UNL A   1      46.239  24.404  28.211  1.00  0.00     0.029 A 
ATOM     53  C   UNL A   1      45.992  25.753  28.400  1.00  0.00     0.049 A 
ATOM     54  H   UNL A   1      44.158  26.794  28.323  1.00  0.00     0.167 HD
ATOM     55  C   UNL A   1      46.599  28.104  28.893  1.00  0.00     0.074 A 
ATOM     56  C   UNL A   1      47.559  29.152  29.179  1.00  0.00     0.031 C 
ATOM     57  C   UNL A   1      46.928  26.803  28.702  1.00  0.00     0.031 A 
BRANCH  44  58
ATOM     58  C   UNL A   1      42.104  23.185  27.347  1.00  0.00    -0.014 A 
ATOM     59  C   UNL A   1      42.056  22.717  26.026  1.00  0.00     0.009 A 
ATOM     60  C   UNL A   1      41.651  22.353  28.383  1.00  0.00     0.009 A 
ATOM     61  C   UNL A   1      41.533  21.451  25.749  1.00  0.00     0.001 A 
ATOM     62  C   UNL A   1      41.153  21.081  28.106  1.00  0.00     0.001 A 
ATOM     63  C   UNL A   1      41.085  20.634  26.788  1.00  0.00     0.000 A 
ENDBRANCH  44  58
BRANCH  45  64
ATOM     64  C   UNL A   1      44.976  32.438  29.689  1.00  0.00    -0.014 A 
ATOM     65  C   UNL A   1      45.015  32.998  30.977  1.00  0.00     0.009 A 
ATOM     66  C   UNL A   1      45.322  33.248  28.598  1.00  0.00     0.009 A 
ATOM     67  C   UNL A   1      45.364  34.339  31.163  1.00  0.00     0.001 A 
ATOM     68  C   UNL A   1      45.710  34.576  28.789  1.00  0.00     0.001 A 
ATOM     69  C   UNL A   1      45.718  35.125  30.070  1.00  0.00     0.000 A 
ENDBRANCH  45  64
BRANCH  57  70
ATOM     70  C   UNL A   1      48.380  26.442  28.830  1.00  0.00    -0.014 A 
ATOM     71  C   UNL A   1      49.241  26.529  27.724  1.00  0.00     0.009 A 
ATOM     72  C   UNL A   1      48.902  26.049  30.071  1.00  0.00     0.009 A 
ATOM     73  C   UNL A   1      50.591  26.200  27.851  1.00  0.00     0.001 A 
ATOM     74  C   UNL A   1      50.258  25.744  30.201  1.00  0.00     0.001 A 
ATOM     75  C   UNL A   1      51.099  25.812  29.090  1.00  0.00     0.000 A 
ENDBRANCH  57  70
ENDBRANCH  31  32
ENDBRANCH  24  26
ENDBRANCH  23  24
ENDBRANCH  22  23
ENDBRANCH   1  22
TORSDOF 13
ENDMDL
MODEL 2
REMARK VINA RESULT:     -10.4      3.488      6.688
REMARK SMILES C[C@@H]1[C@@H](C(=O)OCCOC(=O)c2ccc(-c3c4nc(c(-c5ccccc5)c5ccc([nH]5)c(-c5ccccc5)c5nc(c(-c6ccccc6)c6ccc3[nH]6)C=C5)C=C4)cc2)CCN1C(=O)N1CCC[C@H]2CCC[C@@H]21
REMARK SMILES IDX 7 1 6 2 4 3 5 4 3 5 1 6 2 7 62 8 60 9 61 10 63 11 64 12
REMARK SMILES IDX 65 13 66 14 73 15 67 16 69 17 72 18 68 19 70 20 71 21 8 22
REMARK SMILES IDX 9 23 10 24 11 25 12 26 13 27 59 28 14 29 58 30 15 31 16 32
REMARK SMILES IDX 17 33 52 34 18 35 57 36 51 37 53 38 19 39 56 40 50 41 49 42
REMARK SMILES IDX 20 44 42 45 27 46 41 47 28 48 31 49 40 50 54 51 29 52 30 53
REMARK SMILES IDX 39 55 55 56 32 57 21 58 22 59 26 60 23 61 25 62 24 63 43 64
REMARK SMILES IDX 44 65 48 66 45 67 47 68 46 69 33 70 34 71 38 72 35 73 37 74
REMARK SMILES IDX 36 75
REMARK H PARENT 53 43 31 54
REMARK Flexibility Score: inf
ROOT
ATOM      1  C   UNL A   1      31.039  29.676  24.577  1.00  0.00     0.274 C 
ENDROOT
BRANCH   1   2
ATOM      2  O   UNL A   1      31.715  28.714  23.745  1.00  0.00    -0.462 OA
BRANCH   2   3
ATOM      3  C   UNL A   1      30.933  27.744  23.192  1.00  0.00     0.311 C 
ATOM      4  O   UNL A   1      30.658  27.674  22.003  1.00  0.00    -0.252 OA
BRANCH   3   5
ATOM      5  C   UNL A   1      30.560  26.709  24.240  1.00  0.00     0.123 C 
ATOM      6  C   UNL A   1      31.515  25.609  26.285  1.00  0.00     0.032 C 
ATOM      7  C   UNL A   1      31.809  26.045  24.845  1.00  0.00     0.098 C 
ATOM      8  N   UNL A   1      32.069  24.908  23.952  1.00  0.00    -0.321 N 
ATOM      9  C   UNL A   1      29.793  25.521  23.665  1.00  0.00     0.039 C 
ATOM     10  C   UNL A   1      30.888  24.583  23.171  1.00  0.00     0.122 C 
BRANCH   8  11
ATOM     11  C   UNL A   1      33.303  24.502  23.462  1.00  0.00     0.320 C 
ATOM     12  O   UNL A   1      33.724  24.865  22.365  1.00  0.00    -0.248 OA
BRANCH  11  13
ATOM     13  N   UNL A   1      34.085  23.794  24.339  1.00  0.00    -0.321 N 
ATOM     14  C   UNL A   1      35.040  24.452  25.219  1.00  0.00     0.121 C 
ATOM     15  C   UNL A   1      33.740  22.451  24.759  1.00  0.00     0.090 C 
ATOM     16  C   UNL A   1      36.341  23.651  25.308  1.00  0.00     0.022 C 
ATOM     17  C   UNL A   1      35.013  21.612  24.636  1.00  0.00     0.012 C 
ATOM     18  C   UNL A   1      32.744  21.630  23.949  1.00  0.00     0.025 C 
ATOM     19  C   UNL A   1      36.092  22.157  25.573  1.00  0.00     0.007 C 
ATOM     20  C   UNL A   1      34.513  20.195  24.870  1.00  0.00     0.006 C 
ATOM     21  C   UNL A   1      33.095  20.177  24.288  1.00  0.00     0.002 C 
ENDBRANCH  11  13
ENDBRANCH   8  11
ENDBRANCH   3   5
ENDBRANCH   2   3
ENDBRANCH   1   2
BRANCH   1  22
ATOM     22  C   UNL A   1      31.619  29.724  25.997  1.00  0.00     0.275 C 
BRANCH  22  23
ATOM     23  O   UNL A   1      32.993  30.163  26.016  1.00  0.00    -0.458 OA
BRANCH  23  24
ATOM     24  C   UNL A   1      33.267  31.160  26.891  1.00  0.00     0.338 C 
ATOM     25  O   UNL A   1      32.512  32.049  27.248  1.00  0.00    -0.246 OA
BRANCH  24  26
ATOM     26  C   UNL A   1      34.591  30.951  27.511  1.00  0.00     0.060 A 
ATOM     27  C   UNL A   1      34.932  29.639  27.849  1.00  0.00     0.016 A 
ATOM     28  C   UNL A   1      35.464  32.002  27.812  1.00  0.00     0.016 A 
ATOM     29  C   UNL A   1      36.149  29.369  28.467  1.00  0.00     0.010 A 
ATOM     30  C   UNL A   1      36.680  31.730  28.458  1.00  0.00     0.010 A 
ATOM     31  C   UNL A   1      37.029  30.412  28.786  1.00  0.00    -0.014 A 
BRANCH  31  32
ATOM     32  C   UNL A   1      38.275  30.071  29.517  1.00  0.00     0.031 A 
ATOM     33  C   UNL A   1      38.374  30.360  30.982  1.00  0.00     0.074 A 
ATOM     34  C   UNL A   1      39.251  29.377  28.902  1.00  0.00     0.049 A 
ATOM     35  N   UNL A   1      39.324  30.037  31.821  1.00  0.00    -0.248 NA
ATOM     36  C   UNL A   1      37.272  31.128  31.577  1.00  0.00     0.031 C 
ATOM     37  C   UNL A   1      39.247  29.019  27.490  1.00  0.00     0.029 A 
ATOM     38  N   UNL A   1      40.381  28.773  29.397  1.00  0.00    -0.354 N 
ATOM     39  C   UNL A   1      38.969  30.618  33.028  1.00  0.00     0.074 A 
ATOM     40  C   UNL A   1      37.690  31.268  32.828  1.00  0.00     0.031 C 
ATOM     41  C   UNL A   1      40.233  28.135  27.261  1.00  0.00     0.029 A 
ATOM     42  C   UNL A   1      40.981  27.922  28.495  1.00  0.00     0.049 A 
ATOM     43  H   UNL A   1      40.727  28.931  30.305  1.00  0.00     0.167 HD
ATOM     44  C   UNL A   1      39.676  30.650  34.182  1.00  0.00     0.031 A 
ATOM     45  C   UNL A   1      41.999  27.053  28.658  1.00  0.00     0.031 A 
ATOM     46  C   UNL A   1      40.961  30.027  34.362  1.00  0.00     0.049 A 
ATOM     47  C   UNL A   1      42.737  27.058  29.969  1.00  0.00     0.074 A 
ATOM     48  C   UNL A   1      41.807  30.088  35.456  1.00  0.00     0.029 A 
ATOM     49  N   UNL A   1      41.582  29.220  33.421  1.00  0.00    -0.354 N 
ATOM     50  N   UNL A   1      42.434  27.676  31.085  1.00  0.00    -0.248 NA
ATOM     51  C   UNL A   1      43.993  26.294  30.023  1.00  0.00     0.031 C 
ATOM     52  C   UNL A   1      42.958  29.350  35.159  1.00  0.00     0.029 A 
ATOM     53  C   UNL A   1      42.805  28.785  33.904  1.00  0.00     0.049 A 
ATOM     54  H   UNL A   1      41.209  28.991  32.539  1.00  0.00     0.167 HD
ATOM     55  C   UNL A   1      43.482  27.412  31.956  1.00  0.00     0.074 A 
ATOM     56  C   UNL A   1      44.388  26.515  31.269  1.00  0.00     0.031 C 
ATOM     57  C   UNL A   1      43.700  27.907  33.199  1.00  0.00     0.031 A 
BRANCH  44  58
ATOM     58  C   UNL A   1      39.122  31.493  35.293  1.00  0.00    -0.014 A 
ATOM     59  C   UNL A   1      39.417  32.858  35.406  1.00  0.00     0.009 A 
ATOM     60  C   UNL A   1      38.290  30.892  36.252  1.00  0.00     0.009 A 
ATOM     61  C   UNL A   1      38.914  33.599  36.479  1.00  0.00     0.001 A 
ATOM     62  C   UNL A   1      37.770  31.640  37.308  1.00  0.00     0.001 A 
ATOM     63  C   UNL A   1      38.089  32.990  37.426  1.00  0.00     0.000 A 
ENDBRANCH  44  58
BRANCH  45  64
ATOM     64  C   UNL A   1      42.414  26.119  27.571  1.00  0.00    -0.014 A 
ATOM     65  C   UNL A   1      43.269  26.565  26.548  1.00  0.00     0.009 A 
ATOM     66  C   UNL A   1      41.933  24.804  27.512  1.00  0.00     0.009 A 
ATOM     67  C   UNL A   1      43.610  25.725  25.484  1.00  0.00     0.001 A 
ATOM     68  C   UNL A   1      42.307  23.952  26.469  1.00  0.00     0.001 A 
ATOM     69  C   UNL A   1      43.135  24.417  25.449  1.00  0.00     0.000 A 
ENDBRANCH  45  64
BRANCH  57  70
ATOM     70  C   UNL A   1      44.981  27.512  33.875  1.00  0.00    -0.014 A 
ATOM     71  C   UNL A   1      46.147  28.276  33.705  1.00  0.00     0.009 A 
ATOM     72  C   UNL A   1      45.017  26.392  34.719  1.00  0.00     0.009 A 
ATOM     73  C   UNL A   1      47.333  27.909  34.343  1.00  0.00     0.001 A 
ATOM     74  C   UNL A   1      46.198  26.041  35.375  1.00  0.00     0.001 A 
ATOM     75  C   UNL A   1      47.356  26.795  35.180  1.00  0.00     0.000 A 
ENDBRANCH  57  70
ENDBRANCH  31  32
ENDBRANCH  24  26
ENDBRANCH  23  24
ENDBRANCH  22  23
ENDBRANCH   1  22
TORSDOF 13
ENDMDL
MODEL 3
REMARK VINA RESULT:     -10.3      3.835      7.506
REMARK SMILES C[C@@H]1[C@@H](C(=O)OCCOC(=O)c2ccc(-c3c4nc(c(-c5ccccc5)c5ccc([nH]5)c(-c5ccccc5)c5nc(c(-c6ccccc6)c6ccc3[nH]6)C=C5)C=C4)cc2)CCN1C(=O)N1CCC[C@H]2CCC[C@@H]21
REMARK SMILES IDX 7 1 6 2 4 3 5 4 3 5 1 6 2 7 62 8 60 9 61 10 63 11 64 12
REMARK SMILES IDX 65 13 66 14 73 15 67 16 69 17 72 18 68 19 70 20 71 21 8 22
REMARK SMILES IDX 9 23 10 24 11 25 12 26 13 27 59 28 14 29 58 30 15 31 16 32
REMARK SMILES IDX 17 33 52 34 18 35 57 36 51 37 53 38 19 39 56 40 50 41 49 42
REMARK SMILES IDX 20 44 42 45 27 46 41 47 28 48 31 49 40 50 54 51 29 52 30 53
REMARK SMILES IDX 39 55 55 56 32 57 21 58 22 59 26 60 23 61 25 62 24 63 43 64
REMARK SMILES IDX 44 65 48 66 45 67 47 68 46 69 33 70 34 71 38 72 35 73 37 74
REMARK SMILES IDX 36 75
REMARK H PARENT 53 43 31 54
REMARK Flexibility Score: inf
ROOT
ATOM      1  C   UNL A   1      31.798  28.915  27.321  1.00  0.00     0.274 C 
ENDROOT
BRANCH   1   2
ATOM      2  O   UNL A   1      31.186  27.892  26.513  1.00  0.00    -0.462 OA
BRANCH   2   3
ATOM      3  C   UNL A   1      31.895  26.736  26.369  1.00  0.00     0.311 C 
ATOM      4  O   UNL A   1      31.561  25.658  26.839  1.00  0.00    -0.252 OA
BRANCH   3   5
ATOM      5  C   UNL A   1      33.083  26.960  25.450  1.00  0.00     0.123 C 
ATOM      6  C   UNL A   1      33.903  28.590  23.725  1.00  0.00     0.032 C 
ATOM      7  C   UNL A   1      32.690  27.790  24.215  1.00  0.00     0.098 C 
ATOM      8  N   UNL A   1      32.248  26.782  23.241  1.00  0.00    -0.321 N 
ATOM      9  C   UNL A   1      33.617  25.669  24.832  1.00  0.00     0.039 C 
ATOM     10  C   UNL A   1      32.741  25.464  23.602  1.00  0.00     0.122 C 
BRANCH   8  11
ATOM     11  C   UNL A   1      31.132  26.856  22.419  1.00  0.00     0.320 C 
ATOM     12  O   UNL A   1      31.139  26.430  21.265  1.00  0.00    -0.248 OA
BRANCH  11  13
ATOM     13  N   UNL A   1      29.981  27.298  23.021  1.00  0.00    -0.321 N 
ATOM     14  C   UNL A   1      29.290  26.506  24.029  1.00  0.00     0.121 C 
ATOM     15  C   UNL A   1      29.611  28.698  23.031  1.00  0.00     0.090 C 
ATOM     16  C   UNL A   1      27.775  26.581  23.837  1.00  0.00     0.022 C 
ATOM     17  C   UNL A   1      28.138  28.766  22.626  1.00  0.00     0.012 C 
ATOM     18  C   UNL A   1      30.253  29.664  22.041  1.00  0.00     0.025 C 
ATOM     19  C   UNL A   1      27.278  28.025  23.650  1.00  0.00     0.007 C 
ATOM     20  C   UNL A   1      27.903  30.257  22.440  1.00  0.00     0.006 C 
ATOM     21  C   UNL A   1      29.237  30.804  21.920  1.00  0.00     0.002 C 
ENDBRANCH  11  13
ENDBRANCH   8  11
ENDBRANCH   3   5
ENDBRANCH   2   3
ENDBRANCH   1   2
BRANCH   1  22
ATOM     22  C   UNL A   1      31.764  30.289  26.639  1.00  0.00     0.275 C 
BRANCH  22  23
ATOM     23  O   UNL A   1      33.084  30.807  26.378  1.00  0.00    -0.458 OA
BRANCH  23  24
ATOM     24  C   UNL A   1      33.484  31.808  27.199  1.00  0.00     0.338 C 
ATOM     25  O   UNL A   1      32.829  32.777  27.544  1.00  0.00    -0.246 OA
BRANCH  24  26
ATOM     26  C   UNL A   1      34.806  31.500  27.779  1.00  0.00     0.060 A 
ATOM     27  C   UNL A   1      35.025  30.183  28.192  1.00  0.00     0.016 A 
ATOM     28  C   UNL A   1      35.795  32.469  27.975  1.00  0.00     0.016 A 
ATOM     29  C   UNL A   1      36.235  29.825  28.778  1.00  0.00     0.010 A 
ATOM     30  C   UNL A   1      37.005  32.112  28.591  1.00  0.00     0.010 A 
ATOM     31  C   UNL A   1      37.231  30.787  28.993  1.00  0.00    -0.014 A 
BRANCH  31  32
ATOM     32  C   UNL A   1      38.468  30.363  29.696  1.00  0.00     0.031 A 
ATOM     33  C   UNL A   1      38.594  30.591  31.169  1.00  0.00     0.074 A 
ATOM     34  C   UNL A   1      39.405  29.650  29.044  1.00  0.00     0.049 A 
ATOM     35  N   UNL A   1      39.537  30.194  31.985  1.00  0.00    -0.248 NA
ATOM     36  C   UNL A   1      37.533  31.385  31.805  1.00  0.00     0.031 C 
ATOM     37  C   UNL A   1      39.371  29.346  27.620  1.00  0.00     0.029 A 
ATOM     38  N   UNL A   1      40.511  28.977  29.504  1.00  0.00    -0.354 N 
ATOM     39  C   UNL A   1      39.220  30.744  33.217  1.00  0.00     0.074 A 
ATOM     40  C   UNL A   1      37.970  31.458  33.056  1.00  0.00     0.031 C 
ATOM     41  C   UNL A   1      40.314  28.428  27.347  1.00  0.00     0.029 A 
ATOM     42  C   UNL A   1      41.063  28.135  28.563  1.00  0.00     0.049 A 
ATOM     43  H   UNL A   1      40.873  29.085  30.412  1.00  0.00     0.167 HD
ATOM     44  C   UNL A   1      39.939  30.701  34.363  1.00  0.00     0.031 A 
ATOM     45  C   UNL A   1      42.042  27.215  28.681  1.00  0.00     0.031 A 
ATOM     46  C   UNL A   1      41.196  30.014  34.505  1.00  0.00     0.049 A 
ATOM     47  C   UNL A   1      42.792  27.137  29.984  1.00  0.00     0.074 A 
ATOM     48  C   UNL A   1      42.054  29.996  35.591  1.00  0.00     0.029 A 
ATOM     49  N   UNL A   1      41.770  29.217  33.528  1.00  0.00    -0.354 N 
ATOM     50  N   UNL A   1      42.529  27.726  31.125  1.00  0.00    -0.248 NA
ATOM     51  C   UNL A   1      44.013  26.317  29.995  1.00  0.00     0.031 C 
ATOM     52  C   UNL A   1      43.168  29.218  35.253  1.00  0.00     0.029 A 
ATOM     53  C   UNL A   1      42.977  28.709  33.979  1.00  0.00     0.049 A 
ATOM     54  H   UNL A   1      41.379  29.038  32.642  1.00  0.00     0.167 HD
ATOM     55  C   UNL A   1      43.572  27.382  31.974  1.00  0.00     0.074 A 
ATOM     56  C   UNL A   1      44.430  26.471  31.243  1.00  0.00     0.031 C 
ATOM     57  C   UNL A   1      43.825  27.819  33.232  1.00  0.00     0.031 A 
BRANCH  44  58
ATOM     58  C   UNL A   1      39.434  31.524  35.511  1.00  0.00    -0.014 A 
ATOM     59  C   UNL A   1      38.465  31.040  36.400  1.00  0.00     0.009 A 
ATOM     60  C   UNL A   1      39.942  32.821  35.693  1.00  0.00     0.009 A 
ATOM     61  C   UNL A   1      37.991  31.855  37.433  1.00  0.00     0.001 A 
ATOM     62  C   UNL A   1      39.484  33.622  36.739  1.00  0.00     0.001 A 
ATOM     63  C   UNL A   1      38.503  33.142  37.602  1.00  0.00     0.000 A 
ENDBRANCH  44  58
BRANCH  45  64
ATOM     64  C   UNL A   1      42.404  26.306  27.555  1.00  0.00    -0.014 A 
ATOM     65  C   UNL A   1      43.306  26.735  26.566  1.00  0.00     0.009 A 
ATOM     66  C   UNL A   1      41.828  25.034  27.427  1.00  0.00     0.009 A 
ATOM     67  C   UNL A   1      43.600  25.923  25.466  1.00  0.00     0.001 A 
ATOM     68  C   UNL A   1      42.154  24.208  26.348  1.00  0.00     0.001 A 
ATOM     69  C   UNL A   1      43.029  24.657  25.362  1.00  0.00     0.000 A 
ENDBRANCH  45  64
BRANCH  57  70
ATOM     70  C   UNL A   1      45.093  27.341  33.877  1.00  0.00    -0.014 A 
ATOM     71  C   UNL A   1      46.291  28.058  33.723  1.00  0.00     0.009 A 
ATOM     72  C   UNL A   1      45.087  26.190  34.678  1.00  0.00     0.009 A 
ATOM     73  C   UNL A   1      47.465  27.614  34.333  1.00  0.00     0.001 A 
ATOM     74  C   UNL A   1      46.257  25.761  35.308  1.00  0.00     0.001 A 
ATOM     75  C   UNL A   1      47.446  26.469  35.128  1.00  0.00     0.000 A 
ENDBRANCH  57  70
ENDBRANCH  31  32
ENDBRANCH  24  26
ENDBRANCH  23  24
ENDBRANCH  22  23
ENDBRANCH   1  22
TORSDOF 13
ENDMDL
