MODEL 1
REMARK VINA RESULT:     -11.3      0.000      0.000
REMARK SMILES O=C(Cc1cccn1-c1ccc2c(c1)OCCO2)OCCOC(=O)c1ccc(-c2c3nc(c(-c4ccccc4)c4ccc([nH]4)c(-c4ccccc4)c4nc(c(-c5ccccc5)c5ccc2[nH]5)C=C4)C=C3)cc1
REMARK SMILES IDX 20 1 19 2 2 3 1 4 3 5 4 6 5 7 8 8 6 9 7 10 9 11 10 12 14 13
REMARK SMILES IDX 11 14 13 15 12 16 15 17 18 18 16 19 17 20 21 21 22 22 23 23
REMARK SMILES IDX 24 24 25 25 26 26 72 27 27 28 71 29 28 30 29 31 30 32 65 33
REMARK SMILES IDX 31 34 70 35 64 36 66 37 32 38 69 39 63 40 62 41 33 43 55 44
REMARK SMILES IDX 40 45 54 46 41 47 44 48 53 49 67 50 42 51 43 52 52 54 68 55
REMARK SMILES IDX 45 56 34 57 35 58 39 59 36 60 38 61 37 62 56 63 57 64 61 65
REMARK SMILES IDX 58 66 60 67 59 68 46 69 47 70 51 71 48 72 50 73 49 74
REMARK H PARENT 66 42 44 53
REMARK Flexibility Score: inf
ROOT
ATOM      1  C   UNL A   1      39.102  21.464  25.743  1.00  0.00     0.274 C 
ENDROOT
BRANCH   1   2
ATOM      2  O   UNL A   1      37.794  21.744  25.188  1.00  0.00    -0.462 OA
BRANCH   2   3
ATOM      3  C   UNL A   1      36.762  22.411  25.760  1.00  0.00     0.311 C 
ATOM      4  O   UNL A   1      36.859  23.627  25.952  1.00  0.00    -0.252 OA
BRANCH   3   5
ATOM      5  C   UNL A   1      35.532  21.686  26.247  1.00  0.00     0.177 C 
BRANCH   5   6
ATOM      6  C   UNL A   1      34.433  21.398  25.270  1.00  0.00     0.034 A 
ATOM      7  C   UNL A   1      34.046  20.152  24.800  1.00  0.00     0.024 A 
ATOM      8  N   UNL A   1      33.539  22.331  24.767  1.00  0.00    -0.320 N 
ATOM      9  C   UNL A   1      32.875  20.325  24.034  1.00  0.00     0.020 A 
ATOM     10  C   UNL A   1      32.573  21.669  24.049  1.00  0.00     0.091 A 
BRANCH   8  11
ATOM     11  C   UNL A   1      33.591  23.724  24.957  1.00  0.00     0.049 A 
ATOM     12  C   UNL A   1      34.142  24.528  23.959  1.00  0.00     0.031 A 
ATOM     13  C   UNL A   1      32.883  24.278  26.026  1.00  0.00     0.077 A 
ATOM     14  C   UNL A   1      33.928  25.907  24.009  1.00  0.00     0.052 A 
ATOM     15  C   UNL A   1      32.589  25.635  26.007  1.00  0.00     0.163 A 
ATOM     16  C   UNL A   1      33.131  26.459  25.015  1.00  0.00     0.161 A 
ATOM     17  O   UNL A   1      31.688  26.082  26.944  1.00  0.00    -0.486 OA
ATOM     18  O   UNL A   1      32.882  27.806  24.943  1.00  0.00    -0.486 OA
ATOM     19  C   UNL A   1      31.065  27.288  26.481  1.00  0.00     0.271 C 
ATOM     20  C   UNL A   1      32.146  28.278  26.081  1.00  0.00     0.271 C 
ENDBRANCH   8  11
ENDBRANCH   5   6
ENDBRANCH   3   5
ENDBRANCH   2   3
ENDBRANCH   1   2
BRANCH   1  21
ATOM     21  C   UNL A   1      39.411  19.981  25.726  1.00  0.00     0.275 C 
BRANCH  21  22
ATOM     22  O   UNL A   1      40.366  19.723  26.742  1.00  0.00    -0.458 OA
BRANCH  22  23
ATOM     23  C   UNL A   1      41.556  19.331  26.262  1.00  0.00     0.338 C 
ATOM     24  O   UNL A   1      41.848  18.251  25.735  1.00  0.00    -0.246 OA
BRANCH  23  25
ATOM     25  C   UNL A   1      42.542  20.344  26.564  1.00  0.00     0.060 A 
ATOM     26  C   UNL A   1      42.509  20.867  27.860  1.00  0.00     0.016 A 
ATOM     27  C   UNL A   1      43.047  21.034  25.457  1.00  0.00     0.016 A 
ATOM     28  C   UNL A   1      42.729  22.211  28.000  1.00  0.00     0.010 A 
ATOM     29  C   UNL A   1      43.179  22.384  25.578  1.00  0.00     0.010 A 
ATOM     30  C   UNL A   1      42.971  22.955  26.840  1.00  0.00    -0.014 A 
BRANCH  30  31
ATOM     31  C   UNL A   1      43.227  24.375  26.971  1.00  0.00     0.031 A 
ATOM     32  C   UNL A   1      41.879  25.094  27.168  1.00  0.00     0.074 A 
ATOM     33  C   UNL A   1      44.551  24.721  26.911  1.00  0.00     0.049 A 
ATOM     34  N   UNL A   1      41.621  26.356  27.152  1.00  0.00    -0.248 NA
ATOM     35  C   UNL A   1      40.623  24.312  27.422  1.00  0.00     0.031 C 
ATOM     36  C   UNL A   1      45.694  23.781  26.724  1.00  0.00     0.029 A 
ATOM     37  N   UNL A   1      45.220  25.917  26.991  1.00  0.00    -0.354 N 
ATOM     38  C   UNL A   1      40.290  26.533  27.582  1.00  0.00     0.074 A 
ATOM     39  C   UNL A   1      39.701  25.239  27.677  1.00  0.00     0.031 C 
ATOM     40  C   UNL A   1      46.865  24.451  26.595  1.00  0.00     0.029 A 
ATOM     41  C   UNL A   1      46.617  25.872  26.729  1.00  0.00     0.049 A 
ATOM     42  H   UNL A   1      44.760  26.758  27.215  1.00  0.00     0.167 HD
ATOM     43  C   UNL A   1      39.813  27.752  27.954  1.00  0.00     0.031 A 
ATOM     44  C   UNL A   1      47.482  26.926  26.595  1.00  0.00     0.031 A 
ATOM     45  C   UNL A   1      40.767  28.759  27.632  1.00  0.00     0.049 A 
ATOM     46  C   UNL A   1      46.703  28.093  27.023  1.00  0.00     0.074 A 
ATOM     47  C   UNL A   1      41.209  29.215  26.415  1.00  0.00     0.029 A 
ATOM     48  N   UNL A   1      41.705  29.036  28.596  1.00  0.00    -0.354 N 
ATOM     49  N   UNL A   1      46.369  28.347  28.251  1.00  0.00    -0.248 NA
ATOM     50  C   UNL A   1      46.174  29.003  26.001  1.00  0.00     0.031 C 
ATOM     51  C   UNL A   1      42.607  29.247  26.593  1.00  0.00     0.029 A 
ATOM     52  C   UNL A   1      42.914  29.115  27.952  1.00  0.00     0.049 A 
ATOM     53  H   UNL A   1      41.542  29.155  29.560  1.00  0.00     0.167 HD
ATOM     54  C   UNL A   1      45.282  29.165  28.085  1.00  0.00     0.074 A 
ATOM     55  C   UNL A   1      45.430  29.783  26.780  1.00  0.00     0.031 C 
ATOM     56  C   UNL A   1      44.113  28.865  28.711  1.00  0.00     0.031 A 
BRANCH  43  57
ATOM     57  C   UNL A   1      38.653  28.135  28.812  1.00  0.00    -0.014 A 
ATOM     58  C   UNL A   1      37.766  29.103  28.285  1.00  0.00     0.009 A 
ATOM     59  C   UNL A   1      38.610  27.894  30.189  1.00  0.00     0.009 A 
ATOM     60  C   UNL A   1      36.982  29.902  29.113  1.00  0.00     0.001 A 
ATOM     61  C   UNL A   1      37.787  28.670  31.018  1.00  0.00     0.001 A 
ATOM     62  C   UNL A   1      37.009  29.698  30.485  1.00  0.00     0.000 A 
ENDBRANCH  43  57
BRANCH  44  63
ATOM     63  C   UNL A   1      48.874  27.242  26.101  1.00  0.00    -0.014 A 
ATOM     64  C   UNL A   1      49.473  26.771  24.933  1.00  0.00     0.009 A 
ATOM     65  C   UNL A   1      49.623  28.224  26.817  1.00  0.00     0.009 A 
ATOM     66  C   UNL A   1      50.688  27.332  24.467  1.00  0.00     0.001 A 
ATOM     67  C   UNL A   1      50.786  28.824  26.333  1.00  0.00     0.001 A 
ATOM     68  C   UNL A   1      51.316  28.384  25.139  1.00  0.00     0.000 A 
ENDBRANCH  44  63
BRANCH  56  69
ATOM     69  C   UNL A   1      44.222  27.956  29.933  1.00  0.00    -0.014 A 
ATOM     70  C   UNL A   1      44.714  28.470  31.144  1.00  0.00     0.009 A 
ATOM     71  C   UNL A   1      43.950  26.575  29.901  1.00  0.00     0.009 A 
ATOM     72  C   UNL A   1      44.947  27.646  32.256  1.00  0.00     0.001 A 
ATOM     73  C   UNL A   1      44.184  25.744  31.010  1.00  0.00     0.001 A 
ATOM     74  C   UNL A   1      44.686  26.282  32.190  1.00  0.00     0.000 A 
ENDBRANCH  56  69
ENDBRANCH  30  31
ENDBRANCH  23  25
ENDBRANCH  22  23
ENDBRANCH  21  22
ENDBRANCH   1  21
TORSDOF 13
ENDMDL
MODEL 2
REMARK VINA RESULT:     -11.2      4.553     10.298
REMARK SMILES O=C(Cc1cccn1-c1ccc2c(c1)OCCO2)OCCOC(=O)c1ccc(-c2c3nc(c(-c4ccccc4)c4ccc([nH]4)c(-c4ccccc4)c4nc(c(-c5ccccc5)c5ccc2[nH]5)C=C4)C=C3)cc1
REMARK SMILES IDX 20 1 19 2 2 3 1 4 3 5 4 6 5 7 8 8 6 9 7 10 9 11 10 12 14 13
REMARK SMILES IDX 11 14 13 15 12 16 15 17 18 18 16 19 17 20 21 21 22 22 23 23
REMARK SMILES IDX 24 24 25 25 26 26 72 27 27 28 71 29 28 30 29 31 30 32 65 33
REMARK SMILES IDX 31 34 70 35 64 36 66 37 32 38 69 39 63 40 62 41 33 43 55 44
REMARK SMILES IDX 40 45 54 46 41 47 44 48 53 49 67 50 42 51 43 52 52 54 68 55
REMARK SMILES IDX 45 56 34 57 35 58 39 59 36 60 38 61 37 62 56 63 57 64 61 65
REMARK SMILES IDX 58 66 60 67 59 68 46 69 47 70 51 71 48 72 50 73 49 74
REMARK H PARENT 66 42 44 53
REMARK Flexibility Score: inf
ROOT
ATOM      1  C   UNL A   1      33.447  31.703  27.686  1.00  0.00     0.274 C 
ENDROOT
BRANCH   1   2
ATOM      2  O   UNL A   1      33.262  31.000  26.434  1.00  0.00    -0.462 OA
BRANCH   2   3
ATOM      3  C   UNL A   1      32.988  29.687  26.238  1.00  0.00     0.311 C 
ATOM      4  O   UNL A   1      31.894  29.237  26.589  1.00  0.00    -0.252 OA
BRANCH   3   5
ATOM      5  C   UNL A   1      34.027  28.744  25.682  1.00  0.00     0.177 C 
BRANCH   5   6
ATOM      6  C   UNL A   1      33.764  28.084  24.362  1.00  0.00     0.034 A 
ATOM      7  C   UNL A   1      33.775  28.691  23.115  1.00  0.00     0.024 A 
ATOM      8  N   UNL A   1      33.586  26.723  24.163  1.00  0.00    -0.320 N 
ATOM      9  C   UNL A   1      33.643  27.680  22.141  1.00  0.00     0.020 A 
ATOM     10  C   UNL A   1      33.552  26.480  22.811  1.00  0.00     0.091 A 
BRANCH   8  11
ATOM     11  C   UNL A   1      33.467  25.742  25.164  1.00  0.00     0.049 A 
ATOM     12  C   UNL A   1      32.209  25.467  25.702  1.00  0.00     0.031 A 
ATOM     13  C   UNL A   1      34.562  24.915  25.420  1.00  0.00     0.077 A 
ATOM     14  C   UNL A   1      32.041  24.309  26.465  1.00  0.00     0.052 A 
ATOM     15  C   UNL A   1      34.357  23.715  26.090  1.00  0.00     0.163 A 
ATOM     16  C   UNL A   1      33.105  23.420  26.637  1.00  0.00     0.161 A 
ATOM     17  O   UNL A   1      35.408  22.830  26.099  1.00  0.00    -0.486 OA
ATOM     18  O   UNL A   1      32.839  22.255  27.312  1.00  0.00    -0.486 OA
ATOM     19  C   UNL A   1      34.917  21.496  26.292  1.00  0.00     0.271 C 
ATOM     20  C   UNL A   1      34.024  21.474  27.520  1.00  0.00     0.271 C 
ENDBRANCH   8  11
ENDBRANCH   5   6
ENDBRANCH   3   5
ENDBRANCH   2   3
ENDBRANCH   1   2
BRANCH   1  21
ATOM     21  C   UNL A   1      32.572  32.936  27.769  1.00  0.00     0.275 C 
BRANCH  21  22
ATOM     22  O   UNL A   1      33.411  34.075  27.668  1.00  0.00    -0.458 OA
BRANCH  22  23
ATOM     23  C   UNL A   1      33.238  34.951  28.669  1.00  0.00     0.338 C 
ATOM     24  O   UNL A   1      32.333  35.782  28.807  1.00  0.00    -0.246 OA
BRANCH  23  25
ATOM     25  C   UNL A   1      34.373  34.878  29.560  1.00  0.00     0.060 A 
ATOM     26  C   UNL A   1      35.632  34.855  28.952  1.00  0.00     0.016 A 
ATOM     27  C   UNL A   1      34.108  34.339  30.823  1.00  0.00     0.016 A 
ATOM     28  C   UNL A   1      36.578  34.030  29.497  1.00  0.00     0.010 A 
ATOM     29  C   UNL A   1      35.014  33.450  31.319  1.00  0.00     0.010 A 
ATOM     30  C   UNL A   1      36.215  33.277  30.619  1.00  0.00    -0.014 A 
BRANCH  30  31
ATOM     31  C   UNL A   1      37.210  32.413  31.223  1.00  0.00     0.031 A 
ATOM     32  C   UNL A   1      37.367  31.163  30.337  1.00  0.00     0.074 A 
ATOM     33  C   UNL A   1      37.763  32.905  32.375  1.00  0.00     0.049 A 
ATOM     34  N   UNL A   1      38.004  30.069  30.581  1.00  0.00    -0.248 NA
ATOM     35  C   UNL A   1      36.730  31.100  28.980  1.00  0.00     0.031 C 
ATOM     36  C   UNL A   1      37.424  34.204  33.025  1.00  0.00     0.029 A 
ATOM     37  N   UNL A   1      38.714  32.430  33.244  1.00  0.00    -0.354 N 
ATOM     38  C   UNL A   1      38.031  29.309  29.394  1.00  0.00     0.074 A 
ATOM     39  C   UNL A   1      37.180  29.962  28.455  1.00  0.00     0.031 C 
ATOM     40  C   UNL A   1      38.065  34.343  34.211  1.00  0.00     0.029 A 
ATOM     41  C   UNL A   1      38.911  33.187  34.432  1.00  0.00     0.049 A 
ATOM     42  H   UNL A   1      39.230  31.613  33.057  1.00  0.00     0.167 HD
ATOM     43  C   UNL A   1      38.871  28.250  29.240  1.00  0.00     0.031 A 
ATOM     44  C   UNL A   1      39.677  32.862  35.520  1.00  0.00     0.031 A 
ATOM     45  C   UNL A   1      39.495  27.948  30.485  1.00  0.00     0.049 A 
ATOM     46  C   UNL A   1      40.439  31.684  35.089  1.00  0.00     0.074 A 
ATOM     47  C   UNL A   1      38.967  27.461  31.654  1.00  0.00     0.029 A 
ATOM     48  N   UNL A   1      40.670  28.608  30.750  1.00  0.00    -0.354 N 
ATOM     49  N   UNL A   1      41.418  31.711  34.237  1.00  0.00    -0.248 NA
ATOM     50  C   UNL A   1      40.027  30.361  35.569  1.00  0.00     0.031 C 
ATOM     51  C   UNL A   1      39.542  28.307  32.623  1.00  0.00     0.029 A 
ATOM     52  C   UNL A   1      40.592  29.036  32.051  1.00  0.00     0.049 A 
ATOM     53  H   UNL A   1      41.422  28.746  30.129  1.00  0.00     0.167 HD
ATOM     54  C   UNL A   1      41.435  30.417  33.785  1.00  0.00     0.074 A 
ATOM     55  C   UNL A   1      40.844  29.609  34.836  1.00  0.00     0.031 C 
ATOM     56  C   UNL A   1      41.385  30.170  32.450  1.00  0.00     0.031 A 
BRANCH  43  57
ATOM     57  C   UNL A   1      39.394  27.578  28.014  1.00  0.00    -0.014 A 
ATOM     58  C   UNL A   1      39.351  26.165  27.998  1.00  0.00     0.009 A 
ATOM     59  C   UNL A   1      40.234  28.215  27.094  1.00  0.00     0.009 A 
ATOM     60  C   UNL A   1      40.219  25.417  27.206  1.00  0.00     0.001 A 
ATOM     61  C   UNL A   1      41.078  27.460  26.267  1.00  0.00     0.001 A 
ATOM     62  C   UNL A   1      41.100  26.068  26.354  1.00  0.00     0.000 A 
ENDBRANCH  43  57
BRANCH  44  63
ATOM     63  C   UNL A   1      39.904  33.270  36.956  1.00  0.00    -0.014 A 
ATOM     64  C   UNL A   1      41.131  33.384  37.608  1.00  0.00     0.009 A 
ATOM     65  C   UNL A   1      38.772  33.716  37.704  1.00  0.00     0.009 A 
ATOM     66  C   UNL A   1      41.220  34.005  38.879  1.00  0.00     0.001 A 
ATOM     67  C   UNL A   1      38.860  34.385  38.926  1.00  0.00     0.001 A 
ATOM     68  C   UNL A   1      40.097  34.544  39.512  1.00  0.00     0.000 A 
ENDBRANCH  44  63
BRANCH  56  69
ATOM     69  C   UNL A   1      41.823  31.316  31.540  1.00  0.00    -0.014 A 
ATOM     70  C   UNL A   1      43.189  31.599  31.381  1.00  0.00     0.009 A 
ATOM     71  C   UNL A   1      40.922  32.197  30.912  1.00  0.00     0.009 A 
ATOM     72  C   UNL A   1      43.634  32.715  30.656  1.00  0.00     0.001 A 
ATOM     73  C   UNL A   1      41.360  33.319  30.186  1.00  0.00     0.001 A 
ATOM     74  C   UNL A   1      42.721  33.578  30.060  1.00  0.00     0.000 A 
ENDBRANCH  56  69
ENDBRANCH  30  31
ENDBRANCH  23  25
ENDBRANCH  22  23
ENDBRANCH  21  22
ENDBRANCH   1  21
TORSDOF 13
ENDMDL
MODEL 3
REMARK VINA RESULT:     -11.1      1.088      1.483
REMARK SMILES O=C(Cc1cccn1-c1ccc2c(c1)OCCO2)OCCOC(=O)c1ccc(-c2c3nc(c(-c4ccccc4)c4ccc([nH]4)c(-c4ccccc4)c4nc(c(-c5ccccc5)c5ccc2[nH]5)C=C4)C=C3)cc1
REMARK SMILES IDX 20 1 19 2 2 3 1 4 3 5 4 6 5 7 8 8 6 9 7 10 9 11 10 12 14 13
REMARK SMILES IDX 11 14 13 15 12 16 15 17 18 18 16 19 17 20 21 21 22 22 23 23
REMARK SMILES IDX 24 24 25 25 26 26 72 27 27 28 71 29 28 30 29 31 30 32 65 33
REMARK SMILES IDX 31 34 70 35 64 36 66 37 32 38 69 39 63 40 62 41 33 43 55 44
REMARK SMILES IDX 40 45 54 46 41 47 44 48 53 49 67 50 42 51 43 52 52 54 68 55
REMARK SMILES IDX 45 56 34 57 35 58 39 59 36 60 38 61 37 62 56 63 57 64 61 65
REMARK SMILES IDX 58 66 60 67 59 68 46 69 47 70 51 71 48 72 50 73 49 74
REMARK H PARENT 66 42 44 53
REMARK Flexibility Score: inf
ROOT
ATOM      1  C   UNL A   1      39.001  21.550  25.712  1.00  0.00     0.274 C 
ENDROOT
BRANCH   1   2
ATOM      2  O   UNL A   1      37.576  21.741  25.884  1.00  0.00    -0.462 OA
BRANCH   2   3
ATOM      3  C   UNL A   1      36.660  22.112  24.958  1.00  0.00     0.311 C 
ATOM      4  O   UNL A   1      37.039  22.474  23.840  1.00  0.00    -0.252 OA
BRANCH   3   5
ATOM      5  C   UNL A   1      35.189  22.177  25.291  1.00  0.00     0.177 C 
BRANCH   5   6
ATOM      6  C   UNL A   1      34.336  20.978  25.010  1.00  0.00     0.034 A 
ATOM      7  C   UNL A   1      34.776  19.687  24.758  1.00  0.00     0.024 A 
ATOM      8  N   UNL A   1      32.951  20.941  25.079  1.00  0.00    -0.320 N 
ATOM      9  C   UNL A   1      33.646  18.846  24.714  1.00  0.00     0.020 A 
ATOM     10  C   UNL A   1      32.541  19.638  24.937  1.00  0.00     0.091 A 
BRANCH   8  11
ATOM     11  C   UNL A   1      32.095  22.041  25.270  1.00  0.00     0.049 A 
ATOM     12  C   UNL A   1      31.956  22.581  26.549  1.00  0.00     0.031 A 
ATOM     13  C   UNL A   1      31.597  22.701  24.145  1.00  0.00     0.077 A 
ATOM     14  C   UNL A   1      31.354  23.834  26.690  1.00  0.00     0.052 A 
ATOM     15  C   UNL A   1      31.097  23.990  24.288  1.00  0.00     0.163 A 
ATOM     16  C   UNL A   1      30.949  24.550  25.560  1.00  0.00     0.161 A 
ATOM     17  O   UNL A   1      30.851  24.684  23.128  1.00  0.00    -0.486 OA
ATOM     18  O   UNL A   1      30.459  25.815  25.768  1.00  0.00    -0.486 OA
ATOM     19  C   UNL A   1      30.899  26.095  23.388  1.00  0.00     0.271 C 
ATOM     20  C   UNL A   1      29.978  26.410  24.555  1.00  0.00     0.271 C 
ENDBRANCH   8  11
ENDBRANCH   5   6
ENDBRANCH   3   5
ENDBRANCH   2   3
ENDBRANCH   1   2
BRANCH   1  21
ATOM     21  C   UNL A   1      39.366  20.080  25.663  1.00  0.00     0.275 C 
BRANCH  21  22
ATOM     22  O   UNL A   1      40.303  19.827  26.698  1.00  0.00    -0.458 OA
BRANCH  22  23
ATOM     23  C   UNL A   1      41.493  19.409  26.242  1.00  0.00     0.338 C 
ATOM     24  O   UNL A   1      41.774  18.319  25.731  1.00  0.00    -0.246 OA
BRANCH  23  25
ATOM     25  C   UNL A   1      42.492  20.407  26.550  1.00  0.00     0.060 A 
ATOM     26  C   UNL A   1      42.471  20.917  27.851  1.00  0.00     0.016 A 
ATOM     27  C   UNL A   1      43.001  21.103  25.448  1.00  0.00     0.016 A 
ATOM     28  C   UNL A   1      42.708  22.257  28.004  1.00  0.00     0.010 A 
ATOM     29  C   UNL A   1      43.149  22.450  25.582  1.00  0.00     0.010 A 
ATOM     30  C   UNL A   1      42.953  23.010  26.851  1.00  0.00    -0.014 A 
BRANCH  30  31
ATOM     31  C   UNL A   1      43.226  24.426  26.996  1.00  0.00     0.031 A 
ATOM     32  C   UNL A   1      41.884  25.163  27.160  1.00  0.00     0.074 A 
ATOM     33  C   UNL A   1      44.556  24.752  26.974  1.00  0.00     0.049 A 
ATOM     34  N   UNL A   1      41.645  26.430  27.142  1.00  0.00    -0.248 NA
ATOM     35  C   UNL A   1      40.611  24.399  27.376  1.00  0.00     0.031 C 
ATOM     36  C   UNL A   1      45.690  23.796  26.813  1.00  0.00     0.029 A 
ATOM     37  N   UNL A   1      45.240  25.938  27.077  1.00  0.00    -0.354 N 
ATOM     38  C   UNL A   1      40.306  26.625  27.537  1.00  0.00     0.074 A 
ATOM     39  C   UNL A   1      39.696  25.338  27.610  1.00  0.00     0.031 C 
ATOM     40  C   UNL A   1      46.874  24.449  26.718  1.00  0.00     0.029 A 
ATOM     41  C   UNL A   1      46.643  25.873  26.852  1.00  0.00     0.049 A 
ATOM     42  H   UNL A   1      44.787  26.785  27.293  1.00  0.00     0.167 HD
ATOM     43  C   UNL A   1      39.837  27.848  27.902  1.00  0.00     0.031 A 
ATOM     44  C   UNL A   1      47.527  26.915  26.747  1.00  0.00     0.031 A 
ATOM     45  C   UNL A   1      40.814  28.843  27.611  1.00  0.00     0.049 A 
ATOM     46  C   UNL A   1      46.754  28.092  27.159  1.00  0.00     0.074 A 
ATOM     47  C   UNL A   1      41.296  29.297  26.409  1.00  0.00     0.029 A 
ATOM     48  N   UNL A   1      41.730  29.101  28.602  1.00  0.00    -0.354 N 
ATOM     49  N   UNL A   1      46.391  28.345  28.379  1.00  0.00    -0.248 NA
ATOM     50  C   UNL A   1      46.266  29.013  26.128  1.00  0.00     0.031 C 
ATOM     51  C   UNL A   1      42.689  29.307  26.624  1.00  0.00     0.029 A 
ATOM     52  C   UNL A   1      42.956  29.166  27.991  1.00  0.00     0.049 A 
ATOM     53  H   UNL A   1      41.543  29.219  29.561  1.00  0.00     0.167 HD
ATOM     54  C   UNL A   1      45.321  29.179  28.188  1.00  0.00     0.074 A 
ATOM     55  C   UNL A   1      45.512  29.801  26.891  1.00  0.00     0.031 C 
ATOM     56  C   UNL A   1      44.131  28.894  28.780  1.00  0.00     0.031 A 
BRANCH  43  57
ATOM     57  C   UNL A   1      38.659  28.245  28.730  1.00  0.00    -0.014 A 
ATOM     58  C   UNL A   1      37.810  29.238  28.190  1.00  0.00     0.009 A 
ATOM     59  C   UNL A   1      38.570  27.987  30.102  1.00  0.00     0.009 A 
ATOM     60  C   UNL A   1      37.017  30.042  29.005  1.00  0.00     0.001 A 
ATOM     61  C   UNL A   1      37.739  28.770  30.916  1.00  0.00     0.001 A 
ATOM     62  C   UNL A   1      36.999  29.821  30.374  1.00  0.00     0.000 A 
ENDBRANCH  43  57
BRANCH  44  63
ATOM     63  C   UNL A   1      48.936  27.212  26.293  1.00  0.00    -0.014 A 
ATOM     64  C   UNL A   1      49.952  27.797  27.049  1.00  0.00     0.009 A 
ATOM     65  C   UNL A   1      49.331  26.736  25.006  1.00  0.00     0.009 A 
ATOM     66  C   UNL A   1      51.290  27.800  26.582  1.00  0.00     0.001 A 
ATOM     67  C   UNL A   1      50.655  26.680  24.568  1.00  0.00     0.001 A 
ATOM     68  C   UNL A   1      51.646  27.203  25.370  1.00  0.00     0.000 A 
ENDBRANCH  44  63
BRANCH  56  69
ATOM     69  C   UNL A   1      44.193  27.979  30.001  1.00  0.00    -0.014 A 
ATOM     70  C   UNL A   1      44.620  28.490  31.237  1.00  0.00     0.009 A 
ATOM     71  C   UNL A   1      43.941  26.594  29.947  1.00  0.00     0.009 A 
ATOM     72  C   UNL A   1      44.810  27.662  32.353  1.00  0.00     0.001 A 
ATOM     73  C   UNL A   1      44.133  25.758  31.061  1.00  0.00     0.001 A 
ATOM     74  C   UNL A   1      44.570  26.296  32.267  1.00  0.00     0.000 A 
ENDBRANCH  56  69
ENDBRANCH  30  31
ENDBRANCH  23  25
ENDBRANCH  22  23
ENDBRANCH  21  22
ENDBRANCH   1  21
TORSDOF 13
ENDMDL
