MODEL 1
REMARK VINA RESULT:     -10.1      0.000      0.000
REMARK SMILES C[C@H](C(=O)OCCOC(=O)c1ccc(-c2c3nc(c(-c4ccccc4)c4ccc([nH]4)c(-c4ccccc4)c4nc(c(-c5ccccc5)c5ccc2[nH]5)C=C4)C=C3)cc1)c1cccc(C(=O)c2ccccc2)c1
REMARK SMILES IDX 6 1 5 2 3 3 4 4 2 5 1 6 59 7 60 8 72 9 61 10 63 11 62 12
REMARK SMILES IDX 64 13 65 14 66 15 67 16 71 17 68 18 70 19 69 20 7 21 8 22
REMARK SMILES IDX 9 23 10 24 11 25 12 26 58 27 13 28 57 29 14 30 15 31 16 32
REMARK SMILES IDX 51 33 17 34 56 35 50 36 52 37 18 38 55 39 49 40 48 41 19 43
REMARK SMILES IDX 41 44 26 45 40 46 27 47 30 48 39 49 53 50 28 51 29 52 38 54
REMARK SMILES IDX 54 55 31 56 20 57 21 58 25 59 22 60 24 61 23 62 42 63 43 64
REMARK SMILES IDX 47 65 44 66 46 67 45 68 32 69 33 70 37 71 34 72 36 73 35 74
REMARK H PARENT 52 42 30 53
REMARK Flexibility Score: inf
ROOT
ATOM      1  C   UNL A   1      33.703  35.862  29.053  1.00  0.00     0.274 C 
ENDROOT
BRANCH   1   2
ATOM      2  O   UNL A   1      33.451  34.488  28.701  1.00  0.00    -0.462 OA
BRANCH   2   3
ATOM      3  C   UNL A   1      34.303  33.560  29.218  1.00  0.00     0.313 C 
ATOM      4  O   UNL A   1      34.103  32.954  30.266  1.00  0.00    -0.252 OA
BRANCH   3   5
ATOM      5  C   UNL A   1      35.477  33.263  28.282  1.00  0.00     0.126 C 
ATOM      6  C   UNL A   1      36.820  33.832  28.740  1.00  0.00     0.025 C 
BRANCH   5   7
ATOM      7  C   UNL A   1      35.625  31.784  27.951  1.00  0.00    -0.033 A 
ATOM      8  C   UNL A   1      36.878  31.156  27.933  1.00  0.00     0.004 A 
ATOM      9  C   UNL A   1      34.486  31.033  27.599  1.00  0.00     0.016 A 
ATOM     10  C   UNL A   1      36.994  29.814  27.577  1.00  0.00     0.001 A 
ATOM     11  C   UNL A   1      34.600  29.696  27.195  1.00  0.00     0.023 A 
ATOM     12  C   UNL A   1      35.862  29.089  27.203  1.00  0.00     0.012 A 
BRANCH  11  13
ATOM     13  C   UNL A   1      33.428  28.863  26.790  1.00  0.00     0.193 C 
ATOM     14  O   UNL A   1      32.333  29.062  27.314  1.00  0.00    -0.289 OA
BRANCH  13  15
ATOM     15  C   UNL A   1      33.516  27.810  25.750  1.00  0.00     0.022 A 
ATOM     16  C   UNL A   1      33.548  28.214  24.409  1.00  0.00     0.012 A 
ATOM     17  C   UNL A   1      33.524  26.447  26.067  1.00  0.00     0.012 A 
ATOM     18  C   UNL A   1      33.639  27.263  23.394  1.00  0.00     0.001 A 
ATOM     19  C   UNL A   1      33.626  25.498  25.047  1.00  0.00     0.001 A 
ATOM     20  C   UNL A   1      33.689  25.906  23.715  1.00  0.00     0.000 A 
ENDBRANCH  13  15
ENDBRANCH  11  13
ENDBRANCH   5   7
ENDBRANCH   3   5
ENDBRANCH   2   3
ENDBRANCH   1   2
BRANCH   1  21
ATOM     21  C   UNL A   1      32.625  36.382  30.007  1.00  0.00     0.275 C 
BRANCH  21  22
ATOM     22  O   UNL A   1      33.147  36.631  31.328  1.00  0.00    -0.458 OA
BRANCH  22  23
ATOM     23  C   UNL A   1      32.774  35.738  32.273  1.00  0.00     0.338 C 
ATOM     24  O   UNL A   1      31.643  35.467  32.639  1.00  0.00    -0.246 OA
BRANCH  23  25
ATOM     25  C   UNL A   1      33.954  35.025  32.777  1.00  0.00     0.060 A 
ATOM     26  C   UNL A   1      35.218  35.571  32.539  1.00  0.00     0.016 A 
ATOM     27  C   UNL A   1      33.820  33.767  33.364  1.00  0.00     0.016 A 
ATOM     28  C   UNL A   1      36.359  34.839  32.848  1.00  0.00     0.010 A 
ATOM     29  C   UNL A   1      34.969  33.048  33.707  1.00  0.00     0.010 A 
ATOM     30  C   UNL A   1      36.245  33.570  33.430  1.00  0.00    -0.014 A 
BRANCH  30  31
ATOM     31  C   UNL A   1      37.464  32.782  33.730  1.00  0.00     0.031 A 
ATOM     32  C   UNL A   1      38.206  32.998  35.017  1.00  0.00     0.074 A 
ATOM     33  C   UNL A   1      37.897  31.864  32.847  1.00  0.00     0.049 A 
ATOM     34  N   UNL A   1      39.342  32.482  35.410  1.00  0.00    -0.248 NA
ATOM     35  C   UNL A   1      37.591  33.917  35.989  1.00  0.00     0.031 C 
ATOM     36  C   UNL A   1      37.239  31.524  31.585  1.00  0.00     0.029 A 
ATOM     37  N   UNL A   1      38.995  31.044  32.884  1.00  0.00    -0.354 N 
ATOM     38  C   UNL A   1      39.597  33.038  36.658  1.00  0.00     0.074 A 
ATOM     39  C   UNL A   1      38.498  33.933  36.956  1.00  0.00     0.031 C 
ATOM     40  C   UNL A   1      37.937  30.553  30.976  1.00  0.00     0.029 A 
ATOM     41  C   UNL A   1      39.118  30.245  31.775  1.00  0.00     0.049 A 
ATOM     42  H   UNL A   1      39.634  31.029  33.633  1.00  0.00     0.167 HD
ATOM     43  C   UNL A   1      40.653  32.824  37.478  1.00  0.00     0.031 A 
ATOM     44  C   UNL A   1      40.089  29.380  31.426  1.00  0.00     0.031 A 
ATOM     45  C   UNL A   1      41.736  31.922  37.191  1.00  0.00     0.049 A 
ATOM     46  C   UNL A   1      41.273  29.199  32.329  1.00  0.00     0.074 A 
ATOM     47  C   UNL A   1      42.844  31.629  37.968  1.00  0.00     0.029 A 
ATOM     48  N   UNL A   1      41.843  31.161  36.038  1.00  0.00    -0.354 N 
ATOM     49  N   UNL A   1      41.515  29.752  33.493  1.00  0.00    -0.248 NA
ATOM     50  C   UNL A   1      42.323  28.283  31.863  1.00  0.00     0.031 C 
ATOM     51  C   UNL A   1      43.641  30.716  37.266  1.00  0.00     0.029 A 
ATOM     52  C   UNL A   1      43.008  30.414  36.072  1.00  0.00     0.049 A 
ATOM     53  H   UNL A   1      41.188  31.155  35.303  1.00  0.00     0.167 HD
ATOM     54  C   UNL A   1      42.739  29.243  33.904  1.00  0.00     0.074 A 
ATOM     55  C   UNL A   1      43.182  28.325  32.873  1.00  0.00     0.031 C 
ATOM     56  C   UNL A   1      43.435  29.513  35.034  1.00  0.00     0.031 A 
BRANCH  43  57
ATOM     57  C   UNL A   1      40.706  33.614  38.754  1.00  0.00    -0.014 A 
ATOM     58  C   UNL A   1      41.366  34.849  38.821  1.00  0.00     0.009 A 
ATOM     59  C   UNL A   1      40.054  33.124  39.897  1.00  0.00     0.009 A 
ATOM     60  C   UNL A   1      41.394  35.568  40.019  1.00  0.00     0.001 A 
ATOM     61  C   UNL A   1      40.067  33.854  41.086  1.00  0.00     0.001 A 
ATOM     62  C   UNL A   1      40.743  35.072  41.148  1.00  0.00     0.000 A 
ENDBRANCH  43  57
BRANCH  44  63
ATOM     63  C   UNL A   1      39.994  28.645  30.141  1.00  0.00    -0.014 A 
ATOM     64  C   UNL A   1      39.372  27.390  30.084  1.00  0.00     0.009 A 
ATOM     65  C   UNL A   1      40.515  29.203  28.962  1.00  0.00     0.009 A 
ATOM     66  C   UNL A   1      39.286  26.700  28.873  1.00  0.00     0.001 A 
ATOM     67  C   UNL A   1      40.406  28.521  27.749  1.00  0.00     0.001 A 
ATOM     68  C   UNL A   1      39.797  27.269  27.707  1.00  0.00     0.000 A 
ENDBRANCH  44  63
BRANCH  56  69
ATOM     69  C   UNL A   1      44.735  28.789  35.220  1.00  0.00    -0.014 A 
ATOM     70  C   UNL A   1      45.937  29.329  34.739  1.00  0.00     0.009 A 
ATOM     71  C   UNL A   1      44.760  27.567  35.910  1.00  0.00     0.009 A 
ATOM     72  C   UNL A   1      47.139  28.643  34.921  1.00  0.00     0.001 A 
ATOM     73  C   UNL A   1      45.966  26.894  36.109  1.00  0.00     0.001 A 
ATOM     74  C   UNL A   1      47.153  27.429  35.608  1.00  0.00     0.000 A 
ENDBRANCH  56  69
ENDBRANCH  30  31
ENDBRANCH  23  25
ENDBRANCH  22  23
ENDBRANCH  21  22
ENDBRANCH   1  21
TORSDOF 14
ENDMDL
MODEL 2
REMARK VINA RESULT:     -10.0      4.567      9.658
REMARK SMILES C[C@H](C(=O)OCCOC(=O)c1ccc(-c2c3nc(c(-c4ccccc4)c4ccc([nH]4)c(-c4ccccc4)c4nc(c(-c5ccccc5)c5ccc2[nH]5)C=C4)C=C3)cc1)c1cccc(C(=O)c2ccccc2)c1
REMARK SMILES IDX 6 1 5 2 3 3 4 4 2 5 1 6 59 7 60 8 72 9 61 10 63 11 62 12
REMARK SMILES IDX 64 13 65 14 66 15 67 16 71 17 68 18 70 19 69 20 7 21 8 22
REMARK SMILES IDX 9 23 10 24 11 25 12 26 58 27 13 28 57 29 14 30 15 31 16 32
REMARK SMILES IDX 51 33 17 34 56 35 50 36 52 37 18 38 55 39 49 40 48 41 19 43
REMARK SMILES IDX 41 44 26 45 40 46 27 47 30 48 39 49 53 50 28 51 29 52 38 54
REMARK SMILES IDX 54 55 31 56 20 57 21 58 25 59 22 60 24 61 23 62 42 63 43 64
REMARK SMILES IDX 47 65 44 66 46 67 45 68 32 69 33 70 37 71 34 72 36 73 35 74
REMARK H PARENT 52 42 30 53
REMARK Flexibility Score: inf
ROOT
ATOM      1  C   UNL A   1      43.736  21.439  25.381  1.00  0.00     0.274 C 
ENDROOT
BRANCH   1   2
ATOM      2  O   UNL A   1      42.306  21.599  25.406  1.00  0.00    -0.462 OA
BRANCH   2   3
ATOM      3  C   UNL A   1      41.595  20.631  26.047  1.00  0.00     0.313 C 
ATOM      4  O   UNL A   1      41.687  19.434  25.799  1.00  0.00    -0.252 OA
BRANCH   3   5
ATOM      5  C   UNL A   1      40.760  21.191  27.202  1.00  0.00     0.126 C 
ATOM      6  C   UNL A   1      41.574  21.736  28.375  1.00  0.00     0.025 C 
BRANCH   5   7
ATOM      7  C   UNL A   1      39.733  22.224  26.758  1.00  0.00    -0.033 A 
ATOM      8  C   UNL A   1      39.715  23.519  27.295  1.00  0.00     0.004 A 
ATOM      9  C   UNL A   1      38.740  21.862  25.827  1.00  0.00     0.016 A 
ATOM     10  C   UNL A   1      38.733  24.432  26.911  1.00  0.00     0.001 A 
ATOM     11  C   UNL A   1      37.723  22.759  25.472  1.00  0.00     0.023 A 
ATOM     12  C   UNL A   1      37.738  24.051  26.010  1.00  0.00     0.012 A 
BRANCH  11  13
ATOM     13  C   UNL A   1      36.634  22.417  24.508  1.00  0.00     0.193 C 
ATOM     14  O   UNL A   1      36.853  22.480  23.300  1.00  0.00    -0.289 OA
BRANCH  13  15
ATOM     15  C   UNL A   1      35.289  21.972  24.946  1.00  0.00     0.022 A 
ATOM     16  C   UNL A   1      34.243  22.038  24.017  1.00  0.00     0.012 A 
ATOM     17  C   UNL A   1      35.034  21.537  26.251  1.00  0.00     0.012 A 
ATOM     18  C   UNL A   1      32.960  21.623  24.376  1.00  0.00     0.001 A 
ATOM     19  C   UNL A   1      33.751  21.112  26.604  1.00  0.00     0.001 A 
ATOM     20  C   UNL A   1      32.719  21.150  25.666  1.00  0.00     0.000 A 
ENDBRANCH  13  15
ENDBRANCH  11  13
ENDBRANCH   5   7
ENDBRANCH   3   5
ENDBRANCH   2   3
ENDBRANCH   1   2
BRANCH   1  21
ATOM     21  C   UNL A   1      44.361  22.322  24.297  1.00  0.00     0.275 C 
BRANCH  21  22
ATOM     22  O   UNL A   1      43.858  23.672  24.343  1.00  0.00    -0.458 OA
BRANCH  22  23
ATOM     23  C   UNL A   1      44.686  24.576  24.914  1.00  0.00     0.338 C 
ATOM     24  O   UNL A   1      45.851  24.801  24.636  1.00  0.00    -0.246 OA
BRANCH  23  25
ATOM     25  C   UNL A   1      43.950  25.367  25.909  1.00  0.00     0.060 A 
ATOM     26  C   UNL A   1      44.092  26.756  25.898  1.00  0.00     0.016 A 
ATOM     27  C   UNL A   1      43.230  24.731  26.921  1.00  0.00     0.016 A 
ATOM     28  C   UNL A   1      43.551  27.517  26.928  1.00  0.00     0.010 A 
ATOM     29  C   UNL A   1      42.656  25.502  27.936  1.00  0.00     0.010 A 
ATOM     30  C   UNL A   1      42.832  26.897  27.958  1.00  0.00    -0.014 A 
BRANCH  30  31
ATOM     31  C   UNL A   1      42.282  27.710  29.069  1.00  0.00     0.031 A 
ATOM     32  C   UNL A   1      43.042  27.839  30.358  1.00  0.00     0.074 A 
ATOM     33  C   UNL A   1      41.105  28.341  28.913  1.00  0.00     0.049 A 
ATOM     34  N   UNL A   1      42.679  28.417  31.474  1.00  0.00    -0.248 NA
ATOM     35  C   UNL A   1      44.384  27.236  30.398  1.00  0.00     0.031 C 
ATOM     36  C   UNL A   1      40.294  28.336  27.695  1.00  0.00     0.029 A 
ATOM     37  N   UNL A   1      40.388  29.115  29.790  1.00  0.00    -0.354 N 
ATOM     38  C   UNL A   1      43.730  28.220  32.360  1.00  0.00     0.074 A 
ATOM     39  C   UNL A   1      44.745  27.466  31.654  1.00  0.00     0.031 C 
ATOM     40  C   UNL A   1      39.200  29.087  27.895  1.00  0.00     0.029 A 
ATOM     41  C   UNL A   1      39.205  29.576  29.269  1.00  0.00     0.049 A 
ATOM     42  H   UNL A   1      40.692  29.320  30.704  1.00  0.00     0.167 HD
ATOM     43  C   UNL A   1      43.839  28.627  33.647  1.00  0.00     0.031 A 
ATOM     44  C   UNL A   1      38.218  30.289  29.844  1.00  0.00     0.031 A 
ATOM     45  C   UNL A   1      42.839  29.392  34.345  1.00  0.00     0.049 A 
ATOM     46  C   UNL A   1      38.341  30.685  31.286  1.00  0.00     0.074 A 
ATOM     47  C   UNL A   1      42.865  29.862  35.647  1.00  0.00     0.029 A 
ATOM     48  N   UNL A   1      41.636  29.804  33.794  1.00  0.00    -0.354 N 
ATOM     49  N   UNL A   1      39.327  30.467  32.121  1.00  0.00    -0.248 NA
ATOM     50  C   UNL A   1      37.205  31.414  31.868  1.00  0.00     0.031 C 
ATOM     51  C   UNL A   1      41.659  30.529  35.896  1.00  0.00     0.029 A 
ATOM     52  C   UNL A   1      40.903  30.506  34.736  1.00  0.00     0.049 A 
ATOM     53  H   UNL A   1      41.346  29.623  32.871  1.00  0.00     0.167 HD
ATOM     54  C   UNL A   1      38.938  31.043  33.322  1.00  0.00     0.074 A 
ATOM     55  C   UNL A   1      37.632  31.632  33.105  1.00  0.00     0.031 C 
ATOM     56  C   UNL A   1      39.603  31.078  34.502  1.00  0.00     0.031 A 
BRANCH  43  57
ATOM     57  C   UNL A   1      45.071  28.217  34.399  1.00  0.00    -0.014 A 
ATOM     58  C   UNL A   1      45.136  26.995  35.084  1.00  0.00     0.009 A 
ATOM     59  C   UNL A   1      46.196  29.057  34.391  1.00  0.00     0.009 A 
ATOM     60  C   UNL A   1      46.299  26.633  35.770  1.00  0.00     0.001 A 
ATOM     61  C   UNL A   1      47.362  28.683  35.061  1.00  0.00     0.001 A 
ATOM     62  C   UNL A   1      47.410  27.476  35.755  1.00  0.00     0.000 A 
ENDBRANCH  43  57
BRANCH  44  63
ATOM     63  C   UNL A   1      37.012  30.646  29.057  1.00  0.00    -0.014 A 
ATOM     64  C   UNL A   1      36.818  31.960  28.609  1.00  0.00     0.009 A 
ATOM     65  C   UNL A   1      36.055  29.668  28.742  1.00  0.00     0.009 A 
ATOM     66  C   UNL A   1      35.680  32.291  27.871  1.00  0.00     0.001 A 
ATOM     67  C   UNL A   1      34.931  29.998  27.983  1.00  0.00     0.001 A 
ATOM     68  C   UNL A   1      34.742  31.310  27.554  1.00  0.00     0.000 A 
ENDBRANCH  44  63
BRANCH  56  69
ATOM     69  C   UNL A   1      38.934  31.796  35.637  1.00  0.00    -0.014 A 
ATOM     70  C   UNL A   1      38.150  31.100  36.568  1.00  0.00     0.009 A 
ATOM     71  C   UNL A   1      39.116  33.178  35.790  1.00  0.00     0.009 A 
ATOM     72  C   UNL A   1      37.535  31.783  37.619  1.00  0.00     0.001 A 
ATOM     73  C   UNL A   1      38.517  33.855  36.854  1.00  0.00     0.001 A 
ATOM     74  C   UNL A   1      37.722  33.158  37.763  1.00  0.00     0.000 A 
ENDBRANCH  56  69
ENDBRANCH  30  31
ENDBRANCH  23  25
ENDBRANCH  22  23
ENDBRANCH  21  22
ENDBRANCH   1  21
TORSDOF 14
ENDMDL
MODEL 3
REMARK VINA RESULT:      -9.9      3.601      7.244
REMARK SMILES C[C@H](C(=O)OCCOC(=O)c1ccc(-c2c3nc(c(-c4ccccc4)c4ccc([nH]4)c(-c4ccccc4)c4nc(c(-c5ccccc5)c5ccc2[nH]5)C=C4)C=C3)cc1)c1cccc(C(=O)c2ccccc2)c1
REMARK SMILES IDX 6 1 5 2 3 3 4 4 2 5 1 6 59 7 60 8 72 9 61 10 63 11 62 12
REMARK SMILES IDX 64 13 65 14 66 15 67 16 71 17 68 18 70 19 69 20 7 21 8 22
REMARK SMILES IDX 9 23 10 24 11 25 12 26 58 27 13 28 57 29 14 30 15 31 16 32
REMARK SMILES IDX 51 33 17 34 56 35 50 36 52 37 18 38 55 39 49 40 48 41 19 43
REMARK SMILES IDX 41 44 26 45 40 46 27 47 30 48 39 49 53 50 28 51 29 52 38 54
REMARK SMILES IDX 54 55 31 56 20 57 21 58 25 59 22 60 24 61 23 62 42 63 43 64
REMARK SMILES IDX 47 65 44 66 46 67 45 68 32 69 33 70 37 71 34 72 36 73 35 74
REMARK H PARENT 52 42 30 53
REMARK Flexibility Score: inf
ROOT
ATOM      1  C   UNL A   1      34.037  34.150  29.517  1.00  0.00     0.274 C 
ENDROOT
BRANCH   1   2
ATOM      2  O   UNL A   1      34.395  33.545  30.774  1.00  0.00    -0.462 OA
BRANCH   2   3
ATOM      3  C   UNL A   1      35.512  34.025  31.386  1.00  0.00     0.313 C 
ATOM      4  O   UNL A   1      35.503  34.916  32.229  1.00  0.00    -0.252 OA
BRANCH   3   5
ATOM      5  C   UNL A   1      36.770  33.242  31.000  1.00  0.00     0.126 C 
ATOM      6  C   UNL A   1      37.411  33.671  29.680  1.00  0.00     0.025 C 
BRANCH   5   7
ATOM      7  C   UNL A   1      37.820  33.208  32.101  1.00  0.00    -0.033 A 
ATOM      8  C   UNL A   1      38.659  34.303  32.350  1.00  0.00     0.004 A 
ATOM      9  C   UNL A   1      37.998  32.032  32.857  1.00  0.00     0.016 A 
ATOM     10  C   UNL A   1      39.649  34.230  33.330  1.00  0.00     0.001 A 
ATOM     11  C   UNL A   1      39.020  31.935  33.811  1.00  0.00     0.023 A 
ATOM     12  C   UNL A   1      39.833  33.050  34.051  1.00  0.00     0.012 A 
BRANCH  11  13
ATOM     13  C   UNL A   1      39.266  30.705  34.621  1.00  0.00     0.193 C 
ATOM     14  O   UNL A   1      38.480  30.403  35.517  1.00  0.00    -0.289 OA
BRANCH  13  15
ATOM     15  C   UNL A   1      40.415  29.802  34.375  1.00  0.00     0.022 A 
ATOM     16  C   UNL A   1      41.601  30.042  35.082  1.00  0.00     0.012 A 
ATOM     17  C   UNL A   1      40.361  28.761  33.442  1.00  0.00     0.012 A 
ATOM     18  C   UNL A   1      42.708  29.214  34.894  1.00  0.00     0.001 A 
ATOM     19  C   UNL A   1      41.468  27.928  33.263  1.00  0.00     0.001 A 
ATOM     20  C   UNL A   1      42.636  28.152  33.992  1.00  0.00     0.000 A 
ENDBRANCH  13  15
ENDBRANCH  11  13
ENDBRANCH   5   7
ENDBRANCH   3   5
ENDBRANCH   2   3
ENDBRANCH   1   2
BRANCH   1  21
ATOM     21  C   UNL A   1      34.074  33.115  28.389  1.00  0.00     0.275 C 
BRANCH  21  22
ATOM     22  O   UNL A   1      34.374  31.793  28.878  1.00  0.00    -0.458 OA
BRANCH  22  23
ATOM     23  C   UNL A   1      34.614  30.865  27.923  1.00  0.00     0.338 C 
ATOM     24  O   UNL A   1      33.935  30.610  26.943  1.00  0.00    -0.246 OA
BRANCH  23  25
ATOM     25  C   UNL A   1      35.911  30.222  28.168  1.00  0.00     0.060 A 
ATOM     26  C   UNL A   1      36.168  29.699  29.438  1.00  0.00     0.016 A 
ATOM     27  C   UNL A   1      36.908  30.251  27.193  1.00  0.00     0.016 A 
ATOM     28  C   UNL A   1      37.442  29.241  29.754  1.00  0.00     0.010 A 
ATOM     29  C   UNL A   1      38.178  29.757  27.503  1.00  0.00     0.010 A 
ATOM     30  C   UNL A   1      38.459  29.270  28.792  1.00  0.00    -0.014 A 
BRANCH  30  31
ATOM     31  C   UNL A   1      39.823  28.809  29.144  1.00  0.00     0.031 A 
ATOM     32  C   UNL A   1      40.747  29.704  29.920  1.00  0.00     0.074 A 
ATOM     33  C   UNL A   1      40.226  27.580  28.775  1.00  0.00     0.049 A 
ATOM     34  N   UNL A   1      42.004  29.519  30.232  1.00  0.00    -0.248 NA
ATOM     35  C   UNL A   1      40.183  30.973  30.408  1.00  0.00     0.031 C 
ATOM     36  C   UNL A   1      39.409  26.597  28.062  1.00  0.00     0.029 A 
ATOM     37  N   UNL A   1      41.430  26.948  28.954  1.00  0.00    -0.354 N 
ATOM     38  C   UNL A   1      42.393  30.661  30.920  1.00  0.00     0.074 A 
ATOM     39  C   UNL A   1      41.240  31.534  30.980  1.00  0.00     0.031 C 
ATOM     40  C   UNL A   1      40.128  25.479  27.881  1.00  0.00     0.029 A 
ATOM     41  C   UNL A   1      41.471  25.688  28.412  1.00  0.00     0.049 A 
ATOM     42  H   UNL A   1      42.191  27.358  29.427  1.00  0.00     0.167 HD
ATOM     43  C   UNL A   1      43.603  30.956  31.452  1.00  0.00     0.031 A 
ATOM     44  C   UNL A   1      42.487  24.808  28.326  1.00  0.00     0.031 A 
ATOM     45  C   UNL A   1      44.745  30.081  31.409  1.00  0.00     0.049 A 
ATOM     46  C   UNL A   1      43.831  25.180  28.878  1.00  0.00     0.074 A 
ATOM     47  C   UNL A   1      46.011  30.288  31.931  1.00  0.00     0.029 A 
ATOM     48  N   UNL A   1      44.757  28.830  30.814  1.00  0.00    -0.354 N 
ATOM     49  N   UNL A   1      44.193  26.274  29.502  1.00  0.00    -0.248 NA
ATOM     50  C   UNL A   1      44.910  24.198  28.703  1.00  0.00     0.031 C 
ATOM     51  C   UNL A   1      46.800  29.174  31.620  1.00  0.00     0.029 A 
ATOM     52  C   UNL A   1      46.013  28.260  30.939  1.00  0.00     0.049 A 
ATOM     53  H   UNL A   1      43.987  28.409  30.368  1.00  0.00     0.167 HD
ATOM     54  C   UNL A   1      45.538  26.108  29.804  1.00  0.00     0.074 A 
ATOM     55  C   UNL A   1      45.923  24.802  29.308  1.00  0.00     0.031 C 
ATOM     56  C   UNL A   1      46.378  26.963  30.434  1.00  0.00     0.031 A 
BRANCH  43  57
ATOM     57  C   UNL A   1      43.765  32.303  32.094  1.00  0.00    -0.014 A 
ATOM     58  C   UNL A   1      44.113  33.434  31.342  1.00  0.00     0.009 A 
ATOM     59  C   UNL A   1      43.531  32.444  33.471  1.00  0.00     0.009 A 
ATOM     60  C   UNL A   1      44.249  34.678  31.962  1.00  0.00     0.001 A 
ATOM     61  C   UNL A   1      43.648  33.691  34.084  1.00  0.00     0.001 A 
ATOM     62  C   UNL A   1      44.014  34.806  33.331  1.00  0.00     0.000 A 
ENDBRANCH  43  57
BRANCH  44  63
ATOM     63  C   UNL A   1      42.274  23.500  27.658  1.00  0.00    -0.014 A 
ATOM     64  C   UNL A   1      41.776  22.406  28.380  1.00  0.00     0.009 A 
ATOM     65  C   UNL A   1      42.558  23.345  26.292  1.00  0.00     0.009 A 
ATOM     66  C   UNL A   1      41.580  21.177  27.748  1.00  0.00     0.001 A 
ATOM     67  C   UNL A   1      42.337  22.121  25.659  1.00  0.00     0.001 A 
ATOM     68  C   UNL A   1      41.854  21.037  26.388  1.00  0.00     0.000 A 
ENDBRANCH  44  63
BRANCH  56  69
ATOM     69  C   UNL A   1      47.790  26.499  30.639  1.00  0.00    -0.014 A 
ATOM     70  C   UNL A   1      48.782  26.761  29.683  1.00  0.00     0.009 A 
ATOM     71  C   UNL A   1      48.135  25.818  31.816  1.00  0.00     0.009 A 
ATOM     72  C   UNL A   1      50.091  26.324  29.890  1.00  0.00     0.001 A 
ATOM     73  C   UNL A   1      49.449  25.399  32.029  1.00  0.00     0.001 A 
ATOM     74  C   UNL A   1      50.424  25.646  31.063  1.00  0.00     0.000 A 
ENDBRANCH  56  69
ENDBRANCH  30  31
ENDBRANCH  23  25
ENDBRANCH  22  23
ENDBRANCH  21  22
ENDBRANCH   1  21
TORSDOF 14
ENDMDL
