MODEL 1
REMARK VINA RESULT:     -11.5      0.000      0.000
REMARK SMILES CS(=O)(=O)c1ccc(/C=C(/C(=O)OCCOC(=O)c2ccc(-c3c4nc(c(-c5ccccc5)c5ccc([nH]5)c(-c5ccccc5)c5nc(c(-c6ccccc6)c6ccc3[nH]6)C=C5)C=C4)cc2)c2ccc(F)cc2)cc1
REMARK SMILES IDX 14 1 13 2 11 3 12 4 10 5 9 6 8 7 5 8 6 9 75 10 7 11 74 12
REMARK SMILES IDX 2 13 1 14 3 15 4 16 67 17 68 18 73 19 69 20 72 21 70 22
REMARK SMILES IDX 71 23 15 24 16 25 17 26 18 27 19 28 20 29 66 30 21 31 65 32
REMARK SMILES IDX 22 33 23 34 24 35 59 36 25 37 64 38 58 39 60 40 26 41 63 42
REMARK SMILES IDX 57 43 56 44 27 46 49 47 34 48 48 49 35 50 38 51 47 52 61 53
REMARK SMILES IDX 36 54 37 55 46 57 62 58 39 59 28 60 29 61 33 62 30 63 32 64
REMARK SMILES IDX 31 65 50 66 51 67 55 68 52 69 54 70 53 71 40 72 41 73 45 74
REMARK SMILES IDX 42 75 44 76 43 77
REMARK H PARENT 60 45 38 56
REMARK Flexibility Score: inf
ROOT
ATOM      1  C   UNL A   1      34.884  23.509  26.454  1.00  0.00     0.275 C 
ENDROOT
BRANCH   1   2
ATOM      2  O   UNL A   1      33.629  23.308  25.770  1.00  0.00    -0.458 OA
BRANCH   2   3
ATOM      3  C   UNL A   1      32.558  23.914  26.344  1.00  0.00     0.338 C 
ATOM      4  O   UNL A   1      32.007  23.553  27.375  1.00  0.00    -0.246 OA
BRANCH   3   5
ATOM      5  C   UNL A   1      32.119  25.126  25.586  1.00  0.00     0.067 C 
ATOM      6  C   UNL A   1      31.359  24.972  24.476  1.00  0.00     0.024 C 
BRANCH   6   7
ATOM      7  C   UNL A   1      30.580  26.037  23.807  1.00  0.00    -0.025 A 
ATOM      8  C   UNL A   1      29.067  28.252  22.992  1.00  0.00     0.067 A 
ATOM      9  C   UNL A   1      30.411  28.160  22.634  1.00  0.00     0.021 A 
ATOM     10  C   UNL A   1      28.443  27.201  23.663  1.00  0.00     0.021 A 
ATOM     11  C   UNL A   1      31.151  27.039  23.013  1.00  0.00     0.009 A 
ATOM     12  C   UNL A   1      29.202  26.098  24.067  1.00  0.00     0.009 A 
BRANCH   8  13
ATOM     13  S   UNL A   1      28.197  29.760  22.639  1.00  0.00     0.175 S 
ATOM     14  C   UNL A   1      29.105  31.054  23.433  1.00  0.00     0.163 C 
ATOM     15  O   UNL A   1      26.910  29.678  23.301  1.00  0.00    -0.224 OA
ATOM     16  O   UNL A   1      28.293  29.960  21.204  1.00  0.00    -0.224 OA
ENDBRANCH   8  13
ENDBRANCH   6   7
BRANCH   5  17
ATOM     17  C   UNL A   1      32.392  26.448  26.188  1.00  0.00    -0.011 A 
ATOM     18  C   UNL A   1      33.634  27.064  25.958  1.00  0.00     0.012 A 
ATOM     19  C   UNL A   1      31.418  27.121  26.936  1.00  0.00     0.012 A 
ATOM     20  C   UNL A   1      33.880  28.353  26.435  1.00  0.00     0.040 A 
ATOM     21  C   UNL A   1      31.674  28.403  27.426  1.00  0.00     0.040 A 
ATOM     22  C   UNL A   1      32.898  29.010  27.164  1.00  0.00     0.123 A 
ATOM     23  F   UNL A   1      33.137  30.243  27.628  1.00  0.00    -0.207 F 
ENDBRANCH   5  17
ENDBRANCH   3   5
ENDBRANCH   2   3
ENDBRANCH   1   2
BRANCH   1  24
ATOM     24  C   UNL A   1      36.037  22.870  25.683  1.00  0.00     0.275 C 
BRANCH  24  25
ATOM     25  O   UNL A   1      37.166  23.763  25.642  1.00  0.00    -0.458 OA
BRANCH  25  26
ATOM     26  C   UNL A   1      38.350  23.223  26.008  1.00  0.00     0.338 C 
ATOM     27  O   UNL A   1      38.749  22.094  25.777  1.00  0.00    -0.246 OA
BRANCH  26  28
ATOM     28  C   UNL A   1      39.179  24.206  26.733  1.00  0.00     0.060 A 
ATOM     29  C   UNL A   1      39.061  24.339  28.112  1.00  0.00     0.016 A 
ATOM     30  C   UNL A   1      39.915  25.143  26.007  1.00  0.00     0.016 A 
ATOM     31  C   UNL A   1      39.533  25.497  28.735  1.00  0.00     0.010 A 
ATOM     32  C   UNL A   1      40.480  26.248  26.659  1.00  0.00     0.010 A 
ATOM     33  C   UNL A   1      40.221  26.490  28.019  1.00  0.00    -0.014 A 
BRANCH  33  34
ATOM     34  C   UNL A   1      40.550  27.812  28.648  1.00  0.00     0.031 A 
ATOM     35  C   UNL A   1      41.976  28.138  29.048  1.00  0.00     0.074 A 
ATOM     36  C   UNL A   1      39.615  28.770  28.821  1.00  0.00     0.049 A 
ATOM     37  N   UNL A   1      42.429  29.130  29.779  1.00  0.00    -0.248 NA
ATOM     38  C   UNL A   1      43.031  27.223  28.581  1.00  0.00     0.031 C 
ATOM     39  C   UNL A   1      38.206  28.671  28.438  1.00  0.00     0.029 A 
ATOM     40  N   UNL A   1      39.724  30.041  29.336  1.00  0.00    -0.354 N 
ATOM     41  C   UNL A   1      43.791  28.898  29.940  1.00  0.00     0.074 A 
ATOM     42  C   UNL A   1      44.099  27.684  29.218  1.00  0.00     0.031 C 
ATOM     43  C   UNL A   1      37.609  29.854  28.642  1.00  0.00     0.029 A 
ATOM     44  C   UNL A   1      38.557  30.763  29.278  1.00  0.00     0.049 A 
ATOM     45  H   UNL A   1      40.561  30.399  29.712  1.00  0.00     0.167 HD
ATOM     46  C   UNL A   1      44.705  29.622  30.633  1.00  0.00     0.031 A 
ATOM     47  C   UNL A   1      38.258  32.002  29.713  1.00  0.00     0.031 A 
ATOM     48  C   UNL A   1      44.439  30.885  31.271  1.00  0.00     0.049 A 
ATOM     49  C   UNL A   1      39.290  32.803  30.452  1.00  0.00     0.074 A 
ATOM     50  C   UNL A   1      45.305  31.684  32.001  1.00  0.00     0.029 A 
ATOM     51  N   UNL A   1      43.230  31.556  31.215  1.00  0.00    -0.354 N 
ATOM     52  N   UNL A   1      40.536  32.500  30.720  1.00  0.00    -0.248 NA
ATOM     53  C   UNL A   1      38.861  34.108  30.978  1.00  0.00     0.031 C 
ATOM     54  C   UNL A   1      44.612  32.832  32.403  1.00  0.00     0.029 A 
ATOM     55  C   UNL A   1      43.329  32.762  31.889  1.00  0.00     0.049 A 
ATOM     56  H   UNL A   1      42.420  31.225  30.763  1.00  0.00     0.167 HD
ATOM     57  C   UNL A   1      41.036  33.572  31.447  1.00  0.00     0.074 A 
ATOM     58  C   UNL A   1      39.971  34.547  31.551  1.00  0.00     0.031 C 
ATOM     59  C   UNL A   1      42.265  33.725  31.994  1.00  0.00     0.031 A 
BRANCH  46  60
ATOM     60  C   UNL A   1      46.086  29.043  30.781  1.00  0.00    -0.014 A 
ATOM     61  C   UNL A   1      46.404  28.133  31.799  1.00  0.00     0.009 A 
ATOM     62  C   UNL A   1      47.072  29.384  29.840  1.00  0.00     0.009 A 
ATOM     63  C   UNL A   1      47.693  27.598  31.888  1.00  0.00     0.001 A 
ATOM     64  C   UNL A   1      48.350  28.829  29.917  1.00  0.00     0.001 A 
ATOM     65  C   UNL A   1      48.662  27.943  30.946  1.00  0.00     0.000 A 
ENDBRANCH  46  60
BRANCH  47  66
ATOM     66  C   UNL A   1      36.891  32.548  29.508  1.00  0.00    -0.014 A 
ATOM     67  C   UNL A   1      35.906  32.389  30.494  1.00  0.00     0.009 A 
ATOM     68  C   UNL A   1      36.566  33.232  28.326  1.00  0.00     0.009 A 
ATOM     69  C   UNL A   1      34.620  32.895  30.295  1.00  0.00     0.001 A 
ATOM     70  C   UNL A   1      35.289  33.765  28.144  1.00  0.00     0.001 A 
ATOM     71  C   UNL A   1      34.316  33.589  29.124  1.00  0.00     0.000 A 
ENDBRANCH  47  66
BRANCH  59  72
ATOM     72  C   UNL A   1      42.529  35.003  32.735  1.00  0.00    -0.014 A 
ATOM     73  C   UNL A   1      42.051  35.193  34.041  1.00  0.00     0.009 A 
ATOM     74  C   UNL A   1      43.273  36.024  32.125  1.00  0.00     0.009 A 
ATOM     75  C   UNL A   1      42.284  36.397  34.708  1.00  0.00     0.001 A 
ATOM     76  C   UNL A   1      43.522  37.218  32.802  1.00  0.00     0.001 A 
ATOM     77  C   UNL A   1      43.019  37.408  34.089  1.00  0.00     0.000 A 
ENDBRANCH  59  72
ENDBRANCH  33  34
ENDBRANCH  26  28
ENDBRANCH  25  26
ENDBRANCH  24  25
ENDBRANCH   1  24
TORSDOF 14
ENDMDL
MODEL 2
REMARK VINA RESULT:     -11.4      2.542      6.134
REMARK SMILES CS(=O)(=O)c1ccc(/C=C(/C(=O)OCCOC(=O)c2ccc(-c3c4nc(c(-c5ccccc5)c5ccc([nH]5)c(-c5ccccc5)c5nc(c(-c6ccccc6)c6ccc3[nH]6)C=C5)C=C4)cc2)c2ccc(F)cc2)cc1
REMARK SMILES IDX 14 1 13 2 11 3 12 4 10 5 9 6 8 7 5 8 6 9 75 10 7 11 74 12
REMARK SMILES IDX 2 13 1 14 3 15 4 16 67 17 68 18 73 19 69 20 72 21 70 22
REMARK SMILES IDX 71 23 15 24 16 25 17 26 18 27 19 28 20 29 66 30 21 31 65 32
REMARK SMILES IDX 22 33 23 34 24 35 59 36 25 37 64 38 58 39 60 40 26 41 63 42
REMARK SMILES IDX 57 43 56 44 27 46 49 47 34 48 48 49 35 50 38 51 47 52 61 53
REMARK SMILES IDX 36 54 37 55 46 57 62 58 39 59 28 60 29 61 33 62 30 63 32 64
REMARK SMILES IDX 31 65 50 66 51 67 55 68 52 69 54 70 53 71 40 72 41 73 45 74
REMARK SMILES IDX 42 75 44 76 43 77
REMARK H PARENT 60 45 38 56
REMARK Flexibility Score: inf
ROOT
ATOM      1  C   UNL A   1      34.828  22.225  25.579  1.00  0.00     0.275 C 
ENDROOT
BRANCH   1   2
ATOM      2  O   UNL A   1      34.295  23.483  25.114  1.00  0.00    -0.458 OA
BRANCH   2   3
ATOM      3  C   UNL A   1      33.221  23.943  25.807  1.00  0.00     0.338 C 
ATOM      4  O   UNL A   1      32.787  23.461  26.845  1.00  0.00    -0.246 OA
BRANCH   3   5
ATOM      5  C   UNL A   1      32.615  25.155  25.175  1.00  0.00     0.067 C 
ATOM      6  C   UNL A   1      31.880  25.015  24.047  1.00  0.00     0.024 C 
BRANCH   6   7
ATOM      7  C   UNL A   1      30.959  26.026  23.484  1.00  0.00    -0.025 A 
ATOM      8  C   UNL A   1      29.229  28.145  22.868  1.00  0.00     0.067 A 
ATOM      9  C   UNL A   1      30.513  28.119  22.327  1.00  0.00     0.021 A 
ATOM     10  C   UNL A   1      28.763  27.074  23.629  1.00  0.00     0.021 A 
ATOM     11  C   UNL A   1      31.359  27.044  22.608  1.00  0.00     0.009 A 
ATOM     12  C   UNL A   1      29.630  26.019  23.932  1.00  0.00     0.009 A 
BRANCH   8  13
ATOM     13  S   UNL A   1      28.237  29.599  22.627  1.00  0.00     0.175 S 
ATOM     14  C   UNL A   1      29.040  30.899  23.518  1.00  0.00     0.163 C 
ATOM     15  O   UNL A   1      26.964  29.363  23.278  1.00  0.00    -0.224 OA
ATOM     16  O   UNL A   1      28.311  29.913  21.212  1.00  0.00    -0.224 OA
ENDBRANCH   8  13
ENDBRANCH   6   7
BRANCH   5  17
ATOM     17  C   UNL A   1      32.705  26.431  25.914  1.00  0.00    -0.011 A 
ATOM     18  C   UNL A   1      33.813  27.271  25.704  1.00  0.00     0.012 A 
ATOM     19  C   UNL A   1      31.682  26.845  26.777  1.00  0.00     0.012 A 
ATOM     20  C   UNL A   1      33.873  28.524  26.317  1.00  0.00     0.040 A 
ATOM     21  C   UNL A   1      31.754  28.092  27.401  1.00  0.00     0.040 A 
ATOM     22  C   UNL A   1      32.843  28.922  27.159  1.00  0.00     0.123 A 
ATOM     23  F   UNL A   1      32.906  30.121  27.753  1.00  0.00    -0.207 F 
ENDBRANCH   5  17
ENDBRANCH   3   5
ENDBRANCH   2   3
ENDBRANCH   1   2
BRANCH   1  24
ATOM     24  C   UNL A   1      35.719  21.582  24.518  1.00  0.00     0.275 C 
BRANCH  24  25
ATOM     25  O   UNL A   1      37.006  22.228  24.490  1.00  0.00    -0.458 OA
BRANCH  25  26
ATOM     26  C   UNL A   1      37.946  21.689  25.300  1.00  0.00     0.338 C 
ATOM     27  O   UNL A   1      38.303  20.524  25.342  1.00  0.00    -0.246 OA
BRANCH  26  28
ATOM     28  C   UNL A   1      38.559  22.721  26.159  1.00  0.00     0.060 A 
ATOM     29  C   UNL A   1      37.951  23.963  26.302  1.00  0.00     0.016 A 
ATOM     30  C   UNL A   1      39.851  22.522  26.646  1.00  0.00     0.016 A 
ATOM     31  C   UNL A   1      38.697  25.044  26.777  1.00  0.00     0.010 A 
ATOM     32  C   UNL A   1      40.555  23.588  27.222  1.00  0.00     0.010 A 
ATOM     33  C   UNL A   1      40.023  24.889  27.215  1.00  0.00    -0.014 A 
BRANCH  33  34
ATOM     34  C   UNL A   1      40.878  26.079  27.535  1.00  0.00     0.031 A 
ATOM     35  C   UNL A   1      40.425  27.095  28.567  1.00  0.00     0.074 A 
ATOM     36  C   UNL A   1      42.092  26.255  26.973  1.00  0.00     0.049 A 
ATOM     37  N   UNL A   1      40.916  28.281  28.837  1.00  0.00    -0.248 NA
ATOM     38  C   UNL A   1      39.257  26.740  29.390  1.00  0.00     0.031 C 
ATOM     39  C   UNL A   1      42.731  25.354  26.013  1.00  0.00     0.029 A 
ATOM     40  N   UNL A   1      43.028  27.246  27.161  1.00  0.00    -0.354 N 
ATOM     41  C   UNL A   1      40.061  28.846  29.779  1.00  0.00     0.074 A 
ATOM     42  C   UNL A   1      39.031  27.868  30.049  1.00  0.00     0.031 C 
ATOM     43  C   UNL A   1      43.980  25.780  25.771  1.00  0.00     0.029 A 
ATOM     44  C   UNL A   1      44.195  27.045  26.466  1.00  0.00     0.049 A 
ATOM     45  H   UNL A   1      42.876  28.027  27.742  1.00  0.00     0.167 HD
ATOM     46  C   UNL A   1      40.120  30.069  30.363  1.00  0.00     0.031 A 
ATOM     47  C   UNL A   1      45.305  27.798  26.359  1.00  0.00     0.031 A 
ATOM     48  C   UNL A   1      41.192  31.012  30.183  1.00  0.00     0.049 A 
ATOM     49  C   UNL A   1      45.367  29.137  27.035  1.00  0.00     0.074 A 
ATOM     50  C   UNL A   1      41.330  32.278  30.731  1.00  0.00     0.029 A 
ATOM     51  N   UNL A   1      42.334  30.776  29.437  1.00  0.00    -0.354 N 
ATOM     52  N   UNL A   1      44.481  29.715  27.808  1.00  0.00    -0.248 NA
ATOM     53  C   UNL A   1      46.575  29.942  26.796  1.00  0.00     0.031 C 
ATOM     54  C   UNL A   1      42.548  32.815  30.299  1.00  0.00     0.029 A 
ATOM     55  C   UNL A   1      43.183  31.866  29.516  1.00  0.00     0.049 A 
ATOM     56  H   UNL A   1      42.514  29.954  28.926  1.00  0.00     0.167 HD
ATOM     57  C   UNL A   1      45.021  30.950  28.142  1.00  0.00     0.074 A 
ATOM     58  C   UNL A   1      46.324  31.025  27.517  1.00  0.00     0.031 C 
ATOM     59  C   UNL A   1      44.475  31.938  28.888  1.00  0.00     0.031 A 
BRANCH  46  60
ATOM     60  C   UNL A   1      38.960  30.486  31.225  1.00  0.00    -0.014 A 
ATOM     61  C   UNL A   1      37.819  31.100  30.689  1.00  0.00     0.009 A 
ATOM     62  C   UNL A   1      38.999  30.205  32.601  1.00  0.00     0.009 A 
ATOM     63  C   UNL A   1      36.752  31.451  31.522  1.00  0.00     0.001 A 
ATOM     64  C   UNL A   1      37.921  30.533  33.425  1.00  0.00     0.001 A 
ATOM     65  C   UNL A   1      36.801  31.164  32.885  1.00  0.00     0.000 A 
ENDBRANCH  46  60
BRANCH  47  66
ATOM     66  C   UNL A   1      46.444  27.326  25.527  1.00  0.00    -0.014 A 
ATOM     67  C   UNL A   1      47.341  26.371  26.027  1.00  0.00     0.009 A 
ATOM     68  C   UNL A   1      46.635  27.827  24.230  1.00  0.00     0.009 A 
ATOM     69  C   UNL A   1      48.415  25.935  25.247  1.00  0.00     0.001 A 
ATOM     70  C   UNL A   1      47.690  27.366  23.442  1.00  0.00     0.001 A 
ATOM     71  C   UNL A   1      48.583  26.427  23.953  1.00  0.00     0.000 A 
ENDBRANCH  47  66
BRANCH  59  72
ATOM     72  C   UNL A   1      45.297  33.178  29.086  1.00  0.00    -0.014 A 
ATOM     73  C   UNL A   1      46.218  33.275  30.141  1.00  0.00     0.009 A 
ATOM     74  C   UNL A   1      45.159  34.257  28.200  1.00  0.00     0.009 A 
ATOM     75  C   UNL A   1      46.958  34.445  30.326  1.00  0.00     0.001 A 
ATOM     76  C   UNL A   1      45.914  35.417  28.376  1.00  0.00     0.001 A 
ATOM     77  C   UNL A   1      46.806  35.514  29.444  1.00  0.00     0.000 A 
ENDBRANCH  59  72
ENDBRANCH  33  34
ENDBRANCH  26  28
ENDBRANCH  25  26
ENDBRANCH  24  25
ENDBRANCH   1  24
TORSDOF 14
ENDMDL
MODEL 3
REMARK VINA RESULT:     -11.3      3.549      8.303
REMARK SMILES CS(=O)(=O)c1ccc(/C=C(/C(=O)OCCOC(=O)c2ccc(-c3c4nc(c(-c5ccccc5)c5ccc([nH]5)c(-c5ccccc5)c5nc(c(-c6ccccc6)c6ccc3[nH]6)C=C5)C=C4)cc2)c2ccc(F)cc2)cc1
REMARK SMILES IDX 14 1 13 2 11 3 12 4 10 5 9 6 8 7 5 8 6 9 75 10 7 11 74 12
REMARK SMILES IDX 2 13 1 14 3 15 4 16 67 17 68 18 73 19 69 20 72 21 70 22
REMARK SMILES IDX 71 23 15 24 16 25 17 26 18 27 19 28 20 29 66 30 21 31 65 32
REMARK SMILES IDX 22 33 23 34 24 35 59 36 25 37 64 38 58 39 60 40 26 41 63 42
REMARK SMILES IDX 57 43 56 44 27 46 49 47 34 48 48 49 35 50 38 51 47 52 61 53
REMARK SMILES IDX 36 54 37 55 46 57 62 58 39 59 28 60 29 61 33 62 30 63 32 64
REMARK SMILES IDX 31 65 50 66 51 67 55 68 52 69 54 70 53 71 40 72 41 73 45 74
REMARK SMILES IDX 42 75 44 76 43 77
REMARK H PARENT 60 45 38 56
REMARK Flexibility Score: inf
ROOT
ATOM      1  C   UNL A   1      32.967  27.216  25.882  1.00  0.00     0.275 C 
ENDROOT
BRANCH   1   2
ATOM      2  O   UNL A   1      34.020  26.808  24.983  1.00  0.00    -0.458 OA
BRANCH   2   3
ATOM      3  C   UNL A   1      33.619  26.033  23.943  1.00  0.00     0.338 C 
ATOM      4  O   UNL A   1      33.311  26.442  22.831  1.00  0.00    -0.246 OA
BRANCH   3   5
ATOM      5  C   UNL A   1      33.620  24.578  24.286  1.00  0.00     0.067 C 
ATOM      6  C   UNL A   1      32.455  23.888  24.247  1.00  0.00     0.024 C 
BRANCH   6   7
ATOM      7  C   UNL A   1      32.321  22.416  24.235  1.00  0.00    -0.025 A 
ATOM      8  C   UNL A   1      32.525  19.627  24.021  1.00  0.00     0.067 A 
ATOM      9  C   UNL A   1      32.545  20.229  25.277  1.00  0.00     0.021 A 
ATOM     10  C   UNL A   1      32.299  20.392  22.876  1.00  0.00     0.021 A 
ATOM     11  C   UNL A   1      32.409  21.615  25.381  1.00  0.00     0.009 A 
ATOM     12  C   UNL A   1      32.197  21.782  22.989  1.00  0.00     0.009 A 
BRANCH   8  13
ATOM     13  S   UNL A   1      32.864  17.887  23.908  1.00  0.00     0.175 S 
ATOM     14  C   UNL A   1      34.588  17.695  24.253  1.00  0.00     0.163 C 
ATOM     15  O   UNL A   1      32.662  17.499  22.527  1.00  0.00    -0.224 OA
ATOM     16  O   UNL A   1      32.118  17.256  24.983  1.00  0.00    -0.224 OA
ENDBRANCH   8  13
ENDBRANCH   6   7
BRANCH   5  17
ATOM     17  C   UNL A   1      34.928  23.919  24.484  1.00  0.00    -0.011 A 
ATOM     18  C   UNL A   1      35.546  23.983  25.745  1.00  0.00     0.012 A 
ATOM     19  C   UNL A   1      35.537  23.189  23.456  1.00  0.00     0.012 A 
ATOM     20  C   UNL A   1      36.734  23.290  25.984  1.00  0.00     0.040 A 
ATOM     21  C   UNL A   1      36.734  22.510  23.693  1.00  0.00     0.040 A 
ATOM     22  C   UNL A   1      37.316  22.560  24.955  1.00  0.00     0.123 A 
ATOM     23  F   UNL A   1      38.460  21.901  25.183  1.00  0.00    -0.207 F 
ENDBRANCH   5  17
ENDBRANCH   3   5
ENDBRANCH   2   3
ENDBRANCH   1   2
BRANCH   1  24
ATOM     24  C   UNL A   1      33.184  28.649  26.364  1.00  0.00     0.275 C 
BRANCH  24  25
ATOM     25  O   UNL A   1      34.101  28.669  27.474  1.00  0.00    -0.458 OA
BRANCH  25  26
ATOM     26  C   UNL A   1      34.479  29.896  27.895  1.00  0.00     0.338 C 
ATOM     27  O   UNL A   1      33.772  30.879  28.036  1.00  0.00    -0.246 OA
BRANCH  26  28
ATOM     28  C   UNL A   1      35.919  29.924  28.220  1.00  0.00     0.060 A 
ATOM     29  C   UNL A   1      36.844  30.329  27.265  1.00  0.00     0.016 A 
ATOM     30  C   UNL A   1      36.361  29.338  29.407  1.00  0.00     0.016 A 
ATOM     31  C   UNL A   1      38.190  29.993  27.424  1.00  0.00     0.010 A 
ATOM     32  C   UNL A   1      37.728  29.103  29.606  1.00  0.00     0.010 A 
ATOM     33  C   UNL A   1      38.656  29.344  28.579  1.00  0.00    -0.014 A 
BRANCH  33  34
ATOM     34  C   UNL A   1      40.057  28.812  28.658  1.00  0.00     0.031 A 
ATOM     35  C   UNL A   1      41.177  29.677  29.206  1.00  0.00     0.074 A 
ATOM     36  C   UNL A   1      40.357  27.544  28.309  1.00  0.00     0.049 A 
ATOM     37  N   UNL A   1      42.473  29.479  29.171  1.00  0.00    -0.248 NA
ATOM     38  C   UNL A   1      40.792  30.937  29.864  1.00  0.00     0.031 C 
ATOM     39  C   UNL A   1      39.409  26.541  27.825  1.00  0.00     0.029 A 
ATOM     40  N   UNL A   1      41.556  26.869  28.344  1.00  0.00    -0.354 N 
ATOM     41  C   UNL A   1      43.052  30.626  29.705  1.00  0.00     0.074 A 
ATOM     42  C   UNL A   1      41.968  31.510  30.073  1.00  0.00     0.031 C 
ATOM     43  C   UNL A   1      40.037  25.363  27.701  1.00  0.00     0.029 A 
ATOM     44  C   UNL A   1      41.456  25.547  27.982  1.00  0.00     0.049 A 
ATOM     45  H   UNL A   1      42.405  27.293  28.605  1.00  0.00     0.167 HD
ATOM     46  C   UNL A   1      44.365  30.925  29.868  1.00  0.00     0.031 A 
ATOM     47  C   UNL A   1      42.394  24.590  27.853  1.00  0.00     0.031 A 
ATOM     48  C   UNL A   1      45.452  30.019  29.602  1.00  0.00     0.049 A 
ATOM     49  C   UNL A   1      43.842  24.930  28.065  1.00  0.00     0.074 A 
ATOM     50  C   UNL A   1      46.813  30.241  29.733  1.00  0.00     0.029 A 
ATOM     51  N   UNL A   1      45.300  28.703  29.200  1.00  0.00    -0.354 N 
ATOM     52  N   UNL A   1      44.379  26.067  28.431  1.00  0.00    -0.248 NA
ATOM     53  C   UNL A   1      44.815  23.855  27.814  1.00  0.00     0.031 C 
ATOM     54  C   UNL A   1      47.487  29.063  29.391  1.00  0.00     0.029 A 
ATOM     55  C   UNL A   1      46.541  28.099  29.086  1.00  0.00     0.049 A 
ATOM     56  H   UNL A   1      44.438  28.263  29.022  1.00  0.00     0.167 HD
ATOM     57  C   UNL A   1      45.750  25.846  28.449  1.00  0.00     0.074 A 
ATOM     58  C   UNL A   1      45.961  24.460  28.090  1.00  0.00     0.031 C 
ATOM     59  C   UNL A   1      46.745  26.722  28.724  1.00  0.00     0.031 A 
BRANCH  46  60
ATOM     60  C   UNL A   1      44.712  32.318  30.316  1.00  0.00    -0.014 A 
ATOM     61  C   UNL A   1      44.904  32.637  31.668  1.00  0.00     0.009 A 
ATOM     62  C   UNL A   1      44.901  33.319  29.348  1.00  0.00     0.009 A 
ATOM     63  C   UNL A   1      45.249  33.940  32.042  1.00  0.00     0.001 A 
ATOM     64  C   UNL A   1      45.271  34.611  29.723  1.00  0.00     0.001 A 
ATOM     65  C   UNL A   1      45.437  34.923  31.071  1.00  0.00     0.000 A 
ENDBRANCH  46  60
BRANCH  47  66
ATOM     66  C   UNL A   1      41.999  23.216  27.446  1.00  0.00    -0.014 A 
ATOM     67  C   UNL A   1      41.517  22.304  28.396  1.00  0.00     0.009 A 
ATOM     68  C   UNL A   1      42.100  22.812  26.105  1.00  0.00     0.009 A 
ATOM     69  C   UNL A   1      41.154  21.011  28.013  1.00  0.00     0.001 A 
ATOM     70  C   UNL A   1      41.708  21.530  25.720  1.00  0.00     0.001 A 
ATOM     71  C   UNL A   1      41.243  20.629  26.675  1.00  0.00     0.000 A 
ENDBRANCH  47  66
BRANCH  59  72
ATOM     72  C   UNL A   1      48.150  26.199  28.666  1.00  0.00    -0.014 A 
ATOM     73  C   UNL A   1      48.858  26.159  27.454  1.00  0.00     0.009 A 
ATOM     74  C   UNL A   1      48.778  25.753  29.838  1.00  0.00     0.009 A 
ATOM     75  C   UNL A   1      50.156  25.647  27.413  1.00  0.00     0.001 A 
ATOM     76  C   UNL A   1      50.083  25.260  29.797  1.00  0.00     0.001 A 
ATOM     77  C   UNL A   1      50.768  25.199  28.583  1.00  0.00     0.000 A 
ENDBRANCH  59  72
ENDBRANCH  33  34
ENDBRANCH  26  28
ENDBRANCH  25  26
ENDBRANCH  24  25
ENDBRANCH   1  24
TORSDOF 14
ENDMDL
