MODEL 1
REMARK VINA RESULT:      -9.7      0.000      0.000
REMARK SMILES CCCC1(C(=O)OCCOC(=O)c2ccc(-c3c4nc(c(-c5ccccc5)c5ccc([nH]5)c(-c5ccccc5)c5nc(c(-c6ccccc6)c6ccc3[nH]6)C=C5)C=C4)cc2)CC[NH+]([C@H](C)[C@H](C)O)CC1
REMARK SMILES IDX 8 1 7 2 5 3 6 4 4 5 61 6 70 7 62 8 69 9 63 10 3 12 2 13 1 14
REMARK SMILES IDX 64 15 65 16 66 17 67 18 68 19 9 21 10 22 11 23 12 24 13 25
REMARK SMILES IDX 14 26 60 27 15 28 59 29 16 30 17 31 18 32 53 33 19 34 58 35
REMARK SMILES IDX 52 36 54 37 20 38 57 39 51 40 50 41 21 43 43 44 28 45 42 46
REMARK SMILES IDX 29 47 32 48 41 49 55 50 30 51 31 52 40 54 56 55 33 56 22 57
REMARK SMILES IDX 23 58 27 59 24 60 26 61 25 62 44 63 45 64 49 65 46 66 48 67
REMARK SMILES IDX 47 68 34 69 35 70 39 71 36 72 38 73 37 74
REMARK H PARENT 63 11 68 20 54 42 32 53
REMARK Flexibility Score: inf
ROOT
ATOM      1  C   UNL A   1      31.279  28.426  25.014  1.00  0.00     0.274 C 
ENDROOT
BRANCH   1   2
ATOM      2  O   UNL A   1      32.389  27.523  25.199  1.00  0.00    -0.462 OA
BRANCH   2   3
ATOM      3  C   UNL A   1      32.740  26.720  24.158  1.00  0.00     0.312 C 
ATOM      4  O   UNL A   1      32.920  27.123  23.014  1.00  0.00    -0.252 OA
BRANCH   3   5
ATOM      5  C   UNL A   1      32.741  25.223  24.534  1.00  0.00     0.079 C 
ATOM      6  C   UNL A   1      33.286  24.338  23.392  1.00  0.00     0.080 C 
ATOM      7  C   UNL A   1      33.689  25.185  25.771  1.00  0.00     0.080 C 
ATOM      8  C   UNL A   1      33.803  22.990  23.872  1.00  0.00     0.263 C 
ATOM      9  C   UNL A   1      34.294  23.818  26.079  1.00  0.00     0.263 C 
ATOM     10  N   UNL A   1      34.813  23.092  24.923  1.00  0.00    -0.331 N 
ATOM     11  H   UNL A   1      34.976  22.130  25.222  1.00  0.00     0.348 HD
BRANCH   5  12
ATOM     12  C   UNL A   1      31.315  24.774  24.997  1.00  0.00     0.019 C 
BRANCH  12  13
ATOM     13  C   UNL A   1      31.074  24.535  26.497  1.00  0.00    -0.002 C 
ATOM     14  C   UNL A   1      30.692  23.106  26.862  1.00  0.00     0.004 C 
ENDBRANCH  12  13
ENDBRANCH   5  12
BRANCH  10  15
ATOM     15  C   UNL A   1      36.206  23.399  24.522  1.00  0.00     0.209 C 
ATOM     16  C   UNL A   1      36.658  22.956  23.122  1.00  0.00     0.078 C 
BRANCH  15  17
ATOM     17  C   UNL A   1      37.238  22.912  25.599  1.00  0.00     0.169 C 
ATOM     18  C   UNL A   1      38.003  24.070  26.228  1.00  0.00     0.045 C 
BRANCH  17  19
ATOM     19  O   UNL A   1      38.195  21.996  25.054  1.00  0.00    -0.387 OA
ATOM     20  H   UNL A   1      39.001  22.477  24.812  1.00  0.00     0.211 HD
ENDBRANCH  17  19
ENDBRANCH  15  17
ENDBRANCH  10  15
ENDBRANCH   3   5
ENDBRANCH   2   3
ENDBRANCH   1   2
BRANCH   1  21
ATOM     21  C   UNL A   1      31.718  29.859  25.287  1.00  0.00     0.275 C 
BRANCH  21  22
ATOM     22  O   UNL A   1      32.195  29.925  26.640  1.00  0.00    -0.458 OA
BRANCH  22  23
ATOM     23  C   UNL A   1      32.727  31.104  27.031  1.00  0.00     0.338 C 
ATOM     24  O   UNL A   1      32.182  32.192  27.063  1.00  0.00    -0.246 OA
BRANCH  23  25
ATOM     25  C   UNL A   1      34.109  30.875  27.490  1.00  0.00     0.060 A 
ATOM     26  C   UNL A   1      34.588  29.573  27.620  1.00  0.00     0.016 A 
ATOM     27  C   UNL A   1      34.885  31.946  27.926  1.00  0.00     0.016 A 
ATOM     28  C   UNL A   1      35.780  29.329  28.293  1.00  0.00     0.010 A 
ATOM     29  C   UNL A   1      36.134  31.702  28.509  1.00  0.00     0.010 A 
ATOM     30  C   UNL A   1      36.571  30.388  28.753  1.00  0.00    -0.014 A 
BRANCH  30  31
ATOM     31  C   UNL A   1      37.791  30.119  29.566  1.00  0.00     0.031 A 
ATOM     32  C   UNL A   1      38.957  29.386  28.950  1.00  0.00     0.074 A 
ATOM     33  C   UNL A   1      37.898  30.556  30.836  1.00  0.00     0.049 A 
ATOM     34  N   UNL A   1      39.995  28.845  29.535  1.00  0.00    -0.248 NA
ATOM     35  C   UNL A   1      38.940  29.218  27.488  1.00  0.00     0.031 C 
ATOM     36  C   UNL A   1      36.896  31.341  31.561  1.00  0.00     0.029 A 
ATOM     37  N   UNL A   1      38.922  30.416  31.743  1.00  0.00    -0.354 N 
ATOM     38  C   UNL A   1      40.692  28.184  28.531  1.00  0.00     0.074 A 
ATOM     39  C   UNL A   1      39.980  28.418  27.295  1.00  0.00     0.031 C 
ATOM     40  C   UNL A   1      37.380  31.669  32.768  1.00  0.00     0.029 A 
ATOM     41  C   UNL A   1      38.677  31.029  32.947  1.00  0.00     0.049 A 
ATOM     42  H   UNL A   1      39.751  29.922  31.546  1.00  0.00     0.167 HD
ATOM     43  C   UNL A   1      41.815  27.434  28.636  1.00  0.00     0.031 A 
ATOM     44  C   UNL A   1      39.390  31.039  34.089  1.00  0.00     0.031 A 
ATOM     45  C   UNL A   1      42.578  27.279  29.846  1.00  0.00     0.049 A 
ATOM     46  C   UNL A   1      40.654  30.238  34.176  1.00  0.00     0.074 A 
ATOM     47  C   UNL A   1      43.731  26.543  30.053  1.00  0.00     0.029 A 
ATOM     48  N   UNL A   1      42.282  27.907  31.044  1.00  0.00    -0.354 N 
ATOM     49  N   UNL A   1      41.234  29.511  33.252  1.00  0.00    -0.248 NA
ATOM     50  C   UNL A   1      41.344  30.232  35.473  1.00  0.00     0.031 C 
ATOM     51  C   UNL A   1      44.126  26.713  31.384  1.00  0.00     0.029 A 
ATOM     52  C   UNL A   1      43.234  27.580  31.995  1.00  0.00     0.049 A 
ATOM     53  H   UNL A   1      41.510  28.498  31.198  1.00  0.00     0.167 HD
ATOM     54  C   UNL A   1      42.346  28.947  33.861  1.00  0.00     0.074 A 
ATOM     55  C   UNL A   1      42.381  29.446  35.220  1.00  0.00     0.031 C 
ATOM     56  C   UNL A   1      43.247  28.077  33.343  1.00  0.00     0.031 A 
BRANCH  43  57
ATOM     57  C   UNL A   1      42.250  26.670  27.418  1.00  0.00    -0.014 A 
ATOM     58  C   UNL A   1      41.775  25.382  27.138  1.00  0.00     0.009 A 
ATOM     59  C   UNL A   1      43.147  27.277  26.522  1.00  0.00     0.009 A 
ATOM     60  C   UNL A   1      42.213  24.703  25.998  1.00  0.00     0.001 A 
ATOM     61  C   UNL A   1      43.564  26.605  25.372  1.00  0.00     0.001 A 
ATOM     62  C   UNL A   1      43.104  25.315  25.116  1.00  0.00     0.000 A 
ENDBRANCH  43  57
BRANCH  44  63
ATOM     63  C   UNL A   1      38.878  31.787  35.265  1.00  0.00    -0.014 A 
ATOM     64  C   UNL A   1      38.164  31.125  36.275  1.00  0.00     0.009 A 
ATOM     65  C   UNL A   1      39.128  33.162  35.397  1.00  0.00     0.009 A 
ATOM     66  C   UNL A   1      37.709  31.828  37.392  1.00  0.00     0.001 A 
ATOM     67  C   UNL A   1      38.696  33.855  36.528  1.00  0.00     0.001 A 
ATOM     68  C   UNL A   1      37.982  33.189  37.522  1.00  0.00     0.000 A 
ENDBRANCH  44  63
BRANCH  56  69
ATOM     69  C   UNL A   1      44.345  27.619  34.256  1.00  0.00    -0.014 A 
ATOM     70  C   UNL A   1      44.195  26.458  35.030  1.00  0.00     0.009 A 
ATOM     71  C   UNL A   1      45.545  28.340  34.325  1.00  0.00     0.009 A 
ATOM     72  C   UNL A   1      45.222  26.044  35.880  1.00  0.00     0.001 A 
ATOM     73  C   UNL A   1      46.575  27.914  35.163  1.00  0.00     0.001 A 
ATOM     74  C   UNL A   1      46.411  26.771  35.944  1.00  0.00     0.000 A 
ENDBRANCH  56  69
ENDBRANCH  30  31
ENDBRANCH  23  25
ENDBRANCH  22  23
ENDBRANCH  21  22
ENDBRANCH   1  21
TORSDOF 16
ENDMDL
MODEL 2
REMARK VINA RESULT:      -9.7      3.009      6.635
REMARK SMILES CCCC1(C(=O)OCCOC(=O)c2ccc(-c3c4nc(c(-c5ccccc5)c5ccc([nH]5)c(-c5ccccc5)c5nc(c(-c6ccccc6)c6ccc3[nH]6)C=C5)C=C4)cc2)CC[NH+]([C@H](C)[C@H](C)O)CC1
REMARK SMILES IDX 8 1 7 2 5 3 6 4 4 5 61 6 70 7 62 8 69 9 63 10 3 12 2 13 1 14
REMARK SMILES IDX 64 15 65 16 66 17 67 18 68 19 9 21 10 22 11 23 12 24 13 25
REMARK SMILES IDX 14 26 60 27 15 28 59 29 16 30 17 31 18 32 53 33 19 34 58 35
REMARK SMILES IDX 52 36 54 37 20 38 57 39 51 40 50 41 21 43 43 44 28 45 42 46
REMARK SMILES IDX 29 47 32 48 41 49 55 50 30 51 31 52 40 54 56 55 33 56 22 57
REMARK SMILES IDX 23 58 27 59 24 60 26 61 25 62 44 63 45 64 49 65 46 66 48 67
REMARK SMILES IDX 47 68 34 69 35 70 39 71 36 72 38 73 37 74
REMARK H PARENT 63 11 68 20 54 42 32 53
REMARK Flexibility Score: inf
ROOT
ATOM      1  C   UNL A   1      33.126  29.566  25.784  1.00  0.00     0.274 C 
ENDROOT
BRANCH   1   2
ATOM      2  O   UNL A   1      34.083  28.607  25.287  1.00  0.00    -0.462 OA
BRANCH   2   3
ATOM      3  C   UNL A   1      33.830  28.011  24.091  1.00  0.00     0.312 C 
ATOM      4  O   UNL A   1      33.915  28.583  23.009  1.00  0.00    -0.252 OA
BRANCH   3   5
ATOM      5  C   UNL A   1      33.275  26.579  24.244  1.00  0.00     0.079 C 
ATOM      6  C   UNL A   1      33.747  25.649  23.107  1.00  0.00     0.080 C 
ATOM      7  C   UNL A   1      33.868  26.131  25.614  1.00  0.00     0.080 C 
ATOM      8  C   UNL A   1      33.694  24.173  23.476  1.00  0.00     0.263 C 
ATOM      9  C   UNL A   1      33.928  24.621  25.830  1.00  0.00     0.263 C 
ATOM     10  N   UNL A   1      34.430  23.849  24.696  1.00  0.00    -0.331 N 
ATOM     11  H   UNL A   1      34.211  22.870  24.880  1.00  0.00     0.348 HD
BRANCH   5  12
ATOM     12  C   UNL A   1      31.716  26.606  24.373  1.00  0.00     0.019 C 
BRANCH  12  13
ATOM     13  C   UNL A   1      31.093  26.417  25.766  1.00  0.00    -0.002 C 
ATOM     14  C   UNL A   1      30.324  25.115  25.949  1.00  0.00     0.004 C 
ENDBRANCH  12  13
ENDBRANCH   5  12
BRANCH  10  15
ATOM     15  C   UNL A   1      35.900  23.695  24.601  1.00  0.00     0.209 C 
ATOM     16  C   UNL A   1      36.457  22.893  23.415  1.00  0.00     0.078 C 
BRANCH  15  17
ATOM     17  C   UNL A   1      36.512  23.162  25.944  1.00  0.00     0.169 C 
ATOM     18  C   UNL A   1      38.035  23.117  25.903  1.00  0.00     0.045 C 
BRANCH  17  19
ATOM     19  O   UNL A   1      36.040  21.849  26.269  1.00  0.00    -0.387 OA
ATOM     20  H   UNL A   1      35.393  21.907  26.989  1.00  0.00     0.211 HD
ENDBRANCH  17  19
ENDBRANCH  15  17
ENDBRANCH  10  15
ENDBRANCH   3   5
ENDBRANCH   2   3
ENDBRANCH   1   2
BRANCH   1  21
ATOM     21  C   UNL A   1      33.417  29.888  27.244  1.00  0.00     0.275 C 
BRANCH  21  22
ATOM     22  O   UNL A   1      34.192  31.096  27.284  1.00  0.00    -0.458 OA
BRANCH  22  23
ATOM     23  C   UNL A   1      34.826  31.363  28.447  1.00  0.00     0.338 C 
ATOM     24  O   UNL A   1      34.478  32.128  29.327  1.00  0.00    -0.246 OA
BRANCH  23  25
ATOM     25  C   UNL A   1      36.031  30.517  28.538  1.00  0.00     0.060 A 
ATOM     26  C   UNL A   1      36.268  29.773  29.691  1.00  0.00     0.016 A 
ATOM     27  C   UNL A   1      36.997  30.570  27.535  1.00  0.00     0.016 A 
ATOM     28  C   UNL A   1      37.510  29.184  29.902  1.00  0.00     0.010 A 
ATOM     29  C   UNL A   1      38.207  29.888  27.706  1.00  0.00     0.010 A 
ATOM     30  C   UNL A   1      38.502  29.234  28.916  1.00  0.00    -0.014 A 
BRANCH  30  31
ATOM     31  C   UNL A   1      39.865  28.696  29.190  1.00  0.00     0.031 A 
ATOM     32  C   UNL A   1      40.845  29.509  29.999  1.00  0.00     0.074 A 
ATOM     33  C   UNL A   1      40.233  27.470  28.767  1.00  0.00     0.049 A 
ATOM     34  N   UNL A   1      42.134  29.342  30.146  1.00  0.00    -0.248 NA
ATOM     35  C   UNL A   1      40.308  30.679  30.715  1.00  0.00     0.031 C 
ATOM     36  C   UNL A   1      39.386  26.525  28.036  1.00  0.00     0.029 A 
ATOM     37  N   UNL A   1      41.424  26.799  28.913  1.00  0.00    -0.354 N 
ATOM     38  C   UNL A   1      42.576  30.439  30.877  1.00  0.00     0.074 A 
ATOM     39  C   UNL A   1      41.415  31.248  31.171  1.00  0.00     0.031 C 
ATOM     40  C   UNL A   1      40.057  25.377  27.860  1.00  0.00     0.029 A 
ATOM     41  C   UNL A   1      41.415  25.540  28.364  1.00  0.00     0.049 A 
ATOM     42  H   UNL A   1      42.207  27.185  29.367  1.00  0.00     0.167 HD
ATOM     43  C   UNL A   1      43.840  30.751  31.250  1.00  0.00     0.031 A 
ATOM     44  C   UNL A   1      42.399  24.631  28.234  1.00  0.00     0.031 A 
ATOM     45  C   UNL A   1      44.981  29.901  31.041  1.00  0.00     0.049 A 
ATOM     46  C   UNL A   1      43.785  24.975  28.692  1.00  0.00     0.074 A 
ATOM     47  C   UNL A   1      46.303  30.126  31.386  1.00  0.00     0.029 A 
ATOM     48  N   UNL A   1      44.926  28.641  30.467  1.00  0.00    -0.354 N 
ATOM     49  N   UNL A   1      44.214  26.073  29.266  1.00  0.00    -0.248 NA
ATOM     50  C   UNL A   1      44.828  23.968  28.454  1.00  0.00     0.031 C 
ATOM     51  C   UNL A   1      47.051  29.007  31.005  1.00  0.00     0.029 A 
ATOM     52  C   UNL A   1      46.189  28.074  30.452  1.00  0.00     0.049 A 
ATOM     53  H   UNL A   1      44.110  28.213  30.120  1.00  0.00     0.167 HD
ATOM     54  C   UNL A   1      45.579  25.896  29.441  1.00  0.00     0.074 A 
ATOM     55  C   UNL A   1      45.900  24.572  28.948  1.00  0.00     0.031 C 
ATOM     56  C   UNL A   1      46.489  26.762  29.949  1.00  0.00     0.031 A 
BRANCH  43  57
ATOM     57  C   UNL A   1      44.063  32.101  31.869  1.00  0.00    -0.014 A 
ATOM     58  C   UNL A   1      44.032  32.298  33.256  1.00  0.00     0.009 A 
ATOM     59  C   UNL A   1      44.332  33.196  31.030  1.00  0.00     0.009 A 
ATOM     60  C   UNL A   1      44.236  33.573  33.790  1.00  0.00     0.001 A 
ATOM     61  C   UNL A   1      44.558  34.463  31.568  1.00  0.00     0.001 A 
ATOM     62  C   UNL A   1      44.502  34.652  32.947  1.00  0.00     0.000 A 
ENDBRANCH  43  57
BRANCH  44  63
ATOM     63  C   UNL A   1      42.113  23.331  27.578  1.00  0.00    -0.014 A 
ATOM     64  C   UNL A   1      42.426  23.132  26.225  1.00  0.00     0.009 A 
ATOM     65  C   UNL A   1      41.554  22.273  28.311  1.00  0.00     0.009 A 
ATOM     66  C   UNL A   1      42.180  21.898  25.620  1.00  0.00     0.001 A 
ATOM     67  C   UNL A   1      41.336  21.032  27.710  1.00  0.00     0.001 A 
ATOM     68  C   UNL A   1      41.644  20.847  26.364  1.00  0.00     0.000 A 
ENDBRANCH  44  63
BRANCH  56  69
ATOM     69  C   UNL A   1      47.914  26.296  29.994  1.00  0.00    -0.014 A 
ATOM     70  C   UNL A   1      48.762  26.473  28.891  1.00  0.00     0.009 A 
ATOM     71  C   UNL A   1      48.417  25.696  31.158  1.00  0.00     0.009 A 
ATOM     72  C   UNL A   1      50.085  26.030  28.943  1.00  0.00     0.001 A 
ATOM     73  C   UNL A   1      49.744  25.270  31.213  1.00  0.00     0.001 A 
ATOM     74  C   UNL A   1      50.574  25.431  30.104  1.00  0.00     0.000 A 
ENDBRANCH  56  69
ENDBRANCH  30  31
ENDBRANCH  23  25
ENDBRANCH  22  23
ENDBRANCH  21  22
ENDBRANCH   1  21
TORSDOF 16
ENDMDL
MODEL 3
REMARK VINA RESULT:      -9.7      4.031      7.824
REMARK SMILES CCCC1(C(=O)OCCOC(=O)c2ccc(-c3c4nc(c(-c5ccccc5)c5ccc([nH]5)c(-c5ccccc5)c5nc(c(-c6ccccc6)c6ccc3[nH]6)C=C5)C=C4)cc2)CC[NH+]([C@H](C)[C@H](C)O)CC1
REMARK SMILES IDX 8 1 7 2 5 3 6 4 4 5 61 6 70 7 62 8 69 9 63 10 3 12 2 13 1 14
REMARK SMILES IDX 64 15 65 16 66 17 67 18 68 19 9 21 10 22 11 23 12 24 13 25
REMARK SMILES IDX 14 26 60 27 15 28 59 29 16 30 17 31 18 32 53 33 19 34 58 35
REMARK SMILES IDX 52 36 54 37 20 38 57 39 51 40 50 41 21 43 43 44 28 45 42 46
REMARK SMILES IDX 29 47 32 48 41 49 55 50 30 51 31 52 40 54 56 55 33 56 22 57
REMARK SMILES IDX 23 58 27 59 24 60 26 61 25 62 44 63 45 64 49 65 46 66 48 67
REMARK SMILES IDX 47 68 34 69 35 70 39 71 36 72 38 73 37 74
REMARK H PARENT 63 11 68 20 54 42 32 53
REMARK Flexibility Score: inf
ROOT
ATOM      1  C   UNL A   1      33.713  29.750  26.333  1.00  0.00     0.274 C 
ENDROOT
BRANCH   1   2
ATOM      2  O   UNL A   1      33.294  28.393  26.585  1.00  0.00    -0.462 OA
BRANCH   2   3
ATOM      3  C   UNL A   1      31.993  28.071  26.351  1.00  0.00     0.312 C 
ATOM      4  O   UNL A   1      31.130  28.031  27.222  1.00  0.00    -0.252 OA
BRANCH   3   5
ATOM      5  C   UNL A   1      31.745  27.610  24.898  1.00  0.00     0.079 C 
ATOM      6  C   UNL A   1      30.381  26.908  24.737  1.00  0.00     0.080 C 
ATOM      7  C   UNL A   1      31.779  28.953  24.107  1.00  0.00     0.080 C 
ATOM      8  C   UNL A   1      29.863  26.924  23.306  1.00  0.00     0.263 C 
ATOM      9  C   UNL A   1      31.088  28.919  22.747  1.00  0.00     0.263 C 
ATOM     10  N   UNL A   1      29.783  28.263  22.728  1.00  0.00    -0.331 N 
ATOM     11  H   UNL A   1      29.539  28.110  21.749  1.00  0.00     0.348 HD
BRANCH   5  12
ATOM     12  C   UNL A   1      32.929  26.718  24.397  1.00  0.00     0.019 C 
BRANCH  12  13
ATOM     13  C   UNL A   1      32.980  25.248  24.846  1.00  0.00    -0.002 C 
ATOM     14  C   UNL A   1      34.273  24.838  25.539  1.00  0.00     0.004 C 
ENDBRANCH  12  13
ENDBRANCH   5  12
BRANCH  10  15
ATOM     15  C   UNL A   1      28.617  29.105  23.080  1.00  0.00     0.209 C 
ATOM     16  C   UNL A   1      27.244  28.420  23.165  1.00  0.00     0.078 C 
BRANCH  15  17
ATOM     17  C   UNL A   1      28.525  30.377  22.166  1.00  0.00     0.169 C 
ATOM     18  C   UNL A   1      27.825  31.537  22.864  1.00  0.00     0.045 C 
BRANCH  17  19
ATOM     19  O   UNL A   1      27.830  30.114  20.942  1.00  0.00    -0.387 OA
ATOM     20  H   UNL A   1      27.132  30.776  20.818  1.00  0.00     0.211 HD
ENDBRANCH  17  19
ENDBRANCH  15  17
ENDBRANCH  10  15
ENDBRANCH   3   5
ENDBRANCH   2   3
ENDBRANCH   1   2
BRANCH   1  21
ATOM     21  C   UNL A   1      33.417  30.623  27.547  1.00  0.00     0.275 C 
BRANCH  21  22
ATOM     22  O   UNL A   1      34.544  31.488  27.754  1.00  0.00    -0.458 OA
BRANCH  22  23
ATOM     23  C   UNL A   1      35.141  31.414  28.964  1.00  0.00     0.338 C 
ATOM     24  O   UNL A   1      34.774  31.920  30.008  1.00  0.00    -0.246 OA
BRANCH  23  25
ATOM     25  C   UNL A   1      36.330  30.548  28.856  1.00  0.00     0.060 A 
ATOM     26  C   UNL A   1      36.835  29.923  29.994  1.00  0.00     0.016 A 
ATOM     27  C   UNL A   1      37.026  30.466  27.653  1.00  0.00     0.016 A 
ATOM     28  C   UNL A   1      38.089  29.324  29.965  1.00  0.00     0.010 A 
ATOM     29  C   UNL A   1      38.239  29.770  27.603  1.00  0.00     0.010 A 
ATOM     30  C   UNL A   1      38.815  29.240  28.772  1.00  0.00    -0.014 A 
BRANCH  30  31
ATOM     31  C   UNL A   1      40.202  28.693  28.769  1.00  0.00     0.031 A 
ATOM     32  C   UNL A   1      41.358  29.577  29.168  1.00  0.00     0.074 A 
ATOM     33  C   UNL A   1      40.448  27.405  28.458  1.00  0.00     0.049 A 
ATOM     34  N   UNL A   1      42.641  29.381  29.007  1.00  0.00    -0.248 NA
ATOM     35  C   UNL A   1      41.024  30.859  29.810  1.00  0.00     0.031 C 
ATOM     36  C   UNL A   1      39.441  26.397  28.120  1.00  0.00     0.029 A 
ATOM     37  N   UNL A   1      41.635  26.716  28.398  1.00  0.00    -0.354 N 
ATOM     38  C   UNL A   1      43.257  30.555  29.425  1.00  0.00     0.074 A 
ATOM     39  C   UNL A   1      42.212  31.445  29.878  1.00  0.00     0.031 C 
ATOM     40  C   UNL A   1      40.042  25.210  27.955  1.00  0.00     0.029 A 
ATOM     41  C   UNL A   1      41.485  25.391  28.067  1.00  0.00     0.049 A 
ATOM     42  H   UNL A   1      42.509  27.132  28.574  1.00  0.00     0.167 HD
ATOM     43  C   UNL A   1      44.575  30.868  29.413  1.00  0.00     0.031 A 
ATOM     44  C   UNL A   1      42.401  24.434  27.832  1.00  0.00     0.031 A 
ATOM     45  C   UNL A   1      45.623  29.951  29.053  1.00  0.00     0.049 A 
ATOM     46  C   UNL A   1      43.859  24.785  27.865  1.00  0.00     0.074 A 
ATOM     47  C   UNL A   1      46.989  30.172  29.012  1.00  0.00     0.029 A 
ATOM     48  N   UNL A   1      45.421  28.624  28.711  1.00  0.00    -0.354 N 
ATOM     49  N   UNL A   1      44.422  25.938  28.137  1.00  0.00    -0.248 NA
ATOM     50  C   UNL A   1      44.804  23.714  27.526  1.00  0.00     0.031 C 
ATOM     51  C   UNL A   1      47.613  28.980  28.629  1.00  0.00     0.029 A 
ATOM     52  C   UNL A   1      46.637  28.011  28.462  1.00  0.00     0.049 A 
ATOM     53  H   UNL A   1      44.543  28.183  28.652  1.00  0.00     0.167 HD
ATOM     54  C   UNL A   1      45.786  25.733  27.984  1.00  0.00     0.074 A 
ATOM     55  C   UNL A   1      45.968  24.340  27.633  1.00  0.00     0.031 C 
ATOM     56  C   UNL A   1      46.797  26.628  28.105  1.00  0.00     0.031 A 
BRANCH  43  57
ATOM     57  C   UNL A   1      44.951  32.284  29.742  1.00  0.00    -0.014 A 
ATOM     58  C   UNL A   1      44.990  33.290  28.766  1.00  0.00     0.009 A 
ATOM     59  C   UNL A   1      45.252  32.614  31.074  1.00  0.00     0.009 A 
ATOM     60  C   UNL A   1      45.353  34.593  29.113  1.00  0.00     0.001 A 
ATOM     61  C   UNL A   1      45.593  33.922  31.422  1.00  0.00     0.001 A 
ATOM     62  C   UNL A   1      45.651  34.909  30.439  1.00  0.00     0.000 A 
ENDBRANCH  43  57
BRANCH  44  63
ATOM     63  C   UNL A   1      41.955  23.064  27.476  1.00  0.00    -0.014 A 
ATOM     64  C   UNL A   1      41.867  22.065  28.457  1.00  0.00     0.009 A 
ATOM     65  C   UNL A   1      41.586  22.757  26.157  1.00  0.00     0.009 A 
ATOM     66  C   UNL A   1      41.421  20.785  28.121  1.00  0.00     0.001 A 
ATOM     67  C   UNL A   1      41.114  21.485  25.830  1.00  0.00     0.001 A 
ATOM     68  C   UNL A   1      41.037  20.499  26.811  1.00  0.00     0.000 A 
ENDBRANCH  44  63
BRANCH  56  69
ATOM     69  C   UNL A   1      48.184  26.117  27.858  1.00  0.00    -0.014 A 
ATOM     70  C   UNL A   1      48.762  26.197  26.582  1.00  0.00     0.009 A 
ATOM     71  C   UNL A   1      48.928  25.572  28.915  1.00  0.00     0.009 A 
ATOM     72  C   UNL A   1      50.053  25.713  26.363  1.00  0.00     0.001 A 
ATOM     73  C   UNL A   1      50.224  25.105  28.696  1.00  0.00     0.001 A 
ATOM     74  C   UNL A   1      50.782  25.170  27.420  1.00  0.00     0.000 A 
ENDBRANCH  56  69
ENDBRANCH  30  31
ENDBRANCH  23  25
ENDBRANCH  22  23
ENDBRANCH  21  22
ENDBRANCH   1  21
TORSDOF 16
ENDMDL
