MODEL 1
REMARK VINA RESULT:     -12.5      0.000      0.000
REMARK SMILES Cc1c(C(=O)OCCOC(=O)c2ccc(-c3c4nc(c(-c5ccccc5)c5ccc([nH]5)c(-c5ccccc5)c5nc(c(-c6ccccc6)c6ccc3[nH]6)C=C5)C=C4)cc2)sc2c1=C(CSc1nncn1-c1ccccc1)CC(=O)N=2
REMARK SMILES IDX 7 1 6 2 4 3 5 4 3 5 1 6 2 7 62 8 60 9 61 10 63 11 80 12
REMARK SMILES IDX 77 13 78 14 79 15 64 16 65 17 66 18 67 19 70 20 68 21 69 22
REMARK SMILES IDX 71 23 72 24 76 25 73 26 75 27 74 28 8 29 9 30 10 31 11 32
REMARK SMILES IDX 12 33 13 34 59 35 14 36 58 37 15 38 16 39 17 40 52 41 18 42
REMARK SMILES IDX 57 43 51 44 53 45 19 46 56 47 50 48 49 49 20 51 42 52 27 53
REMARK SMILES IDX 41 54 28 55 31 56 40 57 54 58 29 59 30 60 39 62 55 63 32 64
REMARK SMILES IDX 21 65 22 66 26 67 23 68 25 69 24 70 43 71 44 72 48 73 45 74
REMARK SMILES IDX 47 75 46 76 33 77 34 78 38 79 35 80 37 81 36 82
REMARK H PARENT 53 50 31 61
REMARK Flexibility Score: inf
ROOT
ATOM      1  C   UNL A   1      36.747  20.752  25.044  1.00  0.00     0.275 C 
ENDROOT
BRANCH   1   2
ATOM      2  O   UNL A   1      36.848  22.169  24.804  1.00  0.00    -0.458 OA
BRANCH   2   3
ATOM      3  C   UNL A   1      36.008  22.695  23.874  1.00  0.00     0.348 C 
ATOM      4  O   UNL A   1      36.313  22.890  22.704  1.00  0.00    -0.245 OA
BRANCH   3   5
ATOM      5  C   UNL A   1      34.633  22.925  24.417  1.00  0.00     0.118 A 
ATOM      6  C   UNL A   1      34.697  25.310  25.376  1.00  0.00     0.047 C 
ATOM      7  C   UNL A   1      34.065  24.020  24.966  1.00  0.00    -0.016 A 
ATOM      8  C   UNL A   1      32.710  23.794  25.432  1.00  0.00     0.016 A 
ATOM      9  S   UNL A   1      33.598  21.496  24.531  1.00  0.00    -0.108 S 
ATOM     10  C   UNL A   1      32.327  22.354  25.377  1.00  0.00     0.128 A 
ATOM     11  C   UNL A   1      31.570  24.512  25.351  1.00  0.00    -0.040 C 
ATOM     12  N   UNL A   1      31.238  21.792  25.770  1.00  0.00    -0.202 NA
ATOM     13  C   UNL A   1      30.557  24.112  26.407  1.00  0.00     0.135 C 
ATOM     14  C   UNL A   1      30.271  22.613  26.317  1.00  0.00     0.251 C 
ATOM     15  O   UNL A   1      29.205  22.178  26.750  1.00  0.00    -0.272 OA
BRANCH  11  16
ATOM     16  C   UNL A   1      30.873  24.964  24.074  1.00  0.00     0.110 C 
BRANCH  16  17
ATOM     17  S   UNL A   1      31.870  25.784  22.830  1.00  0.00    -0.081 SA
BRANCH  17  18
ATOM     18  C   UNL A   1      31.133  27.351  22.813  1.00  0.00     0.195 A 
ATOM     19  N   UNL A   1      30.244  27.733  21.922  1.00  0.00    -0.123 NA
ATOM     20  N   UNL A   1      31.213  28.278  23.837  1.00  0.00    -0.277 N 
ATOM     21  N   UNL A   1      29.675  28.895  22.367  1.00  0.00    -0.138 NA
ATOM     22  C   UNL A   1      30.237  29.194  23.514  1.00  0.00     0.231 A 
BRANCH  20  23
ATOM     23  C   UNL A   1      32.006  28.276  25.015  1.00  0.00     0.049 A 
ATOM     24  C   UNL A   1      31.452  27.947  26.259  1.00  0.00     0.027 A 
ATOM     25  C   UNL A   1      33.348  28.671  24.940  1.00  0.00     0.027 A 
ATOM     26  C   UNL A   1      32.213  28.070  27.421  1.00  0.00     0.002 A 
ATOM     27  C   UNL A   1      34.102  28.798  26.107  1.00  0.00     0.002 A 
ATOM     28  C   UNL A   1      33.534  28.496  27.343  1.00  0.00     0.000 A 
ENDBRANCH  20  23
ENDBRANCH  17  18
ENDBRANCH  16  17
ENDBRANCH  11  16
ENDBRANCH   3   5
ENDBRANCH   2   3
ENDBRANCH   1   2
BRANCH   1  29
ATOM     29  C   UNL A   1      38.086  20.056  24.868  1.00  0.00     0.275 C 
BRANCH  29  30
ATOM     30  O   UNL A   1      39.086  20.688  25.657  1.00  0.00    -0.458 OA
BRANCH  30  31
ATOM     31  C   UNL A   1      40.231  19.982  25.784  1.00  0.00     0.338 C 
ATOM     32  O   UNL A   1      40.389  18.784  25.604  1.00  0.00    -0.246 OA
BRANCH  31  33
ATOM     33  C   UNL A   1      41.233  20.819  26.444  1.00  0.00     0.060 A 
ATOM     34  C   UNL A   1      41.209  20.816  27.841  1.00  0.00     0.016 A 
ATOM     35  C   UNL A   1      41.862  21.831  25.705  1.00  0.00     0.016 A 
ATOM     36  C   UNL A   1      41.618  21.950  28.500  1.00  0.00     0.010 A 
ATOM     37  C   UNL A   1      42.240  22.973  26.360  1.00  0.00     0.010 A 
ATOM     38  C   UNL A   1      42.034  23.043  27.737  1.00  0.00    -0.014 A 
BRANCH  38  39
ATOM     39  C   UNL A   1      42.279  24.288  28.422  1.00  0.00     0.031 A 
ATOM     40  C   UNL A   1      41.273  25.333  28.150  1.00  0.00     0.074 A 
ATOM     41  C   UNL A   1      43.245  24.393  29.351  1.00  0.00     0.049 A 
ATOM     42  N   UNL A   1      41.455  26.497  27.626  1.00  0.00    -0.248 NA
ATOM     43  C   UNL A   1      39.862  24.978  28.377  1.00  0.00     0.031 C 
ATOM     44  C   UNL A   1      44.054  23.318  29.932  1.00  0.00     0.029 A 
ATOM     45  N   UNL A   1      43.583  25.476  30.094  1.00  0.00    -0.354 N 
ATOM     46  C   UNL A   1      40.199  27.094  27.608  1.00  0.00     0.074 A 
ATOM     47  C   UNL A   1      39.245  26.056  27.901  1.00  0.00     0.031 C 
ATOM     48  C   UNL A   1      44.575  23.752  31.102  1.00  0.00     0.029 A 
ATOM     49  C   UNL A   1      44.220  25.152  31.281  1.00  0.00     0.049 A 
ATOM     50  H   UNL A   1      43.395  26.402  29.817  1.00  0.00     0.167 HD
ATOM     51  C   UNL A   1      40.048  28.444  27.621  1.00  0.00     0.031 A 
ATOM     52  C   UNL A   1      44.313  25.946  32.375  1.00  0.00     0.031 A 
ATOM     53  C   UNL A   1      41.255  29.126  27.231  1.00  0.00     0.049 A 
ATOM     54  C   UNL A   1      44.008  27.339  31.952  1.00  0.00     0.074 A 
ATOM     55  C   UNL A   1      42.066  29.095  26.114  1.00  0.00     0.029 A 
ATOM     56  N   UNL A   1      42.004  29.717  28.223  1.00  0.00    -0.354 N 
ATOM     57  N   UNL A   1      44.776  28.042  31.168  1.00  0.00    -0.248 NA
ATOM     58  C   UNL A   1      42.624  27.790  32.028  1.00  0.00     0.031 C 
ATOM     59  C   UNL A   1      43.393  29.209  26.622  1.00  0.00     0.029 A 
ATOM     60  C   UNL A   1      43.307  29.354  28.008  1.00  0.00     0.049 A 
ATOM     61  H   UNL A   1      41.666  30.291  28.948  1.00  0.00     0.167 HD
ATOM     62  C   UNL A   1      43.905  28.738  30.340  1.00  0.00     0.074 A 
ATOM     63  C   UNL A   1      42.596  28.622  30.983  1.00  0.00     0.031 C 
ATOM     64  C   UNL A   1      44.256  29.090  29.067  1.00  0.00     0.031 A 
BRANCH  51  65
ATOM     65  C   UNL A   1      38.951  29.127  28.401  1.00  0.00    -0.014 A 
ATOM     66  C   UNL A   1      38.867  28.895  29.784  1.00  0.00     0.009 A 
ATOM     67  C   UNL A   1      37.839  29.750  27.797  1.00  0.00     0.009 A 
ATOM     68  C   UNL A   1      37.698  29.182  30.499  1.00  0.00     0.001 A 
ATOM     69  C   UNL A   1      36.691  30.084  28.517  1.00  0.00     0.001 A 
ATOM     70  C   UNL A   1      36.608  29.767  29.863  1.00  0.00     0.000 A 
ENDBRANCH  51  65
BRANCH  52  71
ATOM     71  C   UNL A   1      44.311  25.511  33.791  1.00  0.00    -0.014 A 
ATOM     72  C   UNL A   1      45.036  26.212  34.763  1.00  0.00     0.009 A 
ATOM     73  C   UNL A   1      43.413  24.521  34.237  1.00  0.00     0.009 A 
ATOM     74  C   UNL A   1      44.859  25.940  36.128  1.00  0.00     0.001 A 
ATOM     75  C   UNL A   1      43.244  24.239  35.595  1.00  0.00     0.001 A 
ATOM     76  C   UNL A   1      43.960  24.958  36.544  1.00  0.00     0.000 A 
ENDBRANCH  52  71
BRANCH  64  77
ATOM     77  C   UNL A   1      45.691  28.903  28.636  1.00  0.00    -0.014 A 
ATOM     78  C   UNL A   1      46.687  29.865  28.881  1.00  0.00     0.009 A 
ATOM     79  C   UNL A   1      46.084  27.649  28.146  1.00  0.00     0.009 A 
ATOM     80  C   UNL A   1      48.032  29.587  28.618  1.00  0.00     0.001 A 
ATOM     81  C   UNL A   1      47.430  27.365  27.903  1.00  0.00     0.001 A 
ATOM     82  C   UNL A   1      48.404  28.335  28.136  1.00  0.00     0.000 A 
ENDBRANCH  64  77
ENDBRANCH  38  39
ENDBRANCH  31  33
ENDBRANCH  30  31
ENDBRANCH  29  30
ENDBRANCH   1  29
TORSDOF 15
ENDMDL
MODEL 2
REMARK VINA RESULT:     -11.7      1.617      2.790
REMARK SMILES Cc1c(C(=O)OCCOC(=O)c2ccc(-c3c4nc(c(-c5ccccc5)c5ccc([nH]5)c(-c5ccccc5)c5nc(c(-c6ccccc6)c6ccc3[nH]6)C=C5)C=C4)cc2)sc2c1=C(CSc1nncn1-c1ccccc1)CC(=O)N=2
REMARK SMILES IDX 7 1 6 2 4 3 5 4 3 5 1 6 2 7 62 8 60 9 61 10 63 11 80 12
REMARK SMILES IDX 77 13 78 14 79 15 64 16 65 17 66 18 67 19 70 20 68 21 69 22
REMARK SMILES IDX 71 23 72 24 76 25 73 26 75 27 74 28 8 29 9 30 10 31 11 32
REMARK SMILES IDX 12 33 13 34 59 35 14 36 58 37 15 38 16 39 17 40 52 41 18 42
REMARK SMILES IDX 57 43 51 44 53 45 19 46 56 47 50 48 49 49 20 51 42 52 27 53
REMARK SMILES IDX 41 54 28 55 31 56 40 57 54 58 29 59 30 60 39 62 55 63 32 64
REMARK SMILES IDX 21 65 22 66 26 67 23 68 25 69 24 70 43 71 44 72 48 73 45 74
REMARK SMILES IDX 47 75 46 76 33 77 34 78 38 79 35 80 37 81 36 82
REMARK H PARENT 53 50 31 61
REMARK Flexibility Score: inf
ROOT
ATOM      1  C   UNL A   1      36.510  20.058  25.115  1.00  0.00     0.275 C 
ENDROOT
BRANCH   1   2
ATOM      2  O   UNL A   1      35.544  21.103  25.338  1.00  0.00    -0.458 OA
BRANCH   2   3
ATOM      3  C   UNL A   1      34.331  20.955  24.743  1.00  0.00     0.348 C 
ATOM      4  O   UNL A   1      33.656  19.933  24.802  1.00  0.00    -0.245 OA
BRANCH   3   5
ATOM      5  C   UNL A   1      33.866  22.214  24.083  1.00  0.00     0.118 A 
ATOM      6  C   UNL A   1      31.916  21.481  22.574  1.00  0.00     0.047 C 
ATOM      7  C   UNL A   1      32.828  22.451  23.252  1.00  0.00    -0.016 A 
ATOM      8  C   UNL A   1      32.771  23.822  22.779  1.00  0.00     0.016 A 
ATOM      9  S   UNL A   1      34.924  23.619  24.264  1.00  0.00    -0.108 S 
ATOM     10  C   UNL A   1      33.981  24.603  23.163  1.00  0.00     0.128 A 
ATOM     11  C   UNL A   1      31.764  24.704  22.617  1.00  0.00    -0.040 C 
ATOM     12  N   UNL A   1      34.293  25.813  22.859  1.00  0.00    -0.202 NA
ATOM     13  C   UNL A   1      32.112  25.808  21.636  1.00  0.00     0.135 C 
ATOM     14  C   UNL A   1      33.395  26.512  22.073  1.00  0.00     0.251 C 
ATOM     15  O   UNL A   1      33.606  27.665  21.700  1.00  0.00    -0.272 OA
BRANCH  11  16
ATOM     16  C   UNL A   1      30.827  25.221  23.703  1.00  0.00     0.110 C 
BRANCH  16  17
ATOM     17  S   UNL A   1      29.866  26.691  23.338  1.00  0.00    -0.081 SA
BRANCH  17  18
ATOM     18  C   UNL A   1      30.709  27.867  24.291  1.00  0.00     0.195 A 
ATOM     19  N   UNL A   1      31.698  27.575  25.107  1.00  0.00    -0.123 NA
ATOM     20  N   UNL A   1      30.602  29.237  24.138  1.00  0.00    -0.277 N 
ATOM     21  N   UNL A   1      32.305  28.748  25.467  1.00  0.00    -0.138 NA
ATOM     22  C   UNL A   1      31.664  29.723  24.867  1.00  0.00     0.231 A 
BRANCH  20  23
ATOM     23  C   UNL A   1      29.708  30.004  23.344  1.00  0.00     0.049 A 
ATOM     24  C   UNL A   1      29.733  29.925  21.945  1.00  0.00     0.027 A 
ATOM     25  C   UNL A   1      28.831  30.901  23.969  1.00  0.00     0.027 A 
ATOM     26  C   UNL A   1      28.935  30.774  21.179  1.00  0.00     0.002 A 
ATOM     27  C   UNL A   1      28.040  31.752  23.197  1.00  0.00     0.002 A 
ATOM     28  C   UNL A   1      28.092  31.686  21.806  1.00  0.00     0.000 A 
ENDBRANCH  20  23
ENDBRANCH  17  18
ENDBRANCH  16  17
ENDBRANCH  11  16
ENDBRANCH   3   5
ENDBRANCH   2   3
ENDBRANCH   1   2
BRANCH   1  29
ATOM     29  C   UNL A   1      37.818  20.609  24.577  1.00  0.00     0.275 C 
BRANCH  29  30
ATOM     30  O   UNL A   1      38.701  20.935  25.642  1.00  0.00    -0.458 OA
BRANCH  30  31
ATOM     31  C   UNL A   1      39.805  20.159  25.716  1.00  0.00     0.338 C 
ATOM     32  O   UNL A   1      39.885  18.960  25.501  1.00  0.00    -0.246 OA
BRANCH  31  33
ATOM     33  C   UNL A   1      40.875  20.918  26.365  1.00  0.00     0.060 A 
ATOM     34  C   UNL A   1      40.890  20.882  27.762  1.00  0.00     0.016 A 
ATOM     35  C   UNL A   1      41.544  21.907  25.631  1.00  0.00     0.016 A 
ATOM     36  C   UNL A   1      41.386  21.973  28.434  1.00  0.00     0.010 A 
ATOM     37  C   UNL A   1      42.010  23.007  26.300  1.00  0.00     0.010 A 
ATOM     38  C   UNL A   1      41.847  23.056  27.684  1.00  0.00    -0.014 A 
BRANCH  38  39
ATOM     39  C   UNL A   1      42.188  24.267  28.389  1.00  0.00     0.031 A 
ATOM     40  C   UNL A   1      41.237  25.376  28.176  1.00  0.00     0.074 A 
ATOM     41  C   UNL A   1      43.188  24.291  29.287  1.00  0.00     0.049 A 
ATOM     42  N   UNL A   1      41.471  26.540  27.674  1.00  0.00    -0.248 NA
ATOM     43  C   UNL A   1      39.816  25.098  28.442  1.00  0.00     0.031 C 
ATOM     44  C   UNL A   1      43.950  23.156  29.816  1.00  0.00     0.029 A 
ATOM     45  N   UNL A   1      43.613  25.334  30.044  1.00  0.00    -0.354 N 
ATOM     46  C   UNL A   1      40.252  27.210  27.713  1.00  0.00     0.074 A 
ATOM     47  C   UNL A   1      39.249  26.222  28.013  1.00  0.00     0.031 C 
ATOM     48  C   UNL A   1      44.533  23.530  30.977  1.00  0.00     0.029 A 
ATOM     49  C   UNL A   1      44.268  24.943  31.201  1.00  0.00     0.049 A 
ATOM     50  H   UNL A   1      43.472  26.276  29.795  1.00  0.00     0.167 HD
ATOM     51  C   UNL A   1      40.182  28.566  27.763  1.00  0.00     0.031 A 
ATOM     52  C   UNL A   1      44.443  25.702  32.309  1.00  0.00     0.031 A 
ATOM     53  C   UNL A   1      41.414  29.185  27.349  1.00  0.00     0.049 A 
ATOM     54  C   UNL A   1      44.208  27.120  31.930  1.00  0.00     0.074 A 
ATOM     55  C   UNL A   1      42.186  29.135  26.204  1.00  0.00     0.029 A 
ATOM     56  N   UNL A   1      42.228  29.706  28.328  1.00  0.00    -0.354 N 
ATOM     57  N   UNL A   1      44.991  27.797  31.137  1.00  0.00    -0.248 NA
ATOM     58  C   UNL A   1      42.856  27.650  32.063  1.00  0.00     0.031 C 
ATOM     59  C   UNL A   1      43.533  29.159  26.669  1.00  0.00     0.029 A 
ATOM     60  C   UNL A   1      43.500  29.273  28.061  1.00  0.00     0.049 A 
ATOM     61  H   UNL A   1      41.949  30.280  29.077  1.00  0.00     0.167 HD
ATOM     62  C   UNL A   1      44.136  28.564  30.356  1.00  0.00     0.074 A 
ATOM     63  C   UNL A   1      42.844  28.508  31.039  1.00  0.00     0.031 C 
ATOM     64  C   UNL A   1      44.466  28.927  29.080  1.00  0.00     0.031 A 
BRANCH  51  65
ATOM     65  C   UNL A   1      39.153  29.291  28.595  1.00  0.00    -0.014 A 
ATOM     66  C   UNL A   1      39.250  29.217  29.995  1.00  0.00     0.009 A 
ATOM     67  C   UNL A   1      37.946  29.798  28.072  1.00  0.00     0.009 A 
ATOM     68  C   UNL A   1      38.163  29.540  30.816  1.00  0.00     0.001 A 
ATOM     69  C   UNL A   1      36.877  30.168  28.890  1.00  0.00     0.001 A 
ATOM     70  C   UNL A   1      36.975  30.006  30.262  1.00  0.00     0.000 A 
ENDBRANCH  51  65
BRANCH  52  71
ATOM     71  C   UNL A   1      44.461  25.232  33.714  1.00  0.00    -0.014 A 
ATOM     72  C   UNL A   1      43.304  24.726  34.321  1.00  0.00     0.009 A 
ATOM     73  C   UNL A   1      45.681  25.074  34.403  1.00  0.00     0.009 A 
ATOM     74  C   UNL A   1      43.370  24.078  35.564  1.00  0.00     0.001 A 
ATOM     75  C   UNL A   1      45.746  24.440  35.646  1.00  0.00     0.001 A 
ATOM     76  C   UNL A   1      44.589  23.931  36.223  1.00  0.00     0.000 A 
ENDBRANCH  52  71
BRANCH  64  77
ATOM     77  C   UNL A   1      45.872  28.668  28.597  1.00  0.00    -0.014 A 
ATOM     78  C   UNL A   1      46.278  27.424  28.080  1.00  0.00     0.009 A 
ATOM     79  C   UNL A   1      46.752  29.754  28.480  1.00  0.00     0.009 A 
ATOM     80  C   UNL A   1      47.536  27.269  27.490  1.00  0.00     0.001 A 
ATOM     81  C   UNL A   1      48.000  29.603  27.872  1.00  0.00     0.001 A 
ATOM     82  C   UNL A   1      48.393  28.360  27.379  1.00  0.00     0.000 A 
ENDBRANCH  64  77
ENDBRANCH  38  39
ENDBRANCH  31  33
ENDBRANCH  30  31
ENDBRANCH  29  30
ENDBRANCH   1  29
TORSDOF 15
ENDMDL
MODEL 3
REMARK VINA RESULT:     -11.7      3.991      8.576
REMARK SMILES Cc1c(C(=O)OCCOC(=O)c2ccc(-c3c4nc(c(-c5ccccc5)c5ccc([nH]5)c(-c5ccccc5)c5nc(c(-c6ccccc6)c6ccc3[nH]6)C=C5)C=C4)cc2)sc2c1=C(CSc1nncn1-c1ccccc1)CC(=O)N=2
REMARK SMILES IDX 7 1 6 2 4 3 5 4 3 5 1 6 2 7 62 8 60 9 61 10 63 11 80 12
REMARK SMILES IDX 77 13 78 14 79 15 64 16 65 17 66 18 67 19 70 20 68 21 69 22
REMARK SMILES IDX 71 23 72 24 76 25 73 26 75 27 74 28 8 29 9 30 10 31 11 32
REMARK SMILES IDX 12 33 13 34 59 35 14 36 58 37 15 38 16 39 17 40 52 41 18 42
REMARK SMILES IDX 57 43 51 44 53 45 19 46 56 47 50 48 49 49 20 51 42 52 27 53
REMARK SMILES IDX 41 54 28 55 31 56 40 57 54 58 29 59 30 60 39 62 55 63 32 64
REMARK SMILES IDX 21 65 22 66 26 67 23 68 25 69 24 70 43 71 44 72 48 73 45 74
REMARK SMILES IDX 47 75 46 76 33 77 34 78 38 79 35 80 37 81 36 82
REMARK H PARENT 53 50 31 61
REMARK Flexibility Score: inf
ROOT
ATOM      1  C   UNL A   1      32.519  31.041  26.916  1.00  0.00     0.275 C 
ENDROOT
BRANCH   1   2
ATOM      2  O   UNL A   1      33.022  29.716  26.656  1.00  0.00    -0.458 OA
BRANCH   2   3
ATOM      3  C   UNL A   1      32.124  28.698  26.700  1.00  0.00     0.348 C 
ATOM      4  O   UNL A   1      31.306  28.541  27.600  1.00  0.00    -0.245 OA
BRANCH   3   5
ATOM      5  C   UNL A   1      32.178  27.840  25.477  1.00  0.00     0.118 A 
ATOM      6  C   UNL A   1      34.209  26.305  25.843  1.00  0.00     0.047 C 
ATOM      7  C   UNL A   1      32.983  26.805  25.152  1.00  0.00    -0.016 A 
ATOM      8  C   UNL A   1      32.743  26.286  23.819  1.00  0.00     0.016 A 
ATOM      9  S   UNL A   1      31.139  28.337  24.136  1.00  0.00    -0.108 S 
ATOM     10  C   UNL A   1      31.798  27.138  23.042  1.00  0.00     0.128 A 
ATOM     11  C   UNL A   1      32.661  25.038  23.311  1.00  0.00    -0.040 C 
ATOM     12  N   UNL A   1      31.417  27.015  21.819  1.00  0.00    -0.202 NA
ATOM     13  C   UNL A   1      32.902  25.004  21.814  1.00  0.00     0.135 C 
ATOM     14  C   UNL A   1      31.934  25.951  21.106  1.00  0.00     0.251 C 
ATOM     15  O   UNL A   1      31.659  25.755  19.923  1.00  0.00    -0.272 OA
BRANCH  11  16
ATOM     16  C   UNL A   1      31.673  23.954  23.726  1.00  0.00     0.110 C 
BRANCH  16  17
ATOM     17  S   UNL A   1      31.649  23.471  25.453  1.00  0.00    -0.081 SA
BRANCH  17  18
ATOM     18  C   UNL A   1      32.240  21.847  25.337  1.00  0.00     0.195 A 
ATOM     19  N   UNL A   1      31.463  20.787  25.281  1.00  0.00    -0.123 NA
ATOM     20  N   UNL A   1      33.549  21.496  25.063  1.00  0.00    -0.277 N 
ATOM     21  N   UNL A   1      32.235  19.719  24.912  1.00  0.00    -0.138 NA
ATOM     22  C   UNL A   1      33.463  20.155  24.760  1.00  0.00     0.231 A 
BRANCH  20  23
ATOM     23  C   UNL A   1      34.717  22.300  24.986  1.00  0.00     0.049 A 
ATOM     24  C   UNL A   1      35.337  22.560  23.756  1.00  0.00     0.027 A 
ATOM     25  C   UNL A   1      35.294  22.789  26.166  1.00  0.00     0.027 A 
ATOM     26  C   UNL A   1      36.549  23.248  23.711  1.00  0.00     0.002 A 
ATOM     27  C   UNL A   1      36.511  23.470  26.115  1.00  0.00     0.002 A 
ATOM     28  C   UNL A   1      37.133  23.700  24.889  1.00  0.00     0.000 A 
ENDBRANCH  20  23
ENDBRANCH  17  18
ENDBRANCH  16  17
ENDBRANCH  11  16
ENDBRANCH   3   5
ENDBRANCH   2   3
ENDBRANCH   1   2
BRANCH   1  29
ATOM     29  C   UNL A   1      33.376  31.778  27.930  1.00  0.00     0.275 C 
BRANCH  29  30
ATOM     30  O   UNL A   1      33.344  33.178  27.690  1.00  0.00    -0.458 OA
BRANCH  30  31
ATOM     31  C   UNL A   1      33.348  33.942  28.805  1.00  0.00     0.338 C 
ATOM     32  O   UNL A   1      32.427  34.610  29.250  1.00  0.00    -0.246 OA
BRANCH  31  33
ATOM     33  C   UNL A   1      34.723  34.076  29.284  1.00  0.00     0.060 A 
ATOM     34  C   UNL A   1      35.689  34.332  28.307  1.00  0.00     0.016 A 
ATOM     35  C   UNL A   1      35.051  33.574  30.551  1.00  0.00     0.016 A 
ATOM     36  C   UNL A   1      36.965  33.867  28.518  1.00  0.00     0.010 A 
ATOM     37  C   UNL A   1      36.314  33.084  30.748  1.00  0.00     0.010 A 
ATOM     38  C   UNL A   1      37.225  33.165  29.696  1.00  0.00    -0.014 A 
BRANCH  38  39
ATOM     39  C   UNL A   1      38.508  32.519  29.825  1.00  0.00     0.031 A 
ATOM     40  C   UNL A   1      38.478  31.065  29.574  1.00  0.00     0.074 A 
ATOM     41  C   UNL A   1      39.634  33.235  29.987  1.00  0.00     0.049 A 
ATOM     42  N   UNL A   1      38.801  30.111  30.378  1.00  0.00    -0.248 NA
ATOM     43  C   UNL A   1      37.888  30.619  28.301  1.00  0.00     0.031 C 
ATOM     44  C   UNL A   1      39.798  34.688  29.895  1.00  0.00     0.029 A 
ATOM     45  N   UNL A   1      40.909  32.783  30.099  1.00  0.00    -0.354 N 
ATOM     46  C   UNL A   1      38.613  28.938  29.654  1.00  0.00     0.074 A 
ATOM     47  C   UNL A   1      37.881  29.300  28.468  1.00  0.00     0.031 C 
ATOM     48  C   UNL A   1      41.104  34.965  29.683  1.00  0.00     0.029 A 
ATOM     49  C   UNL A   1      41.860  33.722  29.733  1.00  0.00     0.049 A 
ATOM     50  H   UNL A   1      41.136  31.877  30.411  1.00  0.00     0.167 HD
ATOM     51  C   UNL A   1      39.301  27.802  29.940  1.00  0.00     0.031 A 
ATOM     52  C   UNL A   1      43.136  33.457  29.364  1.00  0.00     0.031 A 
ATOM     53  C   UNL A   1      39.868  27.834  31.264  1.00  0.00     0.049 A 
ATOM     54  C   UNL A   1      43.464  32.081  29.820  1.00  0.00     0.074 A 
ATOM     55  C   UNL A   1      39.352  28.000  32.534  1.00  0.00     0.029 A 
ATOM     56  N   UNL A   1      41.219  28.065  31.375  1.00  0.00    -0.354 N 
ATOM     57  N   UNL A   1      43.578  31.742  31.074  1.00  0.00    -0.248 NA
ATOM     58  C   UNL A   1      43.215  30.977  28.902  1.00  0.00     0.031 C 
ATOM     59  C   UNL A   1      40.317  28.792  33.221  1.00  0.00     0.029 A 
ATOM     60  C   UNL A   1      41.383  29.016  32.347  1.00  0.00     0.049 A 
ATOM     61  H   UNL A   1      41.933  27.630  30.854  1.00  0.00     0.167 HD
ATOM     62  C   UNL A   1      43.001  30.481  31.159  1.00  0.00     0.074 A 
ATOM     63  C   UNL A   1      42.889  30.020  29.776  1.00  0.00     0.031 C 
ATOM     64  C   UNL A   1      42.397  30.047  32.306  1.00  0.00     0.031 A 
BRANCH  51  65
ATOM     65  C   UNL A   1      39.811  26.873  28.866  1.00  0.00    -0.014 A 
ATOM     66  C   UNL A   1      40.610  27.408  27.842  1.00  0.00     0.009 A 
ATOM     67  C   UNL A   1      39.309  25.571  28.660  1.00  0.00     0.009 A 
ATOM     68  C   UNL A   1      40.813  26.715  26.642  1.00  0.00     0.001 A 
ATOM     69  C   UNL A   1      39.550  24.857  27.486  1.00  0.00     0.001 A 
ATOM     70  C   UNL A   1      40.275  25.445  26.462  1.00  0.00     0.000 A 
ENDBRANCH  51  65
BRANCH  52  71
ATOM     71  C   UNL A   1      43.940  34.191  28.359  1.00  0.00    -0.014 A 
ATOM     72  C   UNL A   1      44.756  35.268  28.733  1.00  0.00     0.009 A 
ATOM     73  C   UNL A   1      44.078  33.694  27.047  1.00  0.00     0.009 A 
ATOM     74  C   UNL A   1      45.681  35.815  27.830  1.00  0.00     0.001 A 
ATOM     75  C   UNL A   1      44.989  34.246  26.144  1.00  0.00     0.001 A 
ATOM     76  C   UNL A   1      45.800  35.302  26.540  1.00  0.00     0.000 A 
ENDBRANCH  52  71
BRANCH  64  77
ATOM     77  C   UNL A   1      42.549  30.874  33.559  1.00  0.00    -0.014 A 
ATOM     78  C   UNL A   1      41.725  31.976  33.844  1.00  0.00     0.009 A 
ATOM     79  C   UNL A   1      43.414  30.414  34.564  1.00  0.00     0.009 A 
ATOM     80  C   UNL A   1      41.784  32.615  35.087  1.00  0.00     0.001 A 
ATOM     81  C   UNL A   1      43.458  31.039  35.812  1.00  0.00     0.001 A 
ATOM     82  C   UNL A   1      42.646  32.141  36.073  1.00  0.00     0.000 A 
ENDBRANCH  64  77
ENDBRANCH  38  39
ENDBRANCH  31  33
ENDBRANCH  30  31
ENDBRANCH  29  30
ENDBRANCH   1  29
TORSDOF 15
ENDMDL
