MODEL 1
REMARK VINA RESULT:     -12.7      0.000      0.000
REMARK SMILES Cc1ccc2c(CC(=O)N3CCC(C(=O)OCCOC(=O)c4ccc(-c5c6nc(c(-c7ccccc7)c7ccc([nH]7)c(-c7ccccc7)c7nc(c(-c8ccccc8)c8ccc5[nH]8)C=C7)C=C6)cc4)CC3)coc2c1
REMARK SMILES IDX 17 1 16 2 14 3 15 4 13 5 8 6 9 7 10 8 11 9 71 10 12 11 70 12
REMARK SMILES IDX 7 13 6 14 1 15 2 16 3 17 75 18 4 19 74 20 5 21 73 22 72 23
REMARK SMILES IDX 18 24 19 25 20 26 21 27 22 28 23 29 69 30 24 31 68 32 25 33
REMARK SMILES IDX 26 34 27 35 62 36 28 37 67 38 61 39 63 40 29 41 66 42 60 43
REMARK SMILES IDX 59 44 30 46 52 47 37 48 51 49 38 50 41 51 50 52 64 53 39 54
REMARK SMILES IDX 40 55 49 57 65 58 42 59 31 60 32 61 36 62 33 63 35 64 34 65
REMARK SMILES IDX 53 66 54 67 58 68 55 69 57 70 56 71 43 72 44 73 48 74 45 75
REMARK SMILES IDX 47 76 46 77
REMARK H PARENT 63 45 41 56
REMARK Flexibility Score: inf
ROOT
ATOM      1  C   UNL A   1      30.647  29.435  24.196  1.00  0.00     0.274 C 
ENDROOT
BRANCH   1   2
ATOM      2  O   UNL A   1      30.473  28.509  23.106  1.00  0.00    -0.462 OA
BRANCH   2   3
ATOM      3  C   UNL A   1      29.689  27.427  23.337  1.00  0.00     0.309 C 
ATOM      4  O   UNL A   1      28.477  27.454  23.510  1.00  0.00    -0.252 OA
BRANCH   3   5
ATOM      5  C   UNL A   1      30.468  26.136  23.223  1.00  0.00     0.103 C 
ATOM      6  C   UNL A   1      33.546  24.104  24.448  1.00  0.00     0.227 C 
ATOM      7  O   UNL A   1      34.525  24.796  24.145  1.00  0.00    -0.275 OA
ATOM      8  N   UNL A   1      32.399  24.102  23.656  1.00  0.00    -0.342 N 
ATOM      9  C   UNL A   1      32.445  24.823  22.391  1.00  0.00     0.120 C 
ATOM     10  C   UNL A   1      31.040  23.921  24.159  1.00  0.00     0.120 C 
ATOM     11  C   UNL A   1      31.856  26.223  22.571  1.00  0.00     0.037 C 
ATOM     12  C   UNL A   1      30.474  25.303  24.502  1.00  0.00     0.037 C 
BRANCH   6  13
ATOM     13  C   UNL A   1      33.664  23.136  25.617  1.00  0.00     0.139 C 
BRANCH  13  14
ATOM     14  C   UNL A   1      34.457  21.908  25.357  1.00  0.00     0.008 A 
ATOM     15  C   UNL A   1      33.485  16.605  23.582  1.00  0.00     0.044 C 
ATOM     16  C   UNL A   1      33.653  18.031  23.998  1.00  0.00    -0.047 A 
ATOM     17  C   UNL A   1      32.572  18.923  23.943  1.00  0.00     0.004 A 
ATOM     18  C   UNL A   1      34.893  18.450  24.495  1.00  0.00     0.051 A 
ATOM     19  C   UNL A   1      32.700  20.255  24.343  1.00  0.00     0.012 A 
ATOM     20  C   UNL A   1      34.999  19.783  24.865  1.00  0.00     0.134 A 
ATOM     21  C   UNL A   1      33.954  20.693  24.800  1.00  0.00     0.024 A 
ATOM     22  O   UNL A   1      36.116  20.381  25.357  1.00  0.00    -0.464 OA
ATOM     23  C   UNL A   1      35.788  21.670  25.632  1.00  0.00     0.200 A 
ENDBRANCH  13  14
ENDBRANCH   6  13
ENDBRANCH   3   5
ENDBRANCH   2   3
ENDBRANCH   1   2
BRANCH   1  24
ATOM     24  C   UNL A   1      32.018  29.195  24.839  1.00  0.00     0.275 C 
BRANCH  24  25
ATOM     25  O   UNL A   1      31.943  29.568  26.227  1.00  0.00    -0.458 OA
BRANCH  25  26
ATOM     26  C   UNL A   1      32.059  30.886  26.511  1.00  0.00     0.338 C 
ATOM     27  O   UNL A   1      31.200  31.748  26.378  1.00  0.00    -0.246 OA
BRANCH  26  28
ATOM     28  C   UNL A   1      33.268  31.049  27.352  1.00  0.00     0.060 A 
ATOM     29  C   UNL A   1      33.690  32.299  27.817  1.00  0.00     0.016 A 
ATOM     30  C   UNL A   1      34.114  29.944  27.456  1.00  0.00     0.016 A 
ATOM     31  C   UNL A   1      35.016  32.473  28.225  1.00  0.00     0.010 A 
ATOM     32  C   UNL A   1      35.445  30.133  27.825  1.00  0.00     0.010 A 
ATOM     33  C   UNL A   1      35.926  31.410  28.141  1.00  0.00    -0.014 A 
BRANCH  33  34
ATOM     34  C   UNL A   1      37.274  31.530  28.713  1.00  0.00     0.031 A 
ATOM     35  C   UNL A   1      37.986  30.237  28.640  1.00  0.00     0.074 A 
ATOM     36  C   UNL A   1      37.964  32.585  29.202  1.00  0.00     0.049 A 
ATOM     37  N   UNL A   1      38.152  29.417  29.622  1.00  0.00    -0.248 NA
ATOM     38  C   UNL A   1      38.404  29.730  27.329  1.00  0.00     0.031 C 
ATOM     39  C   UNL A   1      37.587  33.988  29.324  1.00  0.00     0.029 A 
ATOM     40  N   UNL A   1      39.247  32.581  29.702  1.00  0.00    -0.354 N 
ATOM     41  C   UNL A   1      38.854  28.348  29.094  1.00  0.00     0.074 A 
ATOM     42  C   UNL A   1      38.809  28.506  27.662  1.00  0.00     0.031 C 
ATOM     43  C   UNL A   1      38.664  34.727  29.702  1.00  0.00     0.029 A 
ATOM     44  C   UNL A   1      39.788  33.834  29.968  1.00  0.00     0.049 A 
ATOM     45  H   UNL A   1      39.748  31.747  29.860  1.00  0.00     0.167 HD
ATOM     46  C   UNL A   1      39.631  27.561  29.885  1.00  0.00     0.031 A 
ATOM     47  C   UNL A   1      40.952  34.139  30.612  1.00  0.00     0.031 A 
ATOM     48  C   UNL A   1      39.267  27.672  31.281  1.00  0.00     0.049 A 
ATOM     49  C   UNL A   1      41.296  32.991  31.468  1.00  0.00     0.074 A 
ATOM     50  C   UNL A   1      38.105  27.477  32.006  1.00  0.00     0.029 A 
ATOM     51  N   UNL A   1      40.079  28.403  32.114  1.00  0.00    -0.354 N 
ATOM     52  N   UNL A   1      40.638  32.681  32.545  1.00  0.00    -0.248 NA
ATOM     53  C   UNL A   1      42.118  31.944  30.890  1.00  0.00     0.031 C 
ATOM     54  C   UNL A   1      38.094  28.514  32.990  1.00  0.00     0.029 A 
ATOM     55  C   UNL A   1      39.268  29.245  32.833  1.00  0.00     0.049 A 
ATOM     56  H   UNL A   1      41.059  28.336  32.183  1.00  0.00     0.167 HD
ATOM     57  C   UNL A   1      40.607  31.298  32.535  1.00  0.00     0.074 A 
ATOM     58  C   UNL A   1      41.576  30.900  31.515  1.00  0.00     0.031 C 
ATOM     59  C   UNL A   1      39.623  30.604  33.171  1.00  0.00     0.031 A 
BRANCH  46  60
ATOM     60  C   UNL A   1      40.963  27.030  29.409  1.00  0.00    -0.014 A 
ATOM     61  C   UNL A   1      41.125  25.827  28.691  1.00  0.00     0.009 A 
ATOM     62  C   UNL A   1      42.083  27.875  29.465  1.00  0.00     0.009 A 
ATOM     63  C   UNL A   1      42.317  25.491  28.047  1.00  0.00     0.001 A 
ATOM     64  C   UNL A   1      43.264  27.566  28.780  1.00  0.00     0.001 A 
ATOM     65  C   UNL A   1      43.380  26.376  28.068  1.00  0.00     0.000 A 
ENDBRANCH  46  60
BRANCH  47  66
ATOM     66  C   UNL A   1      42.070  34.979  30.106  1.00  0.00    -0.014 A 
ATOM     67  C   UNL A   1      42.988  35.557  30.999  1.00  0.00     0.009 A 
ATOM     68  C   UNL A   1      42.124  35.389  28.761  1.00  0.00     0.009 A 
ATOM     69  C   UNL A   1      43.979  36.442  30.552  1.00  0.00     0.001 A 
ATOM     70  C   UNL A   1      43.128  36.261  28.309  1.00  0.00     0.001 A 
ATOM     71  C   UNL A   1      44.066  36.773  29.203  1.00  0.00     0.000 A 
ENDBRANCH  47  66
BRANCH  59  72
ATOM     72  C   UNL A   1      38.696  31.355  34.097  1.00  0.00    -0.014 A 
ATOM     73  C   UNL A   1      37.639  32.077  33.523  1.00  0.00     0.009 A 
ATOM     74  C   UNL A   1      38.912  31.480  35.481  1.00  0.00     0.009 A 
ATOM     75  C   UNL A   1      36.829  32.910  34.299  1.00  0.00     0.001 A 
ATOM     76  C   UNL A   1      38.089  32.303  36.263  1.00  0.00     0.001 A 
ATOM     77  C   UNL A   1      37.055  33.025  35.668  1.00  0.00     0.000 A 
ENDBRANCH  59  72
ENDBRANCH  33  34
ENDBRANCH  26  28
ENDBRANCH  25  26
ENDBRANCH  24  25
ENDBRANCH   1  24
TORSDOF 13
ENDMDL
MODEL 2
REMARK VINA RESULT:     -12.7      5.324     10.500
REMARK SMILES Cc1ccc2c(CC(=O)N3CCC(C(=O)OCCOC(=O)c4ccc(-c5c6nc(c(-c7ccccc7)c7ccc([nH]7)c(-c7ccccc7)c7nc(c(-c8ccccc8)c8ccc5[nH]8)C=C7)C=C6)cc4)CC3)coc2c1
REMARK SMILES IDX 17 1 16 2 14 3 15 4 13 5 8 6 9 7 10 8 11 9 71 10 12 11 70 12
REMARK SMILES IDX 7 13 6 14 1 15 2 16 3 17 75 18 4 19 74 20 5 21 73 22 72 23
REMARK SMILES IDX 18 24 19 25 20 26 21 27 22 28 23 29 69 30 24 31 68 32 25 33
REMARK SMILES IDX 26 34 27 35 62 36 28 37 67 38 61 39 63 40 29 41 66 42 60 43
REMARK SMILES IDX 59 44 30 46 52 47 37 48 51 49 38 50 41 51 50 52 64 53 39 54
REMARK SMILES IDX 40 55 49 57 65 58 42 59 31 60 32 61 36 62 33 63 35 64 34 65
REMARK SMILES IDX 53 66 54 67 58 68 55 69 57 70 56 71 43 72 44 73 48 74 45 75
REMARK SMILES IDX 47 76 46 77
REMARK H PARENT 63 45 41 56
REMARK Flexibility Score: inf
ROOT
ATOM      1  C   UNL A   1      33.814  34.557  30.008  1.00  0.00     0.274 C 
ENDROOT
BRANCH   1   2
ATOM      2  O   UNL A   1      34.166  33.547  30.973  1.00  0.00    -0.462 OA
BRANCH   2   3
ATOM      3  C   UNL A   1      34.103  33.897  32.281  1.00  0.00     0.309 C 
ATOM      4  O   UNL A   1      33.080  34.193  32.887  1.00  0.00    -0.252 OA
BRANCH   3   5
ATOM      5  C   UNL A   1      35.442  33.751  32.967  1.00  0.00     0.103 C 
ATOM      6  C   UNL A   1      39.196  32.833  32.554  1.00  0.00     0.227 C 
ATOM      7  O   UNL A   1      39.196  31.659  32.164  1.00  0.00    -0.275 OA
ATOM      8  N   UNL A   1      38.208  33.299  33.418  1.00  0.00    -0.342 N 
ATOM      9  C   UNL A   1      37.264  32.329  33.959  1.00  0.00     0.120 C 
ATOM     10  C   UNL A   1      37.691  34.665  33.433  1.00  0.00     0.120 C 
ATOM     11  C   UNL A   1      35.988  32.323  33.117  1.00  0.00     0.037 C 
ATOM     12  C   UNL A   1      36.501  34.731  32.470  1.00  0.00     0.037 C 
BRANCH   6  13
ATOM     13  C   UNL A   1      40.377  33.724  32.198  1.00  0.00     0.139 C 
BRANCH  13  14
ATOM     14  C   UNL A   1      40.366  34.287  30.824  1.00  0.00     0.008 A 
ATOM     15  C   UNL A   1      44.138  36.390  27.140  1.00  0.00     0.044 C 
ATOM     16  C   UNL A   1      43.223  35.781  28.155  1.00  0.00    -0.047 A 
ATOM     17  C   UNL A   1      43.738  35.205  29.325  1.00  0.00     0.004 A 
ATOM     18  C   UNL A   1      41.841  35.844  27.944  1.00  0.00     0.051 A 
ATOM     19  C   UNL A   1      42.903  34.647  30.296  1.00  0.00     0.012 A 
ATOM     20  C   UNL A   1      41.036  35.262  28.913  1.00  0.00     0.134 A 
ATOM     21  C   UNL A   1      41.517  34.666  30.069  1.00  0.00     0.024 A 
ATOM     22  O   UNL A   1      39.678  35.209  28.885  1.00  0.00    -0.464 OA
ATOM     23  C   UNL A   1      39.280  34.601  30.033  1.00  0.00     0.200 A 
ENDBRANCH  13  14
ENDBRANCH   6  13
ENDBRANCH   3   5
ENDBRANCH   2   3
ENDBRANCH   1   2
BRANCH   1  24
ATOM     24  C   UNL A   1      33.942  33.966  28.599  1.00  0.00     0.275 C 
BRANCH  24  25
ATOM     25  O   UNL A   1      35.121  33.140  28.555  1.00  0.00    -0.458 OA
BRANCH  25  26
ATOM     26  C   UNL A   1      34.941  31.838  28.235  1.00  0.00     0.338 C 
ATOM     27  O   UNL A   1      34.083  31.371  27.498  1.00  0.00    -0.246 OA
BRANCH  26  28
ATOM     28  C   UNL A   1      36.173  31.116  28.628  1.00  0.00     0.060 A 
ATOM     29  C   UNL A   1      37.300  31.779  29.125  1.00  0.00     0.016 A 
ATOM     30  C   UNL A   1      36.264  29.776  28.248  1.00  0.00     0.016 A 
ATOM     31  C   UNL A   1      38.549  31.151  29.079  1.00  0.00     0.010 A 
ATOM     32  C   UNL A   1      37.517  29.170  28.166  1.00  0.00     0.010 A 
ATOM     33  C   UNL A   1      38.677  29.876  28.510  1.00  0.00    -0.014 A 
BRANCH  33  34
ATOM     34  C   UNL A   1      39.946  29.140  28.599  1.00  0.00     0.031 A 
ATOM     35  C   UNL A   1      40.248  28.795  30.004  1.00  0.00     0.074 A 
ATOM     36  C   UNL A   1      40.801  28.684  27.657  1.00  0.00     0.049 A 
ATOM     37  N   UNL A   1      41.093  29.409  30.761  1.00  0.00    -0.248 NA
ATOM     38  C   UNL A   1      39.423  27.790  30.682  1.00  0.00     0.031 C 
ATOM     39  C   UNL A   1      40.743  28.777  26.203  1.00  0.00     0.029 A 
ATOM     40  N   UNL A   1      41.967  27.981  27.861  1.00  0.00    -0.354 N 
ATOM     41  C   UNL A   1      41.036  28.757  31.980  1.00  0.00     0.074 A 
ATOM     42  C   UNL A   1      39.870  27.912  31.930  1.00  0.00     0.031 C 
ATOM     43  C   UNL A   1      41.725  28.014  25.650  1.00  0.00     0.029 A 
ATOM     44  C   UNL A   1      42.565  27.471  26.714  1.00  0.00     0.049 A 
ATOM     45  H   UNL A   1      42.351  27.848  28.758  1.00  0.00     0.167 HD
ATOM     46  C   UNL A   1      42.095  28.775  32.834  1.00  0.00     0.031 A 
ATOM     47  C   UNL A   1      43.791  26.885  26.581  1.00  0.00     0.031 A 
ATOM     48  C   UNL A   1      43.001  29.866  32.548  1.00  0.00     0.049 A 
ATOM     49  C   UNL A   1      44.625  27.350  27.702  1.00  0.00     0.074 A 
ATOM     50  C   UNL A   1      42.879  31.242  32.465  1.00  0.00     0.029 A 
ATOM     51  N   UNL A   1      44.189  29.584  31.918  1.00  0.00    -0.354 N 
ATOM     52  N   UNL A   1      45.079  28.563  27.799  1.00  0.00    -0.248 NA
ATOM     53  C   UNL A   1      44.600  26.571  28.927  1.00  0.00     0.031 C 
ATOM     54  C   UNL A   1      43.712  31.631  31.370  1.00  0.00     0.029 A 
ATOM     55  C   UNL A   1      44.323  30.478  30.885  1.00  0.00     0.049 A 
ATOM     56  H   UNL A   1      44.825  28.873  32.161  1.00  0.00     0.167 HD
ATOM     57  C   UNL A   1      44.984  28.853  29.148  1.00  0.00     0.074 A 
ATOM     58  C   UNL A   1      44.726  27.570  29.799  1.00  0.00     0.031 C 
ATOM     59  C   UNL A   1      44.872  30.135  29.595  1.00  0.00     0.031 A 
BRANCH  46  60
ATOM     60  C   UNL A   1      42.482  27.558  33.640  1.00  0.00    -0.014 A 
ATOM     61  C   UNL A   1      41.702  27.017  34.683  1.00  0.00     0.009 A 
ATOM     62  C   UNL A   1      43.552  26.767  33.192  1.00  0.00     0.009 A 
ATOM     63  C   UNL A   1      41.951  25.758  35.233  1.00  0.00     0.001 A 
ATOM     64  C   UNL A   1      43.777  25.484  33.707  1.00  0.00     0.001 A 
ATOM     65  C   UNL A   1      42.974  24.979  34.725  1.00  0.00     0.000 A 
ENDBRANCH  46  60
BRANCH  47  66
ATOM     66  C   UNL A   1      44.094  25.547  26.008  1.00  0.00    -0.014 A 
ATOM     67  C   UNL A   1      45.373  25.263  25.499  1.00  0.00     0.009 A 
ATOM     68  C   UNL A   1      43.074  24.609  25.765  1.00  0.00     0.009 A 
ATOM     69  C   UNL A   1      45.646  24.049  24.853  1.00  0.00     0.001 A 
ATOM     70  C   UNL A   1      43.351  23.385  25.134  1.00  0.00     0.001 A 
ATOM     71  C   UNL A   1      44.641  23.099  24.693  1.00  0.00     0.000 A 
ENDBRANCH  47  66
BRANCH  59  72
ATOM     72  C   UNL A   1      45.098  31.260  28.614  1.00  0.00    -0.014 A 
ATOM     73  C   UNL A   1      44.050  31.589  27.740  1.00  0.00     0.009 A 
ATOM     74  C   UNL A   1      46.337  31.902  28.436  1.00  0.00     0.009 A 
ATOM     75  C   UNL A   1      44.232  32.518  26.713  1.00  0.00     0.001 A 
ATOM     76  C   UNL A   1      46.515  32.846  27.415  1.00  0.00     0.001 A 
ATOM     77  C   UNL A   1      45.465  33.145  26.549  1.00  0.00     0.000 A 
ENDBRANCH  59  72
ENDBRANCH  33  34
ENDBRANCH  26  28
ENDBRANCH  25  26
ENDBRANCH  24  25
ENDBRANCH   1  24
TORSDOF 13
ENDMDL
MODEL 3
REMARK VINA RESULT:     -12.7      1.311      2.254
REMARK SMILES Cc1ccc2c(CC(=O)N3CCC(C(=O)OCCOC(=O)c4ccc(-c5c6nc(c(-c7ccccc7)c7ccc([nH]7)c(-c7ccccc7)c7nc(c(-c8ccccc8)c8ccc5[nH]8)C=C7)C=C6)cc4)CC3)coc2c1
REMARK SMILES IDX 17 1 16 2 14 3 15 4 13 5 8 6 9 7 10 8 11 9 71 10 12 11 70 12
REMARK SMILES IDX 7 13 6 14 1 15 2 16 3 17 75 18 4 19 74 20 5 21 73 22 72 23
REMARK SMILES IDX 18 24 19 25 20 26 21 27 22 28 23 29 69 30 24 31 68 32 25 33
REMARK SMILES IDX 26 34 27 35 62 36 28 37 67 38 61 39 63 40 29 41 66 42 60 43
REMARK SMILES IDX 59 44 30 46 52 47 37 48 51 49 38 50 41 51 50 52 64 53 39 54
REMARK SMILES IDX 40 55 49 57 65 58 42 59 31 60 32 61 36 62 33 63 35 64 34 65
REMARK SMILES IDX 53 66 54 67 58 68 55 69 57 70 56 71 43 72 44 73 48 74 45 75
REMARK SMILES IDX 47 76 46 77
REMARK H PARENT 63 45 41 56
REMARK Flexibility Score: inf
ROOT
ATOM      1  C   UNL A   1      30.617  29.240  24.073  1.00  0.00     0.274 C 
ENDROOT
BRANCH   1   2
ATOM      2  O   UNL A   1      30.515  28.082  23.220  1.00  0.00    -0.462 OA
BRANCH   2   3
ATOM      3  C   UNL A   1      29.757  27.052  23.670  1.00  0.00     0.309 C 
ATOM      4  O   UNL A   1      28.534  27.047  23.735  1.00  0.00    -0.252 OA
BRANCH   3   5
ATOM      5  C   UNL A   1      30.593  25.827  23.964  1.00  0.00     0.103 C 
ATOM      6  C   UNL A   1      34.174  24.324  24.117  1.00  0.00     0.227 C 
ATOM      7  O   UNL A   1      34.611  24.425  22.965  1.00  0.00    -0.275 OA
ATOM      8  N   UNL A   1      32.818  24.107  24.351  1.00  0.00    -0.342 N 
ATOM      9  C   UNL A   1      31.961  23.859  23.199  1.00  0.00     0.120 C 
ATOM     10  C   UNL A   1      32.083  24.604  25.511  1.00  0.00     0.120 C 
ATOM     11  C   UNL A   1      31.286  25.161  22.766  1.00  0.00     0.037 C 
ATOM     12  C   UNL A   1      31.525  25.988  25.162  1.00  0.00     0.037 C 
BRANCH   6  13
ATOM     13  C   UNL A   1      35.160  24.289  25.276  1.00  0.00     0.139 C 
BRANCH  13  14
ATOM     14  C   UNL A   1      36.062  23.110  25.317  1.00  0.00     0.008 A 
ATOM     15  C   UNL A   1      41.403  21.988  26.878  1.00  0.00     0.044 C 
ATOM     16  C   UNL A   1      39.997  22.365  26.534  1.00  0.00    -0.047 A 
ATOM     17  C   UNL A   1      39.510  23.646  26.829  1.00  0.00     0.004 A 
ATOM     18  C   UNL A   1      39.192  21.437  25.864  1.00  0.00     0.051 A 
ATOM     19  C   UNL A   1      38.207  24.028  26.501  1.00  0.00     0.012 A 
ATOM     20  C   UNL A   1      37.895  21.834  25.570  1.00  0.00     0.134 A 
ATOM     21  C   UNL A   1      37.379  23.086  25.869  1.00  0.00     0.024 A 
ATOM     22  O   UNL A   1      36.960  21.077  24.937  1.00  0.00    -0.464 OA
ATOM     23  C   UNL A   1      35.849  21.846  24.806  1.00  0.00     0.200 A 
ENDBRANCH  13  14
ENDBRANCH   6  13
ENDBRANCH   3   5
ENDBRANCH   2   3
ENDBRANCH   1   2
BRANCH   1  24
ATOM     24  C   UNL A   1      32.084  29.438  24.469  1.00  0.00     0.275 C 
BRANCH  24  25
ATOM     25  O   UNL A   1      32.159  29.555  25.901  1.00  0.00    -0.458 OA
BRANCH  25  26
ATOM     26  C   UNL A   1      32.134  30.808  26.414  1.00  0.00     0.338 C 
ATOM     27  O   UNL A   1      31.183  31.579  26.430  1.00  0.00    -0.246 OA
BRANCH  26  28
ATOM     28  C   UNL A   1      33.330  30.954  27.274  1.00  0.00     0.060 A 
ATOM     29  C   UNL A   1      33.667  32.167  27.884  1.00  0.00     0.016 A 
ATOM     30  C   UNL A   1      34.251  29.905  27.254  1.00  0.00     0.016 A 
ATOM     31  C   UNL A   1      34.979  32.383  28.316  1.00  0.00     0.010 A 
ATOM     32  C   UNL A   1      35.566  30.140  27.649  1.00  0.00     0.010 A 
ATOM     33  C   UNL A   1      35.960  31.402  28.114  1.00  0.00    -0.014 A 
BRANCH  33  34
ATOM     34  C   UNL A   1      37.298  31.546  28.703  1.00  0.00     0.031 A 
ATOM     35  C   UNL A   1      38.022  30.258  28.669  1.00  0.00     0.074 A 
ATOM     36  C   UNL A   1      37.971  32.618  29.179  1.00  0.00     0.049 A 
ATOM     37  N   UNL A   1      38.180  29.461  29.672  1.00  0.00    -0.248 NA
ATOM     38  C   UNL A   1      38.464  29.726  27.377  1.00  0.00     0.031 C 
ATOM     39  C   UNL A   1      37.580  34.019  29.265  1.00  0.00     0.029 A 
ATOM     40  N   UNL A   1      39.246  32.636  29.699  1.00  0.00    -0.354 N 
ATOM     41  C   UNL A   1      38.899  28.388  29.178  1.00  0.00     0.074 A 
ATOM     42  C   UNL A   1      38.874  28.513  27.742  1.00  0.00     0.031 C 
ATOM     43  C   UNL A   1      38.645  34.777  29.643  1.00  0.00     0.029 A 
ATOM     44  C   UNL A   1      39.773  33.899  29.946  1.00  0.00     0.049 A 
ATOM     45  H   UNL A   1      39.751  31.810  29.883  1.00  0.00     0.167 HD
ATOM     46  C   UNL A   1      39.671  27.625  29.999  1.00  0.00     0.031 A 
ATOM     47  C   UNL A   1      40.924  34.229  30.600  1.00  0.00     0.031 A 
ATOM     48  C   UNL A   1      39.284  27.763  31.386  1.00  0.00     0.049 A 
ATOM     49  C   UNL A   1      41.264  33.103  31.487  1.00  0.00     0.074 A 
ATOM     50  C   UNL A   1      38.113  27.574  32.098  1.00  0.00     0.029 A 
ATOM     51  N   UNL A   1      40.077  28.520  32.215  1.00  0.00    -0.354 N 
ATOM     52  N   UNL A   1      40.593  32.810  32.559  1.00  0.00    -0.248 NA
ATOM     53  C   UNL A   1      42.104  32.051  30.944  1.00  0.00     0.031 C 
ATOM     54  C   UNL A   1      38.078  28.632  33.058  1.00  0.00     0.029 A 
ATOM     55  C   UNL A   1      39.248  29.370  32.903  1.00  0.00     0.049 A 
ATOM     56  H   UNL A   1      41.056  28.463  32.300  1.00  0.00     0.167 HD
ATOM     57  C   UNL A   1      40.574  31.428  32.579  1.00  0.00     0.074 A 
ATOM     58  C   UNL A   1      41.562  31.016  31.584  1.00  0.00     0.031 C 
ATOM     59  C   UNL A   1      39.586  30.738  33.216  1.00  0.00     0.031 A 
BRANCH  46  60
ATOM     60  C   UNL A   1      41.014  27.095  29.555  1.00  0.00    -0.014 A 
ATOM     61  C   UNL A   1      41.191  25.921  28.795  1.00  0.00     0.009 A 
ATOM     62  C   UNL A   1      42.141  27.922  29.690  1.00  0.00     0.009 A 
ATOM     63  C   UNL A   1      42.404  25.595  28.184  1.00  0.00     0.001 A 
ATOM     64  C   UNL A   1      43.345  27.625  29.040  1.00  0.00     0.001 A 
ATOM     65  C   UNL A   1      43.476  26.463  28.285  1.00  0.00     0.000 A 
ENDBRANCH  46  60
BRANCH  47  66
ATOM     66  C   UNL A   1      42.042  35.067  30.093  1.00  0.00    -0.014 A 
ATOM     67  C   UNL A   1      43.070  35.483  30.956  1.00  0.00     0.009 A 
ATOM     68  C   UNL A   1      42.001  35.638  28.807  1.00  0.00     0.009 A 
ATOM     69  C   UNL A   1      44.070  36.365  30.524  1.00  0.00     0.001 A 
ATOM     70  C   UNL A   1      43.013  36.507  28.368  1.00  0.00     0.001 A 
ATOM     71  C   UNL A   1      44.057  36.857  29.222  1.00  0.00     0.000 A 
ENDBRANCH  47  66
BRANCH  59  72
ATOM     72  C   UNL A   1      38.639  31.501  34.111  1.00  0.00    -0.014 A 
ATOM     73  C   UNL A   1      37.590  32.209  33.505  1.00  0.00     0.009 A 
ATOM     74  C   UNL A   1      38.828  31.652  35.497  1.00  0.00     0.009 A 
ATOM     75  C   UNL A   1      36.762  33.051  34.250  1.00  0.00     0.001 A 
ATOM     76  C   UNL A   1      37.987  32.484  36.248  1.00  0.00     0.001 A 
ATOM     77  C   UNL A   1      36.961  33.191  35.622  1.00  0.00     0.000 A 
ENDBRANCH  59  72
ENDBRANCH  33  34
ENDBRANCH  26  28
ENDBRANCH  25  26
ENDBRANCH  24  25
ENDBRANCH   1  24
TORSDOF 13
ENDMDL
