MODEL 1
REMARK VINA RESULT:     -10.4      0.000      0.000
REMARK SMILES O=C(CSc1ccc2ccccc2n1)NCc1ccc(C(=O)OCCOC(=O)c2ccc(-c3c4nc(c(-c5ccccc5)c5ccc([nH]5)c(-c5ccccc5)c5nc(c(-c6ccccc6)c6ccc3[nH]6)C=C5)C=C4)cc2)cc1
REMARK SMILES IDX 23 1 21 2 22 3 20 4 17 5 18 6 78 7 19 8 77 9 16 10 15 11
REMARK SMILES IDX 1 12 2 13 3 15 4 16 5 17 6 18 14 19 7 20 13 21 8 22 12 23
REMARK SMILES IDX 9 24 11 25 10 26 24 27 25 28 26 29 27 30 28 31 29 32 30 33
REMARK SMILES IDX 76 34 31 35 75 36 32 37 33 38 34 39 69 40 35 41 74 42 68 43
REMARK SMILES IDX 70 44 36 45 73 46 67 47 66 48 37 50 59 51 44 52 58 53 45 54
REMARK SMILES IDX 48 55 57 56 71 57 46 58 47 59 56 61 72 62 49 63 38 64 39 65
REMARK SMILES IDX 43 66 40 67 42 68 41 69 60 70 61 71 65 72 62 73 64 74 63 75
REMARK SMILES IDX 50 76 51 77 55 78 52 79 54 80 53 81
REMARK H PARENT 15 14 70 49 48 60
REMARK Flexibility Score: inf
ROOT
ATOM      1  O   UNL A   1      37.639  21.129  24.608  1.00  0.00    -0.458 OA
ENDROOT
BRANCH   1   2
ATOM      2  C   UNL A   1      36.326  20.963  24.899  1.00  0.00     0.338 C 
ATOM      3  O   UNL A   1      35.733  19.904  25.030  1.00  0.00    -0.246 OA
BRANCH   2   4
ATOM      4  C   UNL A   1      35.684  22.268  25.174  1.00  0.00     0.060 A 
ATOM      5  C   UNL A   1      34.359  24.672  25.785  1.00  0.00    -0.029 A 
ATOM      6  C   UNL A   1      34.227  23.557  26.619  1.00  0.00     0.006 A 
ATOM      7  C   UNL A   1      35.177  24.568  24.644  1.00  0.00     0.006 A 
ATOM      8  C   UNL A   1      34.854  22.358  26.294  1.00  0.00     0.016 A 
ATOM      9  C   UNL A   1      35.851  23.377  24.345  1.00  0.00     0.016 A 
BRANCH   5  10
ATOM     10  C   UNL A   1      33.645  25.970  26.069  1.00  0.00     0.151 C 
BRANCH  10  11
ATOM     11  N   UNL A   1      33.311  26.715  24.874  1.00  0.00    -0.351 N 
ATOM     12  O   UNL A   1      31.810  28.130  25.864  1.00  0.00    -0.274 OA
ATOM     13  C   UNL A   1      32.431  27.776  24.866  1.00  0.00     0.230 C 
ATOM     14  H   UNL A   1      33.733  26.451  24.024  1.00  0.00     0.163 HD
BRANCH  13  15
ATOM     15  C   UNL A   1      32.242  28.456  23.519  1.00  0.00     0.176 C 
BRANCH  15  16
ATOM     16  S   UNL A   1      30.920  27.690  22.521  1.00  0.00    -0.096 SA
BRANCH  16  17
ATOM     17  C   UNL A   1      31.450  25.987  22.515  1.00  0.00     0.097 A 
ATOM     18  C   UNL A   1      32.359  25.509  21.584  1.00  0.00     0.036 A 
ATOM     19  N   UNL A   1      30.984  25.228  23.531  1.00  0.00    -0.241 NA
ATOM     20  C   UNL A   1      32.799  24.194  21.683  1.00  0.00     0.013 A 
ATOM     21  C   UNL A   1      31.429  23.962  23.645  1.00  0.00     0.072 A 
ATOM     22  C   UNL A   1      32.346  23.398  22.733  1.00  0.00     0.000 A 
ATOM     23  C   UNL A   1      30.998  23.171  24.701  1.00  0.00     0.029 A 
ATOM     24  C   UNL A   1      32.802  22.080  22.895  1.00  0.00     0.010 A 
ATOM     25  C   UNL A   1      31.455  21.860  24.874  1.00  0.00     0.002 A 
ATOM     26  C   UNL A   1      32.359  21.315  23.970  1.00  0.00     0.001 A 
ENDBRANCH  16  17
ENDBRANCH  15  16
ENDBRANCH  13  15
ENDBRANCH  10  11
ENDBRANCH   5  10
ENDBRANCH   2   4
ENDBRANCH   1   2
BRANCH   1  27
ATOM     27  C   UNL A   1      38.543  20.920  25.713  1.00  0.00     0.275 C 
BRANCH  27  28
ATOM     28  C   UNL A   1      39.350  19.634  25.520  1.00  0.00     0.275 C 
BRANCH  28  29
ATOM     29  O   UNL A   1      40.408  19.581  26.493  1.00  0.00    -0.458 OA
BRANCH  29  30
ATOM     30  C   UNL A   1      41.653  19.843  26.025  1.00  0.00     0.338 C 
ATOM     31  O   UNL A   1      42.309  19.144  25.272  1.00  0.00    -0.246 OA
BRANCH  30  32
ATOM     32  C   UNL A   1      42.124  21.155  26.539  1.00  0.00     0.060 A 
ATOM     33  C   UNL A   1      42.269  21.368  27.909  1.00  0.00     0.016 A 
ATOM     34  C   UNL A   1      42.331  22.218  25.661  1.00  0.00     0.016 A 
ATOM     35  C   UNL A   1      42.512  22.650  28.407  1.00  0.00     0.010 A 
ATOM     36  C   UNL A   1      42.682  23.483  26.159  1.00  0.00     0.010 A 
ATOM     37  C   UNL A   1      42.729  23.734  27.543  1.00  0.00    -0.014 A 
BRANCH  37  38
ATOM     38  C   UNL A   1      42.932  25.115  28.088  1.00  0.00     0.031 A 
ATOM     39  C   UNL A   1      44.327  25.643  28.347  1.00  0.00     0.074 A 
ATOM     40  C   UNL A   1      41.886  25.937  28.319  1.00  0.00     0.049 A 
ATOM     41  N   UNL A   1      44.695  26.760  28.931  1.00  0.00    -0.248 NA
ATOM     42  C   UNL A   1      45.454  24.803  27.914  1.00  0.00     0.031 C 
ATOM     43  C   UNL A   1      40.476  25.608  28.106  1.00  0.00     0.029 A 
ATOM     44  N   UNL A   1      41.853  27.241  28.760  1.00  0.00    -0.354 N 
ATOM     45  C   UNL A   1      46.083  26.712  29.008  1.00  0.00     0.074 A 
ATOM     46  C   UNL A   1      46.493  25.462  28.407  1.00  0.00     0.031 C 
ATOM     47  C   UNL A   1      39.728  26.698  28.332  1.00  0.00     0.029 A 
ATOM     48  C   UNL A   1      40.590  27.781  28.793  1.00  0.00     0.049 A 
ATOM     49  H   UNL A   1      42.659  27.740  29.025  1.00  0.00     0.167 HD
ATOM     50  C   UNL A   1      46.944  27.620  29.531  1.00  0.00     0.031 A 
ATOM     51  C   UNL A   1      40.157  29.001  29.168  1.00  0.00     0.031 A 
ATOM     52  C   UNL A   1      46.566  28.904  30.061  1.00  0.00     0.049 A 
ATOM     53  C   UNL A   1      41.133  30.009  29.702  1.00  0.00     0.074 A 
ATOM     54  C   UNL A   1      47.379  29.888  30.597  1.00  0.00     0.029 A 
ATOM     55  N   UNL A   1      45.273  29.396  30.088  1.00  0.00    -0.354 N 
ATOM     56  N   UNL A   1      42.432  29.908  29.840  1.00  0.00    -0.248 NA
ATOM     57  C   UNL A   1      40.576  31.293  30.154  1.00  0.00     0.031 C 
ATOM     58  C   UNL A   1      46.574  30.971  30.969  1.00  0.00     0.029 A 
ATOM     59  C   UNL A   1      45.266  30.672  30.630  1.00  0.00     0.049 A 
ATOM     60  H   UNL A   1      44.477  28.912  29.772  1.00  0.00     0.167 HD
ATOM     61  C   UNL A   1      42.844  31.109  30.401  1.00  0.00     0.074 A 
ATOM     62  C   UNL A   1      41.666  31.938  30.543  1.00  0.00     0.031 C 
ATOM     63  C   UNL A   1      44.089  31.485  30.780  1.00  0.00     0.031 A 
BRANCH  50  64
ATOM     64  C   UNL A   1      48.397  27.239  29.591  1.00  0.00    -0.014 A 
ATOM     65  C   UNL A   1      49.294  27.590  28.569  1.00  0.00     0.009 A 
ATOM     66  C   UNL A   1      48.882  26.549  30.715  1.00  0.00     0.009 A 
ATOM     67  C   UNL A   1      50.640  27.230  28.659  1.00  0.00     0.001 A 
ATOM     68  C   UNL A   1      50.232  26.214  30.813  1.00  0.00     0.001 A 
ATOM     69  C   UNL A   1      51.109  26.546  29.782  1.00  0.00     0.000 A 
ENDBRANCH  50  64
BRANCH  51  70
ATOM     70  C   UNL A   1      38.712  29.335  29.081  1.00  0.00    -0.014 A 
ATOM     71  C   UNL A   1      38.162  29.793  27.873  1.00  0.00     0.009 A 
ATOM     72  C   UNL A   1      37.878  29.201  30.201  1.00  0.00     0.009 A 
ATOM     73  C   UNL A   1      36.807  30.120  27.794  1.00  0.00     0.001 A 
ATOM     74  C   UNL A   1      36.518  29.502  30.111  1.00  0.00     0.001 A 
ATOM     75  C   UNL A   1      35.985  29.968  28.910  1.00  0.00     0.000 A 
ENDBRANCH  51  70
BRANCH  63  76
ATOM     76  C   UNL A   1      44.234  32.854  31.376  1.00  0.00    -0.014 A 
ATOM     77  C   UNL A   1      44.132  33.052  32.762  1.00  0.00     0.009 A 
ATOM     78  C   UNL A   1      44.476  33.959  30.545  1.00  0.00     0.009 A 
ATOM     79  C   UNL A   1      44.232  34.336  33.301  1.00  0.00     0.001 A 
ATOM     80  C   UNL A   1      44.595  35.238  31.089  1.00  0.00     0.001 A 
ATOM     81  C   UNL A   1      44.462  35.428  32.464  1.00  0.00     0.000 A 
ENDBRANCH  63  76
ENDBRANCH  37  38
ENDBRANCH  30  32
ENDBRANCH  29  30
ENDBRANCH  28  29
ENDBRANCH  27  28
ENDBRANCH   1  27
TORSDOF 16
ENDMDL
MODEL 2
REMARK VINA RESULT:     -10.3      4.041      9.157
REMARK SMILES O=C(CSc1ccc2ccccc2n1)NCc1ccc(C(=O)OCCOC(=O)c2ccc(-c3c4nc(c(-c5ccccc5)c5ccc([nH]5)c(-c5ccccc5)c5nc(c(-c6ccccc6)c6ccc3[nH]6)C=C5)C=C4)cc2)cc1
REMARK SMILES IDX 23 1 21 2 22 3 20 4 17 5 18 6 78 7 19 8 77 9 16 10 15 11
REMARK SMILES IDX 1 12 2 13 3 15 4 16 5 17 6 18 14 19 7 20 13 21 8 22 12 23
REMARK SMILES IDX 9 24 11 25 10 26 24 27 25 28 26 29 27 30 28 31 29 32 30 33
REMARK SMILES IDX 76 34 31 35 75 36 32 37 33 38 34 39 69 40 35 41 74 42 68 43
REMARK SMILES IDX 70 44 36 45 73 46 67 47 66 48 37 50 59 51 44 52 58 53 45 54
REMARK SMILES IDX 48 55 57 56 71 57 46 58 47 59 56 61 72 62 49 63 38 64 39 65
REMARK SMILES IDX 43 66 40 67 42 68 41 69 60 70 61 71 65 72 62 73 64 74 63 75
REMARK SMILES IDX 50 76 51 77 55 78 52 79 54 80 53 81
REMARK H PARENT 15 14 70 49 48 60
REMARK Flexibility Score: inf
ROOT
ATOM      1  O   UNL A   1      33.625  33.223  28.679  1.00  0.00    -0.458 OA
ENDROOT
BRANCH   1   2
ATOM      2  C   UNL A   1      34.594  32.645  27.928  1.00  0.00     0.338 C 
ATOM      3  O   UNL A   1      35.681  33.120  27.642  1.00  0.00    -0.246 OA
BRANCH   2   4
ATOM      4  C   UNL A   1      34.221  31.257  27.575  1.00  0.00     0.060 A 
ATOM      5  C   UNL A   1      33.663  28.593  26.868  1.00  0.00    -0.029 A 
ATOM      6  C   UNL A   1      34.958  28.975  27.232  1.00  0.00     0.006 A 
ATOM      7  C   UNL A   1      32.645  29.566  26.876  1.00  0.00     0.006 A 
ATOM      8  C   UNL A   1      35.239  30.301  27.545  1.00  0.00     0.016 A 
ATOM      9  C   UNL A   1      32.916  30.891  27.242  1.00  0.00     0.016 A 
BRANCH   5  10
ATOM     10  C   UNL A   1      33.331  27.179  26.461  1.00  0.00     0.151 C 
BRANCH  10  11
ATOM     11  N   UNL A   1      32.251  27.095  25.501  1.00  0.00    -0.351 N 
ATOM     12  O   UNL A   1      30.990  25.581  26.664  1.00  0.00    -0.274 OA
ATOM     13  C   UNL A   1      31.129  26.318  25.692  1.00  0.00     0.230 C 
ATOM     14  H   UNL A   1      32.320  27.620  24.671  1.00  0.00     0.163 HD
BRANCH  13  15
ATOM     15  C   UNL A   1      30.087  26.396  24.587  1.00  0.00     0.176 C 
BRANCH  15  16
ATOM     16  S   UNL A   1      30.759  27.071  23.030  1.00  0.00    -0.096 SA
BRANCH  16  17
ATOM     17  C   UNL A   1      30.065  28.714  23.051  1.00  0.00     0.097 A 
ATOM     18  C   UNL A   1      30.298  29.591  24.100  1.00  0.00     0.036 A 
ATOM     19  N   UNL A   1      29.384  29.073  21.942  1.00  0.00    -0.241 NA
ATOM     20  C   UNL A   1      29.801  30.886  24.019  1.00  0.00     0.013 A 
ATOM     21  C   UNL A   1      28.925  30.336  21.849  1.00  0.00     0.072 A 
ATOM     22  C   UNL A   1      29.112  31.285  22.875  1.00  0.00     0.000 A 
ATOM     23  C   UNL A   1      28.256  30.745  20.703  1.00  0.00     0.029 A 
ATOM     24  C   UNL A   1      28.635  32.598  22.735  1.00  0.00     0.010 A 
ATOM     25  C   UNL A   1      27.786  32.054  20.553  1.00  0.00     0.002 A 
ATOM     26  C   UNL A   1      27.977  32.982  21.571  1.00  0.00     0.001 A 
ENDBRANCH  16  17
ENDBRANCH  15  16
ENDBRANCH  13  15
ENDBRANCH  10  11
ENDBRANCH   5  10
ENDBRANCH   2   4
ENDBRANCH   1   2
BRANCH   1  27
ATOM     27  C   UNL A   1      33.418  34.631  28.433  1.00  0.00     0.275 C 
BRANCH  27  28
ATOM     28  C   UNL A   1      32.890  35.330  29.688  1.00  0.00     0.275 C 
BRANCH  28  29
ATOM     29  O   UNL A   1      33.953  35.464  30.647  1.00  0.00    -0.458 OA
BRANCH  29  30
ATOM     30  C   UNL A   1      33.944  34.571  31.667  1.00  0.00     0.338 C 
ATOM     31  O   UNL A   1      33.098  34.471  32.538  1.00  0.00    -0.246 OA
BRANCH  30  32
ATOM     32  C   UNL A   1      35.124  33.675  31.567  1.00  0.00     0.060 A 
ATOM     33  C   UNL A   1      35.094  32.399  32.126  1.00  0.00     0.016 A 
ATOM     34  C   UNL A   1      36.310  34.138  30.998  1.00  0.00     0.016 A 
ATOM     35  C   UNL A   1      36.259  31.633  32.215  1.00  0.00     0.010 A 
ATOM     36  C   UNL A   1      37.453  33.322  30.992  1.00  0.00     0.010 A 
ATOM     37  C   UNL A   1      37.462  32.076  31.645  1.00  0.00    -0.014 A 
BRANCH  37  38
ATOM     38  C   UNL A   1      38.718  31.273  31.794  1.00  0.00     0.031 A 
ATOM     39  C   UNL A   1      39.637  31.491  32.978  1.00  0.00     0.074 A 
ATOM     40  C   UNL A   1      39.043  30.309  30.906  1.00  0.00     0.049 A 
ATOM     41  N   UNL A   1      40.824  30.984  33.210  1.00  0.00    -0.248 NA
ATOM     42  C   UNL A   1      39.172  32.413  34.027  1.00  0.00     0.031 C 
ATOM     43  C   UNL A   1      38.267  29.944  29.719  1.00  0.00     0.029 A 
ATOM     44  N   UNL A   1      40.104  29.432  30.884  1.00  0.00    -0.354 N 
ATOM     45  C   UNL A   1      41.276  31.586  34.380  1.00  0.00     0.074 A 
ATOM     46  C   UNL A   1      40.235  32.492  34.814  1.00  0.00     0.031 C 
ATOM     47  C   UNL A   1      38.827  28.873  29.137  1.00  0.00     0.029 A 
ATOM     48  C   UNL A   1      40.051  28.526  29.852  1.00  0.00     0.049 A 
ATOM     49  H   UNL A   1      40.832  29.453  31.546  1.00  0.00     0.167 HD
ATOM     50  C   UNL A   1      42.449  31.410  35.038  1.00  0.00     0.031 A 
ATOM     51  C   UNL A   1      40.895  27.537  29.498  1.00  0.00     0.031 A 
ATOM     52  C   UNL A   1      43.463  30.457  34.670  1.00  0.00     0.049 A 
ATOM     53  C   UNL A   1      42.167  27.328  30.267  1.00  0.00     0.074 A 
ATOM     54  C   UNL A   1      44.676  30.206  35.292  1.00  0.00     0.029 A 
ATOM     55  N   UNL A   1      43.371  29.576  33.607  1.00  0.00    -0.354 N 
ATOM     56  N   UNL A   1      42.609  27.966  31.321  1.00  0.00    -0.248 NA
ATOM     57  C   UNL A   1      43.068  26.272  29.778  1.00  0.00     0.031 C 
ATOM     58  C   UNL A   1      45.326  29.184  34.591  1.00  0.00     0.029 A 
ATOM     59  C   UNL A   1      44.502  28.777  33.556  1.00  0.00     0.049 A 
ATOM     60  H   UNL A   1      42.615  29.525  32.979  1.00  0.00     0.167 HD
ATOM     61  C   UNL A   1      43.840  27.396  31.617  1.00  0.00     0.074 A 
ATOM     62  C   UNL A   1      44.058  26.337  30.655  1.00  0.00     0.031 C 
ATOM     63  C   UNL A   1      44.719  27.735  32.590  1.00  0.00     0.031 A 
BRANCH  50  64
ATOM     64  C   UNL A   1      42.720  32.300  36.218  1.00  0.00    -0.014 A 
ATOM     65  C   UNL A   1      43.334  33.553  36.070  1.00  0.00     0.009 A 
ATOM     66  C   UNL A   1      42.312  31.888  37.498  1.00  0.00     0.009 A 
ATOM     67  C   UNL A   1      43.563  34.361  37.186  1.00  0.00     0.001 A 
ATOM     68  C   UNL A   1      42.519  32.710  38.607  1.00  0.00     0.001 A 
ATOM     69  C   UNL A   1      43.152  33.941  38.451  1.00  0.00     0.000 A 
ENDBRANCH  50  64
BRANCH  51  70
ATOM     70  C   UNL A   1      40.578  26.675  28.329  1.00  0.00    -0.014 A 
ATOM     71  C   UNL A   1      41.175  26.923  27.083  1.00  0.00     0.009 A 
ATOM     72  C   UNL A   1      39.679  25.606  28.453  1.00  0.00     0.009 A 
ATOM     73  C   UNL A   1      40.867  26.122  25.981  1.00  0.00     0.001 A 
ATOM     74  C   UNL A   1      39.395  24.790  27.356  1.00  0.00     0.001 A 
ATOM     75  C   UNL A   1      39.984  25.053  26.120  1.00  0.00     0.000 A 
ENDBRANCH  51  70
BRANCH  63  76
ATOM     76  C   UNL A   1      45.991  26.941  32.663  1.00  0.00    -0.014 A 
ATOM     77  C   UNL A   1      46.087  25.808  33.486  1.00  0.00     0.009 A 
ATOM     78  C   UNL A   1      47.103  27.328  31.901  1.00  0.00     0.009 A 
ATOM     79  C   UNL A   1      47.287  25.099  33.573  1.00  0.00     0.001 A 
ATOM     80  C   UNL A   1      48.295  26.606  31.975  1.00  0.00     0.001 A 
ATOM     81  C   UNL A   1      48.389  25.499  32.819  1.00  0.00     0.000 A 
ENDBRANCH  63  76
ENDBRANCH  37  38
ENDBRANCH  30  32
ENDBRANCH  29  30
ENDBRANCH  28  29
ENDBRANCH  27  28
ENDBRANCH   1  27
TORSDOF 16
ENDMDL
MODEL 3
REMARK VINA RESULT:     -10.1      3.769      5.288
REMARK SMILES O=C(CSc1ccc2ccccc2n1)NCc1ccc(C(=O)OCCOC(=O)c2ccc(-c3c4nc(c(-c5ccccc5)c5ccc([nH]5)c(-c5ccccc5)c5nc(c(-c6ccccc6)c6ccc3[nH]6)C=C5)C=C4)cc2)cc1
REMARK SMILES IDX 23 1 21 2 22 3 20 4 17 5 18 6 78 7 19 8 77 9 16 10 15 11
REMARK SMILES IDX 1 12 2 13 3 15 4 16 5 17 6 18 14 19 7 20 13 21 8 22 12 23
REMARK SMILES IDX 9 24 11 25 10 26 24 27 25 28 26 29 27 30 28 31 29 32 30 33
REMARK SMILES IDX 76 34 31 35 75 36 32 37 33 38 34 39 69 40 35 41 74 42 68 43
REMARK SMILES IDX 70 44 36 45 73 46 67 47 66 48 37 50 59 51 44 52 58 53 45 54
REMARK SMILES IDX 48 55 57 56 71 57 46 58 47 59 56 61 72 62 49 63 38 64 39 65
REMARK SMILES IDX 43 66 40 67 42 68 41 69 60 70 61 71 65 72 62 73 64 74 63 75
REMARK SMILES IDX 50 76 51 77 55 78 52 79 54 80 53 81
REMARK H PARENT 15 14 70 49 48 60
REMARK Flexibility Score: inf
ROOT
ATOM      1  O   UNL A   1      42.177  21.162  26.103  1.00  0.00    -0.458 OA
ENDROOT
BRANCH   1   2
ATOM      2  C   UNL A   1      41.394  21.553  27.138  1.00  0.00     0.338 C 
ATOM      3  O   UNL A   1      41.699  21.577  28.320  1.00  0.00    -0.246 OA
BRANCH   2   4
ATOM      4  C   UNL A   1      40.106  22.088  26.644  1.00  0.00     0.060 A 
ATOM      5  C   UNL A   1      37.662  23.211  25.822  1.00  0.00    -0.029 A 
ATOM      6  C   UNL A   1      38.560  23.953  26.596  1.00  0.00     0.006 A 
ATOM      7  C   UNL A   1      38.014  21.899  25.454  1.00  0.00     0.006 A 
ATOM      8  C   UNL A   1      39.751  23.383  27.033  1.00  0.00     0.016 A 
ATOM      9  C   UNL A   1      39.237  21.342  25.848  1.00  0.00     0.016 A 
BRANCH   5  10
ATOM     10  C   UNL A   1      36.333  23.772  25.381  1.00  0.00     0.151 C 
BRANCH  10  11
ATOM     11  N   UNL A   1      35.199  23.076  25.950  1.00  0.00    -0.351 N 
ATOM     12  O   UNL A   1      33.768  24.862  25.936  1.00  0.00    -0.274 OA
ATOM     13  C   UNL A   1      33.973  23.671  26.157  1.00  0.00     0.230 C 
ATOM     14  H   UNL A   1      35.307  22.130  26.201  1.00  0.00     0.163 HD
BRANCH  13  15
ATOM     15  C   UNL A   1      32.895  22.762  26.726  1.00  0.00     0.176 C 
BRANCH  15  16
ATOM     16  S   UNL A   1      31.452  22.601  25.619  1.00  0.00    -0.096 SA
BRANCH  16  17
ATOM     17  C   UNL A   1      31.871  21.108  24.738  1.00  0.00     0.097 A 
ATOM     18  C   UNL A   1      32.058  21.099  23.364  1.00  0.00     0.036 A 
ATOM     19  N   UNL A   1      32.088  20.020  25.507  1.00  0.00    -0.241 NA
ATOM     20  C   UNL A   1      32.467  19.924  22.747  1.00  0.00     0.013 A 
ATOM     21  C   UNL A   1      32.510  18.887  24.915  1.00  0.00     0.072 A 
ATOM     22  C   UNL A   1      32.714  18.793  23.522  1.00  0.00     0.000 A 
ATOM     23  C   UNL A   1      32.779  17.763  25.685  1.00  0.00     0.029 A 
ATOM     24  C   UNL A   1      33.173  17.600  22.942  1.00  0.00     0.010 A 
ATOM     25  C   UNL A   1      33.246  16.574  25.114  1.00  0.00     0.002 A 
ATOM     26  C   UNL A   1      33.444  16.493  23.741  1.00  0.00     0.001 A 
ENDBRANCH  16  17
ENDBRANCH  15  16
ENDBRANCH  13  15
ENDBRANCH  10  11
ENDBRANCH   5  10
ENDBRANCH   2   4
ENDBRANCH   1   2
BRANCH   1  27
ATOM     27  C   UNL A   1      43.503  21.733  26.089  1.00  0.00     0.275 C 
BRANCH  27  28
ATOM     28  C   UNL A   1      43.799  22.388  24.738  1.00  0.00     0.275 C 
BRANCH  28  29
ATOM     29  O   UNL A   1      43.255  23.719  24.720  1.00  0.00    -0.458 OA
BRANCH  29  30
ATOM     30  C   UNL A   1      44.090  24.703  25.133  1.00  0.00     0.338 C 
ATOM     31  O   UNL A   1      45.232  24.895  24.752  1.00  0.00    -0.246 OA
BRANCH  30  32
ATOM     32  C   UNL A   1      43.402  25.571  26.123  1.00  0.00     0.060 A 
ATOM     33  C   UNL A   1      43.633  26.945  26.142  1.00  0.00     0.016 A 
ATOM     34  C   UNL A   1      42.592  25.006  27.108  1.00  0.00     0.016 A 
ATOM     35  C   UNL A   1      43.152  27.734  27.190  1.00  0.00     0.010 A 
ATOM     36  C   UNL A   1      42.020  25.818  28.100  1.00  0.00     0.010 A 
ATOM     37  C   UNL A   1      42.331  27.188  28.189  1.00  0.00    -0.014 A 
BRANCH  37  38
ATOM     38  C   UNL A   1      41.867  28.029  29.339  1.00  0.00     0.031 A 
ATOM     39  C   UNL A   1      42.676  28.102  30.616  1.00  0.00     0.074 A 
ATOM     40  C   UNL A   1      40.743  28.773  29.253  1.00  0.00     0.049 A 
ATOM     41  N   UNL A   1      42.372  28.672  31.758  1.00  0.00    -0.248 NA
ATOM     42  C   UNL A   1      43.986  27.433  30.619  1.00  0.00     0.031 C 
ATOM     43  C   UNL A   1      39.851  28.845  28.094  1.00  0.00     0.029 A 
ATOM     44  N   UNL A   1      40.175  29.643  30.155  1.00  0.00    -0.354 N 
ATOM     45  C   UNL A   1      43.409  28.360  32.631  1.00  0.00     0.074 A 
ATOM     46  C   UNL A   1      44.354  27.555  31.887  1.00  0.00     0.031 C 
ATOM     47  C   UNL A   1      38.904  29.767  28.321  1.00  0.00     0.029 A 
ATOM     48  C   UNL A   1      39.062  30.291  29.674  1.00  0.00     0.049 A 
ATOM     49  H   UNL A   1      40.532  29.787  31.061  1.00  0.00     0.167 HD
ATOM     50  C   UNL A   1      43.568  28.704  33.933  1.00  0.00     0.031 A 
ATOM     51  C   UNL A   1      38.242  31.191  30.251  1.00  0.00     0.031 A 
ATOM     52  C   UNL A   1      42.683  29.569  34.669  1.00  0.00     0.049 A 
ATOM     53  C   UNL A   1      38.461  31.594  31.680  1.00  0.00     0.074 A 
ATOM     54  C   UNL A   1      42.780  29.978  35.989  1.00  0.00     0.029 A 
ATOM     55  N   UNL A   1      41.561  30.185  34.142  1.00  0.00    -0.354 N 
ATOM     56  N   UNL A   1      39.404  31.220  32.508  1.00  0.00    -0.248 NA
ATOM     57  C   UNL A   1      37.484  32.530  32.259  1.00  0.00     0.031 C 
ATOM     58  C   UNL A   1      41.703  30.828  36.266  1.00  0.00     0.029 A 
ATOM     59  C   UNL A   1      40.958  30.974  35.108  1.00  0.00     0.049 A 
ATOM     60  H   UNL A   1      41.239  30.077  33.218  1.00  0.00     0.167 HD
ATOM     61  C   UNL A   1      39.130  31.866  33.706  1.00  0.00     0.074 A 
ATOM     62  C   UNL A   1      37.957  32.685  33.487  1.00  0.00     0.031 C 
ATOM     63  C   UNL A   1      39.785  31.775  34.888  1.00  0.00     0.031 A 
BRANCH  50  64
ATOM     64  C   UNL A   1      44.737  28.109  34.667  1.00  0.00    -0.014 A 
ATOM     65  C   UNL A   1      44.648  26.864  35.309  1.00  0.00     0.009 A 
ATOM     66  C   UNL A   1      45.962  28.795  34.679  1.00  0.00     0.009 A 
ATOM     67  C   UNL A   1      45.755  26.334  35.975  1.00  0.00     0.001 A 
ATOM     68  C   UNL A   1      47.074  28.251  35.323  1.00  0.00     0.001 A 
ATOM     69  C   UNL A   1      46.968  27.026  35.977  1.00  0.00     0.000 A 
ENDBRANCH  50  64
BRANCH  51  70
ATOM     70  C   UNL A   1      37.106  31.759  29.480  1.00  0.00    -0.014 A 
ATOM     71  C   UNL A   1      35.887  31.067  29.399  1.00  0.00     0.009 A 
ATOM     72  C   UNL A   1      37.234  32.992  28.822  1.00  0.00     0.009 A 
ATOM     73  C   UNL A   1      34.824  31.594  28.663  1.00  0.00     0.001 A 
ATOM     74  C   UNL A   1      36.159  33.529  28.112  1.00  0.00     0.001 A 
ATOM     75  C   UNL A   1      34.958  32.827  28.027  1.00  0.00     0.000 A 
ENDBRANCH  51  70
BRANCH  63  76
ATOM     76  C   UNL A   1      39.247  32.589  36.028  1.00  0.00    -0.014 A 
ATOM     77  C   UNL A   1      39.778  33.855  36.322  1.00  0.00     0.009 A 
ATOM     78  C   UNL A   1      38.200  32.088  36.815  1.00  0.00     0.009 A 
ATOM     79  C   UNL A   1      39.293  34.588  37.407  1.00  0.00     0.001 A 
ATOM     80  C   UNL A   1      37.705  32.832  37.887  1.00  0.00     0.001 A 
ATOM     81  C   UNL A   1      38.259  34.076  38.189  1.00  0.00     0.000 A 
ENDBRANCH  63  76
ENDBRANCH  37  38
ENDBRANCH  30  32
ENDBRANCH  29  30
ENDBRANCH  28  29
ENDBRANCH  27  28
ENDBRANCH   1  27
TORSDOF 16
ENDMDL
