MODEL 1
REMARK VINA RESULT:     -11.4      0.000      0.000
REMARK SMILES CC(C)(C)c1cc2c(cc1Cl)C=C(C(=O)OCCOC(=O)c1ccc(-c3c4nc(c(-c5ccccc5)c5ccc([nH]5)c(-c5ccccc5)c5nc(c(-c6ccccc6)c6ccc3[nH]6)C=C5)C=C4)cc1)[C@@H](C(F)(F)F)O2
REMARK SMILES IDX 18 1 17 2 16 3 14 4 15 5 13 6 5 7 6 8 10 9 7 10 9 11 11 12
REMARK SMILES IDX 8 13 75 14 12 15 70 16 2 17 1 18 3 19 4 20 71 21 72 22 73 23
REMARK SMILES IDX 74 24 19 25 20 26 21 27 22 28 23 29 69 30 24 31 68 32 25 33
REMARK SMILES IDX 26 34 27 35 62 36 28 37 67 38 61 39 63 40 29 41 66 42 60 43
REMARK SMILES IDX 59 44 30 46 52 47 37 48 51 49 38 50 41 51 50 52 64 53 39 54
REMARK SMILES IDX 40 55 49 57 65 58 42 59 31 60 32 61 36 62 33 63 35 64 34 65
REMARK SMILES IDX 53 66 54 67 58 68 55 69 57 70 56 71 43 72 44 73 48 74 45 75
REMARK SMILES IDX 47 76 46 77
REMARK H PARENT 63 45 41 56
REMARK Flexibility Score: inf
ROOT
ATOM      1  C   UNL A   1      37.435  20.045  24.855  1.00  0.00     0.275 C 
ENDROOT
BRANCH   1   2
ATOM      2  C   UNL A   1      35.911  20.027  24.985  1.00  0.00     0.275 C 
BRANCH   2   3
ATOM      3  O   UNL A   1      35.326  21.268  24.530  1.00  0.00    -0.459 OA
BRANCH   3   4
ATOM      4  C   UNL A   1      33.975  21.285  24.477  1.00  0.00     0.338 C 
ATOM      5  O   UNL A   1      33.247  20.364  24.146  1.00  0.00    -0.246 OA
BRANCH   4   6
ATOM      6  C   UNL A   1      33.452  22.584  24.942  1.00  0.00     0.087 C 
ATOM      7  C   UNL A   1      32.782  27.553  25.696  1.00  0.00    -0.020 A 
ATOM      8  C   UNL A   1      32.377  26.362  26.360  1.00  0.00     0.053 A 
ATOM      9  C   UNL A   1      33.509  27.382  24.495  1.00  0.00     0.045 A 
ATOM     10  C   UNL A   1      32.694  25.085  25.882  1.00  0.00     0.128 A 
ATOM     11  C   UNL A   1      33.827  26.104  24.022  1.00  0.00     0.032 A 
ATOM     12  Cl  UNL A   1      34.071  28.668  23.483  1.00  0.00    -0.084 Cl
ATOM     13  C   UNL A   1      33.429  24.966  24.718  1.00  0.00     0.019 A 
ATOM     14  O   UNL A   1      32.242  24.013  26.602  1.00  0.00    -0.475 OA
ATOM     15  C   UNL A   1      33.810  23.660  24.237  1.00  0.00     0.027 C 
ATOM     16  C   UNL A   1      32.669  22.669  26.221  1.00  0.00     0.316 C 
BRANCH   7  17
ATOM     17  C   UNL A   1      32.409  28.935  26.286  1.00  0.00    -0.012 C 
ATOM     18  C   UNL A   1      31.532  28.798  27.553  1.00  0.00     0.016 C 
ATOM     19  C   UNL A   1      31.580  29.815  25.313  1.00  0.00     0.016 C 
ATOM     20  C   UNL A   1      33.689  29.738  26.601  1.00  0.00     0.016 C 
ENDBRANCH   7  17
BRANCH  16  21
ATOM     21  C   UNL A   1      33.448  22.051  27.394  1.00  0.00     0.430 C 
ATOM     22  F   UNL A   1      34.729  22.493  27.422  1.00  0.00    -0.167 F 
ATOM     23  F   UNL A   1      32.899  22.383  28.587  1.00  0.00    -0.167 F 
ATOM     24  F   UNL A   1      33.485  20.701  27.326  1.00  0.00    -0.167 F 
ENDBRANCH  16  21
ENDBRANCH   4   6
ENDBRANCH   3   4
ENDBRANCH   2   3
ENDBRANCH   1   2
BRANCH   1  25
ATOM     25  O   UNL A   1      37.997  21.145  25.595  1.00  0.00    -0.458 OA
BRANCH  25  26
ATOM     26  C   UNL A   1      39.221  20.931  26.121  1.00  0.00     0.338 C 
ATOM     27  O   UNL A   1      39.844  19.876  26.165  1.00  0.00    -0.246 OA
BRANCH  26  28
ATOM     28  C   UNL A   1      39.778  22.202  26.594  1.00  0.00     0.060 A 
ATOM     29  C   UNL A   1      40.934  22.243  27.366  1.00  0.00     0.016 A 
ATOM     30  C   UNL A   1      39.195  23.383  26.151  1.00  0.00     0.016 A 
ATOM     31  C   UNL A   1      41.480  23.487  27.710  1.00  0.00     0.010 A 
ATOM     32  C   UNL A   1      39.826  24.603  26.354  1.00  0.00     0.010 A 
ATOM     33  C   UNL A   1      40.948  24.682  27.185  1.00  0.00    -0.014 A 
BRANCH  33  34
ATOM     34  C   UNL A   1      41.509  26.018  27.534  1.00  0.00     0.031 A 
ATOM     35  C   UNL A   1      42.834  26.463  26.955  1.00  0.00     0.074 A 
ATOM     36  C   UNL A   1      40.860  26.823  28.399  1.00  0.00     0.049 A 
ATOM     37  N   UNL A   1      43.502  27.570  27.174  1.00  0.00    -0.248 NA
ATOM     38  C   UNL A   1      43.524  25.531  26.045  1.00  0.00     0.031 C 
ATOM     39  C   UNL A   1      39.609  26.493  29.087  1.00  0.00     0.029 A 
ATOM     40  N   UNL A   1      41.153  28.091  28.839  1.00  0.00    -0.354 N 
ATOM     41  C   UNL A   1      44.692  27.443  26.466  1.00  0.00     0.074 A 
ATOM     42  C   UNL A   1      44.691  26.130  25.866  1.00  0.00     0.031 C 
ATOM     43  C   UNL A   1      39.206  27.557  29.799  1.00  0.00     0.029 A 
ATOM     44  C   UNL A   1      40.191  28.625  29.663  1.00  0.00     0.049 A 
ATOM     45  H   UNL A   1      41.974  28.573  28.586  1.00  0.00     0.167 HD
ATOM     46  C   UNL A   1      45.681  28.349  26.290  1.00  0.00     0.031 A 
ATOM     47  C   UNL A   1      40.102  29.841  30.238  1.00  0.00     0.031 A 
ATOM     48  C   UNL A   1      45.650  29.682  26.824  1.00  0.00     0.049 A 
ATOM     49  C   UNL A   1      41.189  30.851  29.996  1.00  0.00     0.074 A 
ATOM     50  C   UNL A   1      46.558  30.707  26.624  1.00  0.00     0.029 A 
ATOM     51  N   UNL A   1      44.653  30.179  27.645  1.00  0.00    -0.354 N 
ATOM     52  N   UNL A   1      42.273  30.733  29.267  1.00  0.00    -0.248 NA
ATOM     53  C   UNL A   1      41.042  32.160  30.649  1.00  0.00     0.031 C 
ATOM     54  C   UNL A   1      46.133  31.812  27.363  1.00  0.00     0.029 A 
ATOM     55  C   UNL A   1      44.932  31.492  27.977  1.00  0.00     0.049 A 
ATOM     56  H   UNL A   1      43.863  29.675  27.948  1.00  0.00     0.167 HD
ATOM     57  C   UNL A   1      42.930  31.953  29.365  1.00  0.00     0.074 A 
ATOM     58  C   UNL A   1      42.113  32.804  30.204  1.00  0.00     0.031 C 
ATOM     59  C   UNL A   1      44.109  32.327  28.812  1.00  0.00     0.031 A 
BRANCH  46  60
ATOM     60  C   UNL A   1      46.869  27.951  25.455  1.00  0.00    -0.014 A 
ATOM     61  C   UNL A   1      46.793  28.012  24.055  1.00  0.00     0.009 A 
ATOM     62  C   UNL A   1      48.035  27.441  26.048  1.00  0.00     0.009 A 
ATOM     63  C   UNL A   1      47.857  27.568  23.266  1.00  0.00     0.001 A 
ATOM     64  C   UNL A   1      49.110  27.029  25.259  1.00  0.00     0.001 A 
ATOM     65  C   UNL A   1      49.016  27.083  23.869  1.00  0.00     0.000 A 
ENDBRANCH  46  60
BRANCH  47  66
ATOM     66  C   UNL A   1      38.904  30.177  31.052  1.00  0.00    -0.014 A 
ATOM     67  C   UNL A   1      38.873  29.917  32.432  1.00  0.00     0.009 A 
ATOM     68  C   UNL A   1      37.758  30.704  30.437  1.00  0.00     0.009 A 
ATOM     69  C   UNL A   1      37.713  30.153  33.172  1.00  0.00     0.001 A 
ATOM     70  C   UNL A   1      36.607  30.965  31.186  1.00  0.00     0.001 A 
ATOM     71  C   UNL A   1      36.582  30.679  32.551  1.00  0.00     0.000 A 
ENDBRANCH  47  66
BRANCH  59  72
ATOM     72  C   UNL A   1      44.605  33.718  29.082  1.00  0.00    -0.014 A 
ATOM     73  C   UNL A   1      44.319  34.750  28.174  1.00  0.00     0.009 A 
ATOM     74  C   UNL A   1      45.468  33.973  30.158  1.00  0.00     0.009 A 
ATOM     75  C   UNL A   1      44.906  36.007  28.325  1.00  0.00     0.001 A 
ATOM     76  C   UNL A   1      46.032  35.240  30.321  1.00  0.00     0.001 A 
ATOM     77  C   UNL A   1      45.761  36.251  29.398  1.00  0.00     0.000 A 
ENDBRANCH  59  72
ENDBRANCH  33  34
ENDBRANCH  26  28
ENDBRANCH  25  26
ENDBRANCH   1  25
TORSDOF 13
ENDMDL
MODEL 2
REMARK VINA RESULT:     -11.1      4.247      8.675
REMARK SMILES CC(C)(C)c1cc2c(cc1Cl)C=C(C(=O)OCCOC(=O)c1ccc(-c3c4nc(c(-c5ccccc5)c5ccc([nH]5)c(-c5ccccc5)c5nc(c(-c6ccccc6)c6ccc3[nH]6)C=C5)C=C4)cc1)[C@@H](C(F)(F)F)O2
REMARK SMILES IDX 18 1 17 2 16 3 14 4 15 5 13 6 5 7 6 8 10 9 7 10 9 11 11 12
REMARK SMILES IDX 8 13 75 14 12 15 70 16 2 17 1 18 3 19 4 20 71 21 72 22 73 23
REMARK SMILES IDX 74 24 19 25 20 26 21 27 22 28 23 29 69 30 24 31 68 32 25 33
REMARK SMILES IDX 26 34 27 35 62 36 28 37 67 38 61 39 63 40 29 41 66 42 60 43
REMARK SMILES IDX 59 44 30 46 52 47 37 48 51 49 38 50 41 51 50 52 64 53 39 54
REMARK SMILES IDX 40 55 49 57 65 58 42 59 31 60 32 61 36 62 33 63 35 64 34 65
REMARK SMILES IDX 53 66 54 67 58 68 55 69 57 70 56 71 43 72 44 73 48 74 45 75
REMARK SMILES IDX 47 76 46 77
REMARK H PARENT 63 45 41 56
REMARK Flexibility Score: inf
ROOT
ATOM      1  C   UNL A   1      32.160  30.623  26.867  1.00  0.00     0.275 C 
ENDROOT
BRANCH   1   2
ATOM      2  C   UNL A   1      31.616  30.180  25.508  1.00  0.00     0.275 C 
BRANCH   2   3
ATOM      3  O   UNL A   1      31.090  28.835  25.561  1.00  0.00    -0.459 OA
BRANCH   3   4
ATOM      4  C   UNL A   1      30.881  28.248  24.360  1.00  0.00     0.338 C 
ATOM      5  O   UNL A   1      30.062  28.578  23.521  1.00  0.00    -0.246 OA
BRANCH   4   6
ATOM      6  C   UNL A   1      31.839  27.146  24.147  1.00  0.00     0.087 C 
ATOM      7  C   UNL A   1      35.098  23.337  24.904  1.00  0.00    -0.020 A 
ATOM      8  C   UNL A   1      34.803  24.221  23.830  1.00  0.00     0.053 A 
ATOM      9  C   UNL A   1      34.287  23.461  26.056  1.00  0.00     0.045 A 
ATOM     10  C   UNL A   1      33.789  25.183  23.901  1.00  0.00     0.128 A 
ATOM     11  C   UNL A   1      33.277  24.426  26.125  1.00  0.00     0.032 A 
ATOM     12  Cl  UNL A   1      34.416  22.475  27.472  1.00  0.00    -0.084 Cl
ATOM     13  C   UNL A   1      33.039  25.287  25.056  1.00  0.00     0.019 A 
ATOM     14  O   UNL A   1      33.592  25.972  22.800  1.00  0.00    -0.475 OA
ATOM     15  C   UNL A   1      32.024  26.306  25.168  1.00  0.00     0.027 C 
ATOM     16  C   UNL A   1      32.644  27.081  22.880  1.00  0.00     0.316 C 
BRANCH   7  17
ATOM     17  C   UNL A   1      36.243  22.304  24.766  1.00  0.00    -0.012 C 
ATOM     18  C   UNL A   1      35.740  20.859  25.001  1.00  0.00     0.016 C 
ATOM     19  C   UNL A   1      37.384  22.507  25.799  1.00  0.00     0.016 C 
ATOM     20  C   UNL A   1      36.901  22.425  23.375  1.00  0.00     0.016 C 
ENDBRANCH   7  17
BRANCH  16  21
ATOM     21  C   UNL A   1      33.406  28.395  22.636  1.00  0.00     0.430 C 
ATOM     22  F   UNL A   1      34.389  28.231  21.719  1.00  0.00    -0.167 F 
ATOM     23  F   UNL A   1      32.588  29.363  22.156  1.00  0.00    -0.167 F 
ATOM     24  F   UNL A   1      33.977  28.870  23.766  1.00  0.00    -0.167 F 
ENDBRANCH  16  21
ENDBRANCH   4   6
ENDBRANCH   3   4
ENDBRANCH   2   3
ENDBRANCH   1   2
BRANCH   1  25
ATOM     25  O   UNL A   1      33.599  30.597  26.873  1.00  0.00    -0.458 OA
BRANCH  25  26
ATOM     26  C   UNL A   1      34.198  31.531  27.640  1.00  0.00     0.338 C 
ATOM     27  O   UNL A   1      33.742  32.609  28.002  1.00  0.00    -0.246 OA
BRANCH  26  28
ATOM     28  C   UNL A   1      35.509  31.038  28.075  1.00  0.00     0.060 A 
ATOM     29  C   UNL A   1      36.591  31.898  28.229  1.00  0.00     0.016 A 
ATOM     30  C   UNL A   1      35.621  29.705  28.453  1.00  0.00     0.016 A 
ATOM     31  C   UNL A   1      37.794  31.395  28.741  1.00  0.00     0.010 A 
ATOM     32  C   UNL A   1      36.756  29.248  29.109  1.00  0.00     0.010 A 
ATOM     33  C   UNL A   1      37.883  30.069  29.213  1.00  0.00    -0.014 A 
BRANCH  33  34
ATOM     34  C   UNL A   1      39.150  29.508  29.762  1.00  0.00     0.031 A 
ATOM     35  C   UNL A   1      39.723  30.043  31.056  1.00  0.00     0.074 A 
ATOM     36  C   UNL A   1      39.816  28.548  29.089  1.00  0.00     0.049 A 
ATOM     37  N   UNL A   1      40.833  29.712  31.668  1.00  0.00    -0.248 NA
ATOM     38  C   UNL A   1      38.978  31.120  31.733  1.00  0.00     0.031 C 
ATOM     39  C   UNL A   1      39.417  27.988  27.796  1.00  0.00     0.029 A 
ATOM     40  N   UNL A   1      40.963  27.860  29.406  1.00  0.00    -0.354 N 
ATOM     41  C   UNL A   1      40.932  30.561  32.765  1.00  0.00     0.074 A 
ATOM     42  C   UNL A   1      39.811  31.468  32.702  1.00  0.00     0.031 C 
ATOM     43  C   UNL A   1      40.258  26.995  27.468  1.00  0.00     0.029 A 
ATOM     44  C   UNL A   1      41.286  26.880  28.498  1.00  0.00     0.049 A 
ATOM     45  H   UNL A   1      41.501  28.050  30.209  1.00  0.00     0.167 HD
ATOM     46  C   UNL A   1      41.846  30.563  33.763  1.00  0.00     0.031 A 
ATOM     47  C   UNL A   1      42.290  25.981  28.496  1.00  0.00     0.031 A 
ATOM     48  C   UNL A   1      42.920  29.615  33.867  1.00  0.00     0.049 A 
ATOM     49  C   UNL A   1      43.271  25.970  29.635  1.00  0.00     0.074 A 
ATOM     50  C   UNL A   1      43.842  29.474  34.889  1.00  0.00     0.029 A 
ATOM     51  N   UNL A   1      43.203  28.637  32.929  1.00  0.00    -0.354 N 
ATOM     52  N   UNL A   1      43.306  26.737  30.697  1.00  0.00    -0.248 NA
ATOM     53  C   UNL A   1      44.346  24.968  29.580  1.00  0.00     0.031 C 
ATOM     54  C   UNL A   1      44.713  28.438  34.547  1.00  0.00     0.029 A 
ATOM     55  C   UNL A   1      44.298  27.899  33.339  1.00  0.00     0.049 A 
ATOM     56  H   UNL A   1      42.700  28.489  32.096  1.00  0.00     0.167 HD
ATOM     57  C   UNL A   1      44.396  26.307  31.441  1.00  0.00     0.074 A 
ATOM     58  C   UNL A   1      44.984  25.196  30.721  1.00  0.00     0.031 C 
ATOM     59  C   UNL A   1      44.870  26.796  32.613  1.00  0.00     0.031 A 
BRANCH  46  60
ATOM     60  C   UNL A   1      41.710  31.598  34.848  1.00  0.00    -0.014 A 
ATOM     61  C   UNL A   1      42.437  32.796  34.768  1.00  0.00     0.009 A 
ATOM     62  C   UNL A   1      40.925  31.356  35.987  1.00  0.00     0.009 A 
ATOM     63  C   UNL A   1      42.385  33.729  35.807  1.00  0.00     0.001 A 
ATOM     64  C   UNL A   1      40.848  32.305  37.009  1.00  0.00     0.001 A 
ATOM     65  C   UNL A   1      41.586  33.485  36.923  1.00  0.00     0.000 A 
ENDBRANCH  46  60
BRANCH  47  66
ATOM     66  C   UNL A   1      42.372  24.982  27.397  1.00  0.00    -0.014 A 
ATOM     67  C   UNL A   1      41.700  23.753  27.488  1.00  0.00     0.009 A 
ATOM     68  C   UNL A   1      43.177  25.232  26.274  1.00  0.00     0.009 A 
ATOM     69  C   UNL A   1      41.853  22.785  26.493  1.00  0.00     0.001 A 
ATOM     70  C   UNL A   1      43.306  24.272  25.267  1.00  0.00     0.001 A 
ATOM     71  C   UNL A   1      42.653  23.045  25.382  1.00  0.00     0.000 A 
ENDBRANCH  47  66
BRANCH  59  72
ATOM     72  C   UNL A   1      46.083  26.145  33.211  1.00  0.00    -0.014 A 
ATOM     73  C   UNL A   1      47.364  26.553  32.805  1.00  0.00     0.009 A 
ATOM     74  C   UNL A   1      45.956  25.042  34.066  1.00  0.00     0.009 A 
ATOM     75  C   UNL A   1      48.495  25.852  33.228  1.00  0.00     0.001 A 
ATOM     76  C   UNL A   1      47.091  24.359  34.508  1.00  0.00     0.001 A 
ATOM     77  C   UNL A   1      48.357  24.757  34.079  1.00  0.00     0.000 A 
ENDBRANCH  59  72
ENDBRANCH  33  34
ENDBRANCH  26  28
ENDBRANCH  25  26
ENDBRANCH   1  25
TORSDOF 13
ENDMDL
MODEL 3
REMARK VINA RESULT:     -11.1      1.380      2.114
REMARK SMILES CC(C)(C)c1cc2c(cc1Cl)C=C(C(=O)OCCOC(=O)c1ccc(-c3c4nc(c(-c5ccccc5)c5ccc([nH]5)c(-c5ccccc5)c5nc(c(-c6ccccc6)c6ccc3[nH]6)C=C5)C=C4)cc1)[C@@H](C(F)(F)F)O2
REMARK SMILES IDX 18 1 17 2 16 3 14 4 15 5 13 6 5 7 6 8 10 9 7 10 9 11 11 12
REMARK SMILES IDX 8 13 75 14 12 15 70 16 2 17 1 18 3 19 4 20 71 21 72 22 73 23
REMARK SMILES IDX 74 24 19 25 20 26 21 27 22 28 23 29 69 30 24 31 68 32 25 33
REMARK SMILES IDX 26 34 27 35 62 36 28 37 67 38 61 39 63 40 29 41 66 42 60 43
REMARK SMILES IDX 59 44 30 46 52 47 37 48 51 49 38 50 41 51 50 52 64 53 39 54
REMARK SMILES IDX 40 55 49 57 65 58 42 59 31 60 32 61 36 62 33 63 35 64 34 65
REMARK SMILES IDX 53 66 54 67 58 68 55 69 57 70 56 71 43 72 44 73 48 74 45 75
REMARK SMILES IDX 47 76 46 77
REMARK H PARENT 63 45 41 56
REMARK Flexibility Score: inf
ROOT
ATOM      1  C   UNL A   1      37.847  20.912  25.049  1.00  0.00     0.275 C 
ENDROOT
BRANCH   1   2
ATOM      2  C   UNL A   1      36.348  20.671  25.232  1.00  0.00     0.275 C 
BRANCH   2   3
ATOM      3  O   UNL A   1      35.565  21.516  24.359  1.00  0.00    -0.459 OA
BRANCH   3   4
ATOM      4  C   UNL A   1      34.224  21.407  24.498  1.00  0.00     0.338 C 
ATOM      5  O   UNL A   1      33.554  20.402  24.332  1.00  0.00    -0.246 OA
BRANCH   4   6
ATOM      6  C   UNL A   1      33.643  22.685  24.951  1.00  0.00     0.087 C 
ATOM      7  C   UNL A   1      32.773  27.624  25.698  1.00  0.00    -0.020 A 
ATOM      8  C   UNL A   1      32.393  26.417  26.348  1.00  0.00     0.053 A 
ATOM      9  C   UNL A   1      33.538  27.483  24.517  1.00  0.00     0.045 A 
ATOM     10  C   UNL A   1      32.769  25.154  25.876  1.00  0.00     0.128 A 
ATOM     11  C   UNL A   1      33.915  26.219  24.050  1.00  0.00     0.032 A 
ATOM     12  Cl  UNL A   1      34.080  28.791  23.524  1.00  0.00    -0.084 Cl
ATOM     13  C   UNL A   1      33.540  25.065  24.732  1.00  0.00     0.019 A 
ATOM     14  O   UNL A   1      32.337  24.064  26.581  1.00  0.00    -0.475 OA
ATOM     15  C   UNL A   1      33.980  23.775  24.259  1.00  0.00     0.027 C 
ATOM     16  C   UNL A   1      32.822  22.737  26.209  1.00  0.00     0.316 C 
BRANCH   7  17
ATOM     17  C   UNL A   1      32.335  28.989  26.281  1.00  0.00    -0.012 C 
ATOM     18  C   UNL A   1      31.500  29.803  25.264  1.00  0.00     0.016 C 
ATOM     19  C   UNL A   1      33.528  29.910  26.654  1.00  0.00     0.016 C 
ATOM     20  C   UNL A   1      31.538  28.777  27.585  1.00  0.00     0.016 C 
ENDBRANCH   7  17
BRANCH  16  21
ATOM     21  C   UNL A   1      33.591  22.144  27.401  1.00  0.00     0.430 C 
ATOM     22  F   UNL A   1      33.691  20.797  27.303  1.00  0.00    -0.167 F 
ATOM     23  F   UNL A   1      34.858  22.622  27.464  1.00  0.00    -0.167 F 
ATOM     24  F   UNL A   1      32.994  22.423  28.582  1.00  0.00    -0.167 F 
ENDBRANCH  16  21
ENDBRANCH   4   6
ENDBRANCH   3   4
ENDBRANCH   2   3
ENDBRANCH   1   2
BRANCH   1  25
ATOM     25  O   UNL A   1      38.263  22.095  25.756  1.00  0.00    -0.458 OA
BRANCH  25  26
ATOM     26  C   UNL A   1      39.419  21.989  26.443  1.00  0.00     0.338 C 
ATOM     27  O   UNL A   1      40.043  20.968  26.708  1.00  0.00    -0.246 OA
BRANCH  26  28
ATOM     28  C   UNL A   1      39.904  23.328  26.792  1.00  0.00     0.060 A 
ATOM     29  C   UNL A   1      39.412  24.464  26.158  1.00  0.00     0.016 A 
ATOM     30  C   UNL A   1      40.781  23.454  27.862  1.00  0.00     0.016 A 
ATOM     31  C   UNL A   1      39.836  25.726  26.595  1.00  0.00     0.010 A 
ATOM     32  C   UNL A   1      41.070  24.703  28.397  1.00  0.00     0.010 A 
ATOM     33  C   UNL A   1      40.649  25.862  27.738  1.00  0.00    -0.014 A 
BRANCH  33  34
ATOM     34  C   UNL A   1      41.113  27.191  28.225  1.00  0.00     0.031 A 
ATOM     35  C   UNL A   1      42.576  27.567  28.139  1.00  0.00     0.074 A 
ATOM     36  C   UNL A   1      40.239  28.054  28.783  1.00  0.00     0.049 A 
ATOM     37  N   UNL A   1      43.175  28.659  28.548  1.00  0.00    -0.248 NA
ATOM     38  C   UNL A   1      43.498  26.574  27.557  1.00  0.00     0.031 C 
ATOM     39  C   UNL A   1      38.813  27.796  28.994  1.00  0.00     0.029 A 
ATOM     40  N   UNL A   1      40.418  29.330  29.261  1.00  0.00    -0.354 N 
ATOM     41  C   UNL A   1      44.531  28.461  28.309  1.00  0.00     0.074 A 
ATOM     42  C   UNL A   1      44.680  27.125  27.786  1.00  0.00     0.031 C 
ATOM     43  C   UNL A   1      38.234  28.903  29.487  1.00  0.00     0.029 A 
ATOM     44  C   UNL A   1      39.254  29.930  29.678  1.00  0.00     0.049 A 
ATOM     45  H   UNL A   1      41.297  29.772  29.301  1.00  0.00     0.167 HD
ATOM     46  C   UNL A   1      45.560  29.326  28.469  1.00  0.00     0.031 A 
ATOM     47  C   UNL A   1      39.025  31.171  30.150  1.00  0.00     0.031 A 
ATOM     48  C   UNL A   1      45.405  30.680  28.920  1.00  0.00     0.049 A 
ATOM     49  C   UNL A   1      40.173  32.133  30.279  1.00  0.00     0.074 A 
ATOM     50  C   UNL A   1      46.372  31.665  29.024  1.00  0.00     0.029 A 
ATOM     51  N   UNL A   1      44.207  31.246  29.322  1.00  0.00    -0.354 N 
ATOM     52  N   UNL A   1      41.437  31.948  29.983  1.00  0.00    -0.248 NA
ATOM     53  C   UNL A   1      39.867  33.473  30.800  1.00  0.00     0.031 C 
ATOM     54  C   UNL A   1      45.766  32.814  29.534  1.00  0.00     0.029 A 
ATOM     55  C   UNL A   1      44.413  32.562  29.693  1.00  0.00     0.049 A 
ATOM     56  H   UNL A   1      43.339  30.782  29.340  1.00  0.00     0.167 HD
ATOM     57  C   UNL A   1      42.074  33.148  30.272  1.00  0.00     0.074 A 
ATOM     58  C   UNL A   1      41.055  34.062  30.744  1.00  0.00     0.031 C 
ATOM     59  C   UNL A   1      43.388  33.459  30.160  1.00  0.00     0.031 A 
BRANCH  46  60
ATOM     60  C   UNL A   1      46.945  28.853  28.118  1.00  0.00    -0.014 A 
ATOM     61  C   UNL A   1      47.782  28.333  29.118  1.00  0.00     0.009 A 
ATOM     62  C   UNL A   1      47.453  28.993  26.817  1.00  0.00     0.009 A 
ATOM     63  C   UNL A   1      49.098  27.967  28.825  1.00  0.00     0.001 A 
ATOM     64  C   UNL A   1      48.757  28.596  26.518  1.00  0.00     0.001 A 
ATOM     65  C   UNL A   1      49.581  28.093  27.524  1.00  0.00     0.000 A 
ENDBRANCH  46  60
BRANCH  47  66
ATOM     66  C   UNL A   1      37.634  31.582  30.478  1.00  0.00    -0.014 A 
ATOM     67  C   UNL A   1      37.117  31.406  31.772  1.00  0.00     0.009 A 
ATOM     68  C   UNL A   1      36.795  32.098  29.479  1.00  0.00     0.009 A 
ATOM     69  C   UNL A   1      35.782  31.711  32.050  1.00  0.00     0.001 A 
ATOM     70  C   UNL A   1      35.467  32.428  29.767  1.00  0.00     0.001 A 
ATOM     71  C   UNL A   1      34.960  32.225  31.049  1.00  0.00     0.000 A 
ENDBRANCH  47  66
BRANCH  59  72
ATOM     72  C   UNL A   1      43.822  34.842  30.549  1.00  0.00    -0.014 A 
ATOM     73  C   UNL A   1      44.103  35.133  31.894  1.00  0.00     0.009 A 
ATOM     74  C   UNL A   1      43.818  35.884  29.611  1.00  0.00     0.009 A 
ATOM     75  C   UNL A   1      44.350  36.446  32.296  1.00  0.00     0.001 A 
ATOM     76  C   UNL A   1      44.092  37.193  30.012  1.00  0.00     0.001 A 
ATOM     77  C   UNL A   1      44.344  37.474  31.355  1.00  0.00     0.000 A 
ENDBRANCH  59  72
ENDBRANCH  33  34
ENDBRANCH  26  28
ENDBRANCH  25  26
ENDBRANCH   1  25
TORSDOF 13
ENDMDL
