MODEL 1
REMARK VINA RESULT:     -14.4      0.000      0.000
REMARK SMILES O=C(OCCOC(=O)c1ccc(-c2c3nc(c(-c4ccccc4)c4ccc([nH]4)c(-c4ccccc4)c4nc(c(-c5ccccc5)c5ccc2[nH]5)C=C4)C=C3)cc1)C1=Cc2cc(Cl)cc(-c3ccc(Cl)cc3)c2O[C@@H]1C(F)(F)F
REMARK SMILES IDX 5 1 4 2 3 3 2 4 1 5 57 6 58 7 74 8 59 9 73 10 60 11 72 12
REMARK SMILES IDX 61 13 64 14 62 15 63 16 75 17 76 18 77 19 78 20 65 21 66 22
REMARK SMILES IDX 71 23 67 24 70 25 68 26 69 27 6 28 7 29 8 30 9 31 10 32
REMARK SMILES IDX 56 33 11 34 55 35 12 36 13 37 14 38 49 39 15 40 54 41 48 42
REMARK SMILES IDX 50 43 16 44 53 45 47 46 46 47 17 49 39 50 24 51 38 52 25 53
REMARK SMILES IDX 28 54 37 55 51 56 26 57 27 58 36 60 52 61 29 62 18 63 19 64
REMARK SMILES IDX 23 65 20 66 22 67 21 68 40 69 41 70 45 71 42 72 44 73 43 74
REMARK SMILES IDX 30 75 31 76 35 77 32 78 34 79 33 80
REMARK H PARENT 50 48 28 59
REMARK Flexibility Score: inf
ROOT
ATOM      1  C   UNL A   1      32.423  29.835  27.093  1.00  0.00     0.275 C 
ENDROOT
BRANCH   1   2
ATOM      2  C   UNL A   1      32.137  27.905  26.169  1.00  0.00     0.275 C 
BRANCH   2   3
ATOM      3  O   UNL A   1      32.963  26.603  26.468  1.00  0.00    -0.459 OA
BRANCH   3   4
ATOM      4  C   UNL A   1      32.274  25.477  26.266  1.00  0.00     0.338 C 
ATOM      5  O   UNL A   1      31.578  24.827  27.003  1.00  0.00    -0.246 OA
BRANCH   4   6
ATOM      6  C   UNL A   1      32.892  25.182  25.004  1.00  0.00     0.087 C 
ATOM      7  C   UNL A   1      34.334  24.941  25.189  1.00  0.00     0.027 C 
ATOM      8  C   UNL A   1      31.613  23.868  24.399  1.00  0.00     0.316 C 
ATOM      9  C   UNL A   1      35.094  23.317  24.995  1.00  0.00     0.019 A 
ATOM     10  O   UNL A   1      32.400  22.112  24.245  1.00  0.00    -0.475 OA
ATOM     11  C   UNL A   1      36.420  23.221  25.316  1.00  0.00     0.032 A 
ATOM     12  C   UNL A   1      34.165  21.877  24.648  1.00  0.00     0.135 A 
ATOM     13  C   UNL A   1      36.922  21.922  25.329  1.00  0.00     0.042 A 
ATOM     14  C   UNL A   1      34.741  20.631  24.751  1.00  0.00     0.026 A 
ATOM     15  Cl  UNL A   1      38.591  21.724  25.750  1.00  0.00    -0.084 Cl
ATOM     16  C   UNL A   1      36.143  20.729  25.070  1.00  0.00     0.033 A 
BRANCH   8  17
ATOM     17  C   UNL A   1      30.840  24.798  23.392  1.00  0.00     0.430 C 
ATOM     18  F   UNL A   1      31.618  25.249  22.405  1.00  0.00    -0.167 F 
ATOM     19  F   UNL A   1      29.900  24.033  22.754  1.00  0.00    -0.167 F 
ATOM     20  F   UNL A   1      30.109  25.798  23.930  1.00  0.00    -0.167 F 
ENDBRANCH   8  17
BRANCH  14  21
ATOM     21  C   UNL A   1      34.171  19.290  24.732  1.00  0.00    -0.015 A 
ATOM     22  C   UNL A   1      32.976  19.059  25.452  1.00  0.00     0.010 A 
ATOM     23  C   UNL A   1      34.884  18.184  24.264  1.00  0.00     0.010 A 
ATOM     24  C   UNL A   1      32.525  17.767  25.723  1.00  0.00     0.021 A 
ATOM     25  C   UNL A   1      34.432  16.884  24.534  1.00  0.00     0.021 A 
ATOM     26  C   UNL A   1      33.263  16.681  25.267  1.00  0.00     0.041 A 
ATOM     27  Cl  UNL A   1      32.744  15.085  25.643  1.00  0.00    -0.084 Cl
ENDBRANCH  14  21
ENDBRANCH   4   6
ENDBRANCH   3   4
ENDBRANCH   2   3
ENDBRANCH   1   2
BRANCH   1  28
ATOM     28  O   UNL A   1      33.908  30.637  27.316  1.00  0.00    -0.458 OA
BRANCH  28  29
ATOM     29  C   UNL A   1      34.779  31.092  28.267  1.00  0.00     0.338 C 
ATOM     30  O   UNL A   1      34.665  32.000  29.064  1.00  0.00    -0.246 OA
BRANCH  29  31
ATOM     31  C   UNL A   1      35.850  30.052  28.325  1.00  0.00     0.060 A 
ATOM     32  C   UNL A   1      36.747  29.917  27.254  1.00  0.00     0.016 A 
ATOM     33  C   UNL A   1      36.166  29.512  29.570  1.00  0.00     0.016 A 
ATOM     34  C   UNL A   1      38.068  29.506  27.509  1.00  0.00     0.010 A 
ATOM     35  C   UNL A   1      37.457  29.048  29.803  1.00  0.00     0.010 A 
ATOM     36  C   UNL A   1      38.443  29.126  28.805  1.00  0.00    -0.014 A 
BRANCH  36  37
ATOM     37  C   UNL A   1      39.782  28.575  29.127  1.00  0.00     0.031 A 
ATOM     38  C   UNL A   1      40.789  29.563  29.621  1.00  0.00     0.074 A 
ATOM     39  C   UNL A   1      40.156  27.321  28.803  1.00  0.00     0.049 A 
ATOM     40  N   UNL A   1      42.087  29.465  29.698  1.00  0.00    -0.248 NA
ATOM     41  C   UNL A   1      40.245  30.871  30.018  1.00  0.00     0.031 C 
ATOM     42  C   UNL A   1      39.277  26.261  28.309  1.00  0.00     0.029 A 
ATOM     43  N   UNL A   1      41.405  26.740  28.805  1.00  0.00    -0.354 N 
ATOM     44  C   UNL A   1      42.517  30.718  30.105  1.00  0.00     0.074 A 
ATOM     45  C   UNL A   1      41.349  31.561  30.220  1.00  0.00     0.031 C 
ATOM     46  C   UNL A   1      40.019  25.169  28.030  1.00  0.00     0.029 A 
ATOM     47  C   UNL A   1      41.428  25.462  28.289  1.00  0.00     0.049 A 
ATOM     48  H   UNL A   1      42.208  27.196  29.143  1.00  0.00     0.167 HD
ATOM     49  C   UNL A   1      43.775  31.144  30.355  1.00  0.00     0.031 A 
ATOM     50  C   UNL A   1      42.472  24.645  28.035  1.00  0.00     0.031 A 
ATOM     51  C   UNL A   1      44.937  30.323  30.199  1.00  0.00     0.049 A 
ATOM     52  C   UNL A   1      43.877  25.135  28.312  1.00  0.00     0.074 A 
ATOM     53  C   UNL A   1      46.260  30.643  30.438  1.00  0.00     0.029 A 
ATOM     54  N   UNL A   1      44.908  29.012  29.746  1.00  0.00    -0.354 N 
ATOM     55  N   UNL A   1      44.273  26.305  28.759  1.00  0.00    -0.248 NA
ATOM     56  C   UNL A   1      44.979  24.195  28.052  1.00  0.00     0.031 C 
ATOM     57  C   UNL A   1      47.037  29.534  30.092  1.00  0.00     0.029 A 
ATOM     58  C   UNL A   1      46.193  28.509  29.692  1.00  0.00     0.049 A 
ATOM     59  H   UNL A   1      44.094  28.516  29.502  1.00  0.00     0.167 HD
ATOM     60  C   UNL A   1      45.658  26.226  28.870  1.00  0.00     0.074 A 
ATOM     61  C   UNL A   1      46.035  24.895  28.443  1.00  0.00     0.031 C 
ATOM     62  C   UNL A   1      46.537  27.168  29.290  1.00  0.00     0.031 A 
BRANCH  49  63
ATOM     63  C   UNL A   1      43.906  32.583  30.758  1.00  0.00    -0.014 A 
ATOM     64  C   UNL A   1      43.859  32.961  32.111  1.00  0.00     0.009 A 
ATOM     65  C   UNL A   1      43.937  33.577  29.771  1.00  0.00     0.009 A 
ATOM     66  C   UNL A   1      43.749  34.306  32.463  1.00  0.00     0.001 A 
ATOM     67  C   UNL A   1      43.869  34.925  30.129  1.00  0.00     0.001 A 
ATOM     68  C   UNL A   1      43.751  35.286  31.472  1.00  0.00     0.000 A 
ENDBRANCH  49  63
BRANCH  50  69
ATOM     69  C   UNL A   1      42.261  23.274  27.486  1.00  0.00    -0.014 A 
ATOM     70  C   UNL A   1      41.904  22.215  28.339  1.00  0.00     0.009 A 
ATOM     71  C   UNL A   1      42.464  22.997  26.125  1.00  0.00     0.009 A 
ATOM     72  C   UNL A   1      41.781  20.911  27.849  1.00  0.00     0.001 A 
ATOM     73  C   UNL A   1      42.316  21.695  25.632  1.00  0.00     0.001 A 
ATOM     74  C   UNL A   1      41.984  20.652  26.495  1.00  0.00     0.000 A 
ENDBRANCH  50  69
BRANCH  62  75
ATOM     75  C   UNL A   1      47.989  26.792  29.382  1.00  0.00    -0.014 A 
ATOM     76  C   UNL A   1      48.513  26.155  30.517  1.00  0.00     0.009 A 
ATOM     77  C   UNL A   1      48.811  26.964  28.255  1.00  0.00     0.009 A 
ATOM     78  C   UNL A   1      49.834  25.703  30.522  1.00  0.00     0.001 A 
ATOM     79  C   UNL A   1      50.122  26.487  28.254  1.00  0.00     0.001 A 
ATOM     80  C   UNL A   1      50.633  25.859  29.388  1.00  0.00     0.000 A 
ENDBRANCH  62  75
ENDBRANCH  36  37
ENDBRANCH  29  31
ENDBRANCH  28  29
ENDBRANCH   1  28
TORSDOF 13
ENDMDL
MODEL 2
REMARK VINA RESULT:     -14.3      3.233      6.359
REMARK SMILES O=C(OCCOC(=O)c1ccc(-c2c3nc(c(-c4ccccc4)c4ccc([nH]4)c(-c4ccccc4)c4nc(c(-c5ccccc5)c5ccc2[nH]5)C=C4)C=C3)cc1)C1=Cc2cc(Cl)cc(-c3ccc(Cl)cc3)c2O[C@@H]1C(F)(F)F
REMARK SMILES IDX 5 1 4 2 3 3 2 4 1 5 57 6 58 7 74 8 59 9 73 10 60 11 72 12
REMARK SMILES IDX 61 13 64 14 62 15 63 16 75 17 76 18 77 19 78 20 65 21 66 22
REMARK SMILES IDX 71 23 67 24 70 25 68 26 69 27 6 28 7 29 8 30 9 31 10 32
REMARK SMILES IDX 56 33 11 34 55 35 12 36 13 37 14 38 49 39 15 40 54 41 48 42
REMARK SMILES IDX 50 43 16 44 53 45 47 46 46 47 17 49 39 50 24 51 38 52 25 53
REMARK SMILES IDX 28 54 37 55 51 56 26 57 27 58 36 60 52 61 29 62 18 63 19 64
REMARK SMILES IDX 23 65 20 66 22 67 21 68 40 69 41 70 45 71 42 72 44 73 43 74
REMARK SMILES IDX 30 75 31 76 35 77 32 78 34 79 33 80
REMARK H PARENT 50 48 28 59
REMARK Flexibility Score: inf
ROOT
ATOM      1  C   UNL A   1      31.728  29.667  25.909  1.00  0.00     0.275 C 
ENDROOT
BRANCH   1   2
ATOM      2  C   UNL A   1      31.586  27.515  25.803  1.00  0.00     0.275 C 
BRANCH   2   3
ATOM      3  O   UNL A   1      32.477  26.488  26.589  1.00  0.00    -0.459 OA
BRANCH   3   4
ATOM      4  C   UNL A   1      32.058  25.224  26.479  1.00  0.00     0.338 C 
ATOM      5  O   UNL A   1      31.549  24.482  27.279  1.00  0.00    -0.246 OA
BRANCH   4   6
ATOM      6  C   UNL A   1      32.693  24.998  25.210  1.00  0.00     0.087 C 
ATOM      7  C   UNL A   1      34.141  24.800  25.395  1.00  0.00     0.027 C 
ATOM      8  C   UNL A   1      31.463  23.663  24.550  1.00  0.00     0.316 C 
ATOM      9  C   UNL A   1      34.958  23.211  25.148  1.00  0.00     0.019 A 
ATOM     10  O   UNL A   1      32.311  21.942  24.338  1.00  0.00    -0.475 OA
ATOM     11  C   UNL A   1      36.285  23.150  25.474  1.00  0.00     0.032 A 
ATOM     12  C   UNL A   1      34.081  21.753  24.744  1.00  0.00     0.135 A 
ATOM     13  C   UNL A   1      36.832  21.869  25.443  1.00  0.00     0.042 A 
ATOM     14  C   UNL A   1      34.700  20.525  24.805  1.00  0.00     0.026 A 
ATOM     15  Cl  UNL A   1      38.504  21.714  25.868  1.00  0.00    -0.084 Cl
ATOM     16  C   UNL A   1      36.096  20.660  25.136  1.00  0.00     0.033 A 
BRANCH   8  17
ATOM     17  C   UNL A   1      30.663  24.602  23.573  1.00  0.00     0.430 C 
ATOM     18  F   UNL A   1      31.451  25.209  22.682  1.00  0.00    -0.167 F 
ATOM     19  F   UNL A   1      29.845  23.811  22.811  1.00  0.00    -0.167 F 
ATOM     20  F   UNL A   1      29.806  25.476  24.140  1.00  0.00    -0.167 F 
ENDBRANCH   8  17
BRANCH  14  21
ATOM     21  C   UNL A   1      34.177  19.167  24.734  1.00  0.00    -0.015 A 
ATOM     22  C   UNL A   1      32.931  18.895  25.345  1.00  0.00     0.010 A 
ATOM     23  C   UNL A   1      34.964  18.086  24.329  1.00  0.00     0.010 A 
ATOM     24  C   UNL A   1      32.500  17.588  25.574  1.00  0.00     0.021 A 
ATOM     25  C   UNL A   1      34.531  16.771  24.557  1.00  0.00     0.021 A 
ATOM     26  C   UNL A   1      33.310  16.528  25.184  1.00  0.00     0.041 A 
ATOM     27  Cl  UNL A   1      32.810  14.915  25.510  1.00  0.00    -0.084 Cl
ENDBRANCH  14  21
ENDBRANCH   4   6
ENDBRANCH   3   4
ENDBRANCH   2   3
ENDBRANCH   1   2
BRANCH   1  28
ATOM     28  O   UNL A   1      32.499  30.568  27.131  1.00  0.00    -0.458 OA
BRANCH  28  29
ATOM     29  C   UNL A   1      33.064  31.781  27.409  1.00  0.00     0.338 C 
ATOM     30  O   UNL A   1      32.544  32.848  27.664  1.00  0.00    -0.246 OA
BRANCH  29  31
ATOM     31  C   UNL A   1      34.514  31.485  27.606  1.00  0.00     0.060 A 
ATOM     32  C   UNL A   1      35.432  32.542  27.710  1.00  0.00     0.016 A 
ATOM     33  C   UNL A   1      34.864  30.213  28.055  1.00  0.00     0.016 A 
ATOM     34  C   UNL A   1      36.570  32.389  28.522  1.00  0.00     0.010 A 
ATOM     35  C   UNL A   1      36.024  30.051  28.806  1.00  0.00     0.010 A 
ATOM     36  C   UNL A   1      36.837  31.152  29.124  1.00  0.00    -0.014 A 
BRANCH  36  37
ATOM     37  C   UNL A   1      38.073  30.883  29.899  1.00  0.00     0.031 A 
ATOM     38  C   UNL A   1      39.058  29.964  29.252  1.00  0.00     0.074 A 
ATOM     39  C   UNL A   1      38.227  31.255  31.187  1.00  0.00     0.049 A 
ATOM     40  N   UNL A   1      40.059  29.311  29.775  1.00  0.00    -0.248 NA
ATOM     41  C   UNL A   1      38.826  29.698  27.824  1.00  0.00     0.031 C 
ATOM     42  C   UNL A   1      37.341  32.144  31.938  1.00  0.00     0.029 A 
ATOM     43  N   UNL A   1      39.181  30.884  32.108  1.00  0.00    -0.354 N 
ATOM     44  C   UNL A   1      40.544  28.518  28.747  1.00  0.00     0.074 A 
ATOM     45  C   UNL A   1      39.707  28.745  27.592  1.00  0.00     0.031 C 
ATOM     46  C   UNL A   1      37.778  32.227  33.211  1.00  0.00     0.029 A 
ATOM     47  C   UNL A   1      38.951  31.370  33.377  1.00  0.00     0.049 A 
ATOM     48  H   UNL A   1      39.956  30.322  31.881  1.00  0.00     0.167 HD
ATOM     49  C   UNL A   1      41.590  27.663  28.757  1.00  0.00     0.031 A 
ATOM     50  C   UNL A   1      39.602  31.124  34.534  1.00  0.00     0.031 A 
ATOM     51  C   UNL A   1      42.394  27.403  29.912  1.00  0.00     0.049 A 
ATOM     52  C   UNL A   1      40.768  30.159  34.534  1.00  0.00     0.074 A 
ATOM     53  C   UNL A   1      43.488  26.569  30.035  1.00  0.00     0.029 A 
ATOM     54  N   UNL A   1      42.172  27.974  31.157  1.00  0.00    -0.354 N 
ATOM     55  N   UNL A   1      41.263  29.458  33.540  1.00  0.00    -0.248 NA
ATOM     56  C   UNL A   1      41.466  29.951  35.813  1.00  0.00     0.031 C 
ATOM     57  C   UNL A   1      43.907  26.606  31.368  1.00  0.00     0.029 A 
ATOM     58  C   UNL A   1      43.107  27.505  32.059  1.00  0.00     0.049 A 
ATOM     59  H   UNL A   1      41.457  28.617  31.366  1.00  0.00     0.167 HD
ATOM     60  C   UNL A   1      42.348  28.762  34.063  1.00  0.00     0.074 A 
ATOM     61  C   UNL A   1      42.441  29.122  35.462  1.00  0.00     0.031 C 
ATOM     62  C   UNL A   1      43.193  27.903  33.441  1.00  0.00     0.031 A 
BRANCH  49  63
ATOM     63  C   UNL A   1      41.841  26.928  27.473  1.00  0.00    -0.014 A 
ATOM     64  C   UNL A   1      41.324  25.637  27.267  1.00  0.00     0.009 A 
ATOM     65  C   UNL A   1      42.715  27.474  26.523  1.00  0.00     0.009 A 
ATOM     66  C   UNL A   1      41.749  24.873  26.180  1.00  0.00     0.001 A 
ATOM     67  C   UNL A   1      43.105  26.722  25.414  1.00  0.00     0.001 A 
ATOM     68  C   UNL A   1      42.641  25.415  25.257  1.00  0.00     0.000 A 
ENDBRANCH  49  63
BRANCH  50  69
ATOM     69  C   UNL A   1      39.188  31.785  35.806  1.00  0.00    -0.014 A 
ATOM     70  C   UNL A   1      39.866  32.927  36.266  1.00  0.00     0.009 A 
ATOM     71  C   UNL A   1      38.154  31.257  36.596  1.00  0.00     0.009 A 
ATOM     72  C   UNL A   1      39.538  33.507  37.495  1.00  0.00     0.001 A 
ATOM     73  C   UNL A   1      37.811  31.855  37.814  1.00  0.00     0.001 A 
ATOM     74  C   UNL A   1      38.509  32.974  38.267  1.00  0.00     0.000 A 
ENDBRANCH  50  69
BRANCH  62  75
ATOM     75  C   UNL A   1      44.339  27.339  34.232  1.00  0.00    -0.014 A 
ATOM     76  C   UNL A   1      45.578  27.993  34.300  1.00  0.00     0.009 A 
ATOM     77  C   UNL A   1      44.124  26.200  35.026  1.00  0.00     0.009 A 
ATOM     78  C   UNL A   1      46.581  27.512  35.145  1.00  0.00     0.001 A 
ATOM     79  C   UNL A   1      45.118  25.739  35.889  1.00  0.00     0.001 A 
ATOM     80  C   UNL A   1      46.346  26.394  35.947  1.00  0.00     0.000 A 
ENDBRANCH  62  75
ENDBRANCH  36  37
ENDBRANCH  29  31
ENDBRANCH  28  29
ENDBRANCH   1  28
TORSDOF 13
ENDMDL
MODEL 3
REMARK VINA RESULT:     -14.1      3.630      7.946
REMARK SMILES O=C(OCCOC(=O)c1ccc(-c2c3nc(c(-c4ccccc4)c4ccc([nH]4)c(-c4ccccc4)c4nc(c(-c5ccccc5)c5ccc2[nH]5)C=C4)C=C3)cc1)C1=Cc2cc(Cl)cc(-c3ccc(Cl)cc3)c2O[C@@H]1C(F)(F)F
REMARK SMILES IDX 5 1 4 2 3 3 2 4 1 5 57 6 58 7 74 8 59 9 73 10 60 11 72 12
REMARK SMILES IDX 61 13 64 14 62 15 63 16 75 17 76 18 77 19 78 20 65 21 66 22
REMARK SMILES IDX 71 23 67 24 70 25 68 26 69 27 6 28 7 29 8 30 9 31 10 32
REMARK SMILES IDX 56 33 11 34 55 35 12 36 13 37 14 38 49 39 15 40 54 41 48 42
REMARK SMILES IDX 50 43 16 44 53 45 47 46 46 47 17 49 39 50 24 51 38 52 25 53
REMARK SMILES IDX 28 54 37 55 51 56 26 57 27 58 36 60 52 61 29 62 18 63 19 64
REMARK SMILES IDX 23 65 20 66 22 67 21 68 40 69 41 70 45 71 42 72 44 73 43 74
REMARK SMILES IDX 30 75 31 76 35 77 32 78 34 79 33 80
REMARK H PARENT 50 48 28 59
REMARK Flexibility Score: inf
ROOT
ATOM      1  C   UNL A   1      36.114  21.431  24.461  1.00  0.00     0.275 C 
ENDROOT
BRANCH   1   2
ATOM      2  C   UNL A   1      34.901  22.943  23.512  1.00  0.00     0.275 C 
BRANCH   2   3
ATOM      3  O   UNL A   1      34.834  24.461  23.910  1.00  0.00    -0.459 OA
BRANCH   3   4
ATOM      4  C   UNL A   1      33.935  25.157  23.208  1.00  0.00     0.338 C 
ATOM      5  O   UNL A   1      34.013  25.709  22.141  1.00  0.00    -0.246 OA
BRANCH   4   6
ATOM      6  C   UNL A   1      32.992  25.257  24.288  1.00  0.00     0.087 C 
ATOM      7  C   UNL A   1      33.424  26.291  25.244  1.00  0.00     0.027 C 
ATOM      8  C   UNL A   1      31.389  25.336  23.213  1.00  0.00     0.316 C 
ATOM      9  C   UNL A   1      32.564  27.863  25.452  1.00  0.00     0.019 A 
ATOM     10  O   UNL A   1      30.491  27.037  23.380  1.00  0.00    -0.475 OA
ATOM     11  C   UNL A   1      33.150  28.773  26.289  1.00  0.00     0.032 A 
ATOM     12  C   UNL A   1      31.189  28.321  24.475  1.00  0.00     0.135 A 
ATOM     13  C   UNL A   1      32.556  30.033  26.281  1.00  0.00     0.042 A 
ATOM     14  C   UNL A   1      30.717  29.614  24.493  1.00  0.00     0.026 A 
ATOM     15  Cl  UNL A   1      33.261  31.243  27.302  1.00  0.00    -0.084 Cl
ATOM     16  C   UNL A   1      31.436  30.418  25.449  1.00  0.00     0.033 A 
BRANCH   8  17
ATOM     17  C   UNL A   1      30.933  23.846  23.434  1.00  0.00     0.430 C 
ATOM     18  F   UNL A   1      30.703  23.564  24.719  1.00  0.00    -0.167 F 
ATOM     19  F   UNL A   1      29.713  23.690  22.834  1.00  0.00    -0.167 F 
ATOM     20  F   UNL A   1      31.688  22.890  22.853  1.00  0.00    -0.167 F 
ENDBRANCH   8  17
BRANCH  14  21
ATOM     21  C   UNL A   1      29.755  30.312  23.649  1.00  0.00    -0.015 A 
ATOM     22  C   UNL A   1      29.629  29.907  22.300  1.00  0.00     0.010 A 
ATOM     23  C   UNL A   1      29.159  31.514  24.037  1.00  0.00     0.010 A 
ATOM     24  C   UNL A   1      28.958  30.692  21.363  1.00  0.00     0.021 A 
ATOM     25  C   UNL A   1      28.482  32.304  23.096  1.00  0.00     0.021 A 
ATOM     26  C   UNL A   1      28.392  31.896  21.766  1.00  0.00     0.041 A 
ATOM     27  Cl  UNL A   1      27.609  32.895  20.605  1.00  0.00    -0.084 Cl
ENDBRANCH  14  21
ENDBRANCH   4   6
ENDBRANCH   3   4
ENDBRANCH   2   3
ENDBRANCH   1   2
BRANCH   1  28
ATOM     28  O   UNL A   1      37.756  21.577  24.889  1.00  0.00    -0.458 OA
BRANCH  28  29
ATOM     29  C   UNL A   1      38.753  21.003  25.628  1.00  0.00     0.338 C 
ATOM     30  O   UNL A   1      39.317  19.937  25.490  1.00  0.00    -0.246 OA
BRANCH  29  31
ATOM     31  C   UNL A   1      39.227  22.094  26.531  1.00  0.00     0.060 A 
ATOM     32  C   UNL A   1      40.299  21.856  27.406  1.00  0.00     0.016 A 
ATOM     33  C   UNL A   1      38.858  23.402  26.223  1.00  0.00     0.016 A 
ATOM     34  C   UNL A   1      41.172  22.910  27.730  1.00  0.00     0.010 A 
ATOM     35  C   UNL A   1      39.691  24.451  26.599  1.00  0.00     0.010 A 
ATOM     36  C   UNL A   1      40.899  24.207  27.273  1.00  0.00    -0.014 A 
BRANCH  36  37
ATOM     37  C   UNL A   1      41.709  25.386  27.666  1.00  0.00     0.031 A 
ATOM     38  C   UNL A   1      41.005  26.408  28.500  1.00  0.00     0.074 A 
ATOM     39  C   UNL A   1      42.925  25.647  27.145  1.00  0.00     0.049 A 
ATOM     40  N   UNL A   1      41.324  27.648  28.745  1.00  0.00    -0.248 NA
ATOM     41  C   UNL A   1      39.723  25.974  29.078  1.00  0.00     0.031 C 
ATOM     42  C   UNL A   1      43.719  24.742  26.315  1.00  0.00     0.029 A 
ATOM     43  N   UNL A   1      43.689  26.791  27.210  1.00  0.00    -0.354 N 
ATOM     44  C   UNL A   1      40.254  28.157  29.465  1.00  0.00     0.074 A 
ATOM     45  C   UNL A   1      39.270  27.105  29.581  1.00  0.00     0.031 C 
ATOM     46  C   UNL A   1      44.845  25.375  25.926  1.00  0.00     0.029 A 
ATOM     47  C   UNL A   1      44.835  26.741  26.447  1.00  0.00     0.049 A 
ATOM     48  H   UNL A   1      43.439  27.574  27.751  1.00  0.00     0.167 HD
ATOM     49  C   UNL A   1      40.091  29.394  29.982  1.00  0.00     0.031 A 
ATOM     50  C   UNL A   1      45.749  27.701  26.184  1.00  0.00     0.031 A 
ATOM     51  C   UNL A   1      41.044  30.451  29.831  1.00  0.00     0.049 A 
ATOM     52  C   UNL A   1      45.551  29.085  26.763  1.00  0.00     0.074 A 
ATOM     53  C   UNL A   1      40.992  31.740  30.325  1.00  0.00     0.029 A 
ATOM     54  N   UNL A   1      42.227  30.334  29.114  1.00  0.00    -0.354 N 
ATOM     55  N   UNL A   1      44.565  29.542  27.498  1.00  0.00    -0.248 NA
ATOM     56  C   UNL A   1      46.593  30.086  26.476  1.00  0.00     0.031 C 
ATOM     57  C   UNL A   1      42.128  32.417  29.872  1.00  0.00     0.029 A 
ATOM     58  C   UNL A   1      42.911  31.533  29.146  1.00  0.00     0.049 A 
ATOM     59  H   UNL A   1      42.531  29.520  28.654  1.00  0.00     0.167 HD
ATOM     60  C   UNL A   1      44.885  30.864  27.794  1.00  0.00     0.074 A 
ATOM     61  C   UNL A   1      46.157  31.137  27.158  1.00  0.00     0.031 C 
ATOM     62  C   UNL A   1      44.191  31.768  28.527  1.00  0.00     0.031 A 
BRANCH  49  63
ATOM     63  C   UNL A   1      38.792  29.636  30.693  1.00  0.00    -0.014 A 
ATOM     64  C   UNL A   1      37.680  30.158  30.009  1.00  0.00     0.009 A 
ATOM     65  C   UNL A   1      38.724  29.471  32.083  1.00  0.00     0.009 A 
ATOM     66  C   UNL A   1      36.559  30.594  30.715  1.00  0.00     0.001 A 
ATOM     67  C   UNL A   1      37.583  29.870  32.782  1.00  0.00     0.001 A 
ATOM     68  C   UNL A   1      36.514  30.453  32.101  1.00  0.00     0.000 A 
ENDBRANCH  49  63
BRANCH  50  69
ATOM     69  C   UNL A   1      46.942  27.416  25.335  1.00  0.00    -0.014 A 
ATOM     70  C   UNL A   1      48.096  26.847  25.900  1.00  0.00     0.009 A 
ATOM     71  C   UNL A   1      46.962  27.755  23.972  1.00  0.00     0.009 A 
ATOM     72  C   UNL A   1      49.247  26.649  25.130  1.00  0.00     0.001 A 
ATOM     73  C   UNL A   1      48.107  27.533  23.199  1.00  0.00     0.001 A 
ATOM     74  C   UNL A   1      49.251  26.989  23.780  1.00  0.00     0.000 A 
ENDBRANCH  50  69
BRANCH  62  75
ATOM     75  C   UNL A   1      44.807  33.121  28.752  1.00  0.00    -0.014 A 
ATOM     76  C   UNL A   1      44.509  34.211  27.921  1.00  0.00     0.009 A 
ATOM     77  C   UNL A   1      45.596  33.329  29.895  1.00  0.00     0.009 A 
ATOM     78  C   UNL A   1      44.995  35.483  28.231  1.00  0.00     0.001 A 
ATOM     79  C   UNL A   1      46.057  34.606  30.216  1.00  0.00     0.001 A 
ATOM     80  C   UNL A   1      45.758  35.681  29.383  1.00  0.00     0.000 A 
ENDBRANCH  62  75
ENDBRANCH  36  37
ENDBRANCH  29  31
ENDBRANCH  28  29
ENDBRANCH   1  28
TORSDOF 13
ENDMDL
