MODEL 1
REMARK VINA RESULT:     -10.8      0.000      0.000
REMARK SMILES C[C@@H](C(=O)OCCOC(=O)c1ccc(-c2c3nc(c(-c4ccccc4)c4ccc([nH]4)c(-c4ccccc4)c4nc(c(-c5ccccc5)c5ccc2[nH]5)C=C4)C=C3)cc1)c1ccc(C[C@@H]2CCC[C@@H]2O)cc1
REMARK SMILES IDX 6 1 5 2 3 3 4 4 2 5 1 6 59 7 60 8 71 9 61 10 70 11 62 12
REMARK SMILES IDX 63 13 64 14 65 15 68 16 66 17 67 18 69 19 7 21 8 22 9 23
REMARK SMILES IDX 10 24 11 25 12 26 58 27 13 28 57 29 14 30 15 31 16 32 51 33
REMARK SMILES IDX 17 34 56 35 50 36 52 37 18 38 55 39 49 40 48 41 19 43 41 44
REMARK SMILES IDX 26 45 40 46 27 47 30 48 39 49 53 50 28 51 29 52 38 54 54 55
REMARK SMILES IDX 31 56 20 57 21 58 25 59 22 60 24 61 23 62 42 63 43 64 47 65
REMARK SMILES IDX 44 66 46 67 45 68 32 69 33 70 37 71 34 72 36 73 35 74
REMARK H PARENT 69 20 52 42 30 53
REMARK Flexibility Score: inf
ROOT
ATOM      1  C   UNL A   1      37.524  21.842  25.702  1.00  0.00     0.274 C 
ENDROOT
BRANCH   1   2
ATOM      2  O   UNL A   1      37.353  23.043  24.923  1.00  0.00    -0.462 OA
BRANCH   2   3
ATOM      3  C   UNL A   1      36.413  23.009  23.938  1.00  0.00     0.313 C 
ATOM      4  O   UNL A   1      36.678  22.928  22.742  1.00  0.00    -0.252 OA
BRANCH   3   5
ATOM      5  C   UNL A   1      34.983  23.133  24.484  1.00  0.00     0.126 C 
ATOM      6  C   UNL A   1      34.049  22.020  23.993  1.00  0.00     0.025 C 
BRANCH   5   7
ATOM      7  C   UNL A   1      34.423  24.539  24.269  1.00  0.00    -0.034 A 
ATOM      8  C   UNL A   1      34.430  25.451  25.339  1.00  0.00     0.005 A 
ATOM      9  C   UNL A   1      33.934  24.985  23.033  1.00  0.00     0.005 A 
ATOM     10  C   UNL A   1      33.975  26.764  25.177  1.00  0.00     0.004 A 
ATOM     11  C   UNL A   1      33.465  26.294  22.875  1.00  0.00     0.004 A 
ATOM     12  C   UNL A   1      33.485  27.201  23.943  1.00  0.00    -0.048 A 
BRANCH  12  13
ATOM     13  C   UNL A   1      33.054  28.633  23.735  1.00  0.00     0.041 C 
BRANCH  13  14
ATOM     14  C   UNL A   1      31.601  29.026  24.064  1.00  0.00     0.022 C 
ATOM     15  C   UNL A   1      30.828  27.997  24.890  1.00  0.00     0.007 C 
ATOM     16  C   UNL A   1      30.661  29.273  22.881  1.00  0.00     0.117 C 
ATOM     17  C   UNL A   1      30.033  27.156  23.888  1.00  0.00     0.003 C 
ATOM     18  C   UNL A   1      30.069  27.907  22.558  1.00  0.00     0.032 C 
BRANCH  16  19
ATOM     19  O   UNL A   1      31.290  29.864  21.762  1.00  0.00    -0.393 OA
ATOM     20  H   UNL A   1      30.909  30.743  21.603  1.00  0.00     0.210 HD
ENDBRANCH  16  19
ENDBRANCH  13  14
ENDBRANCH  12  13
ENDBRANCH   5   7
ENDBRANCH   3   5
ENDBRANCH   2   3
ENDBRANCH   1   2
BRANCH   1  21
ATOM     21  C   UNL A   1      38.997  21.443  25.717  1.00  0.00     0.275 C 
BRANCH  21  22
ATOM     22  O   UNL A   1      39.661  22.143  26.782  1.00  0.00    -0.458 OA
BRANCH  22  23
ATOM     23  C   UNL A   1      40.690  22.945  26.422  1.00  0.00     0.338 C 
ATOM     24  O   UNL A   1      41.633  22.661  25.705  1.00  0.00    -0.246 OA
BRANCH  23  25
ATOM     25  C   UNL A   1      40.521  24.274  27.042  1.00  0.00     0.060 A 
ATOM     26  C   UNL A   1      41.439  25.288  26.792  1.00  0.00     0.016 A 
ATOM     27  C   UNL A   1      39.501  24.475  27.974  1.00  0.00     0.016 A 
ATOM     28  C   UNL A   1      41.394  26.461  27.546  1.00  0.00     0.010 A 
ATOM     29  C   UNL A   1      39.413  25.692  28.666  1.00  0.00     0.010 A 
ATOM     30  C   UNL A   1      40.395  26.686  28.504  1.00  0.00    -0.014 A 
BRANCH  30  31
ATOM     31  C   UNL A   1      40.426  27.898  29.383  1.00  0.00     0.031 A 
ATOM     32  C   UNL A   1      41.575  28.120  30.342  1.00  0.00     0.074 A 
ATOM     33  C   UNL A   1      39.473  28.852  29.310  1.00  0.00     0.049 A 
ATOM     34  N   UNL A   1      41.680  28.983  31.325  1.00  0.00    -0.248 NA
ATOM     35  C   UNL A   1      42.758  27.258  30.184  1.00  0.00     0.031 C 
ATOM     36  C   UNL A   1      38.333  28.855  28.393  1.00  0.00     0.029 A 
ATOM     37  N   UNL A   1      39.332  30.029  30.010  1.00  0.00    -0.354 N 
ATOM     38  C   UNL A   1      42.884  28.697  31.960  1.00  0.00     0.074 A 
ATOM     39  C   UNL A   1      43.492  27.604  31.232  1.00  0.00     0.031 C 
ATOM     40  C   UNL A   1      37.659  30.007  28.529  1.00  0.00     0.029 A 
ATOM     41  C   UNL A   1      38.244  30.773  29.623  1.00  0.00     0.049 A 
ATOM     42  H   UNL A   1      39.951  30.310  30.722  1.00  0.00     0.167 HD
ATOM     43  C   UNL A   1      43.428  29.279  33.055  1.00  0.00     0.031 A 
ATOM     44  C   UNL A   1      37.733  31.919  30.114  1.00  0.00     0.031 A 
ATOM     45  C   UNL A   1      42.876  30.419  33.740  1.00  0.00     0.049 A 
ATOM     46  C   UNL A   1      38.346  32.548  31.330  1.00  0.00     0.074 A 
ATOM     47  C   UNL A   1      43.362  31.070  34.863  1.00  0.00     0.029 A 
ATOM     48  N   UNL A   1      41.739  31.101  33.346  1.00  0.00    -0.354 N 
ATOM     49  N   UNL A   1      39.410  32.183  32.000  1.00  0.00    -0.248 NA
ATOM     50  C   UNL A   1      37.660  33.728  31.880  1.00  0.00     0.031 C 
ATOM     51  C   UNL A   1      42.503  32.133  35.161  1.00  0.00     0.029 A 
ATOM     52  C   UNL A   1      41.507  32.167  34.200  1.00  0.00     0.049 A 
ATOM     53  H   UNL A   1      41.176  30.863  32.573  1.00  0.00     0.167 HD
ATOM     54  C   UNL A   1      39.514  33.077  33.057  1.00  0.00     0.074 A 
ATOM     55  C   UNL A   1      38.427  34.025  32.920  1.00  0.00     0.031 C 
ATOM     56  C   UNL A   1      40.419  33.097  34.064  1.00  0.00     0.031 A 
BRANCH  43  57
ATOM     57  C   UNL A   1      44.674  28.660  33.627  1.00  0.00    -0.014 A 
ATOM     58  C   UNL A   1      45.952  28.998  33.156  1.00  0.00     0.009 A 
ATOM     59  C   UNL A   1      44.560  27.761  34.700  1.00  0.00     0.009 A 
ATOM     60  C   UNL A   1      47.087  28.425  33.734  1.00  0.00     0.001 A 
ATOM     61  C   UNL A   1      45.697  27.209  35.290  1.00  0.00     0.001 A 
ATOM     62  C   UNL A   1      46.961  27.537  34.802  1.00  0.00     0.000 A 
ENDBRANCH  43  57
BRANCH  44  63
ATOM     63  C   UNL A   1      36.518  32.509  29.495  1.00  0.00    -0.014 A 
ATOM     64  C   UNL A   1      35.241  32.112  29.913  1.00  0.00     0.009 A 
ATOM     65  C   UNL A   1      36.633  33.482  28.488  1.00  0.00     0.009 A 
ATOM     66  C   UNL A   1      34.101  32.674  29.332  1.00  0.00     0.001 A 
ATOM     67  C   UNL A   1      35.493  34.063  27.931  1.00  0.00     0.001 A 
ATOM     68  C   UNL A   1      34.228  33.654  28.349  1.00  0.00     0.000 A 
ENDBRANCH  44  63
BRANCH  56  69
ATOM     69  C   UNL A   1      40.277  34.183  35.089  1.00  0.00    -0.014 A 
ATOM     70  C   UNL A   1      40.844  35.450  34.880  1.00  0.00     0.009 A 
ATOM     71  C   UNL A   1      39.553  33.946  36.267  1.00  0.00     0.009 A 
ATOM     72  C   UNL A   1      40.712  36.450  35.844  1.00  0.00     0.001 A 
ATOM     73  C   UNL A   1      39.406  34.954  37.221  1.00  0.00     0.001 A 
ATOM     74  C   UNL A   1      39.992  36.202  37.012  1.00  0.00     0.000 A 
ENDBRANCH  56  69
ENDBRANCH  30  31
ENDBRANCH  23  25
ENDBRANCH  22  23
ENDBRANCH  21  22
ENDBRANCH   1  21
TORSDOF 15
ENDMDL
MODEL 2
REMARK VINA RESULT:     -10.6      5.468      7.976
REMARK SMILES C[C@@H](C(=O)OCCOC(=O)c1ccc(-c2c3nc(c(-c4ccccc4)c4ccc([nH]4)c(-c4ccccc4)c4nc(c(-c5ccccc5)c5ccc2[nH]5)C=C4)C=C3)cc1)c1ccc(C[C@@H]2CCC[C@@H]2O)cc1
REMARK SMILES IDX 6 1 5 2 3 3 4 4 2 5 1 6 59 7 60 8 71 9 61 10 70 11 62 12
REMARK SMILES IDX 63 13 64 14 65 15 68 16 66 17 67 18 69 19 7 21 8 22 9 23
REMARK SMILES IDX 10 24 11 25 12 26 58 27 13 28 57 29 14 30 15 31 16 32 51 33
REMARK SMILES IDX 17 34 56 35 50 36 52 37 18 38 55 39 49 40 48 41 19 43 41 44
REMARK SMILES IDX 26 45 40 46 27 47 30 48 39 49 53 50 28 51 29 52 38 54 54 55
REMARK SMILES IDX 31 56 20 57 21 58 25 59 22 60 24 61 23 62 42 63 43 64 47 65
REMARK SMILES IDX 44 66 46 67 45 68 32 69 33 70 37 71 34 72 36 73 35 74
REMARK H PARENT 69 20 52 42 30 53
REMARK Flexibility Score: inf
ROOT
ATOM      1  C   UNL A   1      42.524  20.491  26.486  1.00  0.00     0.274 C 
ENDROOT
BRANCH   1   2
ATOM      2  O   UNL A   1      41.566  21.470  26.035  1.00  0.00    -0.462 OA
BRANCH   2   3
ATOM      3  C   UNL A   1      40.591  21.830  26.916  1.00  0.00     0.313 C 
ATOM      4  O   UNL A   1      40.498  21.378  28.054  1.00  0.00    -0.252 OA
BRANCH   3   5
ATOM      5  C   UNL A   1      39.591  22.826  26.314  1.00  0.00     0.126 C 
ATOM      6  C   UNL A   1      39.358  24.058  27.197  1.00  0.00     0.025 C 
BRANCH   5   7
ATOM      7  C   UNL A   1      38.300  22.131  25.883  1.00  0.00    -0.034 A 
ATOM      8  C   UNL A   1      37.088  22.840  25.934  1.00  0.00     0.005 A 
ATOM      9  C   UNL A   1      38.268  20.816  25.396  1.00  0.00     0.005 A 
ATOM     10  C   UNL A   1      35.889  22.263  25.503  1.00  0.00     0.004 A 
ATOM     11  C   UNL A   1      37.066  20.234  24.978  1.00  0.00     0.004 A 
ATOM     12  C   UNL A   1      35.863  20.952  25.021  1.00  0.00    -0.048 A 
BRANCH  12  13
ATOM     13  C   UNL A   1      34.590  20.338  24.490  1.00  0.00     0.041 C 
BRANCH  13  14
ATOM     14  C   UNL A   1      34.161  18.951  25.006  1.00  0.00     0.022 C 
ATOM     15  C   UNL A   1      34.709  17.770  24.205  1.00  0.00     0.007 C 
ATOM     16  C   UNL A   1      32.660  18.656  25.045  1.00  0.00     0.117 C 
ATOM     17  C   UNL A   1      33.612  17.382  23.212  1.00  0.00     0.003 C 
ATOM     18  C   UNL A   1      32.336  18.087  23.669  1.00  0.00     0.032 C 
BRANCH  16  19
ATOM     19  O   UNL A   1      31.862  19.778  25.364  1.00  0.00    -0.393 OA
ATOM     20  H   UNL A   1      31.928  19.963  26.314  1.00  0.00     0.210 HD
ENDBRANCH  16  19
ENDBRANCH  13  14
ENDBRANCH  12  13
ENDBRANCH   5   7
ENDBRANCH   3   5
ENDBRANCH   2   3
ENDBRANCH   1   2
BRANCH   1  21
ATOM     21  C   UNL A   1      42.625  19.361  25.466  1.00  0.00     0.275 C 
BRANCH  21  22
ATOM     22  O   UNL A   1      44.004  18.979  25.326  1.00  0.00    -0.458 OA
BRANCH  22  23
ATOM     23  C   UNL A   1      44.662  19.489  24.259  1.00  0.00     0.338 C 
ATOM     24  O   UNL A   1      44.916  18.927  23.208  1.00  0.00    -0.246 OA
BRANCH  23  25
ATOM     25  C   UNL A   1      45.058  20.883  24.543  1.00  0.00     0.060 A 
ATOM     26  C   UNL A   1      45.753  21.192  25.707  1.00  0.00     0.016 A 
ATOM     27  C   UNL A   1      44.632  21.907  23.696  1.00  0.00     0.016 A 
ATOM     28  C   UNL A   1      45.930  22.528  26.071  1.00  0.00     0.010 A 
ATOM     29  C   UNL A   1      44.890  23.244  24.028  1.00  0.00     0.010 A 
ATOM     30  C   UNL A   1      45.496  23.580  25.253  1.00  0.00    -0.014 A 
BRANCH  30  31
ATOM     31  C   UNL A   1      45.591  25.003  25.709  1.00  0.00     0.031 A 
ATOM     32  C   UNL A   1      46.886  25.772  25.558  1.00  0.00     0.074 A 
ATOM     33  C   UNL A   1      44.524  25.660  26.212  1.00  0.00     0.049 A 
ATOM     34  N   UNL A   1      47.231  26.926  26.078  1.00  0.00    -0.248 NA
ATOM     35  C   UNL A   1      47.933  25.163  24.721  1.00  0.00     0.031 C 
ATOM     36  C   UNL A   1      43.175  25.114  26.361  1.00  0.00     0.029 A 
ATOM     37  N   UNL A   1      44.405  26.954  26.667  1.00  0.00    -0.354 N 
ATOM     38  C   UNL A   1      48.559  27.127  25.718  1.00  0.00     0.074 A 
ATOM     39  C   UNL A   1      48.950  25.994  24.907  1.00  0.00     0.031 C 
ATOM     40  C   UNL A   1      42.352  26.081  26.793  1.00  0.00     0.029 A 
ATOM     41  C   UNL A   1      43.131  27.282  27.067  1.00  0.00     0.049 A 
ATOM     42  H   UNL A   1      45.160  27.583  26.704  1.00  0.00     0.167 HD
ATOM     43  C   UNL A   1      49.384  28.152  26.043  1.00  0.00     0.031 A 
ATOM     44  C   UNL A   1      42.641  28.400  27.637  1.00  0.00     0.031 A 
ATOM     45  C   UNL A   1      48.987  29.324  26.778  1.00  0.00     0.049 A 
ATOM     46  C   UNL A   1      43.569  29.524  27.993  1.00  0.00     0.074 A 
ATOM     47  C   UNL A   1      49.761  30.410  27.156  1.00  0.00     0.029 A 
ATOM     48  N   UNL A   1      47.699  29.583  27.215  1.00  0.00    -0.354 N 
ATOM     49  N   UNL A   1      44.854  29.637  27.765  1.00  0.00    -0.248 NA
ATOM     50  C   UNL A   1      42.982  30.658  28.722  1.00  0.00     0.031 C 
ATOM     51  C   UNL A   1      48.944  31.315  27.842  1.00  0.00     0.029 A 
ATOM     52  C   UNL A   1      47.655  30.811  27.855  1.00  0.00     0.049 A 
ATOM     53  H   UNL A   1      46.929  28.982  27.091  1.00  0.00     0.167 HD
ATOM     54  C   UNL A   1      45.232  30.845  28.335  1.00  0.00     0.074 A 
ATOM     55  C   UNL A   1      44.035  31.448  28.885  1.00  0.00     0.031 C 
ATOM     56  C   UNL A   1      46.466  31.397  28.410  1.00  0.00     0.031 A 
BRANCH  43  57
ATOM     57  C   UNL A   1      50.830  28.035  25.648  1.00  0.00    -0.014 A 
ATOM     58  C   UNL A   1      51.326  28.617  24.472  1.00  0.00     0.009 A 
ATOM     59  C   UNL A   1      51.721  27.371  26.508  1.00  0.00     0.009 A 
ATOM     60  C   UNL A   1      52.683  28.513  24.156  1.00  0.00     0.001 A 
ATOM     61  C   UNL A   1      53.079  27.290  26.200  1.00  0.00     0.001 A 
ATOM     62  C   UNL A   1      53.558  27.856  25.020  1.00  0.00     0.000 A 
ENDBRANCH  43  57
BRANCH  44  63
ATOM     63  C   UNL A   1      41.198  28.481  27.979  1.00  0.00    -0.014 A 
ATOM     64  C   UNL A   1      40.729  27.992  29.206  1.00  0.00     0.009 A 
ATOM     65  C   UNL A   1      40.284  29.058  27.082  1.00  0.00     0.009 A 
ATOM     66  C   UNL A   1      39.372  28.075  29.527  1.00  0.00     0.001 A 
ATOM     67  C   UNL A   1      38.934  29.166  27.418  1.00  0.00     0.001 A 
ATOM     68  C   UNL A   1      38.478  28.670  28.637  1.00  0.00     0.000 A 
ENDBRANCH  44  63
BRANCH  56  69
ATOM     69  C   UNL A   1      46.582  32.721  29.106  1.00  0.00    -0.014 A 
ATOM     70  C   UNL A   1      46.868  32.790  30.479  1.00  0.00     0.009 A 
ATOM     71  C   UNL A   1      46.425  33.911  28.381  1.00  0.00     0.009 A 
ATOM     72  C   UNL A   1      46.965  34.028  31.118  1.00  0.00     0.001 A 
ATOM     73  C   UNL A   1      46.542  35.147  29.018  1.00  0.00     0.001 A 
ATOM     74  C   UNL A   1      46.804  35.205  30.386  1.00  0.00     0.000 A 
ENDBRANCH  56  69
ENDBRANCH  30  31
ENDBRANCH  23  25
ENDBRANCH  22  23
ENDBRANCH  21  22
ENDBRANCH   1  21
TORSDOF 15
ENDMDL
MODEL 3
REMARK VINA RESULT:     -10.6      2.819      7.476
REMARK SMILES C[C@@H](C(=O)OCCOC(=O)c1ccc(-c2c3nc(c(-c4ccccc4)c4ccc([nH]4)c(-c4ccccc4)c4nc(c(-c5ccccc5)c5ccc2[nH]5)C=C4)C=C3)cc1)c1ccc(C[C@@H]2CCC[C@@H]2O)cc1
REMARK SMILES IDX 6 1 5 2 3 3 4 4 2 5 1 6 59 7 60 8 71 9 61 10 70 11 62 12
REMARK SMILES IDX 63 13 64 14 65 15 68 16 66 17 67 18 69 19 7 21 8 22 9 23
REMARK SMILES IDX 10 24 11 25 12 26 58 27 13 28 57 29 14 30 15 31 16 32 51 33
REMARK SMILES IDX 17 34 56 35 50 36 52 37 18 38 55 39 49 40 48 41 19 43 41 44
REMARK SMILES IDX 26 45 40 46 27 47 30 48 39 49 53 50 28 51 29 52 38 54 54 55
REMARK SMILES IDX 31 56 20 57 21 58 25 59 22 60 24 61 23 62 42 63 43 64 47 65
REMARK SMILES IDX 44 66 46 67 45 68 32 69 33 70 37 71 34 72 36 73 35 74
REMARK H PARENT 69 20 52 42 30 53
REMARK Flexibility Score: inf
ROOT
ATOM      1  C   UNL A   1      31.242  29.045  24.243  1.00  0.00     0.274 C 
ENDROOT
BRANCH   1   2
ATOM      2  O   UNL A   1      32.381  28.163  24.196  1.00  0.00    -0.462 OA
BRANCH   2   3
ATOM      3  C   UNL A   1      32.141  26.864  23.861  1.00  0.00     0.313 C 
ATOM      4  O   UNL A   1      31.637  26.516  22.797  1.00  0.00    -0.252 OA
BRANCH   3   5
ATOM      5  C   UNL A   1      32.524  25.887  24.980  1.00  0.00     0.126 C 
ATOM      6  C   UNL A   1      33.775  26.316  25.756  1.00  0.00     0.025 C 
BRANCH   5   7
ATOM      7  C   UNL A   1      32.587  24.447  24.468  1.00  0.00    -0.034 A 
ATOM      8  C   UNL A   1      31.630  23.519  24.912  1.00  0.00     0.005 A 
ATOM      9  C   UNL A   1      33.539  24.011  23.536  1.00  0.00     0.005 A 
ATOM     10  C   UNL A   1      31.617  22.204  24.433  1.00  0.00     0.004 A 
ATOM     11  C   UNL A   1      33.534  22.692  23.068  1.00  0.00     0.004 A 
ATOM     12  C   UNL A   1      32.570  21.775  23.506  1.00  0.00    -0.048 A 
BRANCH  12  13
ATOM     13  C   UNL A   1      32.527  20.380  22.930  1.00  0.00     0.041 C 
BRANCH  13  14
ATOM     14  C   UNL A   1      32.392  19.183  23.891  1.00  0.00     0.022 C 
ATOM     15  C   UNL A   1      33.502  19.071  24.938  1.00  0.00     0.007 C 
ATOM     16  C   UNL A   1      32.386  17.785  23.267  1.00  0.00     0.117 C 
ATOM     17  C   UNL A   1      34.526  18.086  24.370  1.00  0.00     0.003 C 
ATOM     18  C   UNL A   1      33.852  17.380  23.194  1.00  0.00     0.032 C 
BRANCH  16  19
ATOM     19  O   UNL A   1      31.748  17.722  22.007  1.00  0.00    -0.393 OA
ATOM     20  H   UNL A   1      32.374  17.390  21.344  1.00  0.00     0.210 HD
ENDBRANCH  16  19
ENDBRANCH  13  14
ENDBRANCH  12  13
ENDBRANCH   5   7
ENDBRANCH   3   5
ENDBRANCH   2   3
ENDBRANCH   1   2
BRANCH   1  21
ATOM     21  C   UNL A   1      31.355  29.969  25.452  1.00  0.00     0.275 C 
BRANCH  21  22
ATOM     22  O   UNL A   1      32.738  30.085  25.825  1.00  0.00    -0.458 OA
BRANCH  22  23
ATOM     23  C   UNL A   1      33.027  30.999  26.781  1.00  0.00     0.338 C 
ATOM     24  O   UNL A   1      32.313  31.901  27.181  1.00  0.00    -0.246 OA
BRANCH  23  25
ATOM     25  C   UNL A   1      34.387  30.756  27.301  1.00  0.00     0.060 A 
ATOM     26  C   UNL A   1      34.876  29.459  27.410  1.00  0.00     0.016 A 
ATOM     27  C   UNL A   1      35.138  31.826  27.792  1.00  0.00     0.016 A 
ATOM     28  C   UNL A   1      36.066  29.227  28.100  1.00  0.00     0.010 A 
ATOM     29  C   UNL A   1      36.375  31.589  28.408  1.00  0.00     0.010 A 
ATOM     30  C   UNL A   1      36.834  30.277  28.624  1.00  0.00    -0.014 A 
BRANCH  30  31
ATOM     31  C   UNL A   1      38.048  30.004  29.458  1.00  0.00     0.031 A 
ATOM     32  C   UNL A   1      39.243  29.291  28.863  1.00  0.00     0.074 A 
ATOM     33  C   UNL A   1      38.140  30.431  30.736  1.00  0.00     0.049 A 
ATOM     34  N   UNL A   1      40.288  28.778  29.469  1.00  0.00    -0.248 NA
ATOM     35  C   UNL A   1      39.265  29.123  27.401  1.00  0.00     0.031 C 
ATOM     36  C   UNL A   1      37.128  31.203  31.456  1.00  0.00     0.029 A 
ATOM     37  N   UNL A   1      39.160  30.296  31.650  1.00  0.00    -0.354 N 
ATOM     38  C   UNL A   1      41.031  28.143  28.479  1.00  0.00     0.074 A 
ATOM     39  C   UNL A   1      40.336  28.362  27.229  1.00  0.00     0.031 C 
ATOM     40  C   UNL A   1      37.605  31.540  32.663  1.00  0.00     0.029 A 
ATOM     41  C   UNL A   1      38.906  30.911  32.853  1.00  0.00     0.049 A 
ATOM     42  H   UNL A   1      39.992  29.805  31.461  1.00  0.00     0.167 HD
ATOM     43  C   UNL A   1      42.177  27.431  28.600  1.00  0.00     0.031 A 
ATOM     44  C   UNL A   1      39.607  30.933  34.003  1.00  0.00     0.031 A 
ATOM     45  C   UNL A   1      42.922  27.274  29.822  1.00  0.00     0.049 A 
ATOM     46  C   UNL A   1      40.873  30.135  34.120  1.00  0.00     0.074 A 
ATOM     47  C   UNL A   1      44.093  26.563  30.035  1.00  0.00     0.029 A 
ATOM     48  N   UNL A   1      42.591  27.865  31.029  1.00  0.00    -0.354 N 
ATOM     49  N   UNL A   1      41.490  29.427  33.208  1.00  0.00    -0.248 NA
ATOM     50  C   UNL A   1      41.517  30.110  35.443  1.00  0.00     0.031 C 
ATOM     51  C   UNL A   1      44.457  26.707  31.378  1.00  0.00     0.029 A 
ATOM     52  C   UNL A   1      43.535  27.539  31.989  1.00  0.00     0.049 A 
ATOM     53  H   UNL A   1      41.801  28.432  31.182  1.00  0.00     0.167 HD
ATOM     54  C   UNL A   1      42.584  28.861  33.848  1.00  0.00     0.074 A 
ATOM     55  C   UNL A   1      42.570  29.338  35.215  1.00  0.00     0.031 C 
ATOM     56  C   UNL A   1      43.508  28.006  33.348  1.00  0.00     0.031 A 
BRANCH  43  57
ATOM     57  C   UNL A   1      42.683  26.712  27.380  1.00  0.00    -0.014 A 
ATOM     58  C   UNL A   1      43.615  27.296  26.510  1.00  0.00     0.009 A 
ATOM     59  C   UNL A   1      42.252  25.397  27.134  1.00  0.00     0.009 A 
ATOM     60  C   UNL A   1      44.085  26.584  25.403  1.00  0.00     0.001 A 
ATOM     61  C   UNL A   1      42.741  24.681  26.042  1.00  0.00     0.001 A 
ATOM     62  C   UNL A   1      43.654  25.278  25.173  1.00  0.00     0.000 A 
ENDBRANCH  43  57
BRANCH  44  63
ATOM     63  C   UNL A   1      39.082  31.684  35.172  1.00  0.00    -0.014 A 
ATOM     64  C   UNL A   1      39.410  33.035  35.355  1.00  0.00     0.009 A 
ATOM     65  C   UNL A   1      38.242  31.055  36.105  1.00  0.00     0.009 A 
ATOM     66  C   UNL A   1      38.910  33.740  36.453  1.00  0.00     0.001 A 
ATOM     67  C   UNL A   1      37.721  31.770  37.184  1.00  0.00     0.001 A 
ATOM     68  C   UNL A   1      38.060  33.110  37.360  1.00  0.00     0.000 A 
ENDBRANCH  44  63
BRANCH  56  69
ATOM     69  C   UNL A   1      44.583  27.539  34.284  1.00  0.00    -0.014 A 
ATOM     70  C   UNL A   1      45.779  28.261  34.426  1.00  0.00     0.009 A 
ATOM     71  C   UNL A   1      44.393  26.378  35.049  1.00  0.00     0.009 A 
ATOM     72  C   UNL A   1      46.776  27.813  35.294  1.00  0.00     0.001 A 
ATOM     73  C   UNL A   1      45.383  25.943  35.930  1.00  0.00     0.001 A 
ATOM     74  C   UNL A   1      46.576  26.656  36.047  1.00  0.00     0.000 A 
ENDBRANCH  56  69
ENDBRANCH  30  31
ENDBRANCH  23  25
ENDBRANCH  22  23
ENDBRANCH  21  22
ENDBRANCH   1  21
TORSDOF 15
ENDMDL
