MODEL 1
REMARK VINA RESULT:     -11.8      0.000      0.000
REMARK SMILES Cc1ccc(C)c(-n2nc(C)c(/C=C(/C#N)C(=O)OCCOC(=O)c3ccc(-c4c5nc(c(-c6ccccc6)c6ccc([nH]6)c(-c6ccccc6)c6nc(c(-c7ccccc7)c7ccc4[nH]7)C=C6)C=C5)cc3)c2Cl)c1
REMARK SMILES IDX 20 1 19 2 17 3 18 4 14 5 13 6 12 7 8 8 9 9 73 10 10 11 74 12
REMARK SMILES IDX 11 13 7 14 1 15 2 16 3 17 75 18 4 19 5 20 6 21 15 22 16 23
REMARK SMILES IDX 21 24 22 25 23 26 24 27 25 28 26 29 72 30 27 31 71 32 28 33
REMARK SMILES IDX 29 34 30 35 65 36 31 37 70 38 64 39 66 40 32 41 69 42 63 43
REMARK SMILES IDX 62 44 33 46 55 47 40 48 54 49 41 50 44 51 53 52 67 53 42 54
REMARK SMILES IDX 43 55 52 57 68 58 45 59 34 60 35 61 39 62 36 63 38 64 37 65
REMARK SMILES IDX 56 66 57 67 61 68 58 69 60 70 59 71 46 72 47 73 51 74 48 75
REMARK SMILES IDX 50 76 49 77
REMARK H PARENT 66 45 44 56
REMARK Flexibility Score: inf
ROOT
ATOM      1  C   UNL A   1      36.863  21.981  24.586  1.00  0.00     0.275 C 
ENDROOT
BRANCH   1   2
ATOM      2  O   UNL A   1      35.857  20.960  24.776  1.00  0.00    -0.458 OA
BRANCH   2   3
ATOM      3  C   UNL A   1      34.907  21.248  25.706  1.00  0.00     0.349 C 
ATOM      4  O   UNL A   1      35.147  21.460  26.892  1.00  0.00    -0.245 OA
BRANCH   3   5
ATOM      5  C   UNL A   1      33.563  20.788  25.306  1.00  0.00     0.138 C 
ATOM      6  C   UNL A   1      32.310  21.289  25.443  1.00  0.00     0.040 C 
BRANCH   6   7
ATOM      7  C   UNL A   1      31.596  22.531  25.881  1.00  0.00     0.037 A 
ATOM      8  N   UNL A   1      31.405  24.802  26.010  1.00  0.00    -0.221 N 
ATOM      9  N   UNL A   1      30.495  24.330  26.842  1.00  0.00    -0.171 NA
ATOM     10  C   UNL A   1      32.072  23.767  25.400  1.00  0.00     0.140 A 
ATOM     11  C   UNL A   1      30.437  23.014  26.650  1.00  0.00     0.069 A 
ATOM     12  Cl  UNL A   1      33.359  24.154  24.333  1.00  0.00    -0.061 Cl
ATOM     13  C   UNL A   1      29.149  22.578  27.262  1.00  0.00     0.069 C 
BRANCH   8  14
ATOM     14  C   UNL A   1      31.353  26.204  25.811  1.00  0.00     0.069 A 
ATOM     15  C   UNL A   1      33.529  29.195  26.737  1.00  0.00     0.044 C 
ATOM     16  C   UNL A   1      32.468  28.342  26.106  1.00  0.00    -0.049 A 
ATOM     17  C   UNL A   1      31.689  28.875  25.072  1.00  0.00     0.004 A 
ATOM     18  C   UNL A   1      32.275  27.010  26.500  1.00  0.00     0.032 A 
ATOM     19  C   UNL A   1      30.772  28.078  24.390  1.00  0.00     0.006 A 
ATOM     20  C   UNL A   1      30.613  26.725  24.723  1.00  0.00    -0.025 A 
ATOM     21  C   UNL A   1      29.666  25.915  23.870  1.00  0.00     0.047 C 
ENDBRANCH   8  14
ENDBRANCH   6   7
BRANCH   5  22
ATOM     22  C   UNL A   1      34.017  19.456  24.727  1.00  0.00     0.107 C 
ATOM     23  N   UNL A   1      34.394  18.353  24.248  1.00  0.00    -0.192 NA
ENDBRANCH   5  22
ENDBRANCH   3   5
ENDBRANCH   2   3
ENDBRANCH   1   2
BRANCH   1  24
ATOM     24  C   UNL A   1      38.140  21.648  25.373  1.00  0.00     0.275 C 
BRANCH  24  25
ATOM     25  O   UNL A   1      38.508  22.548  26.437  1.00  0.00    -0.458 OA
BRANCH  25  26
ATOM     26  C   UNL A   1      39.785  22.451  26.884  1.00  0.00     0.338 C 
ATOM     27  O   UNL A   1      40.395  21.413  26.948  1.00  0.00    -0.246 OA
BRANCH  26  28
ATOM     28  C   UNL A   1      40.353  23.840  26.990  1.00  0.00     0.060 A 
ATOM     29  C   UNL A   1      39.654  24.961  26.494  1.00  0.00     0.016 A 
ATOM     30  C   UNL A   1      41.413  24.034  27.862  1.00  0.00     0.016 A 
ATOM     31  C   UNL A   1      39.953  26.248  26.900  1.00  0.00     0.010 A 
ATOM     32  C   UNL A   1      41.598  25.282  28.398  1.00  0.00     0.010 A 
ATOM     33  C   UNL A   1      40.890  26.383  27.905  1.00  0.00    -0.014 A 
BRANCH  33  34
ATOM     34  C   UNL A   1      41.084  27.678  28.522  1.00  0.00     0.031 A 
ATOM     35  C   UNL A   1      42.118  28.576  27.931  1.00  0.00     0.074 A 
ATOM     36  C   UNL A   1      40.193  28.078  29.449  1.00  0.00     0.049 A 
ATOM     37  N   UNL A   1      43.145  29.083  28.532  1.00  0.00    -0.248 NA
ATOM     38  C   UNL A   1      42.054  28.912  26.498  1.00  0.00     0.031 C 
ATOM     39  C   UNL A   1      38.992  27.357  29.897  1.00  0.00     0.029 A 
ATOM     40  N   UNL A   1      40.075  29.278  30.060  1.00  0.00    -0.354 N 
ATOM     41  C   UNL A   1      43.733  29.970  27.631  1.00  0.00     0.074 A 
ATOM     42  C   UNL A   1      43.109  29.719  26.357  1.00  0.00     0.031 C 
ATOM     43  C   UNL A   1      38.136  28.229  30.465  1.00  0.00     0.029 A 
ATOM     44  C   UNL A   1      38.821  29.498  30.608  1.00  0.00     0.049 A 
ATOM     45  H   UNL A   1      40.809  29.932  30.112  1.00  0.00     0.167 HD
ATOM     46  C   UNL A   1      44.485  31.017  28.078  1.00  0.00     0.031 A 
ATOM     47  C   UNL A   1      38.356  30.652  31.131  1.00  0.00     0.031 A 
ATOM     48  C   UNL A   1      44.907  30.814  29.443  1.00  0.00     0.049 A 
ATOM     49  C   UNL A   1      39.535  31.464  31.500  1.00  0.00     0.074 A 
ATOM     50  C   UNL A   1      45.642  29.860  30.115  1.00  0.00     0.029 A 
ATOM     51  N   UNL A   1      44.209  31.500  30.406  1.00  0.00    -0.354 N 
ATOM     52  N   UNL A   1      40.377  31.113  32.430  1.00  0.00    -0.248 NA
ATOM     53  C   UNL A   1      40.032  32.437  30.544  1.00  0.00     0.031 C 
ATOM     54  C   UNL A   1      44.980  29.710  31.372  1.00  0.00     0.029 A 
ATOM     55  C   UNL A   1      43.935  30.636  31.430  1.00  0.00     0.049 A 
ATOM     56  H   UNL A   1      43.950  32.449  30.368  1.00  0.00     0.167 HD
ATOM     57  C   UNL A   1      41.622  31.440  31.913  1.00  0.00     0.074 A 
ATOM     58  C   UNL A   1      41.337  32.378  30.827  1.00  0.00     0.031 C 
ATOM     59  C   UNL A   1      42.730  30.700  32.227  1.00  0.00     0.031 A 
BRANCH  46  60
ATOM     60  C   UNL A   1      44.410  32.415  27.486  1.00  0.00    -0.014 A 
ATOM     61  C   UNL A   1      43.767  33.423  28.236  1.00  0.00     0.009 A 
ATOM     62  C   UNL A   1      44.630  32.693  26.126  1.00  0.00     0.009 A 
ATOM     63  C   UNL A   1      43.252  34.575  27.627  1.00  0.00     0.001 A 
ATOM     64  C   UNL A   1      44.153  33.863  25.523  1.00  0.00     0.001 A 
ATOM     65  C   UNL A   1      43.430  34.785  26.266  1.00  0.00     0.000 A 
ENDBRANCH  46  60
BRANCH  47  66
ATOM     66  C   UNL A   1      36.980  31.170  31.101  1.00  0.00    -0.014 A 
ATOM     67  C   UNL A   1      36.349  31.579  32.282  1.00  0.00     0.009 A 
ATOM     68  C   UNL A   1      36.376  31.509  29.874  1.00  0.00     0.009 A 
ATOM     69  C   UNL A   1      35.177  32.345  32.237  1.00  0.00     0.001 A 
ATOM     70  C   UNL A   1      35.204  32.269  29.830  1.00  0.00     0.001 A 
ATOM     71  C   UNL A   1      34.615  32.702  31.013  1.00  0.00     0.000 A 
ENDBRANCH  47  66
BRANCH  59  72
ATOM     72  C   UNL A   1      42.613  29.697  33.351  1.00  0.00    -0.014 A 
ATOM     73  C   UNL A   1      42.148  28.381  33.175  1.00  0.00     0.009 A 
ATOM     74  C   UNL A   1      43.116  30.055  34.610  1.00  0.00     0.009 A 
ATOM     75  C   UNL A   1      42.145  27.470  34.237  1.00  0.00     0.001 A 
ATOM     76  C   UNL A   1      43.136  29.140  35.665  1.00  0.00     0.001 A 
ATOM     77  C   UNL A   1      42.641  27.851  35.482  1.00  0.00     0.000 A 
ENDBRANCH  59  72
ENDBRANCH  33  34
ENDBRANCH  26  28
ENDBRANCH  25  26
ENDBRANCH  24  25
ENDBRANCH   1  24
TORSDOF 14
ENDMDL
MODEL 2
REMARK VINA RESULT:     -11.8      4.172      8.978
REMARK SMILES Cc1ccc(C)c(-n2nc(C)c(/C=C(/C#N)C(=O)OCCOC(=O)c3ccc(-c4c5nc(c(-c6ccccc6)c6ccc([nH]6)c(-c6ccccc6)c6nc(c(-c7ccccc7)c7ccc4[nH]7)C=C6)C=C5)cc3)c2Cl)c1
REMARK SMILES IDX 20 1 19 2 17 3 18 4 14 5 13 6 12 7 8 8 9 9 73 10 10 11 74 12
REMARK SMILES IDX 11 13 7 14 1 15 2 16 3 17 75 18 4 19 5 20 6 21 15 22 16 23
REMARK SMILES IDX 21 24 22 25 23 26 24 27 25 28 26 29 72 30 27 31 71 32 28 33
REMARK SMILES IDX 29 34 30 35 65 36 31 37 70 38 64 39 66 40 32 41 69 42 63 43
REMARK SMILES IDX 62 44 33 46 55 47 40 48 54 49 41 50 44 51 53 52 67 53 42 54
REMARK SMILES IDX 43 55 52 57 68 58 45 59 34 60 35 61 39 62 36 63 38 64 37 65
REMARK SMILES IDX 56 66 57 67 61 68 58 69 60 70 59 71 46 72 47 73 51 74 48 75
REMARK SMILES IDX 50 76 49 77
REMARK H PARENT 66 45 44 56
REMARK Flexibility Score: inf
ROOT
ATOM      1  C   UNL A   1      35.525  32.294  31.507  1.00  0.00     0.275 C 
ENDROOT
BRANCH   1   2
ATOM      2  O   UNL A   1      34.645  33.191  30.790  1.00  0.00    -0.458 OA
BRANCH   2   3
ATOM      3  C   UNL A   1      34.999  33.442  29.501  1.00  0.00     0.349 C 
ATOM      4  O   UNL A   1      35.945  34.153  29.174  1.00  0.00    -0.245 OA
BRANCH   3   5
ATOM      5  C   UNL A   1      33.885  33.231  28.556  1.00  0.00     0.138 C 
ATOM      6  C   UNL A   1      33.543  32.234  27.703  1.00  0.00     0.040 C 
BRANCH   6   7
ATOM      7  C   UNL A   1      33.928  30.833  27.337  1.00  0.00     0.037 A 
ATOM      8  N   UNL A   1      33.457  28.786  26.445  1.00  0.00    -0.221 N 
ATOM      9  N   UNL A   1      34.613  28.635  27.064  1.00  0.00    -0.171 NA
ATOM     10  C   UNL A   1      33.019  30.082  26.564  1.00  0.00     0.140 A 
ATOM     11  C   UNL A   1      35.020  29.850  27.428  1.00  0.00     0.069 A 
ATOM     12  Cl  UNL A   1      31.489  30.483  25.898  1.00  0.00    -0.061 Cl
ATOM     13  C   UNL A   1      36.475  29.710  27.724  1.00  0.00     0.069 C 
BRANCH   8  14
ATOM     14  C   UNL A   1      33.048  27.667  25.678  1.00  0.00     0.069 A 
ATOM     15  C   UNL A   1      30.442  24.904  26.014  1.00  0.00     0.044 C 
ATOM     16  C   UNL A   1      31.490  25.816  25.449  1.00  0.00    -0.049 A 
ATOM     17  C   UNL A   1      31.773  25.766  24.078  1.00  0.00     0.004 A 
ATOM     18  C   UNL A   1      32.157  26.749  26.258  1.00  0.00     0.032 A 
ATOM     19  C   UNL A   1      32.660  26.673  23.503  1.00  0.00     0.006 A 
ATOM     20  C   UNL A   1      33.284  27.657  24.282  1.00  0.00    -0.025 A 
ATOM     21  C   UNL A   1      34.155  28.655  23.557  1.00  0.00     0.047 C 
ENDBRANCH   8  14
ENDBRANCH   6   7
BRANCH   5  22
ATOM     22  C   UNL A   1      33.232  34.588  28.774  1.00  0.00     0.107 C 
ATOM     23  N   UNL A   1      32.691  35.712  28.954  1.00  0.00    -0.192 NA
ENDBRANCH   5  22
ENDBRANCH   3   5
ENDBRANCH   2   3
ENDBRANCH   1   2
BRANCH   1  24
ATOM     24  C   UNL A   1      36.604  33.075  32.272  1.00  0.00     0.275 C 
BRANCH  24  25
ATOM     25  O   UNL A   1      37.952  32.572  32.201  1.00  0.00    -0.458 OA
BRANCH  25  26
ATOM     26  C   UNL A   1      38.748  33.131  31.257  1.00  0.00     0.338 C 
ATOM     27  O   UNL A   1      38.969  34.314  31.182  1.00  0.00    -0.246 OA
BRANCH  26  28
ATOM     28  C   UNL A   1      39.492  32.027  30.555  1.00  0.00     0.060 A 
ATOM     29  C   UNL A   1      40.901  32.028  30.470  1.00  0.00     0.016 A 
ATOM     30  C   UNL A   1      38.798  30.860  30.281  1.00  0.00     0.016 A 
ATOM     31  C   UNL A   1      41.617  30.882  30.180  1.00  0.00     0.010 A 
ATOM     32  C   UNL A   1      39.504  29.691  30.168  1.00  0.00     0.010 A 
ATOM     33  C   UNL A   1      40.902  29.704  30.095  1.00  0.00    -0.014 A 
BRANCH  33  34
ATOM     34  C   UNL A   1      41.614  28.447  30.015  1.00  0.00     0.031 A 
ATOM     35  C   UNL A   1      42.379  28.009  31.219  1.00  0.00     0.074 A 
ATOM     36  C   UNL A   1      41.383  27.655  28.951  1.00  0.00     0.049 A 
ATOM     37  N   UNL A   1      43.643  27.747  31.285  1.00  0.00    -0.248 NA
ATOM     38  C   UNL A   1      41.690  27.903  32.517  1.00  0.00     0.031 C 
ATOM     39  C   UNL A   1      40.441  27.899  27.849  1.00  0.00     0.029 A 
ATOM     40  N   UNL A   1      41.809  26.394  28.715  1.00  0.00    -0.354 N 
ATOM     41  C   UNL A   1      43.874  27.233  32.561  1.00  0.00     0.074 A 
ATOM     42  C   UNL A   1      42.674  27.485  33.317  1.00  0.00     0.031 C 
ATOM     43  C   UNL A   1      40.155  26.731  27.242  1.00  0.00     0.029 A 
ATOM     44  C   UNL A   1      41.049  25.721  27.771  1.00  0.00     0.049 A 
ATOM     45  H   UNL A   1      42.585  25.992  29.170  1.00  0.00     0.167 HD
ATOM     46  C   UNL A   1      44.933  26.405  32.796  1.00  0.00     0.031 A 
ATOM     47  C   UNL A   1      41.128  24.413  27.449  1.00  0.00     0.031 A 
ATOM     48  C   UNL A   1      45.918  26.505  31.747  1.00  0.00     0.049 A 
ATOM     49  C   UNL A   1      42.467  23.946  27.867  1.00  0.00     0.074 A 
ATOM     50  C   UNL A   1      46.691  27.516  31.214  1.00  0.00     0.029 A 
ATOM     51  N   UNL A   1      45.924  25.496  30.816  1.00  0.00    -0.354 N 
ATOM     52  N   UNL A   1      43.571  24.382  27.330  1.00  0.00    -0.248 NA
ATOM     53  C   UNL A   1      42.611  23.334  29.176  1.00  0.00     0.031 C 
ATOM     54  C   UNL A   1      46.711  27.257  29.809  1.00  0.00     0.029 A 
ATOM     55  C   UNL A   1      46.025  26.062  29.575  1.00  0.00     0.049 A 
ATOM     56  H   UNL A   1      45.865  24.532  31.006  1.00  0.00     0.167 HD
ATOM     57  C   UNL A   1      44.443  24.532  28.398  1.00  0.00     0.074 A 
ATOM     58  C   UNL A   1      43.849  23.738  29.474  1.00  0.00     0.031 C 
ATOM     59  C   UNL A   1      45.399  25.512  28.393  1.00  0.00     0.031 A 
BRANCH  46  60
ATOM     60  C   UNL A   1      44.846  25.162  33.668  1.00  0.00    -0.014 A 
ATOM     61  C   UNL A   1      43.922  24.159  33.308  1.00  0.00     0.009 A 
ATOM     62  C   UNL A   1      45.368  25.092  34.970  1.00  0.00     0.009 A 
ATOM     63  C   UNL A   1      43.446  23.230  34.242  1.00  0.00     0.001 A 
ATOM     64  C   UNL A   1      44.925  24.139  35.895  1.00  0.00     0.001 A 
ATOM     65  C   UNL A   1      43.936  23.233  35.543  1.00  0.00     0.000 A 
ENDBRANCH  46  60
BRANCH  47  66
ATOM     66  C   UNL A   1      40.040  23.516  27.034  1.00  0.00    -0.014 A 
ATOM     67  C   UNL A   1      38.788  24.034  26.681  1.00  0.00     0.009 A 
ATOM     68  C   UNL A   1      40.308  22.166  26.731  1.00  0.00     0.009 A 
ATOM     69  C   UNL A   1      37.852  23.243  26.003  1.00  0.00     0.001 A 
ATOM     70  C   UNL A   1      39.373  21.375  26.059  1.00  0.00     0.001 A 
ATOM     71  C   UNL A   1      38.151  21.920  25.679  1.00  0.00     0.000 A 
ENDBRANCH  47  66
BRANCH  59  72
ATOM     72  C   UNL A   1      45.656  26.240  27.095  1.00  0.00    -0.014 A 
ATOM     73  C   UNL A   1      44.934  27.374  26.682  1.00  0.00     0.009 A 
ATOM     74  C   UNL A   1      46.756  25.842  26.321  1.00  0.00     0.009 A 
ATOM     75  C   UNL A   1      45.276  28.059  25.511  1.00  0.00     0.001 A 
ATOM     76  C   UNL A   1      47.113  26.538  25.165  1.00  0.00     0.001 A 
ATOM     77  C   UNL A   1      46.368  27.640  24.753  1.00  0.00     0.000 A 
ENDBRANCH  59  72
ENDBRANCH  33  34
ENDBRANCH  26  28
ENDBRANCH  25  26
ENDBRANCH  24  25
ENDBRANCH   1  24
TORSDOF 14
ENDMDL
MODEL 3
REMARK VINA RESULT:     -11.6      2.727      7.648
REMARK SMILES Cc1ccc(C)c(-n2nc(C)c(/C=C(/C#N)C(=O)OCCOC(=O)c3ccc(-c4c5nc(c(-c6ccccc6)c6ccc([nH]6)c(-c6ccccc6)c6nc(c(-c7ccccc7)c7ccc4[nH]7)C=C6)C=C5)cc3)c2Cl)c1
REMARK SMILES IDX 20 1 19 2 17 3 18 4 14 5 13 6 12 7 8 8 9 9 73 10 10 11 74 12
REMARK SMILES IDX 11 13 7 14 1 15 2 16 3 17 75 18 4 19 5 20 6 21 15 22 16 23
REMARK SMILES IDX 21 24 22 25 23 26 24 27 25 28 26 29 72 30 27 31 71 32 28 33
REMARK SMILES IDX 29 34 30 35 65 36 31 37 70 38 64 39 66 40 32 41 69 42 63 43
REMARK SMILES IDX 62 44 33 46 55 47 40 48 54 49 41 50 44 51 53 52 67 53 42 54
REMARK SMILES IDX 43 55 52 57 68 58 45 59 34 60 35 61 39 62 36 63 38 64 37 65
REMARK SMILES IDX 56 66 57 67 61 68 58 69 60 70 59 71 46 72 47 73 51 74 48 75
REMARK SMILES IDX 50 76 49 77
REMARK H PARENT 66 45 44 56
REMARK Flexibility Score: inf
ROOT
ATOM      1  C   UNL A   1      32.947  28.569  25.509  1.00  0.00     0.275 C 
ENDROOT
BRANCH   1   2
ATOM      2  O   UNL A   1      31.762  28.285  24.731  1.00  0.00    -0.458 OA
BRANCH   2   3
ATOM      3  C   UNL A   1      31.045  27.204  25.141  1.00  0.00     0.349 C 
ATOM      4  O   UNL A   1      31.047  26.774  26.291  1.00  0.00    -0.245 OA
BRANCH   3   5
ATOM      5  C   UNL A   1      30.687  26.305  24.027  1.00  0.00     0.138 C 
ATOM      6  C   UNL A   1      30.756  24.964  23.832  1.00  0.00     0.040 C 
BRANCH   6   7
ATOM      7  C   UNL A   1      31.046  23.695  24.573  1.00  0.00     0.037 A 
ATOM      8  N   UNL A   1      32.097  21.679  24.772  1.00  0.00    -0.221 N 
ATOM      9  N   UNL A   1      31.190  21.692  25.731  1.00  0.00    -0.171 NA
ATOM     10  C   UNL A   1      32.062  22.858  24.068  1.00  0.00     0.140 A 
ATOM     11  C   UNL A   1      30.690  22.926  25.776  1.00  0.00     0.069 A 
ATOM     12  Cl  UNL A   1      33.109  23.025  22.718  1.00  0.00    -0.061 Cl
ATOM     13  C   UNL A   1      30.011  23.032  27.099  1.00  0.00     0.069 C 
BRANCH   8  14
ATOM     14  C   UNL A   1      32.982  20.573  24.813  1.00  0.00     0.069 A 
ATOM     15  C   UNL A   1      33.199  17.161  23.124  1.00  0.00     0.044 C 
ATOM     16  C   UNL A   1      33.548  18.387  23.915  1.00  0.00    -0.049 A 
ATOM     17  C   UNL A   1      34.862  18.557  24.367  1.00  0.00     0.004 A 
ATOM     18  C   UNL A   1      32.596  19.385  24.169  1.00  0.00     0.032 A 
ATOM     19  C   UNL A   1      35.246  19.733  25.008  1.00  0.00     0.006 A 
ATOM     20  C   UNL A   1      34.326  20.772  25.211  1.00  0.00    -0.025 A 
ATOM     21  C   UNL A   1      34.853  22.045  25.828  1.00  0.00     0.047 C 
ENDBRANCH   8  14
ENDBRANCH   6   7
BRANCH   5  22
ATOM     22  C   UNL A   1      30.265  27.405  23.064  1.00  0.00     0.107 C 
ATOM     23  N   UNL A   1      29.916  28.316  22.266  1.00  0.00    -0.192 NA
ENDBRANCH   5  22
ENDBRANCH   3   5
ENDBRANCH   2   3
ENDBRANCH   1   2
BRANCH   1  24
ATOM     24  C   UNL A   1      32.766  29.848  26.341  1.00  0.00     0.275 C 
BRANCH  24  25
ATOM     25  O   UNL A   1      33.538  29.958  27.552  1.00  0.00    -0.458 OA
BRANCH  25  26
ATOM     26  C   UNL A   1      34.196  31.129  27.736  1.00  0.00     0.338 C 
ATOM     27  O   UNL A   1      33.654  32.159  28.053  1.00  0.00    -0.246 OA
BRANCH  26  28
ATOM     28  C   UNL A   1      35.673  30.841  27.761  1.00  0.00     0.060 A 
ATOM     29  C   UNL A   1      36.584  31.722  28.382  1.00  0.00     0.016 A 
ATOM     30  C   UNL A   1      36.080  29.553  27.452  1.00  0.00     0.016 A 
ATOM     31  C   UNL A   1      37.854  31.320  28.750  1.00  0.00     0.010 A 
ATOM     32  C   UNL A   1      37.266  29.101  27.969  1.00  0.00     0.010 A 
ATOM     33  C   UNL A   1      38.156  29.982  28.592  1.00  0.00    -0.014 A 
BRANCH  33  34
ATOM     34  C   UNL A   1      39.382  29.461  29.159  1.00  0.00     0.031 A 
ATOM     35  C   UNL A   1      39.519  29.485  30.645  1.00  0.00     0.074 A 
ATOM     36  C   UNL A   1      40.227  28.804  28.344  1.00  0.00     0.049 A 
ATOM     37  N   UNL A   1      40.449  30.066  31.330  1.00  0.00    -0.248 NA
ATOM     38  C   UNL A   1      38.486  28.850  31.480  1.00  0.00     0.031 C 
ATOM     39  C   UNL A   1      40.036  28.509  26.916  1.00  0.00     0.029 A 
ATOM     40  N   UNL A   1      41.349  28.115  28.651  1.00  0.00    -0.354 N 
ATOM     41  C   UNL A   1      40.253  29.692  32.660  1.00  0.00     0.074 A 
ATOM     42  C   UNL A   1      38.957  29.065  32.711  1.00  0.00     0.031 C 
ATOM     43  C   UNL A   1      40.834  27.482  26.564  1.00  0.00     0.029 A 
ATOM     44  C   UNL A   1      41.726  27.209  27.672  1.00  0.00     0.049 A 
ATOM     45  H   UNL A   1      41.851  28.245  29.488  1.00  0.00     0.167 HD
ATOM     46  C   UNL A   1      41.293  29.689  33.542  1.00  0.00     0.031 A 
ATOM     47  C   UNL A   1      42.696  26.275  27.763  1.00  0.00     0.031 A 
ATOM     48  C   UNL A   1      42.396  30.482  33.054  1.00  0.00     0.049 A 
ATOM     49  C   UNL A   1      43.615  26.710  28.835  1.00  0.00     0.074 A 
ATOM     50  C   UNL A   1      42.574  31.799  32.684  1.00  0.00     0.029 A 
ATOM     51  N   UNL A   1      43.452  29.792  32.513  1.00  0.00    -0.354 N 
ATOM     52  N   UNL A   1      44.342  27.789  28.754  1.00  0.00    -0.248 NA
ATOM     53  C   UNL A   1      43.403  26.201  30.179  1.00  0.00     0.031 C 
ATOM     54  C   UNL A   1      43.443  31.744  31.552  1.00  0.00     0.029 A 
ATOM     55  C   UNL A   1      43.813  30.412  31.348  1.00  0.00     0.049 A 
ATOM     56  H   UNL A   1      43.876  28.990  32.895  1.00  0.00     0.167 HD
ATOM     57  C   UNL A   1      44.276  28.348  30.022  1.00  0.00     0.074 A 
ATOM     58  C   UNL A   1      43.814  27.260  30.883  1.00  0.00     0.031 C 
ATOM     59  C   UNL A   1      44.325  29.706  30.194  1.00  0.00     0.031 A 
BRANCH  46  60
ATOM     60  C   UNL A   1      41.519  28.590  34.567  1.00  0.00    -0.014 A 
ATOM     61  C   UNL A   1      42.066  28.946  35.818  1.00  0.00     0.009 A 
ATOM     62  C   UNL A   1      41.537  27.222  34.245  1.00  0.00     0.009 A 
ATOM     63  C   UNL A   1      42.718  28.008  36.628  1.00  0.00     0.001 A 
ATOM     64  C   UNL A   1      42.152  26.275  35.073  1.00  0.00     0.001 A 
ATOM     65  C   UNL A   1      42.777  26.674  36.245  1.00  0.00     0.000 A 
ENDBRANCH  46  60
BRANCH  47  66
ATOM     66  C   UNL A   1      42.727  24.939  27.149  1.00  0.00    -0.014 A 
ATOM     67  C   UNL A   1      41.897  23.918  27.628  1.00  0.00     0.009 A 
ATOM     68  C   UNL A   1      43.384  24.737  25.919  1.00  0.00     0.009 A 
ATOM     69  C   UNL A   1      41.692  22.754  26.878  1.00  0.00     0.001 A 
ATOM     70  C   UNL A   1      43.184  23.572  25.173  1.00  0.00     0.001 A 
ATOM     71  C   UNL A   1      42.322  22.589  25.646  1.00  0.00     0.000 A 
ENDBRANCH  47  66
BRANCH  59  72
ATOM     72  C   UNL A   1      44.721  30.554  29.009  1.00  0.00    -0.014 A 
ATOM     73  C   UNL A   1      46.036  30.993  28.770  1.00  0.00     0.009 A 
ATOM     74  C   UNL A   1      43.752  30.810  28.027  1.00  0.00     0.009 A 
ATOM     75  C   UNL A   1      46.359  31.703  27.608  1.00  0.00     0.001 A 
ATOM     76  C   UNL A   1      44.078  31.498  26.856  1.00  0.00     0.001 A 
ATOM     77  C   UNL A   1      45.378  31.954  26.651  1.00  0.00     0.000 A 
ENDBRANCH  59  72
ENDBRANCH  33  34
ENDBRANCH  26  28
ENDBRANCH  25  26
ENDBRANCH  24  25
ENDBRANCH   1  24
TORSDOF 14
ENDMDL
