MODEL 1
REMARK VINA RESULT:     -11.2      0.000      0.000
REMARK SMILES CCc1cccc2c3c([nH]c12)[C@](CC)(CC(=O)OCCOC(=O)c1ccc(-c2c4nc(c(-c5ccccc5)c5ccc([nH]5)c(-c5ccccc5)c5nc(c(-c6ccccc6)c6ccc2[nH]6)C=C5)C=C4)cc1)OCC3
REMARK SMILES IDX 19 1 18 2 16 3 17 4 15 5 12 6 3 7 4 8 11 9 5 10 7 11 10 12
REMARK SMILES IDX 6 13 8 14 9 15 74 17 73 18 72 19 2 20 1 21 13 22 14 23 20 24
REMARK SMILES IDX 21 25 22 26 23 27 24 28 25 29 71 30 26 31 70 32 27 33 28 34
REMARK SMILES IDX 29 35 64 36 30 37 69 38 63 39 65 40 31 41 68 42 62 43 61 44
REMARK SMILES IDX 32 46 54 47 39 48 53 49 40 50 43 51 52 52 66 53 41 54 42 55
REMARK SMILES IDX 51 57 67 58 44 59 33 60 34 61 38 62 35 63 37 64 36 65 55 66
REMARK SMILES IDX 56 67 60 68 57 69 59 70 58 71 45 72 46 73 50 74 47 75 49 76
REMARK SMILES IDX 48 77
REMARK H PARENT 10 16 65 45 43 56
REMARK Flexibility Score: inf
ROOT
ATOM      1  C   UNL A   1      33.578  30.098  26.584  1.00  0.00     0.274 C 
ENDROOT
BRANCH   1   2
ATOM      2  O   UNL A   1      33.126  28.975  27.387  1.00  0.00    -0.462 OA
BRANCH   2   3
ATOM      3  C   UNL A   1      31.936  28.449  27.037  1.00  0.00     0.309 C 
ATOM      4  O   UNL A   1      31.165  27.976  27.869  1.00  0.00    -0.252 OA
BRANCH   3   5
ATOM      5  C   UNL A   1      31.643  28.281  25.554  1.00  0.00     0.164 C 
BRANCH   5   6
ATOM      6  C   UNL A   1      31.803  27.019  24.681  1.00  0.00     0.118 C 
ATOM      7  C   UNL A   1      35.341  23.581  25.934  1.00  0.00    -0.024 A 
ATOM      8  C   UNL A   1      35.267  22.457  26.794  1.00  0.00     0.006 A 
ATOM      9  C   UNL A   1      34.134  24.308  25.780  1.00  0.00     0.049 A 
ATOM     10  C   UNL A   1      34.091  22.063  27.422  1.00  0.00     0.001 A 
ATOM     11  C   UNL A   1      32.931  23.914  26.387  1.00  0.00     0.003 A 
ATOM     12  N   UNL A   1      33.833  25.458  25.071  1.00  0.00    -0.356 N 
ATOM     13  C   UNL A   1      32.912  22.770  27.205  1.00  0.00     0.010 A 
ATOM     14  C   UNL A   1      31.921  24.822  25.966  1.00  0.00    -0.014 A 
ATOM     15  C   UNL A   1      32.527  25.846  25.278  1.00  0.00     0.052 A 
ATOM     16  H   UNL A   1      34.469  25.938  24.493  1.00  0.00     0.166 HD
ATOM     17  C   UNL A   1      30.445  24.754  26.105  1.00  0.00     0.066 C 
ATOM     18  C   UNL A   1      29.734  25.888  25.329  1.00  0.00     0.166 C 
ATOM     19  O   UNL A   1      30.507  26.504  24.285  1.00  0.00    -0.368 OA
BRANCH   7  20
ATOM     20  C   UNL A   1      36.697  23.817  25.292  1.00  0.00     0.034 C 
ATOM     21  C   UNL A   1      37.929  23.876  26.174  1.00  0.00     0.009 C 
ENDBRANCH   7  20
BRANCH   6  22
ATOM     22  C   UNL A   1      32.509  27.421  23.339  1.00  0.00     0.039 C 
ATOM     23  C   UNL A   1      33.380  28.674  23.398  1.00  0.00     0.007 C 
ENDBRANCH   6  22
ENDBRANCH   5   6
ENDBRANCH   3   5
ENDBRANCH   2   3
ENDBRANCH   1   2
BRANCH   1  24
ATOM     24  C   UNL A   1      33.332  31.432  27.292  1.00  0.00     0.275 C 
BRANCH  24  25
ATOM     25  O   UNL A   1      34.263  31.563  28.375  1.00  0.00    -0.458 OA
BRANCH  25  26
ATOM     26  C   UNL A   1      35.454  32.136  28.075  1.00  0.00     0.338 C 
ATOM     27  O   UNL A   1      35.638  33.238  27.589  1.00  0.00    -0.246 OA
BRANCH  26  28
ATOM     28  C   UNL A   1      36.460  31.341  28.806  1.00  0.00     0.060 A 
ATOM     29  C   UNL A   1      37.744  31.836  29.034  1.00  0.00     0.016 A 
ATOM     30  C   UNL A   1      36.189  29.980  28.942  1.00  0.00     0.016 A 
ATOM     31  C   UNL A   1      38.790  30.939  29.209  1.00  0.00     0.010 A 
ATOM     32  C   UNL A   1      37.236  29.082  29.079  1.00  0.00     0.010 A 
ATOM     33  C   UNL A   1      38.546  29.561  29.135  1.00  0.00    -0.014 A 
BRANCH  33  34
ATOM     34  C   UNL A   1      39.671  28.648  29.299  1.00  0.00     0.031 A 
ATOM     35  C   UNL A   1      40.070  28.470  30.710  1.00  0.00     0.074 A 
ATOM     36  C   UNL A   1      40.316  27.944  28.348  1.00  0.00     0.049 A 
ATOM     37  N   UNL A   1      41.109  28.970  31.289  1.00  0.00    -0.248 NA
ATOM     38  C   UNL A   1      39.146  27.767  31.607  1.00  0.00     0.031 C 
ATOM     39  C   UNL A   1      39.960  27.706  26.953  1.00  0.00     0.029 A 
ATOM     40  N   UNL A   1      41.456  27.205  28.496  1.00  0.00    -0.354 N 
ATOM     41  C   UNL A   1      41.046  28.545  32.607  1.00  0.00     0.074 A 
ATOM     42  C   UNL A   1      39.744  27.952  32.782  1.00  0.00     0.031 C 
ATOM     43  C   UNL A   1      40.737  26.721  26.444  1.00  0.00     0.029 A 
ATOM     44  C   UNL A   1      41.747  26.374  27.426  1.00  0.00     0.049 A 
ATOM     45  H   UNL A   1      42.023  27.257  29.299  1.00  0.00     0.167 HD
ATOM     46  C   UNL A   1      42.139  28.539  33.415  1.00  0.00     0.031 A 
ATOM     47  C   UNL A   1      42.734  25.449  27.364  1.00  0.00     0.031 A 
ATOM     48  C   UNL A   1      43.221  29.314  32.868  1.00  0.00     0.049 A 
ATOM     49  C   UNL A   1      43.756  25.810  28.372  1.00  0.00     0.074 A 
ATOM     50  C   UNL A   1      43.380  30.642  32.523  1.00  0.00     0.029 A 
ATOM     51  N   UNL A   1      44.237  28.637  32.236  1.00  0.00    -0.354 N 
ATOM     52  N   UNL A   1      44.535  26.848  28.269  1.00  0.00    -0.248 NA
ATOM     53  C   UNL A   1      43.655  25.236  29.704  1.00  0.00     0.031 C 
ATOM     54  C   UNL A   1      44.181  30.626  31.345  1.00  0.00     0.029 A 
ATOM     55  C   UNL A   1      44.503  29.297  31.063  1.00  0.00     0.049 A 
ATOM     56  H   UNL A   1      44.690  27.827  32.565  1.00  0.00     0.167 HD
ATOM     57  C   UNL A   1      44.669  27.319  29.566  1.00  0.00     0.074 A 
ATOM     58  C   UNL A   1      44.214  26.220  30.414  1.00  0.00     0.031 C 
ATOM     59  C   UNL A   1      44.867  28.646  29.820  1.00  0.00     0.031 A 
BRANCH  46  60
ATOM     60  C   UNL A   1      42.324  27.566  34.546  1.00  0.00    -0.014 A 
ATOM     61  C   UNL A   1      41.821  27.783  35.844  1.00  0.00     0.009 A 
ATOM     62  C   UNL A   1      42.819  26.283  34.269  1.00  0.00     0.009 A 
ATOM     63  C   UNL A   1      41.826  26.785  36.821  1.00  0.00     0.001 A 
ATOM     64  C   UNL A   1      42.779  25.264  35.228  1.00  0.00     0.001 A 
ATOM     65  C   UNL A   1      42.285  25.517  36.504  1.00  0.00     0.000 A 
ENDBRANCH  46  60
BRANCH  47  66
ATOM     66  C   UNL A   1      42.727  24.135  26.688  1.00  0.00    -0.014 A 
ATOM     67  C   UNL A   1      41.721  23.198  26.982  1.00  0.00     0.009 A 
ATOM     68  C   UNL A   1      43.854  23.687  25.981  1.00  0.00     0.009 A 
ATOM     69  C   UNL A   1      41.858  21.851  26.631  1.00  0.00     0.001 A 
ATOM     70  C   UNL A   1      43.993  22.336  25.633  1.00  0.00     0.001 A 
ATOM     71  C   UNL A   1      43.004  21.416  25.974  1.00  0.00     0.000 A 
ENDBRANCH  47  66
BRANCH  59  72
ATOM     72  C   UNL A   1      45.189  29.562  28.658  1.00  0.00    -0.014 A 
ATOM     73  C   UNL A   1      46.525  29.946  28.457  1.00  0.00     0.009 A 
ATOM     74  C   UNL A   1      44.197  30.193  27.885  1.00  0.00     0.009 A 
ATOM     75  C   UNL A   1      46.857  30.936  27.527  1.00  0.00     0.001 A 
ATOM     76  C   UNL A   1      44.532  31.163  26.934  1.00  0.00     0.001 A 
ATOM     77  C   UNL A   1      45.861  31.542  26.765  1.00  0.00     0.000 A 
ENDBRANCH  59  72
ENDBRANCH  33  34
ENDBRANCH  26  28
ENDBRANCH  25  26
ENDBRANCH  24  25
ENDBRANCH   1  24
TORSDOF 14
ENDMDL
MODEL 2
REMARK VINA RESULT:     -10.7      2.926      7.831
REMARK SMILES CCc1cccc2c3c([nH]c12)[C@](CC)(CC(=O)OCCOC(=O)c1ccc(-c2c4nc(c(-c5ccccc5)c5ccc([nH]5)c(-c5ccccc5)c5nc(c(-c6ccccc6)c6ccc2[nH]6)C=C5)C=C4)cc1)OCC3
REMARK SMILES IDX 19 1 18 2 16 3 17 4 15 5 12 6 3 7 4 8 11 9 5 10 7 11 10 12
REMARK SMILES IDX 6 13 8 14 9 15 74 17 73 18 72 19 2 20 1 21 13 22 14 23 20 24
REMARK SMILES IDX 21 25 22 26 23 27 24 28 25 29 71 30 26 31 70 32 27 33 28 34
REMARK SMILES IDX 29 35 64 36 30 37 69 38 63 39 65 40 31 41 68 42 62 43 61 44
REMARK SMILES IDX 32 46 54 47 39 48 53 49 40 50 43 51 52 52 66 53 41 54 42 55
REMARK SMILES IDX 51 57 67 58 44 59 33 60 34 61 38 62 35 63 37 64 36 65 55 66
REMARK SMILES IDX 56 67 60 68 57 69 59 70 58 71 45 72 46 73 50 74 47 75 49 76
REMARK SMILES IDX 48 77
REMARK H PARENT 10 16 65 45 43 56
REMARK Flexibility Score: inf
ROOT
ATOM      1  C   UNL A   1      37.582  22.215  25.878  1.00  0.00     0.274 C 
ENDROOT
BRANCH   1   2
ATOM      2  O   UNL A   1      37.436  23.026  24.681  1.00  0.00    -0.462 OA
BRANCH   2   3
ATOM      3  C   UNL A   1      36.402  22.704  23.881  1.00  0.00     0.309 C 
ATOM      4  O   UNL A   1      36.411  22.950  22.677  1.00  0.00    -0.252 OA
BRANCH   3   5
ATOM      5  C   UNL A   1      35.130  22.190  24.536  1.00  0.00     0.164 C 
BRANCH   5   6
ATOM      6  C   UNL A   1      33.766  22.899  24.672  1.00  0.00     0.118 C 
ATOM      7  C   UNL A   1      33.653  27.968  25.127  1.00  0.00    -0.024 A 
ATOM      8  C   UNL A   1      33.600  28.979  24.135  1.00  0.00     0.006 A 
ATOM      9  C   UNL A   1      33.628  26.637  24.639  1.00  0.00     0.049 A 
ATOM     10  C   UNL A   1      33.495  28.700  22.778  1.00  0.00     0.001 A 
ATOM     11  C   UNL A   1      33.500  26.334  23.274  1.00  0.00     0.003 A 
ATOM     12  N   UNL A   1      33.703  25.415  25.285  1.00  0.00    -0.356 N 
ATOM     13  C   UNL A   1      33.419  27.382  22.339  1.00  0.00     0.010 A 
ATOM     14  C   UNL A   1      33.441  24.918  23.152  1.00  0.00    -0.014 A 
ATOM     15  C   UNL A   1      33.715  24.373  24.384  1.00  0.00     0.052 A 
ATOM     16  H   UNL A   1      33.742  25.304  26.262  1.00  0.00     0.166 HD
ATOM     17  C   UNL A   1      33.080  24.065  21.993  1.00  0.00     0.066 C 
ATOM     18  C   UNL A   1      32.978  22.571  22.380  1.00  0.00     0.166 C 
ATOM     19  O   UNL A   1      32.789  22.304  23.780  1.00  0.00    -0.368 OA
BRANCH   7  20
ATOM     20  C   UNL A   1      33.704  28.467  26.560  1.00  0.00     0.034 C 
ATOM     21  C   UNL A   1      32.528  28.194  27.479  1.00  0.00     0.009 C 
ENDBRANCH   7  20
BRANCH   6  22
ATOM     22  C   UNL A   1      33.208  22.646  26.116  1.00  0.00     0.039 C 
ATOM     23  C   UNL A   1      34.227  22.751  27.248  1.00  0.00     0.007 C 
ENDBRANCH   6  22
ENDBRANCH   5   6
ENDBRANCH   3   5
ENDBRANCH   2   3
ENDBRANCH   1   2
BRANCH   1  24
ATOM     24  C   UNL A   1      38.979  21.597  25.974  1.00  0.00     0.275 C 
BRANCH  24  25
ATOM     25  O   UNL A   1      39.732  22.304  26.969  1.00  0.00    -0.458 OA
BRANCH  25  26
ATOM     26  C   UNL A   1      41.052  22.471  26.713  1.00  0.00     0.338 C 
ATOM     27  O   UNL A   1      41.790  21.704  26.120  1.00  0.00    -0.246 OA
BRANCH  26  28
ATOM     28  C   UNL A   1      41.311  23.906  26.944  1.00  0.00     0.060 A 
ATOM     29  C   UNL A   1      42.229  24.327  27.907  1.00  0.00     0.016 A 
ATOM     30  C   UNL A   1      40.372  24.794  26.422  1.00  0.00     0.016 A 
ATOM     31  C   UNL A   1      42.075  25.583  28.479  1.00  0.00     0.010 A 
ATOM     32  C   UNL A   1      40.192  26.033  27.018  1.00  0.00     0.010 A 
ATOM     33  C   UNL A   1      40.997  26.394  28.100  1.00  0.00    -0.014 A 
BRANCH  33  34
ATOM     34  C   UNL A   1      40.850  27.697  28.738  1.00  0.00     0.031 A 
ATOM     35  C   UNL A   1      41.855  28.680  28.283  1.00  0.00     0.074 A 
ATOM     36  C   UNL A   1      39.908  28.091  29.617  1.00  0.00     0.049 A 
ATOM     37  N   UNL A   1      42.885  29.094  28.940  1.00  0.00    -0.248 NA
ATOM     38  C   UNL A   1      41.776  29.159  26.898  1.00  0.00     0.031 C 
ATOM     39  C   UNL A   1      38.661  27.443  30.008  1.00  0.00     0.029 A 
ATOM     40  N   UNL A   1      39.866  29.266  30.314  1.00  0.00    -0.354 N 
ATOM     41  C   UNL A   1      43.532  29.988  28.100  1.00  0.00     0.074 A 
ATOM     42  C   UNL A   1      42.902  29.863  26.809  1.00  0.00     0.031 C 
ATOM     43  C   UNL A   1      37.890  28.314  30.701  1.00  0.00     0.029 A 
ATOM     44  C   UNL A   1      38.655  29.524  30.937  1.00  0.00     0.049 A 
ATOM     45  H   UNL A   1      40.634  29.880  30.368  1.00  0.00     0.167 HD
ATOM     46  C   UNL A   1      44.416  30.907  28.570  1.00  0.00     0.031 A 
ATOM     47  C   UNL A   1      38.301  30.662  31.579  1.00  0.00     0.031 A 
ATOM     48  C   UNL A   1      44.836  30.616  29.915  1.00  0.00     0.049 A 
ATOM     49  C   UNL A   1      39.544  31.368  31.965  1.00  0.00     0.074 A 
ATOM     50  C   UNL A   1      45.488  29.557  30.516  1.00  0.00     0.029 A 
ATOM     51  N   UNL A   1      44.243  31.322  30.936  1.00  0.00    -0.354 N 
ATOM     52  N   UNL A   1      40.359  30.941  32.885  1.00  0.00    -0.248 NA
ATOM     53  C   UNL A   1      40.093  32.359  31.055  1.00  0.00     0.031 C 
ATOM     54  C   UNL A   1      44.870  29.416  31.793  1.00  0.00     0.029 A 
ATOM     55  C   UNL A   1      43.909  30.422  31.916  1.00  0.00     0.049 A 
ATOM     56  H   UNL A   1      44.088  32.293  30.959  1.00  0.00     0.167 HD
ATOM     57  C   UNL A   1      41.623  31.264  32.413  1.00  0.00     0.074 A 
ATOM     58  C   UNL A   1      41.390  32.241  31.353  1.00  0.00     0.031 C 
ATOM     59  C   UNL A   1      42.713  30.503  32.730  1.00  0.00     0.031 A 
BRANCH  46  60
ATOM     60  C   UNL A   1      44.650  32.239  27.913  1.00  0.00    -0.014 A 
ATOM     61  C   UNL A   1      45.570  32.435  26.864  1.00  0.00     0.009 A 
ATOM     62  C   UNL A   1      43.769  33.297  28.185  1.00  0.00     0.009 A 
ATOM     63  C   UNL A   1      45.626  33.625  26.136  1.00  0.00     0.001 A 
ATOM     64  C   UNL A   1      43.787  34.472  27.424  1.00  0.00     0.001 A 
ATOM     65  C   UNL A   1      44.717  34.636  26.402  1.00  0.00     0.000 A 
ENDBRANCH  46  60
BRANCH  47  66
ATOM     66  C   UNL A   1      36.976  31.310  31.645  1.00  0.00    -0.014 A 
ATOM     67  C   UNL A   1      36.337  31.727  30.463  1.00  0.00     0.009 A 
ATOM     68  C   UNL A   1      36.468  31.783  32.866  1.00  0.00     0.009 A 
ATOM     69  C   UNL A   1      35.264  32.624  30.495  1.00  0.00     0.001 A 
ATOM     70  C   UNL A   1      35.397  32.686  32.897  1.00  0.00     0.001 A 
ATOM     71  C   UNL A   1      34.807  33.119  31.711  1.00  0.00     0.000 A 
ENDBRANCH  47  66
BRANCH  59  72
ATOM     72  C   UNL A   1      42.565  29.448  33.807  1.00  0.00    -0.014 A 
ATOM     73  C   UNL A   1      41.972  28.222  33.467  1.00  0.00     0.009 A 
ATOM     74  C   UNL A   1      42.821  29.704  35.166  1.00  0.00     0.009 A 
ATOM     75  C   UNL A   1      41.634  27.288  34.451  1.00  0.00     0.001 A 
ATOM     76  C   UNL A   1      42.509  28.758  36.149  1.00  0.00     0.001 A 
ATOM     77  C   UNL A   1      41.904  27.556  35.790  1.00  0.00     0.000 A 
ENDBRANCH  59  72
ENDBRANCH  33  34
ENDBRANCH  26  28
ENDBRANCH  25  26
ENDBRANCH  24  25
ENDBRANCH   1  24
TORSDOF 14
ENDMDL
MODEL 3
REMARK VINA RESULT:     -10.5      4.728     10.392
REMARK SMILES CCc1cccc2c3c([nH]c12)[C@](CC)(CC(=O)OCCOC(=O)c1ccc(-c2c4nc(c(-c5ccccc5)c5ccc([nH]5)c(-c5ccccc5)c5nc(c(-c6ccccc6)c6ccc2[nH]6)C=C5)C=C4)cc1)OCC3
REMARK SMILES IDX 19 1 18 2 16 3 17 4 15 5 12 6 3 7 4 8 11 9 5 10 7 11 10 12
REMARK SMILES IDX 6 13 8 14 9 15 74 17 73 18 72 19 2 20 1 21 13 22 14 23 20 24
REMARK SMILES IDX 21 25 22 26 23 27 24 28 25 29 71 30 26 31 70 32 27 33 28 34
REMARK SMILES IDX 29 35 64 36 30 37 69 38 63 39 65 40 31 41 68 42 62 43 61 44
REMARK SMILES IDX 32 46 54 47 39 48 53 49 40 50 43 51 52 52 66 53 41 54 42 55
REMARK SMILES IDX 51 57 67 58 44 59 33 60 34 61 38 62 35 63 37 64 36 65 55 66
REMARK SMILES IDX 56 67 60 68 57 69 59 70 58 71 45 72 46 73 50 74 47 75 49 76
REMARK SMILES IDX 48 77
REMARK H PARENT 10 16 65 45 43 56
REMARK Flexibility Score: inf
ROOT
ATOM      1  C   UNL A   1      43.505  21.706  25.174  1.00  0.00     0.274 C 
ENDROOT
BRANCH   1   2
ATOM      2  O   UNL A   1      44.720  22.028  25.903  1.00  0.00    -0.462 OA
BRANCH   2   3
ATOM      3  C   UNL A   1      45.599  22.814  25.252  1.00  0.00     0.309 C 
ATOM      4  O   UNL A   1      46.795  22.539  25.192  1.00  0.00    -0.252 OA
BRANCH   3   5
ATOM      5  C   UNL A   1      45.108  24.161  24.745  1.00  0.00     0.164 C 
BRANCH   5   6
ATOM      6  C   UNL A   1      45.215  25.541  25.428  1.00  0.00     0.118 C 
ATOM      7  C   UNL A   1      45.809  25.757  30.478  1.00  0.00    -0.024 A 
ATOM      8  C   UNL A   1      46.987  25.750  31.267  1.00  0.00     0.006 A 
ATOM      9  C   UNL A   1      46.017  25.727  29.077  1.00  0.00     0.049 A 
ATOM     10  C   UNL A   1      48.263  25.750  30.717  1.00  0.00     0.001 A 
ATOM     11  C   UNL A   1      47.297  25.749  28.501  1.00  0.00     0.003 A 
ATOM     12  N   UNL A   1      45.132  25.684  28.013  1.00  0.00    -0.356 N 
ATOM     13  C   UNL A   1      48.429  25.775  29.336  1.00  0.00     0.010 A 
ATOM     14  C   UNL A   1      47.132  25.779  27.089  1.00  0.00    -0.014 A 
ATOM     15  C   UNL A   1      45.799  25.590  26.811  1.00  0.00     0.052 A 
ATOM     16  H   UNL A   1      44.152  25.716  28.102  1.00  0.00     0.166 HD
ATOM     17  C   UNL A   1      48.116  26.041  26.010  1.00  0.00     0.066 C 
ATOM     18  C   UNL A   1      47.442  26.152  24.622  1.00  0.00     0.166 C 
ATOM     19  O   UNL A   1      46.033  26.440  24.638  1.00  0.00    -0.368 OA
BRANCH   7  20
ATOM     20  C   UNL A   1      44.507  25.819  31.258  1.00  0.00     0.034 C 
ATOM     21  C   UNL A   1      44.189  24.716  32.251  1.00  0.00     0.009 C 
ENDBRANCH   7  20
BRANCH   6  22
ATOM     22  C   UNL A   1      43.792  26.201  25.455  1.00  0.00     0.039 C 
ATOM     23  C   UNL A   1      42.624  25.272  25.132  1.00  0.00     0.007 C 
ENDBRANCH   6  22
ENDBRANCH   5   6
ENDBRANCH   3   5
ENDBRANCH   2   3
ENDBRANCH   1   2
BRANCH   1  24
ATOM     24  C   UNL A   1      42.439  21.104  26.092  1.00  0.00     0.275 C 
BRANCH  24  25
ATOM     25  O   UNL A   1      41.926  22.134  26.947  1.00  0.00    -0.458 OA
BRANCH  25  26
ATOM     26  C   UNL A   1      40.659  22.544  26.696  1.00  0.00     0.338 C 
ATOM     27  O   UNL A   1      39.794  21.934  26.092  1.00  0.00    -0.246 OA
BRANCH  26  28
ATOM     28  C   UNL A   1      40.428  23.672  27.620  1.00  0.00     0.060 A 
ATOM     29  C   UNL A   1      39.295  24.478  27.505  1.00  0.00     0.016 A 
ATOM     30  C   UNL A   1      41.530  24.098  28.361  1.00  0.00     0.016 A 
ATOM     31  C   UNL A   1      39.348  25.785  27.973  1.00  0.00     0.010 A 
ATOM     32  C   UNL A   1      41.599  25.412  28.795  1.00  0.00     0.010 A 
ATOM     33  C   UNL A   1      40.535  26.277  28.531  1.00  0.00    -0.014 A 
BRANCH  33  34
ATOM     34  C   UNL A   1      40.565  27.661  28.989  1.00  0.00     0.031 A 
ATOM     35  C   UNL A   1      41.606  28.468  28.322  1.00  0.00     0.074 A 
ATOM     36  C   UNL A   1      39.745  28.261  29.875  1.00  0.00     0.049 A 
ATOM     37  N   UNL A   1      42.726  28.860  28.831  1.00  0.00    -0.248 NA
ATOM     38  C   UNL A   1      41.444  28.765  26.894  1.00  0.00     0.031 C 
ATOM     39  C   UNL A   1      38.487  27.799  30.450  1.00  0.00     0.029 A 
ATOM     40  N   UNL A   1      39.872  29.516  30.401  1.00  0.00    -0.354 N 
ATOM     41  C   UNL A   1      43.370  29.565  27.825  1.00  0.00     0.074 A 
ATOM     42  C   UNL A   1      42.615  29.334  26.619  1.00  0.00     0.031 C 
ATOM     43  C   UNL A   1      37.864  28.828  31.073  1.00  0.00     0.029 A 
ATOM     44  C   UNL A   1      38.752  29.975  31.075  1.00  0.00     0.049 A 
ATOM     45  H   UNL A   1      40.694  30.051  30.307  1.00  0.00     0.167 HD
ATOM     46  C   UNL A   1      44.372  30.443  28.090  1.00  0.00     0.031 A 
ATOM     47  C   UNL A   1      38.562  31.219  31.576  1.00  0.00     0.031 A 
ATOM     48  C   UNL A   1      44.885  30.293  29.426  1.00  0.00     0.049 A 
ATOM     49  C   UNL A   1      39.892  31.840  31.760  1.00  0.00     0.074 A 
ATOM     50  C   UNL A   1      45.493  29.263  30.117  1.00  0.00     0.029 A 
ATOM     51  N   UNL A   1      44.454  31.184  30.381  1.00  0.00    -0.354 N 
ATOM     52  N   UNL A   1      40.747  31.459  32.663  1.00  0.00    -0.248 NA
ATOM     53  C   UNL A   1      40.441  32.641  30.678  1.00  0.00     0.031 C 
ATOM     54  C   UNL A   1      44.985  29.356  31.445  1.00  0.00     0.029 A 
ATOM     55  C   UNL A   1      44.133  30.460  31.501  1.00  0.00     0.049 A 
ATOM     56  H   UNL A   1      44.389  32.161  30.279  1.00  0.00     0.167 HD
ATOM     57  C   UNL A   1      41.986  31.587  32.053  1.00  0.00     0.074 A 
ATOM     58  C   UNL A   1      41.745  32.433  30.887  1.00  0.00     0.031 C 
ATOM     59  C   UNL A   1      43.028  30.769  32.387  1.00  0.00     0.031 A 
BRANCH  46  60
ATOM     60  C   UNL A   1      44.662  31.646  27.236  1.00  0.00    -0.014 A 
ATOM     61  C   UNL A   1      43.782  32.738  27.110  1.00  0.00     0.009 A 
ATOM     62  C   UNL A   1      45.953  31.813  26.710  1.00  0.00     0.009 A 
ATOM     63  C   UNL A   1      44.155  33.927  26.479  1.00  0.00     0.001 A 
ATOM     64  C   UNL A   1      46.348  33.021  26.123  1.00  0.00     0.001 A 
ATOM     65  C   UNL A   1      45.448  34.076  26.006  1.00  0.00     0.000 A 
ENDBRANCH  46  60
BRANCH  47  66
ATOM     66  C   UNL A   1      37.310  32.000  31.654  1.00  0.00    -0.014 A 
ATOM     67  C   UNL A   1      36.731  32.278  32.905  1.00  0.00     0.009 A 
ATOM     68  C   UNL A   1      36.531  32.223  30.507  1.00  0.00     0.009 A 
ATOM     69  C   UNL A   1      35.406  32.711  33.012  1.00  0.00     0.001 A 
ATOM     70  C   UNL A   1      35.202  32.653  30.614  1.00  0.00     0.001 A 
ATOM     71  C   UNL A   1      34.634  32.880  31.866  1.00  0.00     0.000 A 
ENDBRANCH  47  66
BRANCH  59  72
ATOM     72  C   UNL A   1      42.887  29.887  33.610  1.00  0.00    -0.014 A 
ATOM     73  C   UNL A   1      42.211  28.663  33.478  1.00  0.00     0.009 A 
ATOM     74  C   UNL A   1      43.233  30.314  34.905  1.00  0.00     0.009 A 
ATOM     75  C   UNL A   1      41.880  27.898  34.602  1.00  0.00     0.001 A 
ATOM     76  C   UNL A   1      42.928  29.536  36.027  1.00  0.00     0.001 A 
ATOM     77  C   UNL A   1      42.240  28.335  35.874  1.00  0.00     0.000 A 
ENDBRANCH  59  72
ENDBRANCH  33  34
ENDBRANCH  26  28
ENDBRANCH  25  26
ENDBRANCH  24  25
ENDBRANCH   1  24
TORSDOF 14
ENDMDL
