MODEL 1
REMARK VINA RESULT:     -12.2      0.000      0.000
REMARK SMILES O=C(OCCOC(=O)[C@]1(NC(=O)C2CCN(C(=O)C3CC3)CC2)CCCc2ccccc21)c1ccc(-c2c3nc(c(-c4ccccc4)c4ccc([nH]4)c(-c4ccccc4)c4nc(c(-c5ccccc5)c5ccc2[nH]5)C=C4)C=C3)cc1
REMARK SMILES IDX 5 1 4 2 3 3 2 4 1 5 33 6 34 7 80 8 35 9 79 10 36 11 37 12
REMARK SMILES IDX 38 13 73 14 39 15 78 16 72 17 74 18 40 19 77 20 71 21 70 22
REMARK SMILES IDX 41 24 63 25 48 26 62 27 49 28 52 29 61 30 75 31 50 32 51 33
REMARK SMILES IDX 60 35 76 36 53 37 42 38 43 39 47 40 44 41 46 42 45 43 64 44
REMARK SMILES IDX 65 45 69 46 66 47 68 48 67 49 54 50 55 51 59 52 56 53 58 54
REMARK SMILES IDX 57 55 6 56 7 57 8 58 9 59 24 60 32 61 25 62 27 63 31 64
REMARK SMILES IDX 26 65 28 66 30 67 29 68 10 69 11 70 12 72 13 73 14 74 23 75
REMARK SMILES IDX 15 76 22 77 16 78 17 79 18 80 19 81 20 82 21 83
REMARK H PARENT 74 23 52 34 10 71
REMARK Flexibility Score: inf
ROOT
ATOM      1  C   UNL A   1      35.156  21.424  26.536  1.00  0.00     0.274 C 
ENDROOT
BRANCH   1   2
ATOM      2  C   UNL A   1      35.397  21.138  25.054  1.00  0.00     0.275 C 
BRANCH   2   3
ATOM      3  O   UNL A   1      36.720  21.429  24.618  1.00  0.00    -0.458 OA
BRANCH   3   4
ATOM      4  C   UNL A   1      37.886  21.072  25.194  1.00  0.00     0.338 C 
ATOM      5  O   UNL A   1      38.174  19.875  25.197  1.00  0.00    -0.246 OA
BRANCH   4   6
ATOM      6  C   UNL A   1      38.817  22.016  25.914  1.00  0.00     0.060 A 
ATOM      7  C   UNL A   1      40.029  21.733  26.571  1.00  0.00     0.016 A 
ATOM      8  C   UNL A   1      38.468  23.365  25.787  1.00  0.00     0.016 A 
ATOM      9  C   UNL A   1      40.939  22.742  26.939  1.00  0.00     0.010 A 
ATOM     10  C   UNL A   1      39.380  24.364  26.115  1.00  0.00     0.010 A 
ATOM     11  C   UNL A   1      40.645  24.070  26.671  1.00  0.00    -0.014 A 
BRANCH  11  12
ATOM     12  C   UNL A   1      41.517  25.214  27.057  1.00  0.00     0.031 A 
ATOM     13  C   UNL A   1      40.871  26.236  27.946  1.00  0.00     0.074 A 
ATOM     14  C   UNL A   1      42.735  25.468  26.531  1.00  0.00     0.049 A 
ATOM     15  N   UNL A   1      41.155  27.497  28.112  1.00  0.00    -0.248 NA
ATOM     16  C   UNL A   1      39.631  25.796  28.617  1.00  0.00     0.031 C 
ATOM     17  C   UNL A   1      43.500  24.608  25.631  1.00  0.00     0.029 A 
ATOM     18  N   UNL A   1      43.525  26.589  26.653  1.00  0.00    -0.354 N 
ATOM     19  C   UNL A   1      40.075  27.994  28.822  1.00  0.00     0.074 A 
ATOM     20  C   UNL A   1      39.064  26.966  28.841  1.00  0.00     0.031 C 
ATOM     21  C   UNL A   1      44.623  25.247  25.246  1.00  0.00     0.029 A 
ATOM     22  C   UNL A   1      44.665  26.560  25.881  1.00  0.00     0.049 A 
ATOM     23  H   UNL A   1      43.295  27.345  27.240  1.00  0.00     0.167 HD
ATOM     24  C   UNL A   1      39.972  29.141  29.527  1.00  0.00     0.031 A 
ATOM     25  C   UNL A   1      45.631  27.490  25.726  1.00  0.00     0.031 A 
ATOM     26  C   UNL A   1      41.045  30.076  29.641  1.00  0.00     0.049 A 
ATOM     27  C   UNL A   1      45.543  28.767  26.529  1.00  0.00     0.074 A 
ATOM     28  C   UNL A   1      41.140  31.195  30.441  1.00  0.00     0.029 A 
ATOM     29  N   UNL A   1      42.243  29.960  28.949  1.00  0.00    -0.354 N 
ATOM     30  N   UNL A   1      44.574  29.188  27.307  1.00  0.00    -0.248 NA
ATOM     31  C   UNL A   1      46.704  29.668  26.479  1.00  0.00     0.031 C 
ATOM     32  C   UNL A   1      42.398  31.769  30.221  1.00  0.00     0.029 A 
ATOM     33  C   UNL A   1      43.093  30.982  29.312  1.00  0.00     0.049 A 
ATOM     34  H   UNL A   1      42.453  29.253  28.297  1.00  0.00     0.167 HD
ATOM     35  C   UNL A   1      45.039  30.359  27.897  1.00  0.00     0.074 A 
ATOM     36  C   UNL A   1      46.367  30.593  27.368  1.00  0.00     0.031 C 
ATOM     37  C   UNL A   1      44.432  31.156  28.809  1.00  0.00     0.031 A 
BRANCH  24  38
ATOM     38  C   UNL A   1      38.687  29.338  30.278  1.00  0.00    -0.014 A 
ATOM     39  C   UNL A   1      37.625  30.067  29.705  1.00  0.00     0.009 A 
ATOM     40  C   UNL A   1      38.579  28.916  31.607  1.00  0.00     0.009 A 
ATOM     41  C   UNL A   1      36.544  30.477  30.484  1.00  0.00     0.001 A 
ATOM     42  C   UNL A   1      37.466  29.278  32.369  1.00  0.00     0.001 A 
ATOM     43  C   UNL A   1      36.468  30.084  31.817  1.00  0.00     0.000 A 
ENDBRANCH  24  38
BRANCH  25  44
ATOM     44  C   UNL A   1      46.818  27.231  24.863  1.00  0.00    -0.014 A 
ATOM     45  C   UNL A   1      47.873  26.433  25.339  1.00  0.00     0.009 A 
ATOM     46  C   UNL A   1      46.937  27.810  23.591  1.00  0.00     0.009 A 
ATOM     47  C   UNL A   1      49.035  26.255  24.581  1.00  0.00     0.001 A 
ATOM     48  C   UNL A   1      48.092  27.611  22.824  1.00  0.00     0.001 A 
ATOM     49  C   UNL A   1      49.143  26.845  23.323  1.00  0.00     0.000 A 
ENDBRANCH  25  44
BRANCH  37  50
ATOM     50  C   UNL A   1      45.216  32.298  29.384  1.00  0.00    -0.014 A 
ATOM     51  C   UNL A   1      46.012  32.140  30.526  1.00  0.00     0.009 A 
ATOM     52  C   UNL A   1      45.259  33.514  28.680  1.00  0.00     0.009 A 
ATOM     53  C   UNL A   1      46.836  33.182  30.954  1.00  0.00     0.001 A 
ATOM     54  C   UNL A   1      46.106  34.541  29.092  1.00  0.00     0.001 A 
ATOM     55  C   UNL A   1      46.894  34.375  30.230  1.00  0.00     0.000 A 
ENDBRANCH  37  50
ENDBRANCH  11  12
ENDBRANCH   4   6
ENDBRANCH   3   4
ENDBRANCH   2   3
ENDBRANCH   1   2
BRANCH   1  56
ATOM     56  O   UNL A   1      34.184  22.462  26.840  1.00  0.00    -0.460 OA
BRANCH  56  57
ATOM     57  C   UNL A   1      34.515  23.709  26.372  1.00  0.00     0.336 C 
ATOM     58  O   UNL A   1      35.642  24.174  26.544  1.00  0.00    -0.249 OA
BRANCH  57  59
ATOM     59  C   UNL A   1      33.276  24.591  25.862  1.00  0.00     0.164 C 
ATOM     60  C   UNL A   1      32.019  24.630  26.759  1.00  0.00     0.046 C 
ATOM     61  C   UNL A   1      32.942  24.030  24.450  1.00  0.00    -0.008 A 
ATOM     62  C   UNL A   1      31.059  23.491  26.538  1.00  0.00     0.008 C 
ATOM     63  C   UNL A   1      31.790  23.253  24.203  1.00  0.00    -0.042 A 
ATOM     64  C   UNL A   1      33.918  24.095  23.439  1.00  0.00     0.007 A 
ATOM     65  C   UNL A   1      30.605  23.296  25.117  1.00  0.00     0.036 C 
ATOM     66  C   UNL A   1      31.720  22.439  23.062  1.00  0.00     0.004 A 
ATOM     67  C   UNL A   1      33.834  23.288  22.305  1.00  0.00     0.000 A 
ATOM     68  C   UNL A   1      32.757  22.428  22.137  1.00  0.00     0.000 A 
BRANCH  59  69
ATOM     69  N   UNL A   1      33.683  26.028  25.750  1.00  0.00    -0.336 N 
ATOM     70  C   UNL A   1      33.185  26.920  24.827  1.00  0.00     0.224 C 
ATOM     71  H   UNL A   1      34.359  26.359  26.384  1.00  0.00     0.164 HD
ATOM     72  O   UNL A   1      33.968  27.577  24.145  1.00  0.00    -0.275 OA
BRANCH  70  73
ATOM     73  C   UNL A   1      31.685  27.170  24.781  1.00  0.00     0.082 C 
ATOM     74  C   UNL A   1      31.034  26.880  23.419  1.00  0.00     0.035 C 
ATOM     75  C   UNL A   1      31.397  28.569  25.331  1.00  0.00     0.035 C 
ATOM     76  C   UNL A   1      31.069  28.066  22.459  1.00  0.00     0.120 C 
ATOM     77  C   UNL A   1      31.518  29.633  24.252  1.00  0.00     0.120 C 
ATOM     78  N   UNL A   1      30.636  29.281  23.150  1.00  0.00    -0.342 N 
ATOM     79  C   UNL A   1      29.380  29.810  22.832  1.00  0.00     0.225 C 
ATOM     80  O   UNL A   1      28.671  29.270  21.990  1.00  0.00    -0.275 OA
BRANCH  79  81
ATOM     81  C   UNL A   1      28.795  31.033  23.468  1.00  0.00     0.079 C 
ATOM     82  C   UNL A   1      28.056  32.127  22.749  1.00  0.00     0.014 C 
ATOM     83  C   UNL A   1      27.342  31.273  23.769  1.00  0.00     0.014 C 
ENDBRANCH  79  81
ENDBRANCH  70  73
ENDBRANCH  59  69
ENDBRANCH  57  59
ENDBRANCH  56  57
ENDBRANCH   1  56
TORSDOF 14
ENDMDL
MODEL 2
REMARK VINA RESULT:     -12.2      4.035      9.361
REMARK SMILES O=C(OCCOC(=O)[C@]1(NC(=O)C2CCN(C(=O)C3CC3)CC2)CCCc2ccccc21)c1ccc(-c2c3nc(c(-c4ccccc4)c4ccc([nH]4)c(-c4ccccc4)c4nc(c(-c5ccccc5)c5ccc2[nH]5)C=C4)C=C3)cc1
REMARK SMILES IDX 5 1 4 2 3 3 2 4 1 5 33 6 34 7 80 8 35 9 79 10 36 11 37 12
REMARK SMILES IDX 38 13 73 14 39 15 78 16 72 17 74 18 40 19 77 20 71 21 70 22
REMARK SMILES IDX 41 24 63 25 48 26 62 27 49 28 52 29 61 30 75 31 50 32 51 33
REMARK SMILES IDX 60 35 76 36 53 37 42 38 43 39 47 40 44 41 46 42 45 43 64 44
REMARK SMILES IDX 65 45 69 46 66 47 68 48 67 49 54 50 55 51 59 52 56 53 58 54
REMARK SMILES IDX 57 55 6 56 7 57 8 58 9 59 24 60 32 61 25 62 27 63 31 64
REMARK SMILES IDX 26 65 28 66 30 67 29 68 10 69 11 70 12 72 13 73 14 74 23 75
REMARK SMILES IDX 15 76 22 77 16 78 17 79 18 80 19 81 20 82 21 83
REMARK H PARENT 74 23 52 34 10 71
REMARK Flexibility Score: inf
ROOT
ATOM      1  C   UNL A   1      32.246  30.647  26.891  1.00  0.00     0.274 C 
ENDROOT
BRANCH   1   2
ATOM      2  C   UNL A   1      31.474  31.961  27.006  1.00  0.00     0.275 C 
BRANCH   2   3
ATOM      3  O   UNL A   1      32.297  33.121  26.952  1.00  0.00    -0.458 OA
BRANCH   3   4
ATOM      4  C   UNL A   1      32.979  33.708  27.957  1.00  0.00     0.338 C 
ATOM      5  O   UNL A   1      32.459  34.681  28.503  1.00  0.00    -0.246 OA
BRANCH   4   6
ATOM      6  C   UNL A   1      34.369  33.318  28.399  1.00  0.00     0.060 A 
ATOM      7  C   UNL A   1      35.606  33.859  28.003  1.00  0.00     0.016 A 
ATOM      8  C   UNL A   1      34.392  32.377  29.433  1.00  0.00     0.016 A 
ATOM      9  C   UNL A   1      36.797  33.608  28.709  1.00  0.00     0.010 A 
ATOM     10  C   UNL A   1      35.560  32.154  30.158  1.00  0.00     0.010 A 
ATOM     11  C   UNL A   1      36.779  32.788  29.827  1.00  0.00    -0.014 A 
BRANCH  11  12
ATOM     12  C   UNL A   1      37.988  32.424  30.617  1.00  0.00     0.031 A 
ATOM     13  C   UNL A   1      38.708  31.193  30.150  1.00  0.00     0.074 A 
ATOM     14  C   UNL A   1      38.351  33.002  31.783  1.00  0.00     0.049 A 
ATOM     15  N   UNL A   1      39.483  30.379  30.809  1.00  0.00    -0.248 NA
ATOM     16  C   UNL A   1      38.368  30.742  28.786  1.00  0.00     0.031 C 
ATOM     17  C   UNL A   1      37.751  34.182  32.403  1.00  0.00     0.029 A 
ATOM     18  N   UNL A   1      39.310  32.614  32.691  1.00  0.00    -0.354 N 
ATOM     19  C   UNL A   1      39.629  29.294  29.962  1.00  0.00     0.074 A 
ATOM     20  C   UNL A   1      38.693  29.467  28.878  1.00  0.00     0.031 C 
ATOM     21  C   UNL A   1      38.320  34.395  33.606  1.00  0.00     0.029 A 
ATOM     22  C   UNL A   1      39.336  33.373  33.840  1.00  0.00     0.049 A 
ATOM     23  H   UNL A   1      39.924  31.860  32.534  1.00  0.00     0.167 HD
ATOM     24  C   UNL A   1      40.553  28.310  29.986  1.00  0.00     0.031 A 
ATOM     25  C   UNL A   1      40.107  33.254  34.941  1.00  0.00     0.031 A 
ATOM     26  C   UNL A   1      41.585  28.244  30.972  1.00  0.00     0.049 A 
ATOM     27  C   UNL A   1      41.164  32.175  34.971  1.00  0.00     0.074 A 
ATOM     28  C   UNL A   1      42.675  27.401  31.032  1.00  0.00     0.029 A 
ATOM     29  N   UNL A   1      41.667  29.104  32.057  1.00  0.00    -0.354 N 
ATOM     30  N   UNL A   1      41.390  31.215  34.105  1.00  0.00    -0.248 NA
ATOM     31  C   UNL A   1      42.108  32.195  36.100  1.00  0.00     0.031 C 
ATOM     32  C   UNL A   1      43.413  27.744  32.170  1.00  0.00     0.029 A 
ATOM     33  C   UNL A   1      42.799  28.823  32.792  1.00  0.00     0.049 A 
ATOM     34  H   UNL A   1      41.014  29.809  32.271  1.00  0.00     0.167 HD
ATOM     35  C   UNL A   1      42.543  30.570  34.541  1.00  0.00     0.074 A 
ATOM     36  C   UNL A   1      42.955  31.232  35.762  1.00  0.00     0.031 C 
ATOM     37  C   UNL A   1      43.211  29.538  33.972  1.00  0.00     0.031 A 
BRANCH  24  38
ATOM     38  C   UNL A   1      40.500  27.329  28.850  1.00  0.00    -0.014 A 
ATOM     39  C   UNL A   1      41.192  27.583  27.649  1.00  0.00     0.009 A 
ATOM     40  C   UNL A   1      39.653  26.218  28.922  1.00  0.00     0.009 A 
ATOM     41  C   UNL A   1      40.939  26.821  26.509  1.00  0.00     0.001 A 
ATOM     42  C   UNL A   1      39.447  25.420  27.794  1.00  0.00     0.001 A 
ATOM     43  C   UNL A   1      40.062  25.742  26.583  1.00  0.00     0.000 A 
ENDBRANCH  24  38
BRANCH  25  44
ATOM     44  C   UNL A   1      40.000  34.225  36.066  1.00  0.00    -0.014 A 
ATOM     45  C   UNL A   1      39.163  33.945  37.160  1.00  0.00     0.009 A 
ATOM     46  C   UNL A   1      40.681  35.451  36.040  1.00  0.00     0.009 A 
ATOM     47  C   UNL A   1      38.978  34.884  38.179  1.00  0.00     0.001 A 
ATOM     48  C   UNL A   1      40.512  36.381  37.074  1.00  0.00     0.001 A 
ATOM     49  C   UNL A   1      39.653  36.103  38.135  1.00  0.00     0.000 A 
ENDBRANCH  25  44
BRANCH  37  50
ATOM     50  C   UNL A   1      44.513  29.115  34.586  1.00  0.00    -0.014 A 
ATOM     51  C   UNL A   1      45.721  29.742  34.251  1.00  0.00     0.009 A 
ATOM     52  C   UNL A   1      44.498  28.162  35.619  1.00  0.00     0.009 A 
ATOM     53  C   UNL A   1      46.891  29.420  34.940  1.00  0.00     0.001 A 
ATOM     54  C   UNL A   1      45.662  27.865  36.325  1.00  0.00     0.001 A 
ATOM     55  C   UNL A   1      46.858  28.494  35.985  1.00  0.00     0.000 A 
ENDBRANCH  37  50
ENDBRANCH  11  12
ENDBRANCH   4   6
ENDBRANCH   3   4
ENDBRANCH   2   3
ENDBRANCH   1   2
BRANCH   1  56
ATOM     56  O   UNL A   1      31.554  29.552  26.229  1.00  0.00    -0.460 OA
BRANCH  56  57
ATOM     57  C   UNL A   1      31.543  28.375  26.933  1.00  0.00     0.336 C 
ATOM     58  O   UNL A   1      31.192  28.343  28.114  1.00  0.00    -0.249 OA
BRANCH  57  59
ATOM     59  C   UNL A   1      32.274  27.145  26.208  1.00  0.00     0.164 C 
ATOM     60  C   UNL A   1      33.798  27.257  25.991  1.00  0.00     0.046 C 
ATOM     61  C   UNL A   1      31.524  26.978  24.855  1.00  0.00    -0.008 A 
ATOM     62  C   UNL A   1      34.198  27.991  24.738  1.00  0.00     0.008 C 
ATOM     63  C   UNL A   1      32.105  27.345  23.622  1.00  0.00    -0.042 A 
ATOM     64  C   UNL A   1      30.151  26.672  24.866  1.00  0.00     0.007 A 
ATOM     65  C   UNL A   1      33.589  27.474  23.464  1.00  0.00     0.036 C 
ATOM     66  C   UNL A   1      31.295  27.567  22.498  1.00  0.00     0.004 A 
ATOM     67  C   UNL A   1      29.356  26.887  23.741  1.00  0.00     0.000 A 
ATOM     68  C   UNL A   1      29.921  27.376  22.570  1.00  0.00     0.000 A 
BRANCH  59  69
ATOM     69  N   UNL A   1      32.117  25.901  27.028  1.00  0.00    -0.336 N 
ATOM     70  C   UNL A   1      31.802  24.659  26.525  1.00  0.00     0.224 C 
ATOM     71  H   UNL A   1      32.248  25.978  28.000  1.00  0.00     0.164 HD
ATOM     72  O   UNL A   1      30.873  24.027  27.024  1.00  0.00    -0.275 OA
BRANCH  70  73
ATOM     73  C   UNL A   1      32.703  24.044  25.464  1.00  0.00     0.082 C 
ATOM     74  C   UNL A   1      32.232  22.676  24.945  1.00  0.00     0.035 C 
ATOM     75  C   UNL A   1      34.148  24.063  25.967  1.00  0.00     0.035 C 
ATOM     76  C   UNL A   1      32.733  21.500  25.780  1.00  0.00     0.120 C 
ATOM     77  C   UNL A   1      34.464  22.841  26.816  1.00  0.00     0.120 C 
ATOM     78  N   UNL A   1      34.165  21.647  26.042  1.00  0.00    -0.342 N 
ATOM     79  C   UNL A   1      35.050  20.794  25.374  1.00  0.00     0.225 C 
ATOM     80  O   UNL A   1      34.629  19.943  24.598  1.00  0.00    -0.275 OA
BRANCH  79  81
ATOM     81  C   UNL A   1      36.539  20.838  25.525  1.00  0.00     0.079 C 
ATOM     82  C   UNL A   1      37.532  20.148  24.631  1.00  0.00     0.014 C 
ATOM     83  C   UNL A   1      37.494  21.655  24.701  1.00  0.00     0.014 C 
ENDBRANCH  79  81
ENDBRANCH  70  73
ENDBRANCH  59  69
ENDBRANCH  57  59
ENDBRANCH  56  57
ENDBRANCH   1  56
TORSDOF 14
ENDMDL
MODEL 3
REMARK VINA RESULT:     -12.0      2.736      5.778
REMARK SMILES O=C(OCCOC(=O)[C@]1(NC(=O)C2CCN(C(=O)C3CC3)CC2)CCCc2ccccc21)c1ccc(-c2c3nc(c(-c4ccccc4)c4ccc([nH]4)c(-c4ccccc4)c4nc(c(-c5ccccc5)c5ccc2[nH]5)C=C4)C=C3)cc1
REMARK SMILES IDX 5 1 4 2 3 3 2 4 1 5 33 6 34 7 80 8 35 9 79 10 36 11 37 12
REMARK SMILES IDX 38 13 73 14 39 15 78 16 72 17 74 18 40 19 77 20 71 21 70 22
REMARK SMILES IDX 41 24 63 25 48 26 62 27 49 28 52 29 61 30 75 31 50 32 51 33
REMARK SMILES IDX 60 35 76 36 53 37 42 38 43 39 47 40 44 41 46 42 45 43 64 44
REMARK SMILES IDX 65 45 69 46 66 47 68 48 67 49 54 50 55 51 59 52 56 53 58 54
REMARK SMILES IDX 57 55 6 56 7 57 8 58 9 59 24 60 32 61 25 62 27 63 31 64
REMARK SMILES IDX 26 65 28 66 30 67 29 68 10 69 11 70 12 72 13 73 14 74 23 75
REMARK SMILES IDX 15 76 22 77 16 78 17 79 18 80 19 81 20 82 21 83
REMARK H PARENT 74 23 52 34 10 71
REMARK Flexibility Score: inf
ROOT
ATOM      1  C   UNL A   1      32.444  27.810  27.322  1.00  0.00     0.274 C 
ENDROOT
BRANCH   1   2
ATOM      2  C   UNL A   1      32.563  29.295  26.980  1.00  0.00     0.275 C 
BRANCH   2   3
ATOM      3  O   UNL A   1      33.905  29.764  26.908  1.00  0.00    -0.458 OA
BRANCH   3   4
ATOM      4  C   UNL A   1      34.588  30.482  27.823  1.00  0.00     0.338 C 
ATOM      5  O   UNL A   1      34.116  31.568  28.158  1.00  0.00    -0.246 OA
BRANCH   4   6
ATOM      6  C   UNL A   1      35.931  30.097  28.394  1.00  0.00     0.060 A 
ATOM      7  C   UNL A   1      36.234  29.588  29.670  1.00  0.00     0.016 A 
ATOM      8  C   UNL A   1      36.977  30.145  27.467  1.00  0.00     0.016 A 
ATOM      9  C   UNL A   1      37.476  28.995  29.968  1.00  0.00     0.010 A 
ATOM     10  C   UNL A   1      38.194  29.526  27.744  1.00  0.00     0.010 A 
ATOM     11  C   UNL A   1      38.456  28.914  28.990  1.00  0.00    -0.014 A 
BRANCH  11  12
ATOM     12  C   UNL A   1      39.815  28.347  29.213  1.00  0.00     0.031 A 
ATOM     13  C   UNL A   1      40.833  29.319  29.735  1.00  0.00     0.074 A 
ATOM     14  C   UNL A   1      40.213  27.119  28.818  1.00  0.00     0.049 A 
ATOM     15  N   UNL A   1      42.132  29.300  29.635  1.00  0.00    -0.248 NA
ATOM     16  C   UNL A   1      40.282  30.562  30.310  1.00  0.00     0.031 C 
ATOM     17  C   UNL A   1      39.373  26.058  28.265  1.00  0.00     0.029 A 
ATOM     18  N   UNL A   1      41.479  26.577  28.781  1.00  0.00    -0.354 N 
ATOM     19  C   UNL A   1      42.519  30.564  30.049  1.00  0.00     0.074 A 
ATOM     20  C   UNL A   1      41.323  31.361  30.168  1.00  0.00     0.031 C 
ATOM     21  C   UNL A   1      40.147  25.016  27.901  1.00  0.00     0.029 A 
ATOM     22  C   UNL A   1      41.540  25.327  28.206  1.00  0.00     0.049 A 
ATOM     23  H   UNL A   1      42.271  27.044  29.134  1.00  0.00     0.167 HD
ATOM     24  C   UNL A   1      43.736  30.999  30.440  1.00  0.00     0.031 A 
ATOM     25  C   UNL A   1      42.604  24.531  27.973  1.00  0.00     0.031 A 
ATOM     26  C   UNL A   1      44.883  30.150  30.479  1.00  0.00     0.049 A 
ATOM     27  C   UNL A   1      43.968  24.993  28.431  1.00  0.00     0.074 A 
ATOM     28  C   UNL A   1      46.135  30.406  30.997  1.00  0.00     0.029 A 
ATOM     29  N   UNL A   1      44.889  28.844  30.010  1.00  0.00    -0.354 N 
ATOM     30  N   UNL A   1      44.320  26.149  28.942  1.00  0.00    -0.248 NA
ATOM     31  C   UNL A   1      45.069  24.023  28.332  1.00  0.00     0.031 C 
ATOM     32  C   UNL A   1      46.909  29.252  30.826  1.00  0.00     0.029 A 
ATOM     33  C   UNL A   1      46.123  28.272  30.237  1.00  0.00     0.049 A 
ATOM     34  H   UNL A   1      44.127  28.394  29.580  1.00  0.00     0.167 HD
ATOM     35  C   UNL A   1      45.659  26.018  29.298  1.00  0.00     0.074 A 
ATOM     36  C   UNL A   1      46.061  24.678  28.920  1.00  0.00     0.031 C 
ATOM     37  C   UNL A   1      46.474  26.916  29.900  1.00  0.00     0.031 A 
BRANCH  24  38
ATOM     38  C   UNL A   1      43.800  32.415  30.934  1.00  0.00    -0.014 A 
ATOM     39  C   UNL A   1      44.048  33.477  30.041  1.00  0.00     0.009 A 
ATOM     40  C   UNL A   1      43.748  32.682  32.307  1.00  0.00     0.009 A 
ATOM     41  C   UNL A   1      44.369  34.747  30.520  1.00  0.00     0.001 A 
ATOM     42  C   UNL A   1      44.012  33.970  32.780  1.00  0.00     0.001 A 
ATOM     43  C   UNL A   1      44.354  34.990  31.891  1.00  0.00     0.000 A 
ENDBRANCH  24  38
BRANCH  25  44
ATOM     44  C   UNL A   1      42.437  23.178  27.372  1.00  0.00    -0.014 A 
ATOM     45  C   UNL A   1      41.977  22.110  28.160  1.00  0.00     0.009 A 
ATOM     46  C   UNL A   1      42.778  22.926  26.035  1.00  0.00     0.009 A 
ATOM     47  C   UNL A   1      41.902  20.814  27.639  1.00  0.00     0.001 A 
ATOM     48  C   UNL A   1      42.680  21.632  25.507  1.00  0.00     0.001 A 
ATOM     49  C   UNL A   1      42.254  20.576  26.312  1.00  0.00     0.000 A 
ENDBRANCH  25  44
BRANCH  37  50
ATOM     50  C   UNL A   1      47.852  26.468  30.292  1.00  0.00    -0.014 A 
ATOM     51  C   UNL A   1      48.120  25.954  31.568  1.00  0.00     0.009 A 
ATOM     52  C   UNL A   1      48.860  26.438  29.314  1.00  0.00     0.009 A 
ATOM     53  C   UNL A   1      49.376  25.418  31.855  1.00  0.00     0.001 A 
ATOM     54  C   UNL A   1      50.103  25.875  29.596  1.00  0.00     0.001 A 
ATOM     55  C   UNL A   1      50.361  25.366  30.867  1.00  0.00     0.000 A 
ENDBRANCH  37  50
ENDBRANCH  11  12
ENDBRANCH   4   6
ENDBRANCH   3   4
ENDBRANCH   2   3
ENDBRANCH   1   2
BRANCH   1  56
ATOM     56  O   UNL A   1      33.046  26.882  26.377  1.00  0.00    -0.460 OA
BRANCH  56  57
ATOM     57  C   UNL A   1      32.311  25.748  26.142  1.00  0.00     0.336 C 
ATOM     58  O   UNL A   1      31.700  25.186  27.052  1.00  0.00    -0.249 OA
BRANCH  57  59
ATOM     59  C   UNL A   1      32.543  25.077  24.703  1.00  0.00     0.164 C 
ATOM     60  C   UNL A   1      31.368  24.278  24.099  1.00  0.00     0.046 C 
ATOM     61  C   UNL A   1      33.802  24.181  24.881  1.00  0.00    -0.008 A 
ATOM     62  C   UNL A   1      31.293  22.843  24.549  1.00  0.00     0.008 C 
ATOM     63  C   UNL A   1      33.722  22.772  24.921  1.00  0.00    -0.042 A 
ATOM     64  C   UNL A   1      35.023  24.778  25.241  1.00  0.00     0.007 A 
ATOM     65  C   UNL A   1      32.548  22.037  24.352  1.00  0.00     0.036 C 
ATOM     66  C   UNL A   1      34.770  22.022  25.475  1.00  0.00     0.004 A 
ATOM     67  C   UNL A   1      36.063  24.022  25.781  1.00  0.00     0.000 A 
ATOM     68  C   UNL A   1      35.920  22.650  25.938  1.00  0.00     0.000 A 
BRANCH  59  69
ATOM     69  N   UNL A   1      32.820  26.139  23.683  1.00  0.00    -0.336 N 
ATOM     70  C   UNL A   1      31.860  26.904  23.060  1.00  0.00     0.224 C 
ATOM     71  H   UNL A   1      33.759  26.300  23.439  1.00  0.00     0.164 HD
ATOM     72  O   UNL A   1      31.862  26.987  21.834  1.00  0.00    -0.275 OA
BRANCH  70  73
ATOM     73  C   UNL A   1      30.916  27.739  23.914  1.00  0.00     0.082 C 
ATOM     74  C   UNL A   1      29.470  27.222  23.953  1.00  0.00     0.035 C 
ATOM     75  C   UNL A   1      31.049  29.209  23.508  1.00  0.00     0.035 C 
ATOM     76  C   UNL A   1      28.600  27.750  22.814  1.00  0.00     0.120 C 
ATOM     77  C   UNL A   1      30.147  29.552  22.334  1.00  0.00     0.120 C 
ATOM     78  N   UNL A   1      28.779  29.196  22.678  1.00  0.00    -0.342 N 
ATOM     79  C   UNL A   1      27.734  30.032  23.083  1.00  0.00     0.225 C 
ATOM     80  O   UNL A   1      26.695  29.559  23.532  1.00  0.00    -0.275 OA
BRANCH  79  81
ATOM     81  C   UNL A   1      27.779  31.528  23.022  1.00  0.00     0.079 C 
ATOM     82  C   UNL A   1      28.968  32.383  23.361  1.00  0.00     0.014 C 
ATOM     83  C   UNL A   1      28.430  32.357  21.951  1.00  0.00     0.014 C 
ENDBRANCH  79  81
ENDBRANCH  70  73
ENDBRANCH  59  69
ENDBRANCH  57  59
ENDBRANCH  56  57
ENDBRANCH   1  56
TORSDOF 14
ENDMDL
