MODEL 1
REMARK VINA RESULT:      -8.8      0.000      0.000
REMARK SMILES C[C@@H](CC(=O)OCCOC(=O)c1ccc(-c2c3nc(c(-c4ccccc4)c4ccc([nH]4)c(-c4ccccc4)c4nc(c(-c5ccccc5)c5ccc2[nH]5)C=C4)C=C3)cc1)N1C(=O)CCCC1=O
REMARK SMILES IDX 7 1 6 2 4 3 5 4 3 5 2 6 1 7 60 8 61 9 66 10 62 11 63 12
REMARK SMILES IDX 65 13 67 14 64 15 8 16 9 17 10 18 11 19 12 20 13 21 59 22
REMARK SMILES IDX 14 23 58 24 15 25 16 26 17 27 52 28 18 29 57 30 51 31 53 32
REMARK SMILES IDX 19 33 56 34 50 35 49 36 20 38 42 39 27 40 41 41 28 42 31 43
REMARK SMILES IDX 40 44 54 45 29 46 30 47 39 49 55 50 32 51 21 52 22 53 26 54
REMARK SMILES IDX 23 55 25 56 24 57 43 58 44 59 48 60 45 61 47 62 46 63 33 64
REMARK SMILES IDX 34 65 38 66 35 67 37 68 36 69
REMARK H PARENT 53 37 31 48
REMARK Flexibility Score: inf
ROOT
ATOM      1  C   UNL A   1      33.334  34.575  28.801  1.00  0.00     0.274 C 
ENDROOT
BRANCH   1   2
ATOM      2  O   UNL A   1      34.312  34.488  29.858  1.00  0.00    -0.462 OA
BRANCH   2   3
ATOM      3  C   UNL A   1      33.871  34.785  31.099  1.00  0.00     0.308 C 
ATOM      4  O   UNL A   1      32.701  35.032  31.375  1.00  0.00    -0.252 OA
BRANCH   3   5
ATOM      5  C   UNL A   1      34.955  34.894  32.138  1.00  0.00     0.148 C 
BRANCH   5   6
ATOM      6  C   UNL A   1      36.042  33.809  32.269  1.00  0.00     0.101 C 
ATOM      7  C   UNL A   1      35.468  32.394  32.125  1.00  0.00     0.032 C 
BRANCH   6   8
ATOM      8  N   UNL A   1      37.049  34.031  33.336  1.00  0.00    -0.279 N 
ATOM      9  C   UNL A   1      38.307  34.468  32.897  1.00  0.00     0.229 C 
ATOM     10  C   UNL A   1      36.729  33.816  34.683  1.00  0.00     0.229 C 
ATOM     11  O   UNL A   1      38.563  34.717  31.717  1.00  0.00    -0.274 OA
ATOM     12  C   UNL A   1      39.374  34.695  33.939  1.00  0.00     0.101 C 
ATOM     13  C   UNL A   1      37.850  33.950  35.699  1.00  0.00     0.101 C 
ATOM     14  O   UNL A   1      35.601  33.543  35.095  1.00  0.00    -0.274 OA
ATOM     15  C   UNL A   1      39.212  33.732  35.088  1.00  0.00     0.020 C 
ENDBRANCH   6   8
ENDBRANCH   5   6
ENDBRANCH   3   5
ENDBRANCH   2   3
ENDBRANCH   1   2
BRANCH   1  16
ATOM     16  C   UNL A   1      33.346  33.356  27.875  1.00  0.00     0.275 C 
BRANCH  16  17
ATOM     17  O   UNL A   1      34.672  32.828  27.667  1.00  0.00    -0.458 OA
BRANCH  17  18
ATOM     18  C   UNL A   1      34.754  31.485  27.760  1.00  0.00     0.338 C 
ATOM     19  O   UNL A   1      34.017  30.660  27.250  1.00  0.00    -0.246 OA
BRANCH  18  20
ATOM     20  C   UNL A   1      35.909  31.050  28.543  1.00  0.00     0.060 A 
ATOM     21  C   UNL A   1      37.121  31.715  28.337  1.00  0.00     0.016 A 
ATOM     22  C   UNL A   1      35.852  29.864  29.276  1.00  0.00     0.016 A 
ATOM     23  C   UNL A   1      38.295  31.178  28.849  1.00  0.00     0.010 A 
ATOM     24  C   UNL A   1      37.032  29.327  29.794  1.00  0.00     0.010 A 
ATOM     25  C   UNL A   1      38.259  29.971  29.561  1.00  0.00    -0.014 A 
BRANCH  25  26
ATOM     26  C   UNL A   1      39.526  29.383  30.040  1.00  0.00     0.031 A 
ATOM     27  C   UNL A   1      40.180  29.900  31.287  1.00  0.00     0.074 A 
ATOM     28  C   UNL A   1      40.057  28.347  29.369  1.00  0.00     0.049 A 
ATOM     29  N   UNL A   1      41.279  29.490  31.868  1.00  0.00    -0.248 NA
ATOM     30  C   UNL A   1      39.515  31.019  31.971  1.00  0.00     0.031 C 
ATOM     31  C   UNL A   1      39.490  27.747  28.161  1.00  0.00     0.029 A 
ATOM     32  N   UNL A   1      41.181  27.609  29.621  1.00  0.00    -0.354 N 
ATOM     33  C   UNL A   1      41.444  30.306  32.979  1.00  0.00     0.074 A 
ATOM     34  C   UNL A   1      40.336  31.238  32.990  1.00  0.00     0.031 C 
ATOM     35  C   UNL A   1      40.264  26.718  27.784  1.00  0.00     0.029 A 
ATOM     36  C   UNL A   1      41.384  26.600  28.714  1.00  0.00     0.049 A 
ATOM     37  H   UNL A   1      41.786  27.784  30.379  1.00  0.00     0.167 HD
ATOM     38  C   UNL A   1      42.432  30.279  33.904  1.00  0.00     0.031 A 
ATOM     39  C   UNL A   1      42.362  25.683  28.642  1.00  0.00     0.031 A 
ATOM     40  C   UNL A   1      43.534  29.355  33.894  1.00  0.00     0.049 A 
ATOM     41  C   UNL A   1      43.441  25.671  29.683  1.00  0.00     0.074 A 
ATOM     42  C   UNL A   1      44.598  29.267  34.777  1.00  0.00     0.029 A 
ATOM     43  N   UNL A   1      43.709  28.352  32.955  1.00  0.00    -0.354 N 
ATOM     44  N   UNL A   1      43.593  26.460  30.717  1.00  0.00    -0.248 NA
ATOM     45  C   UNL A   1      44.478  24.640  29.547  1.00  0.00     0.031 C 
ATOM     46  C   UNL A   1      45.425  28.216  34.361  1.00  0.00     0.029 A 
ATOM     47  C   UNL A   1      44.863  27.640  33.234  1.00  0.00     0.049 A 
ATOM     48  H   UNL A   1      43.102  28.171  32.201  1.00  0.00     0.167 HD
ATOM     49  C   UNL A   1      44.742  26.022  31.359  1.00  0.00     0.074 A 
ATOM     50  C   UNL A   1      45.237  24.885  30.606  1.00  0.00     0.031 C 
ATOM     51  C   UNL A   1      45.338  26.519  32.468  1.00  0.00     0.031 A 
BRANCH  38  52
ATOM     52  C   UNL A   1      42.377  31.306  34.994  1.00  0.00    -0.014 A 
ATOM     53  C   UNL A   1      41.772  31.015  36.227  1.00  0.00     0.009 A 
ATOM     54  C   UNL A   1      42.966  32.564  34.800  1.00  0.00     0.009 A 
ATOM     55  C   UNL A   1      41.745  31.974  37.240  1.00  0.00     0.001 A 
ATOM     56  C   UNL A   1      42.947  33.517  35.820  1.00  0.00     0.001 A 
ATOM     57  C   UNL A   1      42.333  33.223  37.038  1.00  0.00     0.000 A 
ENDBRANCH  38  52
BRANCH  39  58
ATOM     58  C   UNL A   1      42.353  24.697  27.538  1.00  0.00    -0.014 A 
ATOM     59  C   UNL A   1      43.057  24.951  26.353  1.00  0.00     0.009 A 
ATOM     60  C   UNL A   1      41.672  23.479  27.685  1.00  0.00     0.009 A 
ATOM     61  C   UNL A   1      43.070  24.003  25.327  1.00  0.00     0.001 A 
ATOM     62  C   UNL A   1      41.700  22.529  26.664  1.00  0.00     0.001 A 
ATOM     63  C   UNL A   1      42.397  22.792  25.485  1.00  0.00     0.000 A 
ENDBRANCH  39  58
BRANCH  51  64
ATOM     64  C   UNL A   1      46.589  25.832  32.924  1.00  0.00    -0.014 A 
ATOM     65  C   UNL A   1      47.838  26.208  32.409  1.00  0.00     0.009 A 
ATOM     66  C   UNL A   1      46.517  24.812  33.883  1.00  0.00     0.009 A 
ATOM     67  C   UNL A   1      48.996  25.553  32.830  1.00  0.00     0.001 A 
ATOM     68  C   UNL A   1      47.679  24.167  34.309  1.00  0.00     0.001 A 
ATOM     69  C   UNL A   1      48.916  24.533  33.779  1.00  0.00     0.000 A 
ENDBRANCH  51  64
ENDBRANCH  25  26
ENDBRANCH  18  20
ENDBRANCH  17  18
ENDBRANCH  16  17
ENDBRANCH   1  16
TORSDOF 13
ENDMDL
MODEL 2
REMARK VINA RESULT:      -8.7      5.392     11.157
REMARK SMILES C[C@@H](CC(=O)OCCOC(=O)c1ccc(-c2c3nc(c(-c4ccccc4)c4ccc([nH]4)c(-c4ccccc4)c4nc(c(-c5ccccc5)c5ccc2[nH]5)C=C4)C=C3)cc1)N1C(=O)CCCC1=O
REMARK SMILES IDX 7 1 6 2 4 3 5 4 3 5 2 6 1 7 60 8 61 9 66 10 62 11 63 12
REMARK SMILES IDX 65 13 67 14 64 15 8 16 9 17 10 18 11 19 12 20 13 21 59 22
REMARK SMILES IDX 14 23 58 24 15 25 16 26 17 27 52 28 18 29 57 30 51 31 53 32
REMARK SMILES IDX 19 33 56 34 50 35 49 36 20 38 42 39 27 40 41 41 28 42 31 43
REMARK SMILES IDX 40 44 54 45 29 46 30 47 39 49 55 50 32 51 21 52 22 53 26 54
REMARK SMILES IDX 23 55 25 56 24 57 43 58 44 59 48 60 45 61 47 62 46 63 33 64
REMARK SMILES IDX 34 65 38 66 35 67 37 68 36 69
REMARK H PARENT 53 37 31 48
REMARK Flexibility Score: inf
ROOT
ATOM      1  C   UNL A   1      43.393  19.890  25.776  1.00  0.00     0.274 C 
ENDROOT
BRANCH   1   2
ATOM      2  O   UNL A   1      43.962  20.538  24.620  1.00  0.00    -0.462 OA
BRANCH   2   3
ATOM      3  C   UNL A   1      45.137  21.174  24.816  1.00  0.00     0.308 C 
ATOM      4  O   UNL A   1      46.115  20.667  25.358  1.00  0.00    -0.252 OA
BRANCH   3   5
ATOM      5  C   UNL A   1      45.141  22.622  24.403  1.00  0.00     0.148 C 
BRANCH   5   6
ATOM      6  C   UNL A   1      44.970  23.745  25.445  1.00  0.00     0.101 C 
ATOM      7  C   UNL A   1      43.865  24.734  25.053  1.00  0.00     0.032 C 
BRANCH   6   8
ATOM      8  N   UNL A   1      46.227  24.308  25.996  1.00  0.00    -0.279 N 
ATOM      9  C   UNL A   1      46.365  24.227  27.389  1.00  0.00     0.229 C 
ATOM     10  C   UNL A   1      47.194  24.871  25.153  1.00  0.00     0.229 C 
ATOM     11  O   UNL A   1      45.540  23.674  28.120  1.00  0.00    -0.274 OA
ATOM     12  C   UNL A   1      47.617  24.800  28.005  1.00  0.00     0.101 C 
ATOM     13  C   UNL A   1      48.394  25.532  25.806  1.00  0.00     0.101 C 
ATOM     14  O   UNL A   1      47.142  24.848  23.922  1.00  0.00    -0.274 OA
ATOM     15  C   UNL A   1      48.105  25.988  27.215  1.00  0.00     0.020 C 
ENDBRANCH   6   8
ENDBRANCH   5   6
ENDBRANCH   3   5
ENDBRANCH   2   3
ENDBRANCH   1   2
BRANCH   1  16
ATOM     16  C   UNL A   1      41.995  20.410  26.123  1.00  0.00     0.275 C 
BRANCH  16  17
ATOM     17  O   UNL A   1      41.897  21.846  26.030  1.00  0.00    -0.458 OA
BRANCH  17  18
ATOM     18  C   UNL A   1      40.675  22.337  26.324  1.00  0.00     0.338 C 
ATOM     19  O   UNL A   1      39.595  21.812  26.116  1.00  0.00    -0.246 OA
BRANCH  18  20
ATOM     20  C   UNL A   1      40.742  23.628  27.006  1.00  0.00     0.060 A 
ATOM     21  C   UNL A   1      40.290  24.754  26.313  1.00  0.00     0.016 A 
ATOM     22  C   UNL A   1      41.455  23.753  28.200  1.00  0.00     0.016 A 
ATOM     23  C   UNL A   1      40.572  26.022  26.804  1.00  0.00     0.010 A 
ATOM     24  C   UNL A   1      41.734  25.028  28.694  1.00  0.00     0.010 A 
ATOM     25  C   UNL A   1      41.315  26.165  27.985  1.00  0.00    -0.014 A 
BRANCH  25  26
ATOM     26  C   UNL A   1      41.660  27.522  28.454  1.00  0.00     0.031 A 
ATOM     27  C   UNL A   1      43.082  27.997  28.426  1.00  0.00     0.074 A 
ATOM     28  C   UNL A   1      40.674  28.340  28.859  1.00  0.00     0.049 A 
ATOM     29  N   UNL A   1      43.566  29.163  28.774  1.00  0.00    -0.248 NA
ATOM     30  C   UNL A   1      44.092  27.043  27.942  1.00  0.00     0.031 C 
ATOM     31  C   UNL A   1      39.254  27.990  28.901  1.00  0.00     0.029 A 
ATOM     32  N   UNL A   1      40.719  29.636  29.295  1.00  0.00    -0.354 N 
ATOM     33  C   UNL A   1      44.935  29.080  28.563  1.00  0.00     0.074 A 
ATOM     34  C   UNL A   1      45.209  27.750  28.061  1.00  0.00     0.031 C 
ATOM     35  C   UNL A   1      38.557  29.056  29.324  1.00  0.00     0.029 A 
ATOM     36  C   UNL A   1      39.484  30.151  29.597  1.00  0.00     0.049 A 
ATOM     37  H   UNL A   1      41.555  30.149  29.383  1.00  0.00     0.167 HD
ATOM     38  C   UNL A   1      45.878  30.030  28.773  1.00  0.00     0.031 A 
ATOM     39  C   UNL A   1      39.139  31.371  30.043  1.00  0.00     0.031 A 
ATOM     40  C   UNL A   1      45.608  31.350  29.273  1.00  0.00     0.049 A 
ATOM     41  C   UNL A   1      40.202  32.405  30.259  1.00  0.00     0.074 A 
ATOM     42  C   UNL A   1      46.503  32.374  29.540  1.00  0.00     0.029 A 
ATOM     43  N   UNL A   1      44.345  31.833  29.575  1.00  0.00    -0.354 N 
ATOM     44  N   UNL A   1      41.495  32.307  30.073  1.00  0.00    -0.248 NA
ATOM     45  C   UNL A   1      39.756  33.718  30.744  1.00  0.00     0.031 C 
ATOM     46  C   UNL A   1      45.779  33.473  30.019  1.00  0.00     0.029 A 
ATOM     47  C   UNL A   1      44.435  33.138  30.027  1.00  0.00     0.049 A 
ATOM     48  H   UNL A   1      43.508  31.324  29.480  1.00  0.00     0.167 HD
ATOM     49  C   UNL A   1      42.020  33.544  30.415  1.00  0.00     0.074 A 
ATOM     50  C   UNL A   1      40.902  34.382  30.803  1.00  0.00     0.031 C 
ATOM     51  C   UNL A   1      43.312  33.949  30.414  1.00  0.00     0.031 A 
BRANCH  38  52
ATOM     52  C   UNL A   1      47.300  29.656  28.484  1.00  0.00    -0.014 A 
ATOM     53  C   UNL A   1      47.859  29.878  27.216  1.00  0.00     0.009 A 
ATOM     54  C   UNL A   1      48.100  29.111  29.499  1.00  0.00     0.009 A 
ATOM     55  C   UNL A   1      49.191  29.543  26.967  1.00  0.00     0.001 A 
ATOM     56  C   UNL A   1      49.435  28.787  29.249  1.00  0.00     0.001 A 
ATOM     57  C   UNL A   1      49.978  29.001  27.982  1.00  0.00     0.000 A 
ENDBRANCH  38  52
BRANCH  39  58
ATOM     58  C   UNL A   1      37.714  31.671  30.306  1.00  0.00    -0.014 A 
ATOM     59  C   UNL A   1      37.155  31.419  31.566  1.00  0.00     0.009 A 
ATOM     60  C   UNL A   1      36.918  32.249  29.305  1.00  0.00     0.009 A 
ATOM     61  C   UNL A   1      35.818  31.733  31.817  1.00  0.00     0.001 A 
ATOM     62  C   UNL A   1      35.587  32.576  29.565  1.00  0.00     0.001 A 
ATOM     63  C   UNL A   1      35.037  32.315  30.819  1.00  0.00     0.000 A 
ENDBRANCH  39  58
BRANCH  51  64
ATOM     64  C   UNL A   1      43.575  35.359  30.848  1.00  0.00    -0.014 A 
ATOM     65  C   UNL A   1      43.790  35.661  32.200  1.00  0.00     0.009 A 
ATOM     66  C   UNL A   1      43.619  36.387  29.897  1.00  0.00     0.009 A 
ATOM     67  C   UNL A   1      44.021  36.979  32.596  1.00  0.00     0.001 A 
ATOM     68  C   UNL A   1      43.861  37.703  30.296  1.00  0.00     0.001 A 
ATOM     69  C   UNL A   1      44.056  37.998  31.645  1.00  0.00     0.000 A 
ENDBRANCH  51  64
ENDBRANCH  25  26
ENDBRANCH  18  20
ENDBRANCH  17  18
ENDBRANCH  16  17
ENDBRANCH   1  16
TORSDOF 13
ENDMDL
MODEL 3
REMARK VINA RESULT:      -8.5      5.455     10.371
REMARK SMILES C[C@@H](CC(=O)OCCOC(=O)c1ccc(-c2c3nc(c(-c4ccccc4)c4ccc([nH]4)c(-c4ccccc4)c4nc(c(-c5ccccc5)c5ccc2[nH]5)C=C4)C=C3)cc1)N1C(=O)CCCC1=O
REMARK SMILES IDX 7 1 6 2 4 3 5 4 3 5 2 6 1 7 60 8 61 9 66 10 62 11 63 12
REMARK SMILES IDX 65 13 67 14 64 15 8 16 9 17 10 18 11 19 12 20 13 21 59 22
REMARK SMILES IDX 14 23 58 24 15 25 16 26 17 27 52 28 18 29 57 30 51 31 53 32
REMARK SMILES IDX 19 33 56 34 50 35 49 36 20 38 42 39 27 40 41 41 28 42 31 43
REMARK SMILES IDX 40 44 54 45 29 46 30 47 39 49 55 50 32 51 21 52 22 53 26 54
REMARK SMILES IDX 23 55 25 56 24 57 43 58 44 59 48 60 45 61 47 62 46 63 33 64
REMARK SMILES IDX 34 65 38 66 35 67 37 68 36 69
REMARK H PARENT 53 37 31 48
REMARK Flexibility Score: inf
ROOT
ATOM      1  C   UNL A   1      35.653  21.030  24.537  1.00  0.00     0.274 C 
ENDROOT
BRANCH   1   2
ATOM      2  O   UNL A   1      34.463  20.461  25.119  1.00  0.00    -0.462 OA
BRANCH   2   3
ATOM      3  C   UNL A   1      33.292  21.002  24.723  1.00  0.00     0.308 C 
ATOM      4  O   UNL A   1      32.879  20.984  23.567  1.00  0.00    -0.252 OA
BRANCH   3   5
ATOM      5  C   UNL A   1      32.545  21.739  25.803  1.00  0.00     0.148 C 
BRANCH   5   6
ATOM      6  C   UNL A   1      33.252  22.792  26.680  1.00  0.00     0.101 C 
ATOM      7  C   UNL A   1      33.224  22.419  28.167  1.00  0.00     0.032 C 
BRANCH   6   8
ATOM      8  N   UNL A   1      32.986  24.208  26.325  1.00  0.00    -0.279 N 
ATOM      9  C   UNL A   1      34.048  24.888  25.713  1.00  0.00     0.229 C 
ATOM     10  C   UNL A   1      31.742  24.795  26.593  1.00  0.00     0.229 C 
ATOM     11  O   UNL A   1      35.118  24.348  25.422  1.00  0.00    -0.274 OA
ATOM     12  C   UNL A   1      33.837  26.336  25.347  1.00  0.00     0.101 C 
ATOM     13  C   UNL A   1      31.592  26.279  26.311  1.00  0.00     0.101 C 
ATOM     14  O   UNL A   1      30.763  24.184  27.025  1.00  0.00    -0.274 OA
ATOM     15  C   UNL A   1      32.914  27.006  26.331  1.00  0.00     0.020 C 
ENDBRANCH   6   8
ENDBRANCH   5   6
ENDBRANCH   3   5
ENDBRANCH   2   3
ENDBRANCH   1   2
BRANCH   1  16
ATOM     16  C   UNL A   1      36.942  20.470  25.145  1.00  0.00     0.275 C 
BRANCH  16  17
ATOM     17  O   UNL A   1      38.050  21.388  25.040  1.00  0.00    -0.458 OA
BRANCH  17  18
ATOM     18  C   UNL A   1      39.043  21.159  25.924  1.00  0.00     0.338 C 
ATOM     19  O   UNL A   1      39.568  20.092  26.191  1.00  0.00    -0.246 OA
BRANCH  18  20
ATOM     20  C   UNL A   1      39.517  22.387  26.560  1.00  0.00     0.060 A 
ATOM     21  C   UNL A   1      38.943  23.594  26.153  1.00  0.00     0.016 A 
ATOM     22  C   UNL A   1      40.664  22.365  27.357  1.00  0.00     0.016 A 
ATOM     23  C   UNL A   1      39.532  24.795  26.524  1.00  0.00     0.010 A 
ATOM     24  C   UNL A   1      41.252  23.574  27.733  1.00  0.00     0.010 A 
ATOM     25  C   UNL A   1      40.702  24.790  27.297  1.00  0.00    -0.014 A 
BRANCH  25  26
ATOM     26  C   UNL A   1      41.349  26.076  27.626  1.00  0.00     0.031 A 
ATOM     27  C   UNL A   1      42.669  26.441  27.016  1.00  0.00     0.074 A 
ATOM     28  C   UNL A   1      40.712  26.934  28.441  1.00  0.00     0.049 A 
ATOM     29  N   UNL A   1      43.371  27.535  27.170  1.00  0.00    -0.248 NA
ATOM     30  C   UNL A   1      43.280  25.452  26.115  1.00  0.00     0.031 C 
ATOM     31  C   UNL A   1      39.412  26.693  29.067  1.00  0.00     0.029 A 
ATOM     32  N   UNL A   1      41.068  28.185  28.865  1.00  0.00    -0.354 N 
ATOM     33  C   UNL A   1      44.510  27.364  26.396  1.00  0.00     0.074 A 
ATOM     34  C   UNL A   1      44.411  26.059  25.776  1.00  0.00     0.031 C 
ATOM     35  C   UNL A   1      39.070  27.774  29.786  1.00  0.00     0.029 A 
ATOM     36  C   UNL A   1      40.133  28.770  29.681  1.00  0.00     0.049 A 
ATOM     37  H   UNL A   1      41.912  28.624  28.609  1.00  0.00     0.167 HD
ATOM     38  C   UNL A   1      45.546  28.219  26.222  1.00  0.00     0.031 A 
ATOM     39  C   UNL A   1      40.132  29.974  30.276  1.00  0.00     0.031 A 
ATOM     40  C   UNL A   1      45.647  29.514  26.838  1.00  0.00     0.049 A 
ATOM     41  C   UNL A   1      41.288  30.904  30.060  1.00  0.00     0.074 A 
ATOM     42  C   UNL A   1      46.671  30.442  26.740  1.00  0.00     0.029 A 
ATOM     43  N   UNL A   1      44.683  30.068  27.664  1.00  0.00    -0.354 N 
ATOM     44  N   UNL A   1      42.367  30.720  29.340  1.00  0.00    -0.248 NA
ATOM     45  C   UNL A   1      41.223  32.206  30.736  1.00  0.00     0.031 C 
ATOM     46  C   UNL A   1      46.331  31.553  27.520  1.00  0.00     0.029 A 
ATOM     47  C   UNL A   1      45.087  31.324  28.084  1.00  0.00     0.049 A 
ATOM     48  H   UNL A   1      43.836  29.634  27.914  1.00  0.00     0.167 HD
ATOM     49  C   UNL A   1      43.111  31.884  29.473  1.00  0.00     0.074 A 
ATOM     50  C   UNL A   1      42.350  32.773  30.330  1.00  0.00     0.031 C 
ATOM     51  C   UNL A   1      44.318  32.186  28.940  1.00  0.00     0.031 A 
BRANCH  38  52
ATOM     52  C   UNL A   1      46.671  27.760  25.344  1.00  0.00    -0.014 A 
ATOM     53  C   UNL A   1      46.698  28.088  23.980  1.00  0.00     0.009 A 
ATOM     54  C   UNL A   1      47.731  27.024  25.893  1.00  0.00     0.009 A 
ATOM     55  C   UNL A   1      47.762  27.671  23.178  1.00  0.00     0.001 A 
ATOM     56  C   UNL A   1      48.798  26.618  25.091  1.00  0.00     0.001 A 
ATOM     57  C   UNL A   1      48.812  26.938  23.733  1.00  0.00     0.000 A 
ENDBRANCH  38  52
BRANCH  39  58
ATOM     58  C   UNL A   1      38.986  30.362  31.128  1.00  0.00    -0.014 A 
ATOM     59  C   UNL A   1      37.872  31.003  30.571  1.00  0.00     0.009 A 
ATOM     60  C   UNL A   1      38.989  30.055  32.498  1.00  0.00     0.009 A 
ATOM     61  C   UNL A   1      36.781  31.340  31.376  1.00  0.00     0.001 A 
ATOM     62  C   UNL A   1      37.891  30.379  33.294  1.00  0.00     0.001 A 
ATOM     63  C   UNL A   1      36.789  31.024  32.734  1.00  0.00     0.000 A 
ENDBRANCH  39  58
BRANCH  51  64
ATOM     64  C   UNL A   1      44.881  33.534  29.274  1.00  0.00    -0.014 A 
ATOM     65  C   UNL A   1      45.700  33.707  30.400  1.00  0.00     0.009 A 
ATOM     66  C   UNL A   1      44.600  34.634  28.452  1.00  0.00     0.009 A 
ATOM     67  C   UNL A   1      46.209  34.968  30.710  1.00  0.00     0.001 A 
ATOM     68  C   UNL A   1      45.120  35.892  28.760  1.00  0.00     0.001 A 
ATOM     69  C   UNL A   1      45.918  36.059  29.891  1.00  0.00     0.000 A 
ENDBRANCH  51  64
ENDBRANCH  25  26
ENDBRANCH  18  20
ENDBRANCH  17  18
ENDBRANCH  16  17
ENDBRANCH   1  16
TORSDOF 13
ENDMDL
