MODEL 1
REMARK VINA RESULT:      -9.6      0.000      0.000
REMARK SMILES CCOc1ccc(-c2csc3ncn([C@H](C)C(=O)OCCOC(=O)c4ccc(-c5c6nc(c(-c7ccccc7)c7ccc([nH]7)c(-c7ccccc7)c7nc(c(-c8ccccc8)c8ccc5[nH]8)C=C7)C=C6)cc4)c(=O)c23)cc1
REMARK SMILES IDX 20 1 19 2 17 3 18 4 15 5 16 6 14 7 8 8 9 9 75 10 10 11 11 12
REMARK SMILES IDX 73 13 12 14 74 15 13 16 7 17 4 18 5 19 77 20 6 21 76 22 3 23
REMARK SMILES IDX 2 24 1 25 21 26 22 27 23 28 24 29 25 30 26 31 72 32 27 33
REMARK SMILES IDX 71 34 28 35 29 36 30 37 65 38 31 39 70 40 64 41 66 42 32 43
REMARK SMILES IDX 69 44 63 45 62 46 33 48 55 49 40 50 54 51 41 52 44 53 53 54
REMARK SMILES IDX 67 55 42 56 43 57 52 59 68 60 45 61 34 62 35 63 39 64 36 65
REMARK SMILES IDX 38 66 37 67 56 68 57 69 61 70 58 71 60 72 59 73 46 74 47 75
REMARK SMILES IDX 51 76 48 77 50 78 49 79
REMARK H PARENT 66 47 44 58
REMARK Flexibility Score: inf
ROOT
ATOM      1  C   UNL A   1      35.212  33.896  29.164  1.00  0.00     0.274 C 
ENDROOT
BRANCH   1   2
ATOM      2  O   UNL A   1      34.132  34.061  30.107  1.00  0.00    -0.461 OA
BRANCH   2   3
ATOM      3  C   UNL A   1      34.444  33.759  31.400  1.00  0.00     0.329 C 
ATOM      4  O   UNL A   1      34.342  32.634  31.879  1.00  0.00    -0.250 OA
BRANCH   3   5
ATOM      5  C   UNL A   1      34.805  34.992  32.235  1.00  0.00     0.198 C 
ATOM      6  C   UNL A   1      33.652  35.854  32.740  1.00  0.00     0.044 C 
BRANCH   5   7
ATOM      7  N   UNL A   1      35.695  34.484  33.276  1.00  0.00    -0.284 N 
ATOM      8  C   UNL A   1      39.190  33.187  33.860  1.00  0.00     0.007 A 
ATOM      9  C   UNL A   1      39.558  32.589  35.054  1.00  0.00     0.076 A 
ATOM     10  C   UNL A   1      37.842  33.673  33.934  1.00  0.00     0.085 A 
ATOM     11  S   UNL A   1      38.283  32.540  36.191  1.00  0.00    -0.123 S 
ATOM     12  C   UNL A   1      37.215  33.301  35.105  1.00  0.00     0.131 A 
ATOM     13  C   UNL A   1      37.053  34.387  32.946  1.00  0.00     0.263 A 
ATOM     14  N   UNL A   1      35.904  33.456  35.411  1.00  0.00    -0.227 NA
ATOM     15  O   UNL A   1      37.525  34.869  31.933  1.00  0.00    -0.268 OA
ATOM     16  C   UNL A   1      35.202  34.001  34.471  1.00  0.00     0.204 A 
BRANCH   8  17
ATOM     17  C   UNL A   1      40.098  33.168  32.717  1.00  0.00    -0.016 A 
ATOM     18  C   UNL A   1      41.897  33.188  30.563  1.00  0.00     0.119 A 
ATOM     19  C   UNL A   1      41.054  32.096  30.759  1.00  0.00     0.047 A 
ATOM     20  C   UNL A   1      41.826  34.282  31.419  1.00  0.00     0.047 A 
ATOM     21  C   UNL A   1      40.155  32.086  31.832  1.00  0.00     0.012 A 
ATOM     22  C   UNL A   1      40.947  34.264  32.502  1.00  0.00     0.012 A 
BRANCH  18  23
ATOM     23  O   UNL A   1      42.682  33.204  29.445  1.00  0.00    -0.494 OA
BRANCH  23  24
ATOM     24  C   UNL A   1      43.750  32.249  29.473  1.00  0.00     0.226 C 
ATOM     25  C   UNL A   1      44.763  32.492  28.363  1.00  0.00     0.049 C 
ENDBRANCH  23  24
ENDBRANCH  18  23
ENDBRANCH   8  17
ENDBRANCH   5   7
ENDBRANCH   3   5
ENDBRANCH   2   3
ENDBRANCH   1   2
BRANCH   1  26
ATOM     26  C   UNL A   1      34.900  32.831  28.116  1.00  0.00     0.275 C 
BRANCH  26  27
ATOM     27  O   UNL A   1      34.701  31.545  28.705  1.00  0.00    -0.458 OA
BRANCH  27  28
ATOM     28  C   UNL A   1      35.463  30.572  28.161  1.00  0.00     0.338 C 
ATOM     29  O   UNL A   1      35.169  29.851  27.220  1.00  0.00    -0.246 OA
BRANCH  28  30
ATOM     30  C   UNL A   1      36.664  30.339  28.956  1.00  0.00     0.060 A 
ATOM     31  C   UNL A   1      37.869  30.829  28.436  1.00  0.00     0.016 A 
ATOM     32  C   UNL A   1      36.619  29.351  29.942  1.00  0.00     0.016 A 
ATOM     33  C   UNL A   1      39.033  30.164  28.747  1.00  0.00     0.010 A 
ATOM     34  C   UNL A   1      37.776  28.674  30.230  1.00  0.00     0.010 A 
ATOM     35  C   UNL A   1      38.946  29.035  29.563  1.00  0.00    -0.014 A 
BRANCH  35  36
ATOM     36  C   UNL A   1      40.127  28.216  29.725  1.00  0.00     0.031 A 
ATOM     37  C   UNL A   1      40.675  28.203  31.096  1.00  0.00     0.074 A 
ATOM     38  C   UNL A   1      40.555  27.410  28.737  1.00  0.00     0.049 A 
ATOM     39  N   UNL A   1      41.854  28.551  31.486  1.00  0.00    -0.248 NA
ATOM     40  C   UNL A   1      39.745  27.862  32.185  1.00  0.00     0.031 C 
ATOM     41  C   UNL A   1      39.891  27.121  27.462  1.00  0.00     0.029 A 
ATOM     42  N   UNL A   1      41.613  26.557  28.739  1.00  0.00    -0.354 N 
ATOM     43  C   UNL A   1      41.874  28.309  32.855  1.00  0.00     0.074 A 
ATOM     44  C   UNL A   1      40.514  28.056  33.252  1.00  0.00     0.031 C 
ATOM     45  C   UNL A   1      40.426  25.999  26.933  1.00  0.00     0.029 A 
ATOM     46  C   UNL A   1      41.537  25.572  27.767  1.00  0.00     0.049 A 
ATOM     47  H   UNL A   1      42.364  26.632  29.371  1.00  0.00     0.167 HD
ATOM     48  C   UNL A   1      43.034  28.074  33.524  1.00  0.00     0.031 A 
ATOM     49  C   UNL A   1      42.279  24.440  27.710  1.00  0.00     0.031 A 
ATOM     50  C   UNL A   1      44.185  28.520  32.786  1.00  0.00     0.049 A 
ATOM     51  C   UNL A   1      43.456  24.621  28.591  1.00  0.00     0.074 A 
ATOM     52  C   UNL A   1      44.618  29.738  32.302  1.00  0.00     0.029 A 
ATOM     53  N   UNL A   1      44.919  27.566  32.125  1.00  0.00    -0.354 N 
ATOM     54  N   UNL A   1      44.425  25.451  28.337  1.00  0.00    -0.248 NA
ATOM     55  C   UNL A   1      43.358  24.187  29.977  1.00  0.00     0.031 C 
ATOM     56  C   UNL A   1      45.255  29.439  31.061  1.00  0.00     0.029 A 
ATOM     57  C   UNL A   1      45.208  28.055  30.878  1.00  0.00     0.049 A 
ATOM     58  H   UNL A   1      45.188  26.689  32.481  1.00  0.00     0.167 HD
ATOM     59  C   UNL A   1      44.777  25.976  29.572  1.00  0.00     0.074 A 
ATOM     60  C   UNL A   1      44.179  25.072  30.551  1.00  0.00     0.031 C 
ATOM     61  C   UNL A   1      45.273  27.245  29.681  1.00  0.00     0.031 A 
BRANCH  48  62
ATOM     62  C   UNL A   1      43.129  27.068  34.642  1.00  0.00    -0.014 A 
ATOM     63  C   UNL A   1      43.139  25.701  34.321  1.00  0.00     0.009 A 
ATOM     64  C   UNL A   1      42.931  27.398  35.998  1.00  0.00     0.009 A 
ATOM     65  C   UNL A   1      42.896  24.725  35.297  1.00  0.00     0.001 A 
ATOM     66  C   UNL A   1      42.735  26.426  36.981  1.00  0.00     0.001 A 
ATOM     67  C   UNL A   1      42.690  25.089  36.624  1.00  0.00     0.000 A 
ENDBRANCH  48  62
BRANCH  49  68
ATOM     68  C   UNL A   1      41.892  23.127  27.157  1.00  0.00    -0.014 A 
ATOM     69  C   UNL A   1      42.801  22.358  26.417  1.00  0.00     0.009 A 
ATOM     70  C   UNL A   1      40.689  22.516  27.559  1.00  0.00     0.009 A 
ATOM     71  C   UNL A   1      42.525  21.018  26.112  1.00  0.00     0.001 A 
ATOM     72  C   UNL A   1      40.411  21.181  27.250  1.00  0.00     0.001 A 
ATOM     73  C   UNL A   1      41.335  20.429  26.537  1.00  0.00     0.000 A 
ENDBRANCH  49  68
BRANCH  61  74
ATOM     74  C   UNL A   1      45.646  27.960  28.405  1.00  0.00    -0.014 A 
ATOM     75  C   UNL A   1      44.703  28.641  27.614  1.00  0.00     0.009 A 
ATOM     76  C   UNL A   1      47.003  28.082  28.072  1.00  0.00     0.009 A 
ATOM     77  C   UNL A   1      45.103  29.390  26.503  1.00  0.00     0.001 A 
ATOM     78  C   UNL A   1      47.404  28.848  26.975  1.00  0.00     0.001 A 
ATOM     79  C   UNL A   1      46.455  29.497  26.188  1.00  0.00     0.000 A 
ENDBRANCH  61  74
ENDBRANCH  35  36
ENDBRANCH  28  30
ENDBRANCH  27  28
ENDBRANCH  26  27
ENDBRANCH   1  26
TORSDOF 15
ENDMDL
MODEL 2
REMARK VINA RESULT:      -9.5      4.653      9.598
REMARK SMILES CCOc1ccc(-c2csc3ncn([C@H](C)C(=O)OCCOC(=O)c4ccc(-c5c6nc(c(-c7ccccc7)c7ccc([nH]7)c(-c7ccccc7)c7nc(c(-c8ccccc8)c8ccc5[nH]8)C=C7)C=C6)cc4)c(=O)c23)cc1
REMARK SMILES IDX 20 1 19 2 17 3 18 4 15 5 16 6 14 7 8 8 9 9 75 10 10 11 11 12
REMARK SMILES IDX 73 13 12 14 74 15 13 16 7 17 4 18 5 19 77 20 6 21 76 22 3 23
REMARK SMILES IDX 2 24 1 25 21 26 22 27 23 28 24 29 25 30 26 31 72 32 27 33
REMARK SMILES IDX 71 34 28 35 29 36 30 37 65 38 31 39 70 40 64 41 66 42 32 43
REMARK SMILES IDX 69 44 63 45 62 46 33 48 55 49 40 50 54 51 41 52 44 53 53 54
REMARK SMILES IDX 67 55 42 56 43 57 52 59 68 60 45 61 34 62 35 63 39 64 36 65
REMARK SMILES IDX 38 66 37 67 56 68 57 69 61 70 58 71 60 72 59 73 46 74 47 75
REMARK SMILES IDX 51 76 48 77 50 78 49 79
REMARK H PARENT 66 47 44 58
REMARK Flexibility Score: inf
ROOT
ATOM      1  C   UNL A   1      34.522  31.328  27.580  1.00  0.00     0.274 C 
ENDROOT
BRANCH   1   2
ATOM      2  O   UNL A   1      33.504  30.307  27.642  1.00  0.00    -0.461 OA
BRANCH   2   3
ATOM      3  C   UNL A   1      33.891  29.078  27.192  1.00  0.00     0.329 C 
ATOM      4  O   UNL A   1      35.020  28.828  26.784  1.00  0.00    -0.250 OA
BRANCH   3   5
ATOM      5  C   UNL A   1      32.735  28.075  27.117  1.00  0.00     0.198 C 
ATOM      6  C   UNL A   1      31.403  28.500  27.726  1.00  0.00     0.044 C 
BRANCH   5   7
ATOM      7  N   UNL A   1      32.673  27.689  25.710  1.00  0.00    -0.284 N 
ATOM      8  C   UNL A   1      32.790  24.696  23.414  1.00  0.00     0.007 A 
ATOM      9  C   UNL A   1      32.903  24.833  22.041  1.00  0.00     0.076 A 
ATOM     10  C   UNL A   1      32.672  25.982  24.040  1.00  0.00     0.085 A 
ATOM     11  S   UNL A   1      32.954  26.466  21.539  1.00  0.00    -0.123 S 
ATOM     12  C   UNL A   1      32.842  27.018  23.146  1.00  0.00     0.131 A 
ATOM     13  C   UNL A   1      32.503  26.324  25.441  1.00  0.00     0.263 A 
ATOM     14  N   UNL A   1      32.954  28.336  23.438  1.00  0.00    -0.227 NA
ATOM     15  O   UNL A   1      32.226  25.509  26.302  1.00  0.00    -0.268 OA
ATOM     16  C   UNL A   1      32.903  28.604  24.703  1.00  0.00     0.204 A 
BRANCH   8  17
ATOM     17  C   UNL A   1      32.899  23.379  24.035  1.00  0.00    -0.016 A 
ATOM     18  C   UNL A   1      33.196  20.864  25.244  1.00  0.00     0.119 A 
ATOM     19  C   UNL A   1      31.941  21.467  25.184  1.00  0.00     0.047 A 
ATOM     20  C   UNL A   1      34.298  21.497  24.677  1.00  0.00     0.047 A 
ATOM     21  C   UNL A   1      31.792  22.720  24.579  1.00  0.00     0.012 A 
ATOM     22  C   UNL A   1      34.155  22.757  24.095  1.00  0.00     0.012 A 
BRANCH  18  23
ATOM     23  O   UNL A   1      33.281  19.597  25.747  1.00  0.00    -0.494 OA
BRANCH  23  24
ATOM     24  C   UNL A   1      32.870  18.579  24.825  1.00  0.00     0.226 C 
ATOM     25  C   UNL A   1      34.048  17.761  24.316  1.00  0.00     0.049 C 
ENDBRANCH  23  24
ENDBRANCH  18  23
ENDBRANCH   8  17
ENDBRANCH   5   7
ENDBRANCH   3   5
ENDBRANCH   2   3
ENDBRANCH   1   2
BRANCH   1  26
ATOM     26  C   UNL A   1      35.046  31.700  28.964  1.00  0.00     0.275 C 
BRANCH  26  27
ATOM     27  O   UNL A   1      36.393  31.265  29.161  1.00  0.00    -0.458 OA
BRANCH  27  28
ATOM     28  C   UNL A   1      36.504  30.174  29.948  1.00  0.00     0.338 C 
ATOM     29  O   UNL A   1      36.035  30.027  31.065  1.00  0.00    -0.246 OA
BRANCH  28  30
ATOM     30  C   UNL A   1      37.429  29.204  29.372  1.00  0.00     0.060 A 
ATOM     31  C   UNL A   1      37.924  28.216  30.234  1.00  0.00     0.016 A 
ATOM     32  C   UNL A   1      38.050  29.524  28.163  1.00  0.00     0.016 A 
ATOM     33  C   UNL A   1      39.176  27.702  29.987  1.00  0.00     0.010 A 
ATOM     34  C   UNL A   1      39.308  29.030  27.932  1.00  0.00     0.010 A 
ATOM     35  C   UNL A   1      39.885  28.196  28.891  1.00  0.00    -0.014 A 
BRANCH  35  36
ATOM     36  C   UNL A   1      41.271  27.815  28.744  1.00  0.00     0.031 A 
ATOM     37  C   UNL A   1      41.478  26.510  28.086  1.00  0.00     0.074 A 
ATOM     38  C   UNL A   1      42.264  28.677  29.031  1.00  0.00     0.049 A 
ATOM     39  N   UNL A   1      42.085  25.470  28.549  1.00  0.00    -0.248 NA
ATOM     40  C   UNL A   1      40.822  26.307  26.784  1.00  0.00     0.031 C 
ATOM     41  C   UNL A   1      42.146  30.095  29.385  1.00  0.00     0.029 A 
ATOM     42  N   UNL A   1      43.605  28.493  28.915  1.00  0.00    -0.354 N 
ATOM     43  C   UNL A   1      42.039  24.531  27.526  1.00  0.00     0.074 A 
ATOM     44  C   UNL A   1      41.112  25.031  26.544  1.00  0.00     0.031 C 
ATOM     45  C   UNL A   1      43.348  30.690  29.217  1.00  0.00     0.029 A 
ATOM     46  C   UNL A   1      44.328  29.675  28.866  1.00  0.00     0.049 A 
ATOM     47  H   UNL A   1      44.025  27.604  28.870  1.00  0.00     0.167 HD
ATOM     48  C   UNL A   1      42.959  23.535  27.425  1.00  0.00     0.031 A 
ATOM     49  C   UNL A   1      45.617  29.813  28.477  1.00  0.00     0.031 A 
ATOM     50  C   UNL A   1      43.660  23.318  28.662  1.00  0.00     0.049 A 
ATOM     51  C   UNL A   1      46.252  28.475  28.517  1.00  0.00     0.074 A 
ATOM     52  C   UNL A   1      43.287  22.953  29.940  1.00  0.00     0.029 A 
ATOM     53  N   UNL A   1      44.926  23.841  28.770  1.00  0.00    -0.354 N 
ATOM     54  N   UNL A   1      46.495  27.826  29.618  1.00  0.00    -0.248 NA
ATOM     55  C   UNL A   1      46.237  27.663  27.309  1.00  0.00     0.031 C 
ATOM     56  C   UNL A   1      44.153  23.687  30.803  1.00  0.00     0.029 A 
ATOM     57  C   UNL A   1      45.028  24.427  30.005  1.00  0.00     0.049 A 
ATOM     58  H   UNL A   1      45.631  23.802  28.085  1.00  0.00     0.167 HD
ATOM     59  C   UNL A   1      46.233  26.497  29.314  1.00  0.00     0.074 A 
ATOM     60  C   UNL A   1      46.203  26.444  27.855  1.00  0.00     0.031 C 
ATOM     61  C   UNL A   1      45.781  25.633  30.271  1.00  0.00     0.031 A 
BRANCH  48  62
ATOM     62  C   UNL A   1      43.496  23.066  26.097  1.00  0.00    -0.014 A 
ATOM     63  C   UNL A   1      43.422  21.699  25.783  1.00  0.00     0.009 A 
ATOM     64  C   UNL A   1      44.316  23.861  25.270  1.00  0.00     0.009 A 
ATOM     65  C   UNL A   1      44.180  21.152  24.740  1.00  0.00     0.001 A 
ATOM     66  C   UNL A   1      45.035  23.328  24.200  1.00  0.00     0.001 A 
ATOM     67  C   UNL A   1      44.989  21.966  23.953  1.00  0.00     0.000 A 
ENDBRANCH  48  62
BRANCH  49  68
ATOM     68  C   UNL A   1      46.249  30.975  27.820  1.00  0.00    -0.014 A 
ATOM     69  C   UNL A   1      45.747  31.486  26.616  1.00  0.00     0.009 A 
ATOM     70  C   UNL A   1      47.215  31.737  28.505  1.00  0.00     0.009 A 
ATOM     71  C   UNL A   1      46.179  32.726  26.127  1.00  0.00     0.001 A 
ATOM     72  C   UNL A   1      47.650  32.971  28.016  1.00  0.00     0.001 A 
ATOM     73  C   UNL A   1      47.122  33.472  26.832  1.00  0.00     0.000 A 
ENDBRANCH  49  68
BRANCH  61  74
ATOM     74  C   UNL A   1      45.808  26.104  31.705  1.00  0.00    -0.014 A 
ATOM     75  C   UNL A   1      44.754  26.836  32.283  1.00  0.00     0.009 A 
ATOM     76  C   UNL A   1      46.849  25.670  32.539  1.00  0.00     0.009 A 
ATOM     77  C   UNL A   1      44.760  27.154  33.644  1.00  0.00     0.001 A 
ATOM     78  C   UNL A   1      46.844  25.969  33.904  1.00  0.00     0.001 A 
ATOM     79  C   UNL A   1      45.804  26.715  34.455  1.00  0.00     0.000 A 
ENDBRANCH  61  74
ENDBRANCH  35  36
ENDBRANCH  28  30
ENDBRANCH  27  28
ENDBRANCH  26  27
ENDBRANCH   1  26
TORSDOF 15
ENDMDL
MODEL 3
REMARK VINA RESULT:      -9.4      4.523     10.338
REMARK SMILES CCOc1ccc(-c2csc3ncn([C@H](C)C(=O)OCCOC(=O)c4ccc(-c5c6nc(c(-c7ccccc7)c7ccc([nH]7)c(-c7ccccc7)c7nc(c(-c8ccccc8)c8ccc5[nH]8)C=C7)C=C6)cc4)c(=O)c23)cc1
REMARK SMILES IDX 20 1 19 2 17 3 18 4 15 5 16 6 14 7 8 8 9 9 75 10 10 11 11 12
REMARK SMILES IDX 73 13 12 14 74 15 13 16 7 17 4 18 5 19 77 20 6 21 76 22 3 23
REMARK SMILES IDX 2 24 1 25 21 26 22 27 23 28 24 29 25 30 26 31 72 32 27 33
REMARK SMILES IDX 71 34 28 35 29 36 30 37 65 38 31 39 70 40 64 41 66 42 32 43
REMARK SMILES IDX 69 44 63 45 62 46 33 48 55 49 40 50 54 51 41 52 44 53 53 54
REMARK SMILES IDX 67 55 42 56 43 57 52 59 68 60 45 61 34 62 35 63 39 64 36 65
REMARK SMILES IDX 38 66 37 67 56 68 57 69 61 70 58 71 60 72 59 73 46 74 47 75
REMARK SMILES IDX 51 76 48 77 50 78 49 79
REMARK H PARENT 66 47 44 58
REMARK Flexibility Score: inf
ROOT
ATOM      1  C   UNL A   1      38.839  21.908  26.355  1.00  0.00     0.274 C 
ENDROOT
BRANCH   1   2
ATOM      2  O   UNL A   1      37.914  22.115  25.266  1.00  0.00    -0.461 OA
BRANCH   2   3
ATOM      3  C   UNL A   1      37.090  23.193  25.406  1.00  0.00     0.329 C 
ATOM      4  O   UNL A   1      36.968  23.825  26.451  1.00  0.00    -0.250 OA
BRANCH   3   5
ATOM      5  C   UNL A   1      36.227  23.455  24.167  1.00  0.00     0.198 C 
ATOM      6  C   UNL A   1      36.654  22.782  22.866  1.00  0.00     0.044 C 
BRANCH   5   7
ATOM      7  N   UNL A   1      34.864  23.153  24.598  1.00  0.00    -0.284 N 
ATOM      8  C   UNL A   1      31.598  24.775  25.567  1.00  0.00     0.007 A 
ATOM      9  C   UNL A   1      30.564  24.052  26.136  1.00  0.00     0.076 A 
ATOM     10  C   UNL A   1      32.683  23.907  25.209  1.00  0.00     0.085 A 
ATOM     11  S   UNL A   1      30.933  22.393  26.312  1.00  0.00    -0.123 S 
ATOM     12  C   UNL A   1      32.484  22.614  25.646  1.00  0.00     0.131 A 
ATOM     13  C   UNL A   1      33.948  24.212  24.565  1.00  0.00     0.263 A 
ATOM     14  N   UNL A   1      33.381  21.598  25.617  1.00  0.00    -0.227 NA
ATOM     15  O   UNL A   1      34.189  25.280  24.034  1.00  0.00    -0.268 OA
ATOM     16  C   UNL A   1      34.535  21.924  25.133  1.00  0.00     0.204 A 
BRANCH   8  17
ATOM     17  C   UNL A   1      31.525  26.232  25.493  1.00  0.00    -0.016 A 
ATOM     18  C   UNL A   1      31.449  29.036  25.415  1.00  0.00     0.119 A 
ATOM     19  C   UNL A   1      31.032  28.294  24.311  1.00  0.00     0.047 A 
ATOM     20  C   UNL A   1      31.875  28.384  26.568  1.00  0.00     0.047 A 
ATOM     21  C   UNL A   1      31.068  26.895  24.350  1.00  0.00     0.012 A 
ATOM     22  C   UNL A   1      31.934  26.990  26.600  1.00  0.00     0.012 A 
BRANCH  18  23
ATOM     23  O   UNL A   1      31.298  30.393  25.376  1.00  0.00    -0.494 OA
BRANCH  23  24
ATOM     24  C   UNL A   1      32.107  31.094  26.329  1.00  0.00     0.226 C 
ATOM     25  C   UNL A   1      31.403  32.326  26.879  1.00  0.00     0.049 C 
ENDBRANCH  23  24
ENDBRANCH  18  23
ENDBRANCH   8  17
ENDBRANCH   5   7
ENDBRANCH   3   5
ENDBRANCH   2   3
ENDBRANCH   1   2
BRANCH   1  26
ATOM     26  C   UNL A   1      40.150  22.660  26.144  1.00  0.00     0.275 C 
BRANCH  26  27
ATOM     27  O   UNL A   1      40.303  23.738  27.068  1.00  0.00    -0.458 OA
BRANCH  27  28
ATOM     28  C   UNL A   1      40.704  24.894  26.497  1.00  0.00     0.338 C 
ATOM     29  O   UNL A   1      41.600  25.034  25.680  1.00  0.00    -0.246 OA
BRANCH  28  30
ATOM     30  C   UNL A   1      40.041  26.040  27.110  1.00  0.00     0.060 A 
ATOM     31  C   UNL A   1      40.459  27.309  26.689  1.00  0.00     0.016 A 
ATOM     32  C   UNL A   1      39.346  25.836  28.304  1.00  0.00     0.016 A 
ATOM     33  C   UNL A   1      40.375  28.354  27.581  1.00  0.00     0.010 A 
ATOM     34  C   UNL A   1      39.287  26.872  29.201  1.00  0.00     0.010 A 
ATOM     35  C   UNL A   1      39.879  28.088  28.858  1.00  0.00    -0.014 A 
BRANCH  35  36
ATOM     36  C   UNL A   1      39.979  29.126  29.860  1.00  0.00     0.031 A 
ATOM     37  C   UNL A   1      38.776  29.973  29.982  1.00  0.00     0.074 A 
ATOM     38  C   UNL A   1      41.020  29.173  30.711  1.00  0.00     0.049 A 
ATOM     39  N   UNL A   1      38.682  31.250  29.836  1.00  0.00    -0.248 NA
ATOM     40  C   UNL A   1      37.491  29.283  30.184  1.00  0.00     0.031 C 
ATOM     41  C   UNL A   1      42.096  28.189  30.869  1.00  0.00     0.029 A 
ATOM     42  N   UNL A   1      41.247  30.050  31.724  1.00  0.00    -0.354 N 
ATOM     43  C   UNL A   1      37.352  31.554  30.098  1.00  0.00     0.074 A 
ATOM     44  C   UNL A   1      36.639  30.304  30.133  1.00  0.00     0.031 C 
ATOM     45  C   UNL A   1      42.709  28.396  32.056  1.00  0.00     0.029 A 
ATOM     46  C   UNL A   1      42.149  29.589  32.670  1.00  0.00     0.049 A 
ATOM     47  H   UNL A   1      40.811  30.931  31.781  1.00  0.00     0.167 HD
ATOM     48  C   UNL A   1      36.969  32.786  30.528  1.00  0.00     0.031 A 
ATOM     49  C   UNL A   1      42.352  30.104  33.905  1.00  0.00     0.031 A 
ATOM     50  C   UNL A   1      37.967  33.786  30.264  1.00  0.00     0.049 A 
ATOM     51  C   UNL A   1      41.777  31.469  33.931  1.00  0.00     0.074 A 
ATOM     52  C   UNL A   1      38.569  34.283  29.126  1.00  0.00     0.029 A 
ATOM     53  N   UNL A   1      38.759  34.180  31.315  1.00  0.00    -0.354 N 
ATOM     54  N   UNL A   1      42.272  32.472  33.266  1.00  0.00    -0.248 NA
ATOM     55  C   UNL A   1      40.397  31.633  34.363  1.00  0.00     0.031 C 
ATOM     56  C   UNL A   1      39.917  34.552  29.505  1.00  0.00     0.029 A 
ATOM     57  C   UNL A   1      40.051  34.242  30.860  1.00  0.00     0.049 A 
ATOM     58  H   UNL A   1      38.456  34.380  32.229  1.00  0.00     0.167 HD
ATOM     59  C   UNL A   1      41.167  33.186  32.823  1.00  0.00     0.074 A 
ATOM     60  C   UNL A   1      40.054  32.697  33.632  1.00  0.00     0.031 C 
ATOM     61  C   UNL A   1      41.209  33.891  31.653  1.00  0.00     0.031 A 
BRANCH  48  62
ATOM     62  C   UNL A   1      35.880  32.979  31.553  1.00  0.00    -0.014 A 
ATOM     63  C   UNL A   1      34.773  33.776  31.220  1.00  0.00     0.009 A 
ATOM     64  C   UNL A   1      36.031  32.641  32.913  1.00  0.00     0.009 A 
ATOM     65  C   UNL A   1      33.906  34.261  32.207  1.00  0.00     0.001 A 
ATOM     66  C   UNL A   1      35.142  33.084  33.893  1.00  0.00     0.001 A 
ATOM     67  C   UNL A   1      34.094  33.919  33.543  1.00  0.00     0.000 A 
ENDBRANCH  48  62
BRANCH  49  68
ATOM     68  C   UNL A   1      42.767  29.391  35.131  1.00  0.00    -0.014 A 
ATOM     69  C   UNL A   1      42.025  28.309  35.624  1.00  0.00     0.009 A 
ATOM     70  C   UNL A   1      44.036  29.628  35.691  1.00  0.00     0.009 A 
ATOM     71  C   UNL A   1      42.546  27.480  36.626  1.00  0.00     0.001 A 
ATOM     72  C   UNL A   1      44.554  28.804  36.695  1.00  0.00     0.001 A 
ATOM     73  C   UNL A   1      43.813  27.722  37.154  1.00  0.00     0.000 A 
ENDBRANCH  49  68
BRANCH  61  74
ATOM     74  C   UNL A   1      42.554  34.062  30.989  1.00  0.00    -0.014 A 
ATOM     75  C   UNL A   1      43.082  33.118  30.090  1.00  0.00     0.009 A 
ATOM     76  C   UNL A   1      43.237  35.276  31.154  1.00  0.00     0.009 A 
ATOM     77  C   UNL A   1      44.275  33.365  29.406  1.00  0.00     0.001 A 
ATOM     78  C   UNL A   1      44.418  35.532  30.452  1.00  0.00     0.001 A 
ATOM     79  C   UNL A   1      44.940  34.575  29.584  1.00  0.00     0.000 A 
ENDBRANCH  61  74
ENDBRANCH  35  36
ENDBRANCH  28  30
ENDBRANCH  27  28
ENDBRANCH  26  27
ENDBRANCH   1  26
TORSDOF 15
ENDMDL
