MODEL 1
REMARK VINA RESULT:     -10.8      0.000      0.000
REMARK SMILES Cc1c(Cl)cc2c(c1C)O[C@@H](C(F)(F)F)C(C(=O)OCCOC(=O)c1ccc(-c3c4nc(c(-c5ccccc5)c5ccc([nH]5)c(-c5ccccc5)c5nc(c(-c6ccccc6)c6ccc3[nH]6)C=C5)C=C4)cc1)=C2
REMARK SMILES IDX 21 1 20 2 19 3 17 4 18 5 16 6 1 7 2 8 3 9 8 10 4 11 5 12
REMARK SMILES IDX 7 13 9 14 6 15 10 16 73 17 11 18 12 19 13 20 14 21 15 22
REMARK SMILES IDX 22 23 23 24 24 25 25 26 26 27 72 28 27 29 71 30 28 31 29 32
REMARK SMILES IDX 30 33 65 34 31 35 70 36 64 37 66 38 32 39 69 40 63 41 62 42
REMARK SMILES IDX 33 44 55 45 40 46 54 47 41 48 44 49 53 50 67 51 42 52 43 53
REMARK SMILES IDX 52 55 68 56 45 57 34 58 35 59 39 60 36 61 38 62 37 63 56 64
REMARK SMILES IDX 57 65 61 66 58 67 60 68 59 69 46 70 47 71 51 72 48 73 50 74
REMARK SMILES IDX 49 75
REMARK H PARENT 66 43 44 54
REMARK Flexibility Score: inf
ROOT
ATOM      1  C   UNL A   1      32.585  29.215  27.024  1.00  0.00     0.275 C 
ENDROOT
BRANCH   1   2
ATOM      2  C   UNL A   1      32.729  29.202  25.503  1.00  0.00     0.275 C 
BRANCH   2   3
ATOM      3  O   UNL A   1      33.169  27.906  25.046  1.00  0.00    -0.459 OA
BRANCH   3   4
ATOM      4  C   UNL A   1      32.198  27.003  24.792  1.00  0.00     0.338 C 
ATOM      5  O   UNL A   1      31.070  27.251  24.400  1.00  0.00    -0.246 OA
BRANCH   4   6
ATOM      6  C   UNL A   1      32.708  25.628  24.960  1.00  0.00     0.087 C 
ATOM      7  C   UNL A   1      36.427  20.264  25.000  1.00  0.00     0.046 C 
ATOM      8  C   UNL A   1      35.778  21.620  25.128  1.00  0.00    -0.026 A 
ATOM      9  C   UNL A   1      36.516  22.745  25.543  1.00  0.00     0.045 A 
ATOM     10  C   UNL A   1      34.407  21.791  24.784  1.00  0.00    -0.004 A 
ATOM     11  Cl  UNL A   1      38.182  22.658  26.006  1.00  0.00    -0.084 Cl
ATOM     12  C   UNL A   1      35.932  24.011  25.573  1.00  0.00     0.032 A 
ATOM     13  C   UNL A   1      33.826  23.074  24.849  1.00  0.00     0.131 A 
ATOM     14  C   UNL A   1      33.539  20.641  24.334  1.00  0.00     0.049 C 
ATOM     15  C   UNL A   1      34.600  24.177  25.202  1.00  0.00     0.019 A 
ATOM     16  O   UNL A   1      32.511  23.206  24.474  1.00  0.00    -0.475 OA
ATOM     17  C   UNL A   1      34.034  25.506  25.090  1.00  0.00     0.027 C 
ATOM     18  C   UNL A   1      31.803  24.428  24.862  1.00  0.00     0.316 C 
BRANCH  18  19
ATOM     19  C   UNL A   1      30.938  24.152  26.105  1.00  0.00     0.430 C 
ATOM     20  F   UNL A   1      30.394  22.909  26.048  1.00  0.00    -0.167 F 
ATOM     21  F   UNL A   1      31.644  24.229  27.253  1.00  0.00    -0.167 F 
ATOM     22  F   UNL A   1      29.895  25.008  26.199  1.00  0.00    -0.167 F 
ENDBRANCH  18  19
ENDBRANCH   4   6
ENDBRANCH   3   4
ENDBRANCH   2   3
ENDBRANCH   1   2
BRANCH   1  23
ATOM     23  O   UNL A   1      33.883  29.069  27.634  1.00  0.00    -0.458 OA
BRANCH  23  24
ATOM     24  C   UNL A   1      34.488  30.215  28.015  1.00  0.00     0.338 C 
ATOM     25  O   UNL A   1      33.974  31.313  28.176  1.00  0.00    -0.246 OA
BRANCH  24  26
ATOM     26  C   UNL A   1      35.915  29.965  28.268  1.00  0.00     0.060 A 
ATOM     27  C   UNL A   1      36.833  30.207  27.251  1.00  0.00     0.016 A 
ATOM     28  C   UNL A   1      36.329  29.358  29.452  1.00  0.00     0.016 A 
ATOM     29  C   UNL A   1      38.142  29.741  27.362  1.00  0.00     0.010 A 
ATOM     30  C   UNL A   1      37.673  28.997  29.609  1.00  0.00     0.010 A 
ATOM     31  C   UNL A   1      38.589  29.144  28.551  1.00  0.00    -0.014 A 
BRANCH  31  32
ATOM     32  C   UNL A   1      39.992  28.647  28.671  1.00  0.00     0.031 A 
ATOM     33  C   UNL A   1      41.084  29.555  29.179  1.00  0.00     0.074 A 
ATOM     34  C   UNL A   1      40.300  27.372  28.351  1.00  0.00     0.049 A 
ATOM     35  N   UNL A   1      42.381  29.363  29.193  1.00  0.00    -0.248 NA
ATOM     36  C   UNL A   1      40.669  30.852  29.738  1.00  0.00     0.031 C 
ATOM     37  C   UNL A   1      39.350  26.353  27.903  1.00  0.00     0.029 A 
ATOM     38  N   UNL A   1      41.504  26.710  28.378  1.00  0.00    -0.354 N 
ATOM     39  C   UNL A   1      42.934  30.531  29.705  1.00  0.00     0.074 A 
ATOM     40  C   UNL A   1      41.836  31.429  29.988  1.00  0.00     0.031 C 
ATOM     41  C   UNL A   1      39.992  25.183  27.763  1.00  0.00     0.029 A 
ATOM     42  C   UNL A   1      41.414  25.389  28.009  1.00  0.00     0.049 A 
ATOM     43  H   UNL A   1      42.351  27.140  28.635  1.00  0.00     0.167 HD
ATOM     44  C   UNL A   1      44.239  30.831  29.918  1.00  0.00     0.031 A 
ATOM     45  C   UNL A   1      42.366  24.449  27.847  1.00  0.00     0.031 A 
ATOM     46  C   UNL A   1      45.333  29.926  29.682  1.00  0.00     0.049 A 
ATOM     47  C   UNL A   1      43.807  24.817  28.043  1.00  0.00     0.074 A 
ATOM     48  C   UNL A   1      46.688  30.150  29.854  1.00  0.00     0.029 A 
ATOM     49  N   UNL A   1      45.196  28.618  29.250  1.00  0.00    -0.354 N 
ATOM     50  N   UNL A   1      44.320  25.958  28.431  1.00  0.00    -0.248 NA
ATOM     51  C   UNL A   1      44.802  23.775  27.753  1.00  0.00     0.031 C 
ATOM     52  C   UNL A   1      47.374  28.986  29.494  1.00  0.00     0.029 A 
ATOM     53  C   UNL A   1      46.442  28.023  29.144  1.00  0.00     0.049 A 
ATOM     54  H   UNL A   1      44.339  28.175  29.049  1.00  0.00     0.167 HD
ATOM     55  C   UNL A   1      45.696  25.772  28.436  1.00  0.00     0.074 A 
ATOM     56  C   UNL A   1      45.937  24.401  28.035  1.00  0.00     0.031 C 
ATOM     57  C   UNL A   1      46.670  26.661  28.740  1.00  0.00     0.031 A 
BRANCH  44  58
ATOM     58  C   UNL A   1      44.567  32.215  30.404  1.00  0.00    -0.014 A 
ATOM     59  C   UNL A   1      44.718  33.289  29.514  1.00  0.00     0.009 A 
ATOM     60  C   UNL A   1      44.666  32.458  31.784  1.00  0.00     0.009 A 
ATOM     61  C   UNL A   1      44.984  34.573  29.996  1.00  0.00     0.001 A 
ATOM     62  C   UNL A   1      44.907  33.746  32.264  1.00  0.00     0.001 A 
ATOM     63  C   UNL A   1      45.072  34.801  31.370  1.00  0.00     0.000 A 
ENDBRANCH  44  58
BRANCH  45  64
ATOM     64  C   UNL A   1      41.981  23.073  27.437  1.00  0.00    -0.014 A 
ATOM     65  C   UNL A   1      41.539  22.145  28.390  1.00  0.00     0.009 A 
ATOM     66  C   UNL A   1      42.028  22.690  26.086  1.00  0.00     0.009 A 
ATOM     67  C   UNL A   1      41.154  20.861  28.000  1.00  0.00     0.001 A 
ATOM     68  C   UNL A   1      41.614  21.416  25.695  1.00  0.00     0.001 A 
ATOM     69  C   UNL A   1      41.182  20.501  26.653  1.00  0.00     0.000 A 
ENDBRANCH  45  64
BRANCH  57  70
ATOM     70  C   UNL A   1      48.089  26.178  28.673  1.00  0.00    -0.014 A 
ATOM     71  C   UNL A   1      48.737  25.673  29.811  1.00  0.00     0.009 A 
ATOM     72  C   UNL A   1      48.767  26.177  27.444  1.00  0.00     0.009 A 
ATOM     73  C   UNL A   1      50.047  25.200  29.723  1.00  0.00     0.001 A 
ATOM     74  C   UNL A   1      50.068  25.682  27.355  1.00  0.00     0.001 A 
ATOM     75  C   UNL A   1      50.710  25.200  28.495  1.00  0.00     0.000 A 
ENDBRANCH  57  70
ENDBRANCH  31  32
ENDBRANCH  24  26
ENDBRANCH  23  24
ENDBRANCH   1  23
TORSDOF 12
ENDMDL
MODEL 2
REMARK VINA RESULT:     -10.7      2.887      6.811
REMARK SMILES Cc1c(Cl)cc2c(c1C)O[C@@H](C(F)(F)F)C(C(=O)OCCOC(=O)c1ccc(-c3c4nc(c(-c5ccccc5)c5ccc([nH]5)c(-c5ccccc5)c5nc(c(-c6ccccc6)c6ccc3[nH]6)C=C5)C=C4)cc1)=C2
REMARK SMILES IDX 21 1 20 2 19 3 17 4 18 5 16 6 1 7 2 8 3 9 8 10 4 11 5 12
REMARK SMILES IDX 7 13 9 14 6 15 10 16 73 17 11 18 12 19 13 20 14 21 15 22
REMARK SMILES IDX 22 23 23 24 24 25 25 26 26 27 72 28 27 29 71 30 28 31 29 32
REMARK SMILES IDX 30 33 65 34 31 35 70 36 64 37 66 38 32 39 69 40 63 41 62 42
REMARK SMILES IDX 33 44 55 45 40 46 54 47 41 48 44 49 53 50 67 51 42 52 43 53
REMARK SMILES IDX 52 55 68 56 45 57 34 58 35 59 39 60 36 61 38 62 37 63 56 64
REMARK SMILES IDX 57 65 61 66 58 67 60 68 59 69 46 70 47 71 51 72 48 73 50 74
REMARK SMILES IDX 49 75
REMARK H PARENT 66 43 44 54
REMARK Flexibility Score: inf
ROOT
ATOM      1  C   UNL A   1      35.931  20.535  25.052  1.00  0.00     0.275 C 
ENDROOT
BRANCH   1   2
ATOM      2  C   UNL A   1      34.658  21.199  24.530  1.00  0.00     0.275 C 
BRANCH   2   3
ATOM      3  O   UNL A   1      34.079  22.052  25.541  1.00  0.00    -0.459 OA
BRANCH   3   4
ATOM      4  C   UNL A   1      32.753  22.281  25.439  1.00  0.00     0.338 C 
ATOM      5  O   UNL A   1      31.863  21.508  25.753  1.00  0.00    -0.246 OA
BRANCH   4   6
ATOM      6  C   UNL A   1      32.496  23.659  24.976  1.00  0.00     0.087 C 
ATOM      7  C   UNL A   1      30.875  29.972  24.623  1.00  0.00     0.046 C 
ATOM      8  C   UNL A   1      31.412  28.593  24.916  1.00  0.00    -0.026 A 
ATOM      9  C   UNL A   1      32.128  28.324  26.098  1.00  0.00     0.045 A 
ATOM     10  C   UNL A   1      31.159  27.522  24.011  1.00  0.00    -0.004 A 
ATOM     11  Cl  UNL A   1      32.515  29.546  27.261  1.00  0.00    -0.084 Cl
ATOM     12  C   UNL A   1      32.544  27.028  26.402  1.00  0.00     0.032 A 
ATOM     13  C   UNL A   1      31.612  26.224  24.323  1.00  0.00     0.131 A 
ATOM     14  C   UNL A   1      30.404  27.719  22.720  1.00  0.00     0.049 C 
ATOM     15  C   UNL A   1      32.263  25.979  25.530  1.00  0.00     0.019 A 
ATOM     16  O   UNL A   1      31.317  25.209  23.444  1.00  0.00    -0.475 OA
ATOM     17  C   UNL A   1      32.560  24.614  25.912  1.00  0.00     0.027 C 
ATOM     18  C   UNL A   1      32.063  23.954  23.565  1.00  0.00     0.316 C 
BRANCH  18  19
ATOM     19  C   UNL A   1      33.184  23.917  22.510  1.00  0.00     0.430 C 
ATOM     20  F   UNL A   1      32.939  24.806  21.513  1.00  0.00    -0.167 F 
ATOM     21  F   UNL A   1      34.393  24.218  23.029  1.00  0.00    -0.167 F 
ATOM     22  F   UNL A   1      33.277  22.707  21.912  1.00  0.00    -0.167 F 
ENDBRANCH  18  19
ENDBRANCH   4   6
ENDBRANCH   3   4
ENDBRANCH   2   3
ENDBRANCH   1   2
BRANCH   1  23
ATOM     23  O   UNL A   1      37.057  21.407  24.832  1.00  0.00    -0.458 OA
BRANCH  23  24
ATOM     24  C   UNL A   1      38.217  21.030  25.411  1.00  0.00     0.338 C 
ATOM     25  O   UNL A   1      38.715  19.913  25.427  1.00  0.00    -0.246 OA
BRANCH  24  26
ATOM     26  C   UNL A   1      38.872  22.196  26.022  1.00  0.00     0.060 A 
ATOM     27  C   UNL A   1      38.315  23.458  25.835  1.00  0.00     0.016 A 
ATOM     28  C   UNL A   1      40.107  22.066  26.652  1.00  0.00     0.016 A 
ATOM     29  C   UNL A   1      39.038  24.600  26.172  1.00  0.00     0.010 A 
ATOM     30  C   UNL A   1      40.780  23.212  27.097  1.00  0.00     0.010 A 
ATOM     31  C   UNL A   1      40.275  24.497  26.825  1.00  0.00    -0.014 A 
BRANCH  31  32
ATOM     32  C   UNL A   1      41.049  25.721  27.187  1.00  0.00     0.031 A 
ATOM     33  C   UNL A   1      40.491  26.713  28.178  1.00  0.00     0.074 A 
ATOM     34  C   UNL A   1      42.269  25.947  26.656  1.00  0.00     0.049 A 
ATOM     35  N   UNL A   1      40.930  27.908  28.488  1.00  0.00    -0.248 NA
ATOM     36  C   UNL A   1      39.277  26.316  28.909  1.00  0.00     0.031 C 
ATOM     37  C   UNL A   1      42.973  25.056  25.732  1.00  0.00     0.029 A 
ATOM     38  N   UNL A   1      43.144  26.991  26.837  1.00  0.00    -0.354 N 
ATOM     39  C   UNL A   1      40.019  28.424  29.403  1.00  0.00     0.074 A 
ATOM     40  C   UNL A   1      38.999  27.416  29.597  1.00  0.00     0.031 C 
ATOM     41  C   UNL A   1      44.193  25.556  25.482  1.00  0.00     0.029 A 
ATOM     42  C   UNL A   1      44.322  26.849  26.142  1.00  0.00     0.049 A 
ATOM     43  H   UNL A   1      42.947  27.767  27.410  1.00  0.00     0.167 HD
ATOM     44  C   UNL A   1      40.027  29.629  30.023  1.00  0.00     0.031 A 
ATOM     45  C   UNL A   1      45.376  27.678  26.011  1.00  0.00     0.031 A 
ATOM     46  C   UNL A   1      41.061  30.618  29.871  1.00  0.00     0.049 A 
ATOM     47  C   UNL A   1      45.343  29.026  26.670  1.00  0.00     0.074 A 
ATOM     48  C   UNL A   1      41.144  31.874  30.448  1.00  0.00     0.029 A 
ATOM     49  N   UNL A   1      42.204  30.453  29.107  1.00  0.00    -0.354 N 
ATOM     50  N   UNL A   1      44.424  29.537  27.451  1.00  0.00    -0.248 NA
ATOM     51  C   UNL A   1      46.478  29.920  26.406  1.00  0.00     0.031 C 
ATOM     52  C   UNL A   1      42.323  32.482  30.008  1.00  0.00     0.029 A 
ATOM     53  C   UNL A   1      42.996  31.586  29.193  1.00  0.00     0.049 A 
ATOM     54  H   UNL A   1      42.422  29.650  28.582  1.00  0.00     0.167 HD
ATOM     55  C   UNL A   1      44.871  30.810  27.776  1.00  0.00     0.074 A 
ATOM     56  C   UNL A   1      46.154  30.986  27.127  1.00  0.00     0.031 C 
ATOM     57  C   UNL A   1      44.267  31.751  28.540  1.00  0.00     0.031 A 
BRANCH  44  58
ATOM     58  C   UNL A   1      38.858  29.967  30.908  1.00  0.00    -0.014 A 
ATOM     59  C   UNL A   1      38.885  29.716  32.287  1.00  0.00     0.009 A 
ATOM     60  C   UNL A   1      37.735  30.604  30.355  1.00  0.00     0.009 A 
ATOM     61  C   UNL A   1      37.801  30.076  33.091  1.00  0.00     0.001 A 
ATOM     62  C   UNL A   1      36.664  30.985  31.164  1.00  0.00     0.001 A 
ATOM     63  C   UNL A   1      36.695  30.715  32.531  1.00  0.00     0.000 A 
ENDBRANCH  44  58
BRANCH  45  64
ATOM     64  C   UNL A   1      46.540  27.264  25.185  1.00  0.00    -0.014 A 
ATOM     65  C   UNL A   1      46.747  27.827  23.918  1.00  0.00     0.009 A 
ATOM     66  C   UNL A   1      47.465  26.325  25.671  1.00  0.00     0.009 A 
ATOM     67  C   UNL A   1      47.855  27.456  23.152  1.00  0.00     0.001 A 
ATOM     68  C   UNL A   1      48.587  25.978  24.917  1.00  0.00     0.001 A 
ATOM     69  C   UNL A   1      48.779  26.541  23.657  1.00  0.00     0.000 A 
ENDBRANCH  45  64
BRANCH  57  70
ATOM     70  C   UNL A   1      44.994  33.049  28.736  1.00  0.00    -0.014 A 
ATOM     71  C   UNL A   1      45.931  33.206  29.769  1.00  0.00     0.009 A 
ATOM     72  C   UNL A   1      44.777  34.110  27.843  1.00  0.00     0.009 A 
ATOM     73  C   UNL A   1      46.619  34.411  29.917  1.00  0.00     0.001 A 
ATOM     74  C   UNL A   1      45.484  35.305  27.981  1.00  0.00     0.001 A 
ATOM     75  C   UNL A   1      46.399  35.457  29.021  1.00  0.00     0.000 A 
ENDBRANCH  57  70
ENDBRANCH  31  32
ENDBRANCH  24  26
ENDBRANCH  23  24
ENDBRANCH   1  23
TORSDOF 12
ENDMDL
MODEL 3
REMARK VINA RESULT:     -10.7      5.933     11.123
REMARK SMILES Cc1c(Cl)cc2c(c1C)O[C@@H](C(F)(F)F)C(C(=O)OCCOC(=O)c1ccc(-c3c4nc(c(-c5ccccc5)c5ccc([nH]5)c(-c5ccccc5)c5nc(c(-c6ccccc6)c6ccc3[nH]6)C=C5)C=C4)cc1)=C2
REMARK SMILES IDX 21 1 20 2 19 3 17 4 18 5 16 6 1 7 2 8 3 9 8 10 4 11 5 12
REMARK SMILES IDX 7 13 9 14 6 15 10 16 73 17 11 18 12 19 13 20 14 21 15 22
REMARK SMILES IDX 22 23 23 24 24 25 25 26 26 27 72 28 27 29 71 30 28 31 29 32
REMARK SMILES IDX 30 33 65 34 31 35 70 36 64 37 66 38 32 39 69 40 63 41 62 42
REMARK SMILES IDX 33 44 55 45 40 46 54 47 41 48 44 49 53 50 67 51 42 52 43 53
REMARK SMILES IDX 52 55 68 56 45 57 34 58 35 59 39 60 36 61 38 62 37 63 56 64
REMARK SMILES IDX 57 65 61 66 58 67 60 68 59 69 46 70 47 71 51 72 48 73 50 74
REMARK SMILES IDX 49 75
REMARK H PARENT 66 43 44 54
REMARK Flexibility Score: inf
ROOT
ATOM      1  C   UNL A   1      45.586  23.249  24.315  1.00  0.00     0.275 C 
ENDROOT
BRANCH   1   2
ATOM      2  C   UNL A   1      46.649  24.298  24.642  1.00  0.00     0.275 C 
BRANCH   2   3
ATOM      3  O   UNL A   1      46.063  25.617  24.681  1.00  0.00    -0.459 OA
BRANCH   3   4
ATOM      4  C   UNL A   1      46.897  26.628  25.003  1.00  0.00     0.338 C 
ATOM      5  O   UNL A   1      47.743  27.122  24.277  1.00  0.00    -0.246 OA
BRANCH   4   6
ATOM      6  C   UNL A   1      46.590  27.148  26.350  1.00  0.00     0.087 C 
ATOM      7  C   UNL A   1      44.707  30.865  31.374  1.00  0.00     0.046 C 
ATOM      8  C   UNL A   1      44.887  30.056  30.115  1.00  0.00    -0.026 A 
ATOM      9  C   UNL A   1      43.967  30.143  29.053  1.00  0.00     0.045 A 
ATOM     10  C   UNL A   1      46.028  29.218  29.962  1.00  0.00    -0.004 A 
ATOM     11  Cl  UNL A   1      42.534  31.111  29.129  1.00  0.00    -0.084 Cl
ATOM     12  C   UNL A   1      44.188  29.461  27.857  1.00  0.00     0.032 A 
ATOM     13  C   UNL A   1      46.220  28.512  28.757  1.00  0.00     0.131 A 
ATOM     14  C   UNL A   1      47.064  29.059  31.048  1.00  0.00     0.049 C 
ATOM     15  C   UNL A   1      45.324  28.670  27.702  1.00  0.00     0.019 A 
ATOM     16  O   UNL A   1      47.352  27.742  28.632  1.00  0.00    -0.475 OA
ATOM     17  C   UNL A   1      45.632  28.081  26.415  1.00  0.00     0.027 C 
ATOM     18  C   UNL A   1      47.393  26.747  27.558  1.00  0.00     0.316 C 
BRANCH  18  19
ATOM     19  C   UNL A   1      47.071  25.355  28.132  1.00  0.00     0.430 C 
ATOM     20  F   UNL A   1      47.938  24.424  27.657  1.00  0.00    -0.167 F 
ATOM     21  F   UNL A   1      47.143  25.322  29.480  1.00  0.00    -0.167 F 
ATOM     22  F   UNL A   1      45.838  24.931  27.771  1.00  0.00    -0.167 F 
ENDBRANCH  18  19
ENDBRANCH   4   6
ENDBRANCH   3   4
ENDBRANCH   2   3
ENDBRANCH   1   2
BRANCH   1  23
ATOM     23  O   UNL A   1      44.283  23.863  24.315  1.00  0.00    -0.458 OA
BRANCH  23  24
ATOM     24  C   UNL A   1      43.335  23.234  25.041  1.00  0.00     0.338 C 
ATOM     25  O   UNL A   1      43.006  22.057  24.983  1.00  0.00    -0.246 OA
BRANCH  24  26
ATOM     26  C   UNL A   1      42.731  24.175  25.997  1.00  0.00     0.060 A 
ATOM     27  C   UNL A   1      42.894  25.542  25.792  1.00  0.00     0.016 A 
ATOM     28  C   UNL A   1      42.134  23.712  27.167  1.00  0.00     0.016 A 
ATOM     29  C   UNL A   1      42.568  26.446  26.800  1.00  0.00     0.010 A 
ATOM     30  C   UNL A   1      41.698  24.631  28.130  1.00  0.00     0.010 A 
ATOM     31  C   UNL A   1      41.948  26.008  27.980  1.00  0.00    -0.014 A 
BRANCH  31  32
ATOM     32  C   UNL A   1      41.596  26.977  29.059  1.00  0.00     0.031 A 
ATOM     33  C   UNL A   1      42.447  27.083  30.301  1.00  0.00     0.074 A 
ATOM     34  C   UNL A   1      40.527  27.791  28.931  1.00  0.00     0.049 A 
ATOM     35  N   UNL A   1      42.211  27.735  31.413  1.00  0.00    -0.248 NA
ATOM     36  C   UNL A   1      43.727  26.355  30.297  1.00  0.00     0.031 C 
ATOM     37  C   UNL A   1      39.639  27.855  27.769  1.00  0.00     0.029 A 
ATOM     38  N   UNL A   1      40.019  28.741  29.785  1.00  0.00    -0.354 N 
ATOM     39  C   UNL A   1      43.279  27.450  32.256  1.00  0.00     0.074 A 
ATOM     40  C   UNL A   1      44.164  26.564  31.531  1.00  0.00     0.031 C 
ATOM     41  C   UNL A   1      38.742  28.836  27.953  1.00  0.00     0.029 A 
ATOM     42  C   UNL A   1      38.922  29.401  29.284  1.00  0.00     0.049 A 
ATOM     43  H   UNL A   1      40.403  28.931  30.671  1.00  0.00     0.167 HD
ATOM     44  C   UNL A   1      43.503  27.883  33.521  1.00  0.00     0.031 A 
ATOM     45  C   UNL A   1      38.120  30.331  29.839  1.00  0.00     0.031 A 
ATOM     46  C   UNL A   1      42.651  28.800  34.231  1.00  0.00     0.049 A 
ATOM     47  C   UNL A   1      38.359  30.761  31.257  1.00  0.00     0.074 A 
ATOM     48  C   UNL A   1      42.791  29.282  35.522  1.00  0.00     0.029 A 
ATOM     49  N   UNL A   1      41.517  29.395  33.704  1.00  0.00    -0.354 N 
ATOM     50  N   UNL A   1      39.318  30.403  32.075  1.00  0.00    -0.248 NA
ATOM     51  C   UNL A   1      37.389  31.701  31.836  1.00  0.00     0.031 C 
ATOM     52  C   UNL A   1      41.722  30.144  35.786  1.00  0.00     0.029 A 
ATOM     53  C   UNL A   1      40.944  30.234  34.644  1.00  0.00     0.049 A 
ATOM     54  H   UNL A   1      41.171  29.244  32.794  1.00  0.00     0.167 HD
ATOM     55  C   UNL A   1      39.071  31.077  33.263  1.00  0.00     0.074 A 
ATOM     56  C   UNL A   1      37.885  31.883  33.053  1.00  0.00     0.031 C 
ATOM     57  C   UNL A   1      39.763  31.027  34.426  1.00  0.00     0.031 A 
BRANCH  44  58
ATOM     58  C   UNL A   1      44.707  27.344  34.241  1.00  0.00    -0.014 A 
ATOM     59  C   UNL A   1      45.920  28.047  34.271  1.00  0.00     0.009 A 
ATOM     60  C   UNL A   1      44.604  26.137  34.953  1.00  0.00     0.009 A 
ATOM     61  C   UNL A   1      47.012  27.541  34.981  1.00  0.00     0.001 A 
ATOM     62  C   UNL A   1      45.688  25.646  35.681  1.00  0.00     0.001 A 
ATOM     63  C   UNL A   1      46.893  26.345  35.690  1.00  0.00     0.000 A 
ENDBRANCH  44  58
BRANCH  45  64
ATOM     64  C   UNL A   1      36.985  30.888  29.057  1.00  0.00    -0.014 A 
ATOM     65  C   UNL A   1      35.901  30.073  28.701  1.00  0.00     0.009 A 
ATOM     66  C   UNL A   1      36.968  32.242  28.686  1.00  0.00     0.009 A 
ATOM     67  C   UNL A   1      34.824  30.603  27.987  1.00  0.00     0.001 A 
ATOM     68  C   UNL A   1      35.877  32.777  27.999  1.00  0.00     0.001 A 
ATOM     69  C   UNL A   1      34.808  31.956  27.647  1.00  0.00     0.000 A 
ENDBRANCH  45  64
BRANCH  57  70
ATOM     70  C   UNL A   1      39.272  31.880  35.557  1.00  0.00    -0.014 A 
ATOM     71  C   UNL A   1      39.742  33.191  35.733  1.00  0.00     0.009 A 
ATOM     72  C   UNL A   1      38.287  31.385  36.426  1.00  0.00     0.009 A 
ATOM     73  C   UNL A   1      39.251  33.981  36.773  1.00  0.00     0.001 A 
ATOM     74  C   UNL A   1      37.782  32.186  37.451  1.00  0.00     0.001 A 
ATOM     75  C   UNL A   1      38.269  33.480  37.629  1.00  0.00     0.000 A 
ENDBRANCH  57  70
ENDBRANCH  31  32
ENDBRANCH  24  26
ENDBRANCH  23  24
ENDBRANCH   1  23
TORSDOF 12
ENDMDL
