MODEL 1
REMARK VINA RESULT:     -10.9      0.000      0.000
REMARK SMILES CNc1cc(C(=O)N2CCC[C@@](CCOC)(C(=O)OCCOC(=O)c3ccc(-c4c5nc(c(-c6ccccc6)c6ccc([nH]6)c(-c6ccccc6)c6nc(c(-c7ccccc7)c7ccc4[nH]7)C=C6)C=C5)cc3)C2)ccn1
REMARK SMILES IDX 20 1 19 2 17 3 18 4 12 5 8 6 9 7 73 8 10 9 11 10 6 11 7 12
REMARK SMILES IDX 5 13 3 14 4 15 76 16 75 17 74 18 2 19 1 20 13 22 14 23 15 24
REMARK SMILES IDX 16 25 21 26 22 27 23 28 24 29 25 30 26 31 72 32 27 33 71 34
REMARK SMILES IDX 28 35 29 36 30 37 65 38 31 39 70 40 64 41 66 42 32 43 69 44
REMARK SMILES IDX 63 45 62 46 33 48 55 49 40 50 54 51 41 52 44 53 53 54 67 55
REMARK SMILES IDX 42 56 43 57 52 59 68 60 45 61 34 62 35 63 39 64 36 65 38 66
REMARK SMILES IDX 37 67 56 68 57 69 61 70 58 71 60 72 59 73 46 74 47 75 51 76
REMARK SMILES IDX 48 77 50 78 49 79
REMARK H PARENT 2 21 66 47 44 58
REMARK Flexibility Score: inf
ROOT
ATOM      1  C   UNL A   1      34.707  21.385  25.821  1.00  0.00     0.274 C 
ENDROOT
BRANCH   1   2
ATOM      2  O   UNL A   1      33.982  22.291  24.963  1.00  0.00    -0.462 OA
BRANCH   2   3
ATOM      3  C   UNL A   1      34.070  23.619  25.244  1.00  0.00     0.314 C 
ATOM      4  O   UNL A   1      34.744  24.090  26.155  1.00  0.00    -0.252 OA
BRANCH   3   5
ATOM      5  C   UNL A   1      33.224  24.490  24.302  1.00  0.00     0.088 C 
ATOM      6  N   UNL A   1      33.066  26.872  23.525  1.00  0.00    -0.337 N 
ATOM      7  C   UNL A   1      33.090  26.506  22.115  1.00  0.00     0.120 C 
ATOM      8  C   UNL A   1      33.721  25.956  24.468  1.00  0.00     0.138 C 
ATOM      9  C   UNL A   1      32.670  25.065  21.879  1.00  0.00     0.023 C 
ATOM     10  C   UNL A   1      33.413  24.110  22.813  1.00  0.00     0.022 C 
BRANCH   6  11
ATOM     11  C   UNL A   1      32.537  28.108  23.876  1.00  0.00     0.254 C 
ATOM     12  O   UNL A   1      33.103  28.897  24.628  1.00  0.00    -0.269 OA
BRANCH  11  13
ATOM     13  C   UNL A   1      31.159  28.427  23.444  1.00  0.00     0.045 A 
ATOM     14  C   UNL A   1      29.699  29.774  22.107  1.00  0.00     0.126 A 
ATOM     15  C   UNL A   1      30.949  29.562  22.659  1.00  0.00     0.060 A 
ATOM     16  N   UNL A   1      28.670  28.942  22.351  1.00  0.00    -0.240 NA
ATOM     17  C   UNL A   1      28.905  27.831  23.087  1.00  0.00     0.114 A 
ATOM     18  C   UNL A   1      30.130  27.518  23.640  1.00  0.00     0.034 A 
BRANCH  14  19
ATOM     19  N   UNL A   1      29.440  30.814  21.247  1.00  0.00    -0.373 N 
ATOM     20  C   UNL A   1      28.385  31.762  21.510  1.00  0.00     0.141 C 
ATOM     21  H   UNL A   1      29.986  30.913  20.435  1.00  0.00     0.161 HD
ENDBRANCH  14  19
ENDBRANCH  11  13
ENDBRANCH   6  11
BRANCH   5  22
ATOM     22  C   UNL A   1      31.743  24.399  24.782  1.00  0.00     0.049 C 
BRANCH  22  23
ATOM     23  C   UNL A   1      31.450  25.067  26.127  1.00  0.00     0.161 C 
BRANCH  23  24
ATOM     24  O   UNL A   1      31.354  24.079  27.146  1.00  0.00    -0.385 OA
ATOM     25  C   UNL A   1      30.371  23.096  26.850  1.00  0.00     0.194 C 
ENDBRANCH  23  24
ENDBRANCH  22  23
ENDBRANCH   5  22
ENDBRANCH   3   5
ENDBRANCH   2   3
ENDBRANCH   1   2
BRANCH   1  26
ATOM     26  C   UNL A   1      35.814  20.683  25.039  1.00  0.00     0.275 C 
BRANCH  26  27
ATOM     27  O   UNL A   1      36.932  21.577  24.907  1.00  0.00    -0.458 OA
BRANCH  27  28
ATOM     28  C   UNL A   1      38.087  21.144  25.452  1.00  0.00     0.338 C 
ATOM     29  O   UNL A   1      38.594  20.037  25.378  1.00  0.00    -0.246 OA
BRANCH  28  30
ATOM     30  C   UNL A   1      38.771  22.302  26.035  1.00  0.00     0.060 A 
ATOM     31  C   UNL A   1      38.136  23.536  25.925  1.00  0.00     0.016 A 
ATOM     32  C   UNL A   1      40.051  22.203  26.573  1.00  0.00     0.016 A 
ATOM     33  C   UNL A   1      38.814  24.699  26.263  1.00  0.00     0.010 A 
ATOM     34  C   UNL A   1      40.702  23.370  26.991  1.00  0.00     0.010 A 
ATOM     35  C   UNL A   1      40.106  24.631  26.800  1.00  0.00    -0.014 A 
BRANCH  35  36
ATOM     36  C   UNL A   1      40.854  25.892  27.046  1.00  0.00     0.031 A 
ATOM     37  C   UNL A   1      40.367  26.849  28.101  1.00  0.00     0.074 A 
ATOM     38  C   UNL A   1      42.044  26.110  26.450  1.00  0.00     0.049 A 
ATOM     39  N   UNL A   1      40.857  28.011  28.455  1.00  0.00    -0.248 NA
ATOM     40  C   UNL A   1      39.193  26.432  28.886  1.00  0.00     0.031 C 
ATOM     41  C   UNL A   1      42.705  25.191  25.521  1.00  0.00     0.029 A 
ATOM     42  N   UNL A   1      42.944  27.136  26.598  1.00  0.00    -0.354 N 
ATOM     43  C   UNL A   1      40.025  28.482  29.462  1.00  0.00     0.074 A 
ATOM     44  C   UNL A   1      39.002  27.482  29.671  1.00  0.00     0.031 C 
ATOM     45  C   UNL A   1      43.946  25.637  25.275  1.00  0.00     0.029 A 
ATOM     46  C   UNL A   1      44.132  26.920  25.941  1.00  0.00     0.049 A 
ATOM     47  H   UNL A   1      42.757  27.947  27.125  1.00  0.00     0.167 HD
ATOM     48  C   UNL A   1      40.103  29.645  30.151  1.00  0.00     0.031 A 
ATOM     49  C   UNL A   1      45.244  27.677  25.874  1.00  0.00     0.031 A 
ATOM     50  C   UNL A   1      41.136  30.627  29.969  1.00  0.00     0.049 A 
ATOM     51  C   UNL A   1      45.249  29.018  26.551  1.00  0.00     0.074 A 
ATOM     52  C   UNL A   1      41.259  31.875  30.556  1.00  0.00     0.029 A 
ATOM     53  N   UNL A   1      42.239  30.461  29.147  1.00  0.00    -0.354 N 
ATOM     54  N   UNL A   1      44.376  29.526  27.386  1.00  0.00    -0.248 NA
ATOM     55  C   UNL A   1      46.376  29.907  26.237  1.00  0.00     0.031 C 
ATOM     56  C   UNL A   1      42.420  32.478  30.059  1.00  0.00     0.029 A 
ATOM     57  C   UNL A   1      43.041  31.587  29.198  1.00  0.00     0.049 A 
ATOM     58  H   UNL A   1      42.425  29.659  28.607  1.00  0.00     0.167 HD
ATOM     59  C   UNL A   1      44.839  30.800  27.685  1.00  0.00     0.074 A 
ATOM     60  C   UNL A   1      46.091  30.971  26.975  1.00  0.00     0.031 C 
ATOM     61  C   UNL A   1      44.270  31.750  28.468  1.00  0.00     0.031 A 
BRANCH  48  62
ATOM     62  C   UNL A   1      38.987  29.941  31.109  1.00  0.00    -0.014 A 
ATOM     63  C   UNL A   1      37.827  30.621  30.706  1.00  0.00     0.009 A 
ATOM     64  C   UNL A   1      39.112  29.543  32.450  1.00  0.00     0.009 A 
ATOM     65  C   UNL A   1      36.833  30.930  31.638  1.00  0.00     0.001 A 
ATOM     66  C   UNL A   1      38.108  29.833  33.373  1.00  0.00     0.001 A 
ATOM     67  C   UNL A   1      36.973  30.535  32.969  1.00  0.00     0.000 A 
ENDBRANCH  48  62
BRANCH  49  68
ATOM     68  C   UNL A   1      46.428  27.212  25.107  1.00  0.00    -0.014 A 
ATOM     69  C   UNL A   1      46.782  27.840  23.902  1.00  0.00     0.009 A 
ATOM     70  C   UNL A   1      47.210  26.139  25.565  1.00  0.00     0.009 A 
ATOM     71  C   UNL A   1      47.887  27.398  23.171  1.00  0.00     0.001 A 
ATOM     72  C   UNL A   1      48.331  25.719  24.848  1.00  0.00     0.001 A 
ATOM     73  C   UNL A   1      48.666  26.344  23.648  1.00  0.00     0.000 A 
ENDBRANCH  49  68
BRANCH  61  74
ATOM     74  C   UNL A   1      44.992  33.060  28.582  1.00  0.00    -0.014 A 
ATOM     75  C   UNL A   1      45.980  33.250  29.559  1.00  0.00     0.009 A 
ATOM     76  C   UNL A   1      44.709  34.100  27.684  1.00  0.00     0.009 A 
ATOM     77  C   UNL A   1      46.654  34.470  29.652  1.00  0.00     0.001 A 
ATOM     78  C   UNL A   1      45.400  35.310  27.765  1.00  0.00     0.001 A 
ATOM     79  C   UNL A   1      46.366  35.496  28.753  1.00  0.00     0.000 A 
ENDBRANCH  61  74
ENDBRANCH  35  36
ENDBRANCH  28  30
ENDBRANCH  27  28
ENDBRANCH  26  27
ENDBRANCH   1  26
TORSDOF 17
ENDMDL
MODEL 2
REMARK VINA RESULT:     -10.8      2.708      3.513
REMARK SMILES CNc1cc(C(=O)N2CCC[C@@](CCOC)(C(=O)OCCOC(=O)c3ccc(-c4c5nc(c(-c6ccccc6)c6ccc([nH]6)c(-c6ccccc6)c6nc(c(-c7ccccc7)c7ccc4[nH]7)C=C6)C=C5)cc3)C2)ccn1
REMARK SMILES IDX 20 1 19 2 17 3 18 4 12 5 8 6 9 7 73 8 10 9 11 10 6 11 7 12
REMARK SMILES IDX 5 13 3 14 4 15 76 16 75 17 74 18 2 19 1 20 13 22 14 23 15 24
REMARK SMILES IDX 16 25 21 26 22 27 23 28 24 29 25 30 26 31 72 32 27 33 71 34
REMARK SMILES IDX 28 35 29 36 30 37 65 38 31 39 70 40 64 41 66 42 32 43 69 44
REMARK SMILES IDX 63 45 62 46 33 48 55 49 40 50 54 51 41 52 44 53 53 54 67 55
REMARK SMILES IDX 42 56 43 57 52 59 68 60 45 61 34 62 35 63 39 64 36 65 38 66
REMARK SMILES IDX 37 67 56 68 57 69 61 70 58 71 60 72 59 73 46 74 47 75 51 76
REMARK SMILES IDX 48 77 50 78 49 79
REMARK H PARENT 2 21 66 47 44 58
REMARK Flexibility Score: inf
ROOT
ATOM      1  C   UNL A   1      37.627  21.128  24.662  1.00  0.00     0.274 C 
ENDROOT
BRANCH   1   2
ATOM      2  O   UNL A   1      36.473  21.357  25.499  1.00  0.00    -0.462 OA
BRANCH   2   3
ATOM      3  C   UNL A   1      36.079  22.647  25.676  1.00  0.00     0.314 C 
ATOM      4  O   UNL A   1      36.710  23.481  26.318  1.00  0.00    -0.252 OA
BRANCH   3   5
ATOM      5  C   UNL A   1      34.741  22.965  24.992  1.00  0.00     0.088 C 
ATOM      6  N   UNL A   1      33.855  24.250  23.025  1.00  0.00    -0.337 N 
ATOM      7  C   UNL A   1      33.112  23.111  22.504  1.00  0.00     0.120 C 
ATOM      8  C   UNL A   1      35.046  23.961  23.835  1.00  0.00     0.138 C 
ATOM      9  C   UNL A   1      32.824  22.065  23.567  1.00  0.00     0.023 C 
ATOM     10  C   UNL A   1      34.086  21.714  24.356  1.00  0.00     0.022 C 
BRANCH   6  11
ATOM     11  C   UNL A   1      33.468  25.525  22.631  1.00  0.00     0.254 C 
ATOM     12  O   UNL A   1      33.732  26.002  21.531  1.00  0.00    -0.269 OA
BRANCH  11  13
ATOM     13  C   UNL A   1      32.840  26.408  23.638  1.00  0.00     0.045 A 
ATOM     14  C   UNL A   1      32.879  28.471  24.853  1.00  0.00     0.126 A 
ATOM     15  C   UNL A   1      33.526  27.551  24.048  1.00  0.00     0.060 A 
ATOM     16  N   UNL A   1      31.623  28.263  25.292  1.00  0.00    -0.240 NA
ATOM     17  C   UNL A   1      30.966  27.164  24.855  1.00  0.00     0.114 A 
ATOM     18  C   UNL A   1      31.519  26.217  24.017  1.00  0.00     0.034 A 
BRANCH  14  19
ATOM     19  N   UNL A   1      33.452  29.664  25.218  1.00  0.00    -0.373 N 
ATOM     20  C   UNL A   1      33.378  30.151  26.574  1.00  0.00     0.141 C 
ATOM     21  H   UNL A   1      33.925  30.198  24.540  1.00  0.00     0.161 HD
ENDBRANCH  14  19
ENDBRANCH  11  13
ENDBRANCH   6  11
BRANCH   5  22
ATOM     22  C   UNL A   1      33.833  23.673  26.044  1.00  0.00     0.049 C 
BRANCH  22  23
ATOM     23  C   UNL A   1      33.492  22.838  27.280  1.00  0.00     0.161 C 
BRANCH  23  24
ATOM     24  O   UNL A   1      32.101  22.935  27.559  1.00  0.00    -0.385 OA
ATOM     25  C   UNL A   1      31.421  23.759  26.621  1.00  0.00     0.194 C 
ENDBRANCH  23  24
ENDBRANCH  22  23
ENDBRANCH   5  22
ENDBRANCH   3   5
ENDBRANCH   2   3
ENDBRANCH   1   2
BRANCH   1  26
ATOM     26  C   UNL A   1      38.397  19.901  25.141  1.00  0.00     0.275 C 
BRANCH  26  27
ATOM     27  O   UNL A   1      39.193  20.265  26.281  1.00  0.00    -0.458 OA
BRANCH  27  28
ATOM     28  C   UNL A   1      40.509  19.986  26.182  1.00  0.00     0.338 C 
ATOM     29  O   UNL A   1      41.043  19.004  25.693  1.00  0.00    -0.246 OA
BRANCH  28  30
ATOM     30  C   UNL A   1      41.254  21.172  26.614  1.00  0.00     0.060 A 
ATOM     31  C   UNL A   1      41.305  21.427  27.981  1.00  0.00     0.016 A 
ATOM     32  C   UNL A   1      41.793  22.073  25.700  1.00  0.00     0.016 A 
ATOM     33  C   UNL A   1      41.808  22.633  28.446  1.00  0.00     0.010 A 
ATOM     34  C   UNL A   1      42.376  23.253  26.176  1.00  0.00     0.010 A 
ATOM     35  C   UNL A   1      42.350  23.563  27.549  1.00  0.00    -0.014 A 
BRANCH  35  36
ATOM     36  C   UNL A   1      42.777  24.893  28.056  1.00  0.00     0.031 A 
ATOM     37  C   UNL A   1      41.737  25.936  28.367  1.00  0.00     0.074 A 
ATOM     38  C   UNL A   1      44.064  25.120  28.388  1.00  0.00     0.049 A 
ATOM     39  N   UNL A   1      41.896  27.164  28.793  1.00  0.00    -0.248 NA
ATOM     40  C   UNL A   1      40.328  25.537  28.210  1.00  0.00     0.031 C 
ATOM     41  C   UNL A   1      45.150  24.144  28.280  1.00  0.00     0.029 A 
ATOM     42  N   UNL A   1      44.661  26.218  28.957  1.00  0.00    -0.354 N 
ATOM     43  C   UNL A   1      40.618  27.695  28.906  1.00  0.00     0.074 A 
ATOM     44  C   UNL A   1      39.690  26.659  28.511  1.00  0.00     0.031 C 
ATOM     45  C   UNL A   1      46.246  24.643  28.871  1.00  0.00     0.029 A 
ATOM     46  C   UNL A   1      45.974  26.008  29.304  1.00  0.00     0.049 A 
ATOM     47  H   UNL A   1      44.193  27.072  29.105  1.00  0.00     0.167 HD
ATOM     48  C   UNL A   1      40.247  28.937  29.300  1.00  0.00     0.031 A 
ATOM     49  C   UNL A   1      46.864  26.827  29.896  1.00  0.00     0.031 A 
ATOM     50  C   UNL A   1      41.164  29.959  29.723  1.00  0.00     0.049 A 
ATOM     51  C   UNL A   1      46.454  28.238  30.207  1.00  0.00     0.074 A 
ATOM     52  C   UNL A   1      40.897  31.275  30.062  1.00  0.00     0.029 A 
ATOM     53  N   UNL A   1      42.526  29.772  29.886  1.00  0.00    -0.354 N 
ATOM     54  N   UNL A   1      45.262  28.781  30.162  1.00  0.00    -0.248 NA
ATOM     55  C   UNL A   1      47.526  29.159  30.610  1.00  0.00     0.031 C 
ATOM     56  C   UNL A   1      42.109  31.893  30.394  1.00  0.00     0.029 A 
ATOM     57  C   UNL A   1      43.119  30.950  30.305  1.00  0.00     0.049 A 
ATOM     58  H   UNL A   1      43.003  28.925  29.727  1.00  0.00     0.167 HD
ATOM     59  C   UNL A   1      45.442  30.112  30.514  1.00  0.00     0.074 A 
ATOM     60  C   UNL A   1      46.851  30.283  30.810  1.00  0.00     0.031 C 
ATOM     61  C   UNL A   1      44.524  31.108  30.573  1.00  0.00     0.031 A 
BRANCH  48  62
ATOM     62  C   UNL A   1      38.786  29.268  29.210  1.00  0.00    -0.014 A 
ATOM     63  C   UNL A   1      38.203  29.717  28.015  1.00  0.00     0.009 A 
ATOM     64  C   UNL A   1      37.985  29.143  30.356  1.00  0.00     0.009 A 
ATOM     65  C   UNL A   1      36.852  30.071  27.983  1.00  0.00     0.001 A 
ATOM     66  C   UNL A   1      36.631  29.476  30.315  1.00  0.00     0.001 A 
ATOM     67  C   UNL A   1      36.067  29.949  29.131  1.00  0.00     0.000 A 
ENDBRANCH  48  62
BRANCH  49  68
ATOM     68  C   UNL A   1      48.242  26.356  30.193  1.00  0.00    -0.014 A 
ATOM     69  C   UNL A   1      48.539  25.777  31.436  1.00  0.00     0.009 A 
ATOM     70  C   UNL A   1      49.270  26.486  29.244  1.00  0.00     0.009 A 
ATOM     71  C   UNL A   1      49.836  25.344  31.724  1.00  0.00     0.001 A 
ATOM     72  C   UNL A   1      50.557  26.025  29.524  1.00  0.00     0.001 A 
ATOM     73  C   UNL A   1      50.841  25.460  30.766  1.00  0.00     0.000 A 
ENDBRANCH  49  68
BRANCH  61  74
ATOM     74  C   UNL A   1      45.021  32.470  30.959  1.00  0.00    -0.014 A 
ATOM     75  C   UNL A   1      45.086  32.853  32.307  1.00  0.00     0.009 A 
ATOM     76  C   UNL A   1      45.462  33.364  29.972  1.00  0.00     0.009 A 
ATOM     77  C   UNL A   1      45.559  34.119  32.658  1.00  0.00     0.001 A 
ATOM     78  C   UNL A   1      45.955  34.620  30.327  1.00  0.00     0.001 A 
ATOM     79  C   UNL A   1      45.997  34.999  31.668  1.00  0.00     0.000 A 
ENDBRANCH  61  74
ENDBRANCH  35  36
ENDBRANCH  28  30
ENDBRANCH  27  28
ENDBRANCH  26  27
ENDBRANCH   1  26
TORSDOF 17
ENDMDL
MODEL 3
REMARK VINA RESULT:     -10.6      1.244      6.042
REMARK SMILES CNc1cc(C(=O)N2CCC[C@@](CCOC)(C(=O)OCCOC(=O)c3ccc(-c4c5nc(c(-c6ccccc6)c6ccc([nH]6)c(-c6ccccc6)c6nc(c(-c7ccccc7)c7ccc4[nH]7)C=C6)C=C5)cc3)C2)ccn1
REMARK SMILES IDX 20 1 19 2 17 3 18 4 12 5 8 6 9 7 73 8 10 9 11 10 6 11 7 12
REMARK SMILES IDX 5 13 3 14 4 15 76 16 75 17 74 18 2 19 1 20 13 22 14 23 15 24
REMARK SMILES IDX 16 25 21 26 22 27 23 28 24 29 25 30 26 31 72 32 27 33 71 34
REMARK SMILES IDX 28 35 29 36 30 37 65 38 31 39 70 40 64 41 66 42 32 43 69 44
REMARK SMILES IDX 63 45 62 46 33 48 55 49 40 50 54 51 41 52 44 53 53 54 67 55
REMARK SMILES IDX 42 56 43 57 52 59 68 60 45 61 34 62 35 63 39 64 36 65 38 66
REMARK SMILES IDX 37 67 56 68 57 69 61 70 58 71 60 72 59 73 46 74 47 75 51 76
REMARK SMILES IDX 48 77 50 78 49 79
REMARK H PARENT 2 21 66 47 44 58
REMARK Flexibility Score: inf
ROOT
ATOM      1  C   UNL A   1      35.879  20.505  24.997  1.00  0.00     0.274 C 
ENDROOT
BRANCH   1   2
ATOM      2  O   UNL A   1      35.651  21.896  24.687  1.00  0.00    -0.462 OA
BRANCH   2   3
ATOM      3  C   UNL A   1      34.853  22.600  25.535  1.00  0.00     0.314 C 
ATOM      4  O   UNL A   1      34.843  22.459  26.753  1.00  0.00    -0.252 OA
BRANCH   3   5
ATOM      5  C   UNL A   1      33.942  23.603  24.808  1.00  0.00     0.088 C 
ATOM      6  N   UNL A   1      33.252  26.012  24.950  1.00  0.00    -0.337 N 
ATOM      7  C   UNL A   1      33.572  26.277  23.554  1.00  0.00     0.120 C 
ATOM      8  C   UNL A   1      33.994  24.933  25.615  1.00  0.00     0.138 C 
ATOM      9  C   UNL A   1      33.596  25.013  22.710  1.00  0.00     0.023 C 
ATOM     10  C   UNL A   1      34.432  23.920  23.374  1.00  0.00     0.022 C 
BRANCH   6  11
ATOM     11  C   UNL A   1      32.364  26.864  25.595  1.00  0.00     0.254 C 
ATOM     12  O   UNL A   1      32.469  27.180  26.777  1.00  0.00    -0.269 OA
BRANCH  11  13
ATOM     13  C   UNL A   1      31.149  27.290  24.867  1.00  0.00     0.045 A 
ATOM     14  C   UNL A   1      30.049  28.934  23.518  1.00  0.00     0.126 A 
ATOM     15  C   UNL A   1      31.100  28.583  24.346  1.00  0.00     0.060 A 
ATOM     16  N   UNL A   1      29.049  28.076  23.248  1.00  0.00    -0.240 NA
ATOM     17  C   UNL A   1      29.134  26.817  23.737  1.00  0.00     0.114 A 
ATOM     18  C   UNL A   1      30.167  26.369  24.534  1.00  0.00     0.034 A 
BRANCH  14  19
ATOM     19  N   UNL A   1      29.981  30.154  22.891  1.00  0.00    -0.373 N 
ATOM     20  C   UNL A   1      28.862  31.042  23.092  1.00  0.00     0.141 C 
ATOM     21  H   UNL A   1      30.711  30.428  22.291  1.00  0.00     0.161 HD
ENDBRANCH  14  19
ENDBRANCH  11  13
ENDBRANCH   6  11
BRANCH   5  22
ATOM     22  C   UNL A   1      32.490  23.036  24.856  1.00  0.00     0.049 C 
BRANCH  22  23
ATOM     23  C   UNL A   1      32.263  21.753  24.055  1.00  0.00     0.161 C 
BRANCH  23  24
ATOM     24  O   UNL A   1      32.074  20.658  24.943  1.00  0.00    -0.385 OA
ATOM     25  C   UNL A   1      32.436  19.417  24.351  1.00  0.00     0.194 C 
ENDBRANCH  23  24
ENDBRANCH  22  23
ENDBRANCH   5  22
ENDBRANCH   3   5
ENDBRANCH   2   3
ENDBRANCH   1   2
BRANCH   1  26
ATOM     26  C   UNL A   1      37.364  20.171  24.885  1.00  0.00     0.275 C 
BRANCH  26  27
ATOM     27  O   UNL A   1      38.131  21.303  25.329  1.00  0.00    -0.458 OA
BRANCH  27  28
ATOM     28  C   UNL A   1      39.251  21.008  26.020  1.00  0.00     0.338 C 
ATOM     29  O   UNL A   1      39.892  19.970  26.023  1.00  0.00    -0.246 OA
BRANCH  28  30
ATOM     30  C   UNL A   1      39.713  22.236  26.673  1.00  0.00     0.060 A 
ATOM     31  C   UNL A   1      39.115  23.430  26.276  1.00  0.00     0.016 A 
ATOM     32  C   UNL A   1      40.781  22.236  27.565  1.00  0.00     0.016 A 
ATOM     33  C   UNL A   1      39.642  24.644  26.693  1.00  0.00     0.010 A 
ATOM     34  C   UNL A   1      41.260  23.458  28.050  1.00  0.00     0.010 A 
ATOM     35  C   UNL A   1      40.722  24.674  27.585  1.00  0.00    -0.014 A 
BRANCH  35  36
ATOM     36  C   UNL A   1      41.342  25.981  27.926  1.00  0.00     0.031 A 
ATOM     37  C   UNL A   1      42.645  26.373  27.283  1.00  0.00     0.074 A 
ATOM     38  C   UNL A   1      40.676  26.881  28.678  1.00  0.00     0.049 A 
ATOM     39  N   UNL A   1      43.365  27.453  27.460  1.00  0.00    -0.248 NA
ATOM     40  C   UNL A   1      43.199  25.445  26.283  1.00  0.00     0.031 C 
ATOM     41  C   UNL A   1      39.337  26.688  29.239  1.00  0.00     0.029 A 
ATOM     42  N   UNL A   1      41.002  28.167  29.033  1.00  0.00    -0.354 N 
ATOM     43  C   UNL A   1      44.474  27.309  26.636  1.00  0.00     0.074 A 
ATOM     44  C   UNL A   1      44.333  26.043  25.951  1.00  0.00     0.031 C 
ATOM     45  C   UNL A   1      38.913  27.848  29.764  1.00  0.00     0.029 A 
ATOM     46  C   UNL A   1      39.983  28.832  29.672  1.00  0.00     0.049 A 
ATOM     47  H   UNL A   1      41.880  28.573  28.846  1.00  0.00     0.167 HD
ATOM     48  C   UNL A   1      45.518  28.154  26.465  1.00  0.00     0.031 A 
ATOM     49  C   UNL A   1      39.922  30.094  30.140  1.00  0.00     0.031 A 
ATOM     50  C   UNL A   1      45.645  29.427  27.118  1.00  0.00     0.049 A 
ATOM     51  C   UNL A   1      41.142  30.963  30.042  1.00  0.00     0.074 A 
ATOM     52  C   UNL A   1      46.703  30.320  27.078  1.00  0.00     0.029 A 
ATOM     53  N   UNL A   1      44.670  29.998  27.918  1.00  0.00    -0.354 N 
ATOM     54  N   UNL A   1      42.257  30.752  29.385  1.00  0.00    -0.248 NA
ATOM     55  C   UNL A   1      41.109  32.227  30.790  1.00  0.00     0.031 C 
ATOM     56  C   UNL A   1      46.379  31.416  27.886  1.00  0.00     0.029 A 
ATOM     57  C   UNL A   1      45.103  31.224  28.391  1.00  0.00     0.049 A 
ATOM     58  H   UNL A   1      43.796  29.592  28.121  1.00  0.00     0.167 HD
ATOM     59  C   UNL A   1      43.065  31.849  29.654  1.00  0.00     0.074 A 
ATOM     60  C   UNL A   1      42.296  32.741  30.499  1.00  0.00     0.031 C 
ATOM     61  C   UNL A   1      44.336  32.089  29.249  1.00  0.00     0.031 A 
BRANCH  48  62
ATOM     62  C   UNL A   1      46.639  27.676  25.588  1.00  0.00    -0.014 A 
ATOM     63  C   UNL A   1      47.673  26.869  26.086  1.00  0.00     0.009 A 
ATOM     64  C   UNL A   1      46.664  28.062  24.239  1.00  0.00     0.009 A 
ATOM     65  C   UNL A   1      48.731  26.490  25.255  1.00  0.00     0.001 A 
ATOM     66  C   UNL A   1      47.709  27.664  23.406  1.00  0.00     0.001 A 
ATOM     67  C   UNL A   1      48.748  26.886  23.917  1.00  0.00     0.000 A 
ENDBRANCH  48  62
BRANCH  49  68
ATOM     68  C   UNL A   1      38.681  30.600  30.783  1.00  0.00    -0.014 A 
ATOM     69  C   UNL A   1      38.461  30.396  32.154  1.00  0.00     0.009 A 
ATOM     70  C   UNL A   1      37.708  31.284  30.036  1.00  0.00     0.009 A 
ATOM     71  C   UNL A   1      37.290  30.860  32.760  1.00  0.00     0.001 A 
ATOM     72  C   UNL A   1      36.554  31.773  30.650  1.00  0.00     0.001 A 
ATOM     73  C   UNL A   1      36.343  31.556  32.010  1.00  0.00     0.000 A 
ENDBRANCH  49  68
BRANCH  61  74
ATOM     74  C   UNL A   1      44.975  33.359  29.727  1.00  0.00    -0.014 A 
ATOM     75  C   UNL A   1      45.765  33.370  30.886  1.00  0.00     0.009 A 
ATOM     76  C   UNL A   1      44.818  34.544  28.994  1.00  0.00     0.009 A 
ATOM     77  C   UNL A   1      46.364  34.555  31.319  1.00  0.00     0.001 A 
ATOM     78  C   UNL A   1      45.437  35.722  29.417  1.00  0.00     0.001 A 
ATOM     79  C   UNL A   1      46.203  35.728  30.582  1.00  0.00     0.000 A 
ENDBRANCH  61  74
ENDBRANCH  35  36
ENDBRANCH  28  30
ENDBRANCH  27  28
ENDBRANCH  26  27
ENDBRANCH   1  26
TORSDOF 17
ENDMDL
