MODEL 1
REMARK VINA RESULT:      -9.5      0.000      0.000
REMARK SMILES O=C(OCCOC(=O)c1nn(-c2ccc([N+](=O)[O-])cc2)cc1CCO)c1ccc(-c2c3nc(c(-c4ccccc4)c4ccc([nH]4)c(-c4ccccc4)c4nc(c(-c5ccccc5)c5ccc2[nH]5)C=C4)C=C3)cc1
REMARK SMILES IDX 5 1 4 2 3 3 2 4 1 5 26 6 27 7 73 8 28 9 72 10 29 11 30 12
REMARK SMILES IDX 31 13 66 14 32 15 71 16 65 17 67 18 33 19 70 20 64 21 63 22
REMARK SMILES IDX 34 24 56 25 41 26 55 27 42 28 45 29 54 30 68 31 43 32 44 33
REMARK SMILES IDX 53 35 69 36 46 37 35 38 36 39 40 40 37 41 39 42 38 43 57 44
REMARK SMILES IDX 58 45 62 46 59 47 61 48 60 49 47 50 48 51 52 52 49 53 51 54
REMARK SMILES IDX 50 55 6 56 7 57 8 58 9 59 10 60 22 61 11 62 21 63 23 64
REMARK SMILES IDX 24 65 25 66 12 68 13 69 20 70 14 71 19 72 15 73 16 74 17 75
REMARK SMILES IDX 18 76
REMARK H PARENT 67 23 45 34 25 67
REMARK Flexibility Score: inf
ROOT
ATOM      1  C   UNL A   1      43.406  23.122  25.021  1.00  0.00     0.275 C 
ENDROOT
BRANCH   1   2
ATOM      2  C   UNL A   1      43.006  21.749  25.562  1.00  0.00     0.275 C 
BRANCH   2   3
ATOM      3  O   UNL A   1      41.587  21.643  25.773  1.00  0.00    -0.458 OA
BRANCH   3   4
ATOM      4  C   UNL A   1      40.737  22.221  26.638  1.00  0.00     0.338 C 
ATOM      5  O   UNL A   1      39.763  21.557  26.998  1.00  0.00    -0.246 OA
BRANCH   4   6
ATOM      6  C   UNL A   1      40.886  23.576  27.263  1.00  0.00     0.060 A 
ATOM      7  C   UNL A   1      41.750  23.986  28.277  1.00  0.00     0.016 A 
ATOM      8  C   UNL A   1      40.031  24.555  26.705  1.00  0.00     0.016 A 
ATOM      9  C   UNL A   1      41.706  25.309  28.751  1.00  0.00     0.010 A 
ATOM     10  C   UNL A   1      40.055  25.880  27.101  1.00  0.00     0.010 A 
ATOM     11  C   UNL A   1      40.831  26.249  28.182  1.00  0.00    -0.014 A 
BRANCH  11  12
ATOM     12  C   UNL A   1      40.769  27.627  28.669  1.00  0.00     0.031 A 
ATOM     13  C   UNL A   1      41.699  28.568  27.998  1.00  0.00     0.074 A 
ATOM     14  C   UNL A   1      39.884  28.079  29.590  1.00  0.00     0.049 A 
ATOM     15  N   UNL A   1      42.829  28.985  28.460  1.00  0.00    -0.248 NA
ATOM     16  C   UNL A   1      41.431  28.986  26.614  1.00  0.00     0.031 C 
ATOM     17  C   UNL A   1      38.727  27.389  30.173  1.00  0.00     0.029 A 
ATOM     18  N   UNL A   1      39.801  29.315  30.163  1.00  0.00    -0.354 N 
ATOM     19  C   UNL A   1      43.313  29.903  27.536  1.00  0.00     0.074 A 
ATOM     20  C   UNL A   1      42.509  29.732  26.350  1.00  0.00     0.031 C 
ATOM     21  C   UNL A   1      37.943  28.278  30.831  1.00  0.00     0.029 A 
ATOM     22  C   UNL A   1      38.629  29.556  30.878  1.00  0.00     0.049 A 
ATOM     23  H   UNL A   1      40.516  29.987  30.078  1.00  0.00     0.167 HD
ATOM     24  C   UNL A   1      44.168  30.891  27.924  1.00  0.00     0.031 A 
ATOM     25  C   UNL A   1      38.258  30.712  31.487  1.00  0.00     0.031 A 
ATOM     26  C   UNL A   1      44.680  30.650  29.252  1.00  0.00     0.049 A 
ATOM     27  C   UNL A   1      39.490  31.491  31.732  1.00  0.00     0.074 A 
ATOM     28  C   UNL A   1      45.389  29.630  29.855  1.00  0.00     0.029 A 
ATOM     29  N   UNL A   1      44.096  31.359  30.276  1.00  0.00    -0.354 N 
ATOM     30  N   UNL A   1      40.400  31.127  32.589  1.00  0.00    -0.248 NA
ATOM     31  C   UNL A   1      39.929  32.417  30.704  1.00  0.00     0.031 C 
ATOM     32  C   UNL A   1      44.789  29.480  31.140  1.00  0.00     0.029 A 
ATOM     33  C   UNL A   1      43.825  30.478  31.290  1.00  0.00     0.049 A 
ATOM     34  H   UNL A   1      43.908  32.325  30.282  1.00  0.00     0.167 HD
ATOM     35  C   UNL A   1      41.599  31.376  31.940  1.00  0.00     0.074 A 
ATOM     36  C   UNL A   1      41.250  32.262  30.828  1.00  0.00     0.031 C 
ATOM     37  C   UNL A   1      42.701  30.611  32.191  1.00  0.00     0.031 A 
BRANCH  24  38
ATOM     38  C   UNL A   1      44.205  32.271  27.314  1.00  0.00    -0.014 A 
ATOM     39  C   UNL A   1      43.835  33.367  28.119  1.00  0.00     0.009 A 
ATOM     40  C   UNL A   1      44.292  32.505  25.930  1.00  0.00     0.009 A 
ATOM     41  C   UNL A   1      43.481  34.599  27.557  1.00  0.00     0.001 A 
ATOM     42  C   UNL A   1      43.979  33.746  25.369  1.00  0.00     0.001 A 
ATOM     43  C   UNL A   1      43.543  34.784  26.180  1.00  0.00     0.000 A 
ENDBRANCH  24  38
BRANCH  25  44
ATOM     44  C   UNL A   1      36.920  31.317  31.681  1.00  0.00    -0.014 A 
ATOM     45  C   UNL A   1      36.499  31.747  32.953  1.00  0.00     0.009 A 
ATOM     46  C   UNL A   1      36.187  31.766  30.568  1.00  0.00     0.009 A 
ATOM     47  C   UNL A   1      35.425  32.637  33.100  1.00  0.00     0.001 A 
ATOM     48  C   UNL A   1      35.115  32.656  30.716  1.00  0.00     0.001 A 
ATOM     49  C   UNL A   1      34.746  33.107  31.980  1.00  0.00     0.000 A 
ENDBRANCH  25  44
BRANCH  37  50
ATOM     50  C   UNL A   1      42.663  29.667  33.369  1.00  0.00    -0.014 A 
ATOM     51  C   UNL A   1      42.158  28.355  33.307  1.00  0.00     0.009 A 
ATOM     52  C   UNL A   1      43.284  30.082  34.557  1.00  0.00     0.009 A 
ATOM     53  C   UNL A   1      42.245  27.502  34.414  1.00  0.00     0.001 A 
ATOM     54  C   UNL A   1      43.391  29.224  35.652  1.00  0.00     0.001 A 
ATOM     55  C   UNL A   1      42.865  27.937  35.584  1.00  0.00     0.000 A 
ENDBRANCH  37  50
ENDBRANCH  11  12
ENDBRANCH   4   6
ENDBRANCH   3   4
ENDBRANCH   2   3
ENDBRANCH   1   2
BRANCH   1  56
ATOM     56  O   UNL A   1      44.816  23.208  24.757  1.00  0.00    -0.457 OA
BRANCH  56  57
ATOM     57  C   UNL A   1      45.647  22.671  25.701  1.00  0.00     0.359 C 
ATOM     58  O   UNL A   1      46.300  21.644  25.537  1.00  0.00    -0.244 OA
BRANCH  57  59
ATOM     59  C   UNL A   1      45.809  23.554  26.863  1.00  0.00     0.174 A 
ATOM     60  N   UNL A   1      45.267  23.269  28.062  1.00  0.00    -0.161 NA
ATOM     61  C   UNL A   1      46.481  24.817  26.893  1.00  0.00     0.008 A 
ATOM     62  N   UNL A   1      45.461  24.381  28.796  1.00  0.00    -0.240 N 
ATOM     63  C   UNL A   1      46.115  25.366  28.103  1.00  0.00     0.119 A 
BRANCH  61  64
ATOM     64  C   UNL A   1      47.246  25.462  25.791  1.00  0.00     0.068 C 
BRANCH  64  65
ATOM     65  C   UNL A   1      46.558  26.586  25.025  1.00  0.00     0.161 C 
BRANCH  65  66
ATOM     66  O   UNL A   1      45.225  26.272  24.649  1.00  0.00    -0.396 OA
ATOM     67  H   UNL A   1      45.110  25.309  24.643  1.00  0.00     0.210 HD
ENDBRANCH  65  66
ENDBRANCH  64  65
ENDBRANCH  61  64
BRANCH  62  68
ATOM     68  C   UNL A   1      45.056  24.443  30.141  1.00  0.00     0.065 A 
ATOM     69  C   UNL A   1      44.297  23.384  30.656  1.00  0.00     0.035 A 
ATOM     70  C   UNL A   1      45.450  25.516  30.948  1.00  0.00     0.035 A 
ATOM     71  C   UNL A   1      43.966  23.372  32.011  1.00  0.00     0.088 A 
ATOM     72  C   UNL A   1      45.065  25.534  32.292  1.00  0.00     0.088 A 
ATOM     73  C   UNL A   1      44.344  24.452  32.821  1.00  0.00     0.269 A 
BRANCH  73  74
ATOM     74  N   UNL A   1      43.986  24.445  34.246  1.00  0.00     0.062 N 
ATOM     75  O   UNL A   1      44.760  25.003  35.037  1.00  0.00    -0.258 OA
ATOM     76  O   UNL A   1      42.926  23.891  34.570  1.00  0.00    -0.258 OA
ENDBRANCH  73  74
ENDBRANCH  62  68
ENDBRANCH  57  59
ENDBRANCH  56  57
ENDBRANCH   1  56
TORSDOF 16
ENDMDL
MODEL 2
REMARK VINA RESULT:      -9.5      4.093     10.192
REMARK SMILES O=C(OCCOC(=O)c1nn(-c2ccc([N+](=O)[O-])cc2)cc1CCO)c1ccc(-c2c3nc(c(-c4ccccc4)c4ccc([nH]4)c(-c4ccccc4)c4nc(c(-c5ccccc5)c5ccc2[nH]5)C=C4)C=C3)cc1
REMARK SMILES IDX 5 1 4 2 3 3 2 4 1 5 26 6 27 7 73 8 28 9 72 10 29 11 30 12
REMARK SMILES IDX 31 13 66 14 32 15 71 16 65 17 67 18 33 19 70 20 64 21 63 22
REMARK SMILES IDX 34 24 56 25 41 26 55 27 42 28 45 29 54 30 68 31 43 32 44 33
REMARK SMILES IDX 53 35 69 36 46 37 35 38 36 39 40 40 37 41 39 42 38 43 57 44
REMARK SMILES IDX 58 45 62 46 59 47 61 48 60 49 47 50 48 51 52 52 49 53 51 54
REMARK SMILES IDX 50 55 6 56 7 57 8 58 9 59 10 60 22 61 11 62 21 63 23 64
REMARK SMILES IDX 24 65 25 66 12 68 13 69 20 70 14 71 19 72 15 73 16 74 17 75
REMARK SMILES IDX 18 76
REMARK H PARENT 67 23 45 34 25 67
REMARK Flexibility Score: inf
ROOT
ATOM      1  C   UNL A   1      34.504  33.658  31.972  1.00  0.00     0.275 C 
ENDROOT
BRANCH   1   2
ATOM      2  C   UNL A   1      34.425  34.171  30.534  1.00  0.00     0.275 C 
BRANCH   2   3
ATOM      3  O   UNL A   1      34.110  33.122  29.602  1.00  0.00    -0.458 OA
BRANCH   3   4
ATOM      4  C   UNL A   1      34.835  32.440  28.700  1.00  0.00     0.338 C 
ATOM      5  O   UNL A   1      34.419  32.422  27.540  1.00  0.00    -0.246 OA
BRANCH   4   6
ATOM      6  C   UNL A   1      36.142  31.746  28.948  1.00  0.00     0.060 A 
ATOM      7  C   UNL A   1      37.387  32.297  29.247  1.00  0.00     0.016 A 
ATOM      8  C   UNL A   1      36.055  30.336  28.885  1.00  0.00     0.016 A 
ATOM      9  C   UNL A   1      38.507  31.463  29.409  1.00  0.00     0.010 A 
ATOM     10  C   UNL A   1      37.134  29.510  29.143  1.00  0.00     0.010 A 
ATOM     11  C   UNL A   1      38.385  30.067  29.323  1.00  0.00    -0.014 A 
BRANCH  11  12
ATOM     12  C   UNL A   1      39.543  29.188  29.483  1.00  0.00     0.031 A 
ATOM     13  C   UNL A   1      39.854  28.816  30.886  1.00  0.00     0.074 A 
ATOM     14  C   UNL A   1      40.249  28.651  28.460  1.00  0.00     0.049 A 
ATOM     15  N   UNL A   1      40.775  29.333  31.626  1.00  0.00    -0.248 NA
ATOM     16  C   UNL A   1      38.974  27.879  31.599  1.00  0.00     0.031 C 
ATOM     17  C   UNL A   1      39.952  28.674  27.022  1.00  0.00     0.029 A 
ATOM     18  N   UNL A   1      41.383  27.892  28.507  1.00  0.00    -0.354 N 
ATOM     19  C   UNL A   1      40.753  28.630  32.824  1.00  0.00     0.074 A 
ATOM     20  C   UNL A   1      39.523  27.877  32.818  1.00  0.00     0.031 C 
ATOM     21  C   UNL A   1      40.744  27.786  26.373  1.00  0.00     0.029 A 
ATOM     22  C   UNL A   1      41.726  27.270  27.308  1.00  0.00     0.049 A 
ATOM     23  H   UNL A   1      41.918  27.791  29.328  1.00  0.00     0.167 HD
ATOM     24  C   UNL A   1      41.873  28.543  33.597  1.00  0.00     0.031 A 
ATOM     25  C   UNL A   1      42.757  26.413  27.090  1.00  0.00     0.031 A 
ATOM     26  C   UNL A   1      42.886  29.474  33.160  1.00  0.00     0.049 A 
ATOM     27  C   UNL A   1      43.756  26.652  28.153  1.00  0.00     0.074 A 
ATOM     28  C   UNL A   1      42.949  30.845  33.007  1.00  0.00     0.029 A 
ATOM     29  N   UNL A   1      43.907  28.962  32.396  1.00  0.00    -0.354 N 
ATOM     30  N   UNL A   1      44.454  27.747  28.237  1.00  0.00    -0.248 NA
ATOM     31  C   UNL A   1      43.646  25.880  29.379  1.00  0.00     0.031 C 
ATOM     32  C   UNL A   1      43.661  31.041  31.786  1.00  0.00     0.029 A 
ATOM     33  C   UNL A   1      44.081  29.794  31.321  1.00  0.00     0.049 A 
ATOM     34  H   UNL A   1      44.423  28.145  32.586  1.00  0.00     0.167 HD
ATOM     35  C   UNL A   1      44.455  28.048  29.590  1.00  0.00     0.074 A 
ATOM     36  C   UNL A   1      44.032  26.813  30.253  1.00  0.00     0.031 C 
ATOM     37  C   UNL A   1      44.516  29.343  30.018  1.00  0.00     0.031 A 
BRANCH  24  38
ATOM     38  C   UNL A   1      42.230  27.345  34.442  1.00  0.00    -0.014 A 
ATOM     39  C   UNL A   1      41.870  27.356  35.804  1.00  0.00     0.009 A 
ATOM     40  C   UNL A   1      43.151  26.360  34.041  1.00  0.00     0.009 A 
ATOM     41  C   UNL A   1      42.471  26.491  36.727  1.00  0.00     0.001 A 
ATOM     42  C   UNL A   1      43.723  25.468  34.953  1.00  0.00     0.001 A 
ATOM     43  C   UNL A   1      43.407  25.555  36.300  1.00  0.00     0.000 A 
ENDBRANCH  24  38
BRANCH  25  44
ATOM     44  C   UNL A   1      42.872  25.249  26.181  1.00  0.00    -0.014 A 
ATOM     45  C   UNL A   1      43.941  25.143  25.273  1.00  0.00     0.009 A 
ATOM     46  C   UNL A   1      42.114  24.091  26.430  1.00  0.00     0.009 A 
ATOM     47  C   UNL A   1      44.275  23.915  24.683  1.00  0.00     0.001 A 
ATOM     48  C   UNL A   1      42.449  22.863  25.841  1.00  0.00     0.001 A 
ATOM     49  C   UNL A   1      43.540  22.772  24.983  1.00  0.00     0.000 A 
ENDBRANCH  25  44
BRANCH  37  50
ATOM     50  C   UNL A   1      44.844  30.415  29.006  1.00  0.00    -0.014 A 
ATOM     51  C   UNL A   1      43.898  30.991  28.138  1.00  0.00     0.009 A 
ATOM     52  C   UNL A   1      46.139  30.954  29.024  1.00  0.00     0.009 A 
ATOM     53  C   UNL A   1      44.253  32.051  27.293  1.00  0.00     0.001 A 
ATOM     54  C   UNL A   1      46.486  32.024  28.200  1.00  0.00     0.001 A 
ATOM     55  C   UNL A   1      45.546  32.568  27.328  1.00  0.00     0.000 A 
ENDBRANCH  37  50
ENDBRANCH  11  12
ENDBRANCH   4   6
ENDBRANCH   3   4
ENDBRANCH   2   3
ENDBRANCH   1   2
BRANCH   1  56
ATOM     56  O   UNL A   1      35.839  33.268  32.332  1.00  0.00    -0.457 OA
BRANCH  56  57
ATOM     57  C   UNL A   1      36.626  34.234  32.894  1.00  0.00     0.359 C 
ATOM     58  O   UNL A   1      36.223  35.060  33.710  1.00  0.00    -0.244 OA
BRANCH  57  59
ATOM     59  C   UNL A   1      38.043  34.062  32.553  1.00  0.00     0.174 A 
ATOM     60  N   UNL A   1      38.602  34.662  31.486  1.00  0.00    -0.161 NA
ATOM     61  C   UNL A   1      38.993  33.231  33.228  1.00  0.00     0.008 A 
ATOM     62  N   UNL A   1      39.830  34.117  31.394  1.00  0.00    -0.240 N 
ATOM     63  C   UNL A   1      40.075  33.192  32.375  1.00  0.00     0.119 A 
BRANCH  61  64
ATOM     64  C   UNL A   1      38.783  32.444  34.474  1.00  0.00     0.068 C 
BRANCH  64  65
ATOM     65  C   UNL A   1      38.340  30.994  34.319  1.00  0.00     0.161 C 
BRANCH  65  66
ATOM     66  O   UNL A   1      37.130  30.854  33.590  1.00  0.00    -0.396 OA
ATOM     67  H   UNL A   1      36.495  31.524  33.886  1.00  0.00     0.210 HD
ENDBRANCH  65  66
ENDBRANCH  64  65
ENDBRANCH  61  64
BRANCH  62  68
ATOM     68  C   UNL A   1      40.737  34.535  30.404  1.00  0.00     0.065 A 
ATOM     69  C   UNL A   1      42.104  34.314  30.618  1.00  0.00     0.035 A 
ATOM     70  C   UNL A   1      40.270  35.110  29.216  1.00  0.00     0.035 A 
ATOM     71  C   UNL A   1      43.016  34.629  29.611  1.00  0.00     0.088 A 
ATOM     72  C   UNL A   1      41.190  35.483  28.232  1.00  0.00     0.088 A 
ATOM     73  C   UNL A   1      42.556  35.221  28.425  1.00  0.00     0.269 A 
BRANCH  73  74
ATOM     74  N   UNL A   1      43.517  35.562  27.369  1.00  0.00     0.062 N 
ATOM     75  O   UNL A   1      43.134  35.482  26.193  1.00  0.00    -0.258 OA
ATOM     76  O   UNL A   1      44.652  35.920  27.717  1.00  0.00    -0.258 OA
ENDBRANCH  73  74
ENDBRANCH  62  68
ENDBRANCH  57  59
ENDBRANCH  56  57
ENDBRANCH   1  56
TORSDOF 16
ENDMDL
MODEL 3
REMARK VINA RESULT:      -9.5      5.597     10.754
REMARK SMILES O=C(OCCOC(=O)c1nn(-c2ccc([N+](=O)[O-])cc2)cc1CCO)c1ccc(-c2c3nc(c(-c4ccccc4)c4ccc([nH]4)c(-c4ccccc4)c4nc(c(-c5ccccc5)c5ccc2[nH]5)C=C4)C=C3)cc1
REMARK SMILES IDX 5 1 4 2 3 3 2 4 1 5 26 6 27 7 73 8 28 9 72 10 29 11 30 12
REMARK SMILES IDX 31 13 66 14 32 15 71 16 65 17 67 18 33 19 70 20 64 21 63 22
REMARK SMILES IDX 34 24 56 25 41 26 55 27 42 28 45 29 54 30 68 31 43 32 44 33
REMARK SMILES IDX 53 35 69 36 46 37 35 38 36 39 40 40 37 41 39 42 38 43 57 44
REMARK SMILES IDX 58 45 62 46 59 47 61 48 60 49 47 50 48 51 52 52 49 53 51 54
REMARK SMILES IDX 50 55 6 56 7 57 8 58 9 59 10 60 22 61 11 62 21 63 23 64
REMARK SMILES IDX 24 65 25 66 12 68 13 69 20 70 14 71 19 72 15 73 16 74 17 75
REMARK SMILES IDX 18 76
REMARK H PARENT 67 23 45 34 25 67
REMARK Flexibility Score: inf
ROOT
ATOM      1  C   UNL A   1      33.005  29.709  26.690  1.00  0.00     0.275 C 
ENDROOT
BRANCH   1   2
ATOM      2  C   UNL A   1      32.709  31.153  27.097  1.00  0.00     0.275 C 
BRANCH   2   3
ATOM      3  O   UNL A   1      33.681  31.664  28.026  1.00  0.00    -0.458 OA
BRANCH   3   4
ATOM      4  C   UNL A   1      34.987  31.958  27.926  1.00  0.00     0.338 C 
ATOM      5  O   UNL A   1      35.284  33.128  27.674  1.00  0.00    -0.246 OA
BRANCH   4   6
ATOM      6  C   UNL A   1      36.133  31.016  28.154  1.00  0.00     0.060 A 
ATOM      7  C   UNL A   1      36.226  29.657  27.858  1.00  0.00     0.016 A 
ATOM      8  C   UNL A   1      37.268  31.634  28.731  1.00  0.00     0.016 A 
ATOM      9  C   UNL A   1      37.389  28.941  28.189  1.00  0.00     0.010 A 
ATOM     10  C   UNL A   1      38.448  30.953  28.966  1.00  0.00     0.010 A 
ATOM     11  C   UNL A   1      38.490  29.586  28.776  1.00  0.00    -0.014 A 
BRANCH  11  12
ATOM     12  C   UNL A   1      39.704  28.851  29.133  1.00  0.00     0.031 A 
ATOM     13  C   UNL A   1      39.917  28.670  30.590  1.00  0.00     0.074 A 
ATOM     14  C   UNL A   1      40.548  28.278  28.241  1.00  0.00     0.049 A 
ATOM     15  N   UNL A   1      40.715  29.357  31.336  1.00  0.00    -0.248 NA
ATOM     16  C   UNL A   1      39.064  27.734  31.336  1.00  0.00     0.031 C 
ATOM     17  C   UNL A   1      40.384  28.113  26.792  1.00  0.00     0.029 A 
ATOM     18  N   UNL A   1      41.737  27.648  28.470  1.00  0.00    -0.354 N 
ATOM     19  C   UNL A   1      40.647  28.792  32.604  1.00  0.00     0.074 A 
ATOM     20  C   UNL A   1      39.496  27.922  32.588  1.00  0.00     0.031 C 
ATOM     21  C   UNL A   1      41.309  27.243  26.319  1.00  0.00     0.029 A 
ATOM     22  C   UNL A   1      42.244  26.935  27.385  1.00  0.00     0.049 A 
ATOM     23  H   UNL A   1      42.201  27.693  29.337  1.00  0.00     0.167 HD
ATOM     24  C   UNL A   1      41.694  28.904  33.470  1.00  0.00     0.031 A 
ATOM     25  C   UNL A   1      43.365  26.168  27.355  1.00  0.00     0.031 A 
ATOM     26  C   UNL A   1      42.654  29.879  33.008  1.00  0.00     0.049 A 
ATOM     27  C   UNL A   1      44.235  26.622  28.460  1.00  0.00     0.074 A 
ATOM     28  C   UNL A   1      42.606  31.223  32.699  1.00  0.00     0.029 A 
ATOM     29  N   UNL A   1      43.784  29.391  32.396  1.00  0.00    -0.354 N 
ATOM     30  N   UNL A   1      44.820  27.785  28.469  1.00  0.00    -0.248 NA
ATOM     31  C   UNL A   1      44.084  25.984  29.755  1.00  0.00     0.031 C 
ATOM     32  C   UNL A   1      43.407  31.355  31.525  1.00  0.00     0.029 A 
ATOM     33  C   UNL A   1      43.979  30.112  31.247  1.00  0.00     0.049 A 
ATOM     34  H   UNL A   1      44.352  28.656  32.723  1.00  0.00     0.167 HD
ATOM     35  C   UNL A   1      44.669  28.233  29.772  1.00  0.00     0.074 A 
ATOM     36  C   UNL A   1      44.300  27.042  30.541  1.00  0.00     0.031 C 
ATOM     37  C   UNL A   1      44.572  29.566  30.047  1.00  0.00     0.031 A 
BRANCH  24  38
ATOM     38  C   UNL A   1      42.079  27.849  34.477  1.00  0.00    -0.014 A 
ATOM     39  C   UNL A   1      42.697  26.673  34.010  1.00  0.00     0.009 A 
ATOM     40  C   UNL A   1      41.599  27.828  35.800  1.00  0.00     0.009 A 
ATOM     41  C   UNL A   1      42.745  25.512  34.792  1.00  0.00     0.001 A 
ATOM     42  C   UNL A   1      41.682  26.683  36.597  1.00  0.00     0.001 A 
ATOM     43  C   UNL A   1      42.226  25.516  36.082  1.00  0.00     0.000 A 
ENDBRANCH  24  38
BRANCH  25  44
ATOM     44  C   UNL A   1      43.668  24.928  26.604  1.00  0.00    -0.014 A 
ATOM     45  C   UNL A   1      42.760  23.853  26.588  1.00  0.00     0.009 A 
ATOM     46  C   UNL A   1      44.695  24.925  25.644  1.00  0.00     0.009 A 
ATOM     47  C   UNL A   1      42.842  22.847  25.613  1.00  0.00     0.001 A 
ATOM     48  C   UNL A   1      44.776  23.920  24.670  1.00  0.00     0.001 A 
ATOM     49  C   UNL A   1      43.839  22.892  24.643  1.00  0.00     0.000 A 
ENDBRANCH  25  44
BRANCH  37  50
ATOM     50  C   UNL A   1      44.893  30.547  28.944  1.00  0.00    -0.014 A 
ATOM     51  C   UNL A   1      46.157  31.138  28.762  1.00  0.00     0.009 A 
ATOM     52  C   UNL A   1      43.909  30.780  27.971  1.00  0.00     0.009 A 
ATOM     53  C   UNL A   1      46.411  31.962  27.659  1.00  0.00     0.001 A 
ATOM     54  C   UNL A   1      44.168  31.582  26.860  1.00  0.00     0.001 A 
ATOM     55  C   UNL A   1      45.417  32.180  26.708  1.00  0.00     0.000 A 
ENDBRANCH  37  50
ENDBRANCH  11  12
ENDBRANCH   4   6
ENDBRANCH   3   4
ENDBRANCH   2   3
ENDBRANCH   1   2
BRANCH   1  56
ATOM     56  O   UNL A   1      31.838  29.043  26.180  1.00  0.00    -0.457 OA
BRANCH  56  57
ATOM     57  C   UNL A   1      31.469  27.889  26.813  1.00  0.00     0.359 C 
ATOM     58  O   UNL A   1      31.100  27.835  27.984  1.00  0.00    -0.244 OA
BRANCH  57  59
ATOM     59  C   UNL A   1      31.392  26.751  25.889  1.00  0.00     0.174 A 
ATOM     60  N   UNL A   1      31.868  25.533  26.209  1.00  0.00    -0.161 NA
ATOM     61  C   UNL A   1      30.880  26.765  24.553  1.00  0.00     0.008 A 
ATOM     62  N   UNL A   1      31.797  24.828  25.064  1.00  0.00    -0.240 N 
ATOM     63  C   UNL A   1      31.285  25.558  24.024  1.00  0.00     0.119 A 
BRANCH  61  64
ATOM     64  C   UNL A   1      30.226  27.899  23.846  1.00  0.00     0.068 C 
BRANCH  64  65
ATOM     65  C   UNL A   1      31.004  28.564  22.717  1.00  0.00     0.161 C 
BRANCH  65  66
ATOM     66  O   UNL A   1      30.184  28.953  21.625  1.00  0.00    -0.396 OA
ATOM     67  H   UNL A   1      29.900  28.165  21.137  1.00  0.00     0.210 HD
ENDBRANCH  65  66
ENDBRANCH  64  65
ENDBRANCH  61  64
BRANCH  62  68
ATOM     68  C   UNL A   1      32.177  23.475  25.020  1.00  0.00     0.065 A 
ATOM     69  C   UNL A   1      32.633  22.874  26.200  1.00  0.00     0.035 A 
ATOM     70  C   UNL A   1      32.049  22.744  23.833  1.00  0.00     0.035 A 
ATOM     71  C   UNL A   1      32.923  21.510  26.209  1.00  0.00     0.088 A 
ATOM     72  C   UNL A   1      32.399  21.391  23.826  1.00  0.00     0.088 A 
ATOM     73  C   UNL A   1      32.814  20.776  25.019  1.00  0.00     0.269 A 
BRANCH  73  74
ATOM     74  N   UNL A   1      33.128  19.341  25.024  1.00  0.00     0.062 N 
ATOM     75  O   UNL A   1      34.076  18.956  24.323  1.00  0.00    -0.258 OA
ATOM     76  O   UNL A   1      32.434  18.602  25.736  1.00  0.00    -0.258 OA
ENDBRANCH  73  74
ENDBRANCH  62  68
ENDBRANCH  57  59
ENDBRANCH  56  57
ENDBRANCH   1  56
TORSDOF 16
ENDMDL
