MODEL 1
REMARK VINA RESULT:     -12.7      0.000      0.000
REMARK SMILES CN1C(=O)C[C@H](C(=O)OCCOC(=O)c2ccc(-c3c4nc(c(-c5ccccc5)c5ccc([nH]5)c(-c5ccccc5)c5nc(c(-c6ccccc6)c6ccc3[nH]6)C=C5)C=C4)cc2)C12CC[NH+](Cc1cnn(-c3ccccc3F)c1)CC2
REMARK SMILES IDX 10 1 9 2 7 3 8 4 6 5 1 6 2 7 3 8 63 9 4 10 5 11 64 12 81 13
REMARK SMILES IDX 65 14 80 15 66 16 67 18 68 19 69 20 79 21 70 22 71 23 72 24
REMARK SMILES IDX 73 25 77 26 74 27 76 28 78 29 75 30 11 31 12 32 13 33 14 34
REMARK SMILES IDX 15 35 16 36 62 37 17 38 61 39 18 40 19 41 20 42 55 43 21 44
REMARK SMILES IDX 60 45 54 46 56 47 22 48 59 49 53 50 52 51 23 53 45 54 30 55
REMARK SMILES IDX 44 56 31 57 34 58 43 59 57 60 32 61 33 62 42 64 58 65 35 66
REMARK SMILES IDX 24 67 25 68 29 69 26 70 28 71 27 72 46 73 47 74 51 75 48 76
REMARK SMILES IDX 50 77 49 78 36 79 37 80 41 81 38 82 40 83 39 84
REMARK H PARENT 66 17 56 52 34 63
REMARK Flexibility Score: inf
ROOT
ATOM      1  C   UNL A   1      32.286  28.756  24.875  1.00  0.00     0.274 C 
ENDROOT
BRANCH   1   2
ATOM      2  O   UNL A   1      31.264  28.209  24.010  1.00  0.00    -0.462 OA
BRANCH   2   3
ATOM      3  C   UNL A   1      30.836  26.959  24.322  1.00  0.00     0.311 C 
ATOM      4  O   UNL A   1      30.208  26.682  25.336  1.00  0.00    -0.252 OA
BRANCH   3   5
ATOM      5  C   UNL A   1      31.211  25.921  23.287  1.00  0.00     0.134 C 
ATOM      6  C   UNL A   1      33.657  23.327  22.130  1.00  0.00     0.147 C 
ATOM      7  N   UNL A   1      32.727  24.414  22.364  1.00  0.00    -0.339 N 
ATOM      8  C   UNL A   1      32.515  25.364  21.378  1.00  0.00     0.223 C 
ATOM      9  C   UNL A   1      32.231  24.829  23.701  1.00  0.00     0.067 C 
ATOM     10  O   UNL A   1      32.907  25.328  20.223  1.00  0.00    -0.275 OA
ATOM     11  C   UNL A   1      31.760  26.500  21.987  1.00  0.00     0.118 C 
ATOM     12  C   UNL A   1      31.500  23.668  24.408  1.00  0.00     0.091 C 
ATOM     13  C   UNL A   1      33.420  25.325  24.553  1.00  0.00     0.091 C 
ATOM     14  C   UNL A   1      31.225  23.930  25.885  1.00  0.00     0.265 C 
ATOM     15  C   UNL A   1      33.141  25.453  26.055  1.00  0.00     0.265 C 
ATOM     16  N   UNL A   1      32.388  24.361  26.645  1.00  0.00    -0.331 N 
ATOM     17  H   UNL A   1      31.952  24.807  27.452  1.00  0.00     0.348 HD
BRANCH  16  18
ATOM     18  C   UNL A   1      33.154  23.330  27.342  1.00  0.00     0.302 C 
BRANCH  18  19
ATOM     19  C   UNL A   1      33.700  22.287  26.436  1.00  0.00     0.045 A 
ATOM     20  C   UNL A   1      34.862  22.350  25.642  1.00  0.00     0.145 A 
ATOM     21  C   UNL A   1      33.220  21.016  26.200  1.00  0.00     0.124 A 
ATOM     22  N   UNL A   1      35.054  21.250  24.915  1.00  0.00    -0.176 NA
ATOM     23  N   UNL A   1      33.978  20.464  25.192  1.00  0.00    -0.237 N 
BRANCH  23  24
ATOM     24  C   UNL A   1      33.738  19.283  24.445  1.00  0.00     0.100 A 
ATOM     25  C   UNL A   1      34.577  18.172  24.623  1.00  0.00     0.031 A 
ATOM     26  C   UNL A   1      32.717  19.211  23.492  1.00  0.00     0.148 A 
ATOM     27  C   UNL A   1      34.379  17.009  23.872  1.00  0.00     0.002 A 
ATOM     28  C   UNL A   1      32.529  18.055  22.735  1.00  0.00     0.041 A 
ATOM     29  F   UNL A   1      31.923  20.255  23.219  1.00  0.00    -0.205 F 
ATOM     30  C   UNL A   1      33.356  16.951  22.928  1.00  0.00     0.003 A 
ENDBRANCH  23  24
ENDBRANCH  18  19
ENDBRANCH  16  18
ENDBRANCH   3   5
ENDBRANCH   2   3
ENDBRANCH   1   2
BRANCH   1  31
ATOM     31  C   UNL A   1      31.736  29.985  25.598  1.00  0.00     0.275 C 
BRANCH  31  32
ATOM     32  O   UNL A   1      32.401  30.078  26.868  1.00  0.00    -0.458 OA
BRANCH  32  33
ATOM     33  C   UNL A   1      32.902  31.301  27.149  1.00  0.00     0.338 C 
ATOM     34  O   UNL A   1      32.316  32.366  27.195  1.00  0.00    -0.246 OA
BRANCH  33  35
ATOM     35  C   UNL A   1      34.265  31.106  27.651  1.00  0.00     0.060 A 
ATOM     36  C   UNL A   1      34.659  29.801  27.942  1.00  0.00     0.016 A 
ATOM     37  C   UNL A   1      35.096  32.181  27.935  1.00  0.00     0.016 A 
ATOM     38  C   UNL A   1      35.832  29.562  28.638  1.00  0.00     0.010 A 
ATOM     39  C   UNL A   1      36.331  31.929  28.535  1.00  0.00     0.010 A 
ATOM     40  C   UNL A   1      36.692  30.624  28.929  1.00  0.00    -0.014 A 
BRANCH  40  41
ATOM     41  C   UNL A   1      37.944  30.389  29.686  1.00  0.00     0.031 A 
ATOM     42  C   UNL A   1      39.031  29.559  29.066  1.00  0.00     0.074 A 
ATOM     43  C   UNL A   1      38.104  30.900  30.921  1.00  0.00     0.049 A 
ATOM     44  N   UNL A   1      40.058  28.985  29.634  1.00  0.00    -0.248 NA
ATOM     45  C   UNL A   1      38.930  29.326  27.617  1.00  0.00     0.031 C 
ATOM     46  C   UNL A   1      37.165  31.792  31.607  1.00  0.00     0.029 A 
ATOM     47  N   UNL A   1      39.120  30.729  31.827  1.00  0.00    -0.354 N 
ATOM     48  C   UNL A   1      40.686  28.264  28.626  1.00  0.00     0.074 A 
ATOM     49  C   UNL A   1      39.925  28.474  27.414  1.00  0.00     0.031 C 
ATOM     50  C   UNL A   1      37.653  32.097  32.819  1.00  0.00     0.029 A 
ATOM     51  C   UNL A   1      38.884  31.346  33.031  1.00  0.00     0.049 A 
ATOM     52  H   UNL A   1      39.937  30.214  31.634  1.00  0.00     0.167 HD
ATOM     53  C   UNL A   1      41.791  27.487  28.715  1.00  0.00     0.031 A 
ATOM     54  C   UNL A   1      39.545  31.263  34.199  1.00  0.00     0.031 A 
ATOM     55  C   UNL A   1      42.555  27.319  29.922  1.00  0.00     0.049 A 
ATOM     56  C   UNL A   1      40.741  30.363  34.291  1.00  0.00     0.074 A 
ATOM     57  C   UNL A   1      43.685  26.550  30.135  1.00  0.00     0.029 A 
ATOM     58  N   UNL A   1      42.271  27.954  31.123  1.00  0.00    -0.354 N 
ATOM     59  N   UNL A   1      41.277  29.608  33.362  1.00  0.00    -0.248 NA
ATOM     60  C   UNL A   1      41.411  30.288  35.595  1.00  0.00     0.031 C 
ATOM     61  C   UNL A   1      44.065  26.694  31.474  1.00  0.00     0.029 A 
ATOM     62  C   UNL A   1      43.200  27.591  32.082  1.00  0.00     0.049 A 
ATOM     63  H   UNL A   1      41.520  28.573  31.271  1.00  0.00     0.167 HD
ATOM     64  C   UNL A   1      42.355  28.975  33.965  1.00  0.00     0.074 A 
ATOM     65  C   UNL A   1      42.406  29.451  35.334  1.00  0.00     0.031 C 
ATOM     66  C   UNL A   1      43.221  28.076  33.438  1.00  0.00     0.031 A 
BRANCH  53  67
ATOM     67  C   UNL A   1      42.194  26.721  27.485  1.00  0.00    -0.014 A 
ATOM     68  C   UNL A   1      43.068  27.264  26.530  1.00  0.00     0.009 A 
ATOM     69  C   UNL A   1      41.681  25.431  27.279  1.00  0.00     0.009 A 
ATOM     70  C   UNL A   1      43.384  26.547  25.374  1.00  0.00     0.001 A 
ATOM     71  C   UNL A   1      42.023  24.704  26.136  1.00  0.00     0.001 A 
ATOM     72  C   UNL A   1      42.863  25.268  25.178  1.00  0.00     0.000 A 
ENDBRANCH  53  67
BRANCH  54  73
ATOM     73  C   UNL A   1      39.038  32.002  35.385  1.00  0.00    -0.014 A 
ATOM     74  C   UNL A   1      38.156  31.389  36.285  1.00  0.00     0.009 A 
ATOM     75  C   UNL A   1      39.467  33.315  35.642  1.00  0.00     0.009 A 
ATOM     76  C   UNL A   1      37.707  32.079  37.414  1.00  0.00     0.001 A 
ATOM     77  C   UNL A   1      39.041  33.991  36.786  1.00  0.00     0.001 A 
ATOM     78  C   UNL A   1      38.157  33.374  37.668  1.00  0.00     0.000 A 
ENDBRANCH  54  73
BRANCH  66  79
ATOM     79  C   UNL A   1      44.311  27.579  34.341  1.00  0.00    -0.014 A 
ATOM     80  C   UNL A   1      44.160  26.394  35.076  1.00  0.00     0.009 A 
ATOM     81  C   UNL A   1      45.514  28.295  34.433  1.00  0.00     0.009 A 
ATOM     82  C   UNL A   1      45.186  25.950  35.911  1.00  0.00     0.001 A 
ATOM     83  C   UNL A   1      46.547  27.836  35.251  1.00  0.00     0.001 A 
ATOM     84  C   UNL A   1      46.379  26.668  35.994  1.00  0.00     0.000 A 
ENDBRANCH  66  79
ENDBRANCH  40  41
ENDBRANCH  33  35
ENDBRANCH  32  33
ENDBRANCH  31  32
ENDBRANCH   1  31
TORSDOF 14
ENDMDL
MODEL 2
REMARK VINA RESULT:     -12.3      3.623      6.693
REMARK SMILES CN1C(=O)C[C@H](C(=O)OCCOC(=O)c2ccc(-c3c4nc(c(-c5ccccc5)c5ccc([nH]5)c(-c5ccccc5)c5nc(c(-c6ccccc6)c6ccc3[nH]6)C=C5)C=C4)cc2)C12CC[NH+](Cc1cnn(-c3ccccc3F)c1)CC2
REMARK SMILES IDX 10 1 9 2 7 3 8 4 6 5 1 6 2 7 3 8 63 9 4 10 5 11 64 12 81 13
REMARK SMILES IDX 65 14 80 15 66 16 67 18 68 19 69 20 79 21 70 22 71 23 72 24
REMARK SMILES IDX 73 25 77 26 74 27 76 28 78 29 75 30 11 31 12 32 13 33 14 34
REMARK SMILES IDX 15 35 16 36 62 37 17 38 61 39 18 40 19 41 20 42 55 43 21 44
REMARK SMILES IDX 60 45 54 46 56 47 22 48 59 49 53 50 52 51 23 53 45 54 30 55
REMARK SMILES IDX 44 56 31 57 34 58 43 59 57 60 32 61 33 62 42 64 58 65 35 66
REMARK SMILES IDX 24 67 25 68 29 69 26 70 28 71 27 72 46 73 47 74 51 75 48 76
REMARK SMILES IDX 50 77 49 78 36 79 37 80 41 81 38 82 40 83 39 84
REMARK H PARENT 66 17 56 52 34 63
REMARK Flexibility Score: inf
ROOT
ATOM      1  C   UNL A   1      33.581  29.530  25.649  1.00  0.00     0.274 C 
ENDROOT
BRANCH   1   2
ATOM      2  O   UNL A   1      33.793  28.216  25.085  1.00  0.00    -0.462 OA
BRANCH   2   3
ATOM      3  C   UNL A   1      33.178  27.978  23.898  1.00  0.00     0.311 C 
ATOM      4  O   UNL A   1      33.763  27.627  22.880  1.00  0.00    -0.252 OA
BRANCH   3   5
ATOM      5  C   UNL A   1      31.681  28.189  23.946  1.00  0.00     0.134 C 
ATOM      6  C   UNL A   1      28.253  26.680  23.776  1.00  0.00     0.147 C 
ATOM      7  N   UNL A   1      29.501  27.412  23.684  1.00  0.00    -0.339 N 
ATOM      8  C   UNL A   1      29.642  28.419  22.742  1.00  0.00     0.223 C 
ATOM      9  C   UNL A   1      30.792  26.958  24.262  1.00  0.00     0.067 C 
ATOM     10  O   UNL A   1      28.767  28.903  22.045  1.00  0.00    -0.275 OA
ATOM     11  C   UNL A   1      31.089  28.785  22.672  1.00  0.00     0.118 C 
ATOM     12  C   UNL A   1      30.681  26.769  25.790  1.00  0.00     0.091 C 
ATOM     13  C   UNL A   1      31.220  25.642  23.578  1.00  0.00     0.091 C 
ATOM     14  C   UNL A   1      31.868  26.031  26.401  1.00  0.00     0.265 C 
ATOM     15  C   UNL A   1      32.329  24.862  24.293  1.00  0.00     0.265 C 
ATOM     16  N   UNL A   1      32.204  24.782  25.738  1.00  0.00    -0.331 N 
ATOM     17  H   UNL A   1      33.170  24.645  26.034  1.00  0.00     0.348 HD
BRANCH  16  18
ATOM     18  C   UNL A   1      31.624  23.556  26.283  1.00  0.00     0.302 C 
BRANCH  18  19
ATOM     19  C   UNL A   1      32.428  22.342  25.990  1.00  0.00     0.045 A 
ATOM     20  C   UNL A   1      33.772  22.089  26.329  1.00  0.00     0.145 A 
ATOM     21  C   UNL A   1      32.033  21.180  25.361  1.00  0.00     0.124 A 
ATOM     22  N   UNL A   1      34.205  20.909  25.887  1.00  0.00    -0.176 NA
ATOM     23  N   UNL A   1      33.150  20.390  25.202  1.00  0.00    -0.237 N 
BRANCH  23  24
ATOM     24  C   UNL A   1      33.305  19.218  24.419  1.00  0.00     0.100 A 
ATOM     25  C   UNL A   1      34.223  18.236  24.824  1.00  0.00     0.031 A 
ATOM     26  C   UNL A   1      32.607  19.037  23.222  1.00  0.00     0.148 A 
ATOM     27  C   UNL A   1      34.417  17.089  24.049  1.00  0.00     0.002 A 
ATOM     28  C   UNL A   1      32.811  17.897  22.443  1.00  0.00     0.041 A 
ATOM     29  F   UNL A   1      31.769  19.963  22.738  1.00  0.00    -0.205 F 
ATOM     30  C   UNL A   1      33.712  16.919  22.858  1.00  0.00     0.003 A 
ENDBRANCH  23  24
ENDBRANCH  18  19
ENDBRANCH  16  18
ENDBRANCH   3   5
ENDBRANCH   2   3
ENDBRANCH   1   2
BRANCH   1  31
ATOM     31  C   UNL A   1      33.170  29.393  27.115  1.00  0.00     0.275 C 
BRANCH  31  32
ATOM     32  O   UNL A   1      34.364  29.190  27.886  1.00  0.00    -0.458 OA
BRANCH  32  33
ATOM     33  C   UNL A   1      34.956  30.327  28.313  1.00  0.00     0.338 C 
ATOM     34  O   UNL A   1      34.431  31.372  28.649  1.00  0.00    -0.246 OA
BRANCH  33  35
ATOM     35  C   UNL A   1      36.367  30.018  28.555  1.00  0.00     0.060 A 
ATOM     36  C   UNL A   1      37.246  30.162  27.482  1.00  0.00     0.016 A 
ATOM     37  C   UNL A   1      36.801  29.494  29.765  1.00  0.00     0.016 A 
ATOM     38  C   UNL A   1      38.537  29.666  27.561  1.00  0.00     0.010 A 
ATOM     39  C   UNL A   1      38.135  29.100  29.881  1.00  0.00     0.010 A 
ATOM     40  C   UNL A   1      39.003  29.144  28.769  1.00  0.00    -0.014 A 
BRANCH  40  41
ATOM     41  C   UNL A   1      40.375  28.594  28.869  1.00  0.00     0.031 A 
ATOM     42  C   UNL A   1      41.508  29.513  29.228  1.00  0.00     0.074 A 
ATOM     43  C   UNL A   1      40.612  27.291  28.628  1.00  0.00     0.049 A 
ATOM     44  N   UNL A   1      42.794  29.333  29.087  1.00  0.00    -0.248 NA
ATOM     45  C   UNL A   1      41.137  30.817  29.798  1.00  0.00     0.031 C 
ATOM     46  C   UNL A   1      39.595  26.273  28.354  1.00  0.00     0.029 A 
ATOM     47  N   UNL A   1      41.796  26.601  28.566  1.00  0.00    -0.354 N 
ATOM     48  C   UNL A   1      43.383  30.528  29.483  1.00  0.00     0.074 A 
ATOM     49  C   UNL A   1      42.314  31.421  29.870  1.00  0.00     0.031 C 
ATOM     50  C   UNL A   1      40.197  25.090  28.162  1.00  0.00     0.029 A 
ATOM     51  C   UNL A   1      41.640  25.286  28.202  1.00  0.00     0.049 A 
ATOM     52  H   UNL A   1      42.672  27.009  28.762  1.00  0.00     0.167 HD
ATOM     53  C   UNL A   1      44.698  30.847  29.506  1.00  0.00     0.031 A 
ATOM     54  C   UNL A   1      42.555  24.358  27.871  1.00  0.00     0.031 A 
ATOM     55  C   UNL A   1      45.749  29.931  29.151  1.00  0.00     0.049 A 
ATOM     56  C   UNL A   1      44.004  24.742  27.859  1.00  0.00     0.074 A 
ATOM     57  C   UNL A   1      47.116  30.145  29.127  1.00  0.00     0.029 A 
ATOM     58  N   UNL A   1      45.544  28.611  28.777  1.00  0.00    -0.354 N 
ATOM     59  N   UNL A   1      44.552  25.899  28.142  1.00  0.00    -0.248 NA
ATOM     60  C   UNL A   1      44.960  23.699  27.464  1.00  0.00     0.031 C 
ATOM     61  C   UNL A   1      47.734  28.963  28.705  1.00  0.00     0.029 A 
ATOM     62  C   UNL A   1      46.756  27.999  28.513  1.00  0.00     0.049 A 
ATOM     63  H   UNL A   1      44.664  28.173  28.709  1.00  0.00     0.167 HD
ATOM     64  C   UNL A   1      45.918  25.723  27.970  1.00  0.00     0.074 A 
ATOM     65  C   UNL A   1      46.115  24.342  27.577  1.00  0.00     0.031 C 
ATOM     66  C   UNL A   1      46.920  26.624  28.117  1.00  0.00     0.031 A 
BRANCH  53  67
ATOM     67  C   UNL A   1      45.057  32.260  29.874  1.00  0.00    -0.014 A 
ATOM     68  C   UNL A   1      45.139  33.277  28.909  1.00  0.00     0.009 A 
ATOM     69  C   UNL A   1      45.323  32.576  31.216  1.00  0.00     0.009 A 
ATOM     70  C   UNL A   1      45.522  34.569  29.276  1.00  0.00     0.001 A 
ATOM     71  C   UNL A   1      45.679  33.875  31.583  1.00  0.00     0.001 A 
ATOM     72  C   UNL A   1      45.791  34.867  30.611  1.00  0.00     0.000 A 
ENDBRANCH  53  67
BRANCH  54  73
ATOM     73  C   UNL A   1      42.108  23.002  27.454  1.00  0.00    -0.014 A 
ATOM     74  C   UNL A   1      41.869  22.005  28.408  1.00  0.00     0.009 A 
ATOM     75  C   UNL A   1      41.882  22.715  26.098  1.00  0.00     0.009 A 
ATOM     76  C   UNL A   1      41.418  20.743  28.012  1.00  0.00     0.001 A 
ATOM     77  C   UNL A   1      41.403  21.463  25.707  1.00  0.00     0.001 A 
ATOM     78  C   UNL A   1      41.178  20.476  26.664  1.00  0.00     0.000 A 
ENDBRANCH  54  73
BRANCH  66  79
ATOM     79  C   UNL A   1      48.315  26.126  27.881  1.00  0.00    -0.014 A 
ATOM     80  C   UNL A   1      49.073  25.569  28.922  1.00  0.00     0.009 A 
ATOM     81  C   UNL A   1      48.865  26.192  26.591  1.00  0.00     0.009 A 
ATOM     82  C   UNL A   1      50.370  25.114  28.681  1.00  0.00     0.001 A 
ATOM     83  C   UNL A   1      50.152  25.713  26.349  1.00  0.00     0.001 A 
ATOM     84  C   UNL A   1      50.906  25.182  27.395  1.00  0.00     0.000 A 
ENDBRANCH  66  79
ENDBRANCH  40  41
ENDBRANCH  33  35
ENDBRANCH  32  33
ENDBRANCH  31  32
ENDBRANCH   1  31
TORSDOF 14
ENDMDL
MODEL 3
REMARK VINA RESULT:     -12.2      4.107      9.106
REMARK SMILES CN1C(=O)C[C@H](C(=O)OCCOC(=O)c2ccc(-c3c4nc(c(-c5ccccc5)c5ccc([nH]5)c(-c5ccccc5)c5nc(c(-c6ccccc6)c6ccc3[nH]6)C=C5)C=C4)cc2)C12CC[NH+](Cc1cnn(-c3ccccc3F)c1)CC2
REMARK SMILES IDX 10 1 9 2 7 3 8 4 6 5 1 6 2 7 3 8 63 9 4 10 5 11 64 12 81 13
REMARK SMILES IDX 65 14 80 15 66 16 67 18 68 19 69 20 79 21 70 22 71 23 72 24
REMARK SMILES IDX 73 25 77 26 74 27 76 28 78 29 75 30 11 31 12 32 13 33 14 34
REMARK SMILES IDX 15 35 16 36 62 37 17 38 61 39 18 40 19 41 20 42 55 43 21 44
REMARK SMILES IDX 60 45 54 46 56 47 22 48 59 49 53 50 52 51 23 53 45 54 30 55
REMARK SMILES IDX 44 56 31 57 34 58 43 59 57 60 32 61 33 62 42 64 58 65 35 66
REMARK SMILES IDX 24 67 25 68 29 69 26 70 28 71 27 72 46 73 47 74 51 75 48 76
REMARK SMILES IDX 50 77 49 78 36 79 37 80 41 81 38 82 40 83 39 84
REMARK H PARENT 66 17 56 52 34 63
REMARK Flexibility Score: inf
ROOT
ATOM      1  C   UNL A   1      35.282  22.115  24.170  1.00  0.00     0.274 C 
ENDROOT
BRANCH   1   2
ATOM      2  O   UNL A   1      33.912  21.891  24.576  1.00  0.00    -0.462 OA
BRANCH   2   3
ATOM      3  C   UNL A   1      32.963  22.298  23.694  1.00  0.00     0.311 C 
ATOM      4  O   UNL A   1      33.039  22.140  22.482  1.00  0.00    -0.252 OA
BRANCH   3   5
ATOM      5  C   UNL A   1      31.783  22.976  24.355  1.00  0.00     0.134 C 
ATOM      6  C   UNL A   1      30.450  25.968  26.178  1.00  0.00     0.147 C 
ATOM      7  N   UNL A   1      30.872  24.688  25.644  1.00  0.00    -0.339 N 
ATOM      8  C   UNL A   1      30.651  23.530  26.372  1.00  0.00     0.223 C 
ATOM      9  C   UNL A   1      31.849  24.514  24.538  1.00  0.00     0.067 C 
ATOM     10  O   UNL A   1      29.982  23.413  27.385  1.00  0.00    -0.275 OA
ATOM     11  C   UNL A   1      31.436  22.429  25.736  1.00  0.00     0.118 C 
ATOM     12  C   UNL A   1      31.365  25.217  23.253  1.00  0.00     0.091 C 
ATOM     13  C   UNL A   1      33.220  25.068  24.981  1.00  0.00     0.091 C 
ATOM     14  C   UNL A   1      32.440  25.330  22.177  1.00  0.00     0.265 C 
ATOM     15  C   UNL A   1      34.233  25.289  23.852  1.00  0.00     0.265 C 
ATOM     16  N   UNL A   1      33.699  25.890  22.643  1.00  0.00    -0.331 N 
ATOM     17  H   UNL A   1      34.348  25.559  21.929  1.00  0.00     0.348 HD
BRANCH  16  18
ATOM     18  C   UNL A   1      33.895  27.329  22.478  1.00  0.00     0.302 C 
BRANCH  18  19
ATOM     19  C   UNL A   1      32.829  28.146  23.112  1.00  0.00     0.045 A 
ATOM     20  C   UNL A   1      32.664  28.448  24.478  1.00  0.00     0.145 A 
ATOM     21  C   UNL A   1      31.790  28.822  22.507  1.00  0.00     0.124 A 
ATOM     22  N   UNL A   1      31.579  29.183  24.719  1.00  0.00    -0.176 NA
ATOM     23  N   UNL A   1      30.986  29.330  23.503  1.00  0.00    -0.237 N 
BRANCH  23  24
ATOM     24  C   UNL A   1      29.690  29.896  23.397  1.00  0.00     0.100 A 
ATOM     25  C   UNL A   1      28.727  29.266  22.593  1.00  0.00     0.031 A 
ATOM     26  C   UNL A   1      29.359  31.097  24.030  1.00  0.00     0.148 A 
ATOM     27  C   UNL A   1      27.454  29.825  22.447  1.00  0.00     0.002 A 
ATOM     28  C   UNL A   1      28.093  31.661  23.872  1.00  0.00     0.041 A 
ATOM     29  F   UNL A   1      30.249  31.790  24.754  1.00  0.00    -0.205 F 
ATOM     30  C   UNL A   1      27.137  31.023  23.085  1.00  0.00     0.003 A 
ENDBRANCH  23  24
ENDBRANCH  18  19
ENDBRANCH  16  18
ENDBRANCH   3   5
ENDBRANCH   2   3
ENDBRANCH   1   2
BRANCH   1  31
ATOM     31  C   UNL A   1      36.197  21.138  24.908  1.00  0.00     0.275 C 
BRANCH  31  32
ATOM     32  O   UNL A   1      36.977  21.897  25.846  1.00  0.00    -0.458 OA
BRANCH  32  33
ATOM     33  C   UNL A   1      38.294  21.593  25.854  1.00  0.00     0.338 C 
ATOM     34  O   UNL A   1      38.866  20.693  25.269  1.00  0.00    -0.246 OA
BRANCH  33  35
ATOM     35  C   UNL A   1      38.992  22.704  26.505  1.00  0.00     0.060 A 
ATOM     36  C   UNL A   1      38.540  23.994  26.227  1.00  0.00     0.016 A 
ATOM     37  C   UNL A   1      40.125  22.499  27.279  1.00  0.00     0.016 A 
ATOM     38  C   UNL A   1      39.288  25.096  26.607  1.00  0.00     0.010 A 
ATOM     39  C   UNL A   1      40.816  23.612  27.760  1.00  0.00     0.010 A 
ATOM     40  C   UNL A   1      40.428  24.918  27.395  1.00  0.00    -0.014 A 
BRANCH  40  41
ATOM     41  C   UNL A   1      41.249  26.084  27.799  1.00  0.00     0.031 A 
ATOM     42  C   UNL A   1      40.664  27.104  28.733  1.00  0.00     0.074 A 
ATOM     43  C   UNL A   1      42.500  26.239  27.326  1.00  0.00     0.049 A 
ATOM     44  N   UNL A   1      41.066  28.321  28.984  1.00  0.00    -0.248 NA
ATOM     45  C   UNL A   1      39.450  26.704  29.461  1.00  0.00     0.031 C 
ATOM     46  C   UNL A   1      43.221  25.283  26.481  1.00  0.00     0.029 A 
ATOM     47  N   UNL A   1      43.387  27.274  27.485  1.00  0.00    -0.354 N 
ATOM     48  C   UNL A   1      40.115  28.858  29.843  1.00  0.00     0.074 A 
ATOM     49  C   UNL A   1      39.120  27.834  30.070  1.00  0.00     0.031 C 
ATOM     50  C   UNL A   1      44.439  25.770  26.204  1.00  0.00     0.029 A 
ATOM     51  C   UNL A   1      44.546  27.110  26.768  1.00  0.00     0.049 A 
ATOM     52  H   UNL A   1      43.209  28.057  28.056  1.00  0.00     0.167 HD
ATOM     53  C   UNL A   1      40.076  30.100  30.380  1.00  0.00     0.031 A 
ATOM     54  C   UNL A   1      45.555  27.968  26.532  1.00  0.00     0.031 A 
ATOM     55  C   UNL A   1      41.095  31.093  30.171  1.00  0.00     0.049 A 
ATOM     56  C   UNL A   1      45.474  29.353  27.097  1.00  0.00     0.074 A 
ATOM     57  C   UNL A   1      41.158  32.388  30.655  1.00  0.00     0.029 A 
ATOM     58  N   UNL A   1      42.248  30.888  29.427  1.00  0.00    -0.354 N 
ATOM     59  N   UNL A   1      44.528  29.890  27.831  1.00  0.00    -0.248 NA
ATOM     60  C   UNL A   1      46.588  30.259  26.789  1.00  0.00     0.031 C 
ATOM     61  C   UNL A   1      42.334  32.976  30.174  1.00  0.00     0.029 A 
ATOM     62  C   UNL A   1      43.026  32.032  29.431  1.00  0.00     0.049 A 
ATOM     63  H   UNL A   1      42.479  30.050  28.963  1.00  0.00     0.167 HD
ATOM     64  C   UNL A   1      44.936  31.192  28.081  1.00  0.00     0.074 A 
ATOM     65  C   UNL A   1      46.224  31.357  27.437  1.00  0.00     0.031 C 
ATOM     66  C   UNL A   1      44.301  32.168  28.775  1.00  0.00     0.031 A 
BRANCH  53  67
ATOM     67  C   UNL A   1      38.863  30.460  31.193  1.00  0.00    -0.014 A 
ATOM     68  C   UNL A   1      37.716  31.015  30.603  1.00  0.00     0.009 A 
ATOM     69  C   UNL A   1      38.875  30.244  32.580  1.00  0.00     0.009 A 
ATOM     70  C   UNL A   1      36.625  31.384  31.392  1.00  0.00     0.001 A 
ATOM     71  C   UNL A   1      37.771  30.588  33.363  1.00  0.00     0.001 A 
ATOM     72  C   UNL A   1      36.652  31.170  32.770  1.00  0.00     0.000 A 
ENDBRANCH  53  67
BRANCH  54  73
ATOM     73  C   UNL A   1      46.685  27.551  25.660  1.00  0.00    -0.014 A 
ATOM     74  C   UNL A   1      47.741  26.787  26.176  1.00  0.00     0.009 A 
ATOM     75  C   UNL A   1      46.690  27.884  24.295  1.00  0.00     0.009 A 
ATOM     76  C   UNL A   1      48.783  26.372  25.343  1.00  0.00     0.001 A 
ATOM     77  C   UNL A   1      47.717  27.442  23.460  1.00  0.00     0.001 A 
ATOM     78  C   UNL A   1      48.766  26.692  23.986  1.00  0.00     0.000 A 
ENDBRANCH  54  73
BRANCH  66  79
ATOM     79  C   UNL A   1      45.011  33.484  28.894  1.00  0.00    -0.014 A 
ATOM     80  C   UNL A   1      44.799  34.509  27.960  1.00  0.00     0.009 A 
ATOM     81  C   UNL A   1      45.881  33.706  29.972  1.00  0.00     0.009 A 
ATOM     82  C   UNL A   1      45.472  35.725  28.089  1.00  0.00     0.001 A 
ATOM     83  C   UNL A   1      46.533  34.932  30.111  1.00  0.00     0.001 A 
ATOM     84  C   UNL A   1      46.333  35.937  29.165  1.00  0.00     0.000 A 
ENDBRANCH  66  79
ENDBRANCH  40  41
ENDBRANCH  33  35
ENDBRANCH  32  33
ENDBRANCH  31  32
ENDBRANCH   1  31
TORSDOF 14
ENDMDL
