MODEL 1
REMARK VINA RESULT:      -9.5      0.000      0.000
REMARK SMILES COc1ccc([C@H]2CC(c3ccc(S(C)(=O)=O)cc3)=NN2c2ccc(C(=O)OCCOC(=O)c3ccc(-c4c5nc(c(-c6ccccc6)c6ccc([nH]6)c(-c6ccccc6)c6nc(c(-c7ccccc7)c7ccc4[nH]7)C=C6)C=C5)cc3)cc2)cc1OC
REMARK SMILES IDX 29 1 28 2 26 3 27 4 25 5 22 6 23 7 83 8 24 9 82 10 21 11
REMARK SMILES IDX 7 12 8 13 9 14 20 15 6 16 3 17 4 18 85 19 5 20 84 21 2 22
REMARK SMILES IDX 1 23 86 24 87 25 10 26 11 27 19 28 12 29 18 30 13 31 14 32
REMARK SMILES IDX 15 33 16 34 17 35 30 36 31 37 32 38 33 39 34 40 35 41 81 42
REMARK SMILES IDX 36 43 80 44 37 45 38 46 39 47 74 48 40 49 79 50 73 51 75 52
REMARK SMILES IDX 41 53 78 54 72 55 71 56 42 58 64 59 49 60 63 61 50 62 53 63
REMARK SMILES IDX 62 64 76 65 51 66 52 67 61 69 77 70 54 71 43 72 44 73 48 74
REMARK SMILES IDX 45 75 47 76 46 77 65 78 66 79 70 80 67 81 69 82 68 83 55 84
REMARK SMILES IDX 56 85 60 86 57 87 59 88 58 89
REMARK H PARENT 75 57 53 68
REMARK Flexibility Score: inf
ROOT
ATOM      1  C   UNL A   1      44.958  19.920  24.530  1.00  0.00     0.275 C 
ENDROOT
BRANCH   1   2
ATOM      2  O   UNL A   1      45.432  21.196  25.007  1.00  0.00    -0.458 OA
BRANCH   2   3
ATOM      3  C   UNL A   1      45.080  22.262  24.244  1.00  0.00     0.338 C 
ATOM      4  O   UNL A   1      44.470  22.235  23.190  1.00  0.00    -0.246 OA
BRANCH   3   5
ATOM      5  C   UNL A   1      45.473  23.527  24.898  1.00  0.00     0.060 A 
ATOM      6  C   UNL A   1      46.223  26.052  25.890  1.00  0.00     0.060 A 
ATOM      7  C   UNL A   1      44.942  25.839  25.373  1.00  0.00     0.029 A 
ATOM      8  C   UNL A   1      47.112  24.968  25.936  1.00  0.00     0.029 A 
ATOM      9  C   UNL A   1      44.586  24.604  24.844  1.00  0.00     0.018 A 
ATOM     10  C   UNL A   1      46.735  23.700  25.466  1.00  0.00     0.018 A 
BRANCH   6  11
ATOM     11  N   UNL A   1      46.591  27.325  26.306  1.00  0.00    -0.257 N 
ATOM     12  C   UNL A   1      47.977  27.804  26.279  1.00  0.00     0.144 C 
ATOM     13  C   UNL A   1      47.812  29.308  26.551  1.00  0.00     0.091 C 
ATOM     14  C   UNL A   1      46.316  29.430  26.480  1.00  0.00     0.071 C 
ATOM     15  N   UNL A   1      45.663  28.320  26.339  1.00  0.00    -0.176 NA
BRANCH  12  16
ATOM     16  C   UNL A   1      48.692  27.520  24.961  1.00  0.00    -0.019 A 
ATOM     17  C   UNL A   1      49.979  26.975  22.505  1.00  0.00     0.160 A 
ATOM     18  C   UNL A   1      48.627  27.339  22.535  1.00  0.00     0.051 A 
ATOM     19  C   UNL A   1      50.710  26.911  23.696  1.00  0.00     0.161 A 
ATOM     20  C   UNL A   1      47.988  27.599  23.751  1.00  0.00     0.010 A 
ATOM     21  C   UNL A   1      50.061  27.198  24.908  1.00  0.00     0.056 A 
BRANCH  17  22
ATOM     22  O   UNL A   1      50.590  26.793  21.292  1.00  0.00    -0.493 OA
ATOM     23  C   UNL A   1      49.807  27.289  20.207  1.00  0.00     0.278 C 
ENDBRANCH  17  22
BRANCH  19  24
ATOM     24  O   UNL A   1      52.036  26.606  23.856  1.00  0.00    -0.493 OA
ATOM     25  C   UNL A   1      52.640  26.904  25.107  1.00  0.00     0.278 C 
ENDBRANCH  19  24
ENDBRANCH  12  16
BRANCH  14  26
ATOM     26  C   UNL A   1      45.643  30.724  26.660  1.00  0.00    -0.002 A 
ATOM     27  C   UNL A   1      46.407  31.888  26.520  1.00  0.00     0.011 A 
ATOM     28  C   UNL A   1      44.276  30.797  26.935  1.00  0.00     0.011 A 
ATOM     29  C   UNL A   1      45.796  33.138  26.615  1.00  0.00     0.021 A 
ATOM     30  C   UNL A   1      43.665  32.048  27.059  1.00  0.00     0.021 A 
ATOM     31  C   UNL A   1      44.426  33.211  26.889  1.00  0.00     0.067 A 
BRANCH  31  32
ATOM     32  S   UNL A   1      43.644  34.807  26.956  1.00  0.00     0.175 S 
ATOM     33  C   UNL A   1      44.985  35.953  27.137  1.00  0.00     0.163 C 
ATOM     34  O   UNL A   1      43.030  35.021  25.661  1.00  0.00    -0.224 OA
ATOM     35  O   UNL A   1      42.856  34.857  28.173  1.00  0.00    -0.224 OA
ENDBRANCH  31  32
ENDBRANCH  14  26
ENDBRANCH   6  11
ENDBRANCH   3   5
ENDBRANCH   2   3
ENDBRANCH   1   2
BRANCH   1  36
ATOM     36  C   UNL A   1      43.894  19.334  25.459  1.00  0.00     0.275 C 
BRANCH  36  37
ATOM     37  O   UNL A   1      42.581  19.572  24.920  1.00  0.00    -0.458 OA
BRANCH  37  38
ATOM     38  C   UNL A   1      41.583  19.683  25.823  1.00  0.00     0.338 C 
ATOM     39  O   UNL A   1      40.721  18.857  26.086  1.00  0.00    -0.246 OA
BRANCH  38  40
ATOM     40  C   UNL A   1      41.659  20.986  26.505  1.00  0.00     0.060 A 
ATOM     41  C   UNL A   1      41.707  22.156  25.755  1.00  0.00     0.016 A 
ATOM     42  C   UNL A   1      41.834  21.043  27.885  1.00  0.00     0.016 A 
ATOM     43  C   UNL A   1      42.072  23.361  26.353  1.00  0.00     0.010 A 
ATOM     44  C   UNL A   1      42.061  22.279  28.506  1.00  0.00     0.010 A 
ATOM     45  C   UNL A   1      42.233  23.449  27.743  1.00  0.00    -0.014 A 
BRANCH  45  46
ATOM     46  C   UNL A   1      42.596  24.745  28.393  1.00  0.00     0.031 A 
ATOM     47  C   UNL A   1      41.547  25.807  28.626  1.00  0.00     0.074 A 
ATOM     48  C   UNL A   1      43.865  24.987  28.783  1.00  0.00     0.049 A 
ATOM     49  N   UNL A   1      41.700  27.058  28.987  1.00  0.00    -0.248 NA
ATOM     50  C   UNL A   1      40.146  25.416  28.407  1.00  0.00     0.031 C 
ATOM     51  C   UNL A   1      44.985  24.049  28.677  1.00  0.00     0.029 A 
ATOM     52  N   UNL A   1      44.425  26.101  29.363  1.00  0.00    -0.354 N 
ATOM     53  C   UNL A   1      40.426  27.617  28.971  1.00  0.00     0.074 A 
ATOM     54  C   UNL A   1      39.514  26.572  28.564  1.00  0.00     0.031 C 
ATOM     55  C   UNL A   1      46.077  24.601  29.225  1.00  0.00     0.029 A 
ATOM     56  C   UNL A   1      45.768  25.969  29.622  1.00  0.00     0.049 A 
ATOM     57  H   UNL A   1      43.913  26.916  29.572  1.00  0.00     0.167 HD
ATOM     58  C   UNL A   1      40.053  28.887  29.262  1.00  0.00     0.031 A 
ATOM     59  C   UNL A   1      46.672  26.855  30.080  1.00  0.00     0.031 A 
ATOM     60  C   UNL A   1      40.950  29.916  29.719  1.00  0.00     0.049 A 
ATOM     61  C   UNL A   1      46.245  28.265  30.357  1.00  0.00     0.074 A 
ATOM     62  C   UNL A   1      40.659  31.228  30.057  1.00  0.00     0.029 A 
ATOM     63  N   UNL A   1      42.311  29.745  29.918  1.00  0.00    -0.354 N 
ATOM     64  N   UNL A   1      45.050  28.797  30.271  1.00  0.00    -0.248 NA
ATOM     65  C   UNL A   1      47.297  29.205  30.770  1.00  0.00     0.031 C 
ATOM     66  C   UNL A   1      41.852  31.862  30.422  1.00  0.00     0.029 A 
ATOM     67  C   UNL A   1      42.877  30.931  30.358  1.00  0.00     0.049 A 
ATOM     68  H   UNL A   1      42.803  28.906  29.770  1.00  0.00     0.167 HD
ATOM     69  C   UNL A   1      45.205  30.131  30.624  1.00  0.00     0.074 A 
ATOM     70  C   UNL A   1      46.604  30.321  30.947  1.00  0.00     0.031 C 
ATOM     71  C   UNL A   1      44.270  31.110  30.668  1.00  0.00     0.031 A 
BRANCH  58  72
ATOM     72  C   UNL A   1      38.608  29.251  29.052  1.00  0.00    -0.014 A 
ATOM     73  C   UNL A   1      37.670  29.190  30.094  1.00  0.00     0.009 A 
ATOM     74  C   UNL A   1      38.188  29.693  27.787  1.00  0.00     0.009 A 
ATOM     75  C   UNL A   1      36.334  29.531  29.864  1.00  0.00     0.001 A 
ATOM     76  C   UNL A   1      36.859  30.060  27.566  1.00  0.00     0.001 A 
ATOM     77  C   UNL A   1      35.931  29.969  28.602  1.00  0.00     0.000 A 
ENDBRANCH  58  72
BRANCH  59  78
ATOM     78  C   UNL A   1      48.090  26.442  30.248  1.00  0.00    -0.014 A 
ATOM     79  C   UNL A   1      48.940  26.344  29.137  1.00  0.00     0.009 A 
ATOM     80  C   UNL A   1      48.606  26.166  31.525  1.00  0.00     0.009 A 
ATOM     81  C   UNL A   1      50.276  25.972  29.302  1.00  0.00     0.001 A 
ATOM     82  C   UNL A   1      49.949  25.825  31.689  1.00  0.00     0.001 A 
ATOM     83  C   UNL A   1      50.781  25.721  30.577  1.00  0.00     0.000 A 
ENDBRANCH  59  78
BRANCH  71  84
ATOM     84  C   UNL A   1      44.731  32.469  31.107  1.00  0.00    -0.014 A 
ATOM     85  C   UNL A   1      44.590  32.887  32.439  1.00  0.00     0.009 A 
ATOM     86  C   UNL A   1      45.333  33.333  30.180  1.00  0.00     0.009 A 
ATOM     87  C   UNL A   1      45.018  34.158  32.827  1.00  0.00     0.001 A 
ATOM     88  C   UNL A   1      45.781  34.594  30.577  1.00  0.00     0.001 A 
ATOM     89  C   UNL A   1      45.615  35.008  31.897  1.00  0.00     0.000 A 
ENDBRANCH  71  84
ENDBRANCH  45  46
ENDBRANCH  38  40
ENDBRANCH  37  38
ENDBRANCH  36  37
ENDBRANCH   1  36
TORSDOF 17
ENDMDL
MODEL 2
REMARK VINA RESULT:      -8.4      5.323     12.176
REMARK SMILES COc1ccc([C@H]2CC(c3ccc(S(C)(=O)=O)cc3)=NN2c2ccc(C(=O)OCCOC(=O)c3ccc(-c4c5nc(c(-c6ccccc6)c6ccc([nH]6)c(-c6ccccc6)c6nc(c(-c7ccccc7)c7ccc4[nH]7)C=C6)C=C5)cc3)cc2)cc1OC
REMARK SMILES IDX 29 1 28 2 26 3 27 4 25 5 22 6 23 7 83 8 24 9 82 10 21 11
REMARK SMILES IDX 7 12 8 13 9 14 20 15 6 16 3 17 4 18 85 19 5 20 84 21 2 22
REMARK SMILES IDX 1 23 86 24 87 25 10 26 11 27 19 28 12 29 18 30 13 31 14 32
REMARK SMILES IDX 15 33 16 34 17 35 30 36 31 37 32 38 33 39 34 40 35 41 81 42
REMARK SMILES IDX 36 43 80 44 37 45 38 46 39 47 74 48 40 49 79 50 73 51 75 52
REMARK SMILES IDX 41 53 78 54 72 55 71 56 42 58 64 59 49 60 63 61 50 62 53 63
REMARK SMILES IDX 62 64 76 65 51 66 52 67 61 69 77 70 54 71 43 72 44 73 48 74
REMARK SMILES IDX 45 75 47 76 46 77 65 78 66 79 70 80 67 81 69 82 68 83 55 84
REMARK SMILES IDX 56 85 60 86 57 87 59 88 58 89
REMARK H PARENT 75 57 53 68
REMARK Flexibility Score: inf
ROOT
ATOM      1  C   UNL A   1      33.182  35.918  32.010  1.00  0.00     0.275 C 
ENDROOT
BRANCH   1   2
ATOM      2  O   UNL A   1      34.433  35.492  32.590  1.00  0.00    -0.458 OA
BRANCH   2   3
ATOM      3  C   UNL A   1      34.430  34.236  33.104  1.00  0.00     0.338 C 
ATOM      4  O   UNL A   1      33.453  33.573  33.403  1.00  0.00    -0.246 OA
BRANCH   3   5
ATOM      5  C   UNL A   1      35.805  33.705  33.199  1.00  0.00     0.060 A 
ATOM      6  C   UNL A   1      38.376  32.651  33.650  1.00  0.00     0.060 A 
ATOM      7  C   UNL A   1      37.248  31.828  33.696  1.00  0.00     0.029 A 
ATOM      8  C   UNL A   1      38.199  34.008  33.338  1.00  0.00     0.029 A 
ATOM      9  C   UNL A   1      35.975  32.356  33.515  1.00  0.00     0.018 A 
ATOM     10  C   UNL A   1      36.922  34.534  33.088  1.00  0.00     0.018 A 
BRANCH   6  11
ATOM     11  N   UNL A   1      39.624  32.121  33.948  1.00  0.00    -0.257 N 
ATOM     12  C   UNL A   1      40.631  32.841  34.735  1.00  0.00     0.144 C 
ATOM     13  C   UNL A   1      41.675  31.748  35.016  1.00  0.00     0.091 C 
ATOM     14  C   UNL A   1      40.947  30.542  34.493  1.00  0.00     0.071 C 
ATOM     15  N   UNL A   1      39.812  30.773  33.912  1.00  0.00    -0.176 NA
BRANCH  12  16
ATOM     16  C   UNL A   1      40.074  33.463  36.012  1.00  0.00    -0.019 A 
ATOM     17  C   UNL A   1      39.074  34.646  38.376  1.00  0.00     0.160 A 
ATOM     18  C   UNL A   1      39.600  35.440  37.349  1.00  0.00     0.051 A 
ATOM     19  C   UNL A   1      39.013  33.257  38.220  1.00  0.00     0.161 A 
ATOM     20  C   UNL A   1      40.103  34.854  36.184  1.00  0.00     0.010 A 
ATOM     21  C   UNL A   1      39.500  32.684  37.034  1.00  0.00     0.056 A 
BRANCH  17  22
ATOM     22  O   UNL A   1      38.529  35.257  39.474  1.00  0.00    -0.493 OA
ATOM     23  C   UNL A   1      39.490  35.486  40.504  1.00  0.00     0.278 C 
ENDBRANCH  17  22
BRANCH  19  24
ATOM     24  O   UNL A   1      38.509  32.331  39.096  1.00  0.00    -0.493 OA
ATOM     25  C   UNL A   1      37.119  32.045  39.033  1.00  0.00     0.278 C 
ENDBRANCH  19  24
ENDBRANCH  12  16
BRANCH  14  26
ATOM     26  C   UNL A   1      41.541  29.200  34.556  1.00  0.00    -0.002 A 
ATOM     27  C   UNL A   1      42.153  28.695  33.403  1.00  0.00     0.011 A 
ATOM     28  C   UNL A   1      41.523  28.455  35.738  1.00  0.00     0.011 A 
ATOM     29  C   UNL A   1      42.788  27.455  33.437  1.00  0.00     0.021 A 
ATOM     30  C   UNL A   1      42.135  27.198  35.768  1.00  0.00     0.021 A 
ATOM     31  C   UNL A   1      42.772  26.710  34.621  1.00  0.00     0.067 A 
BRANCH  31  32
ATOM     32  S   UNL A   1      43.631  25.153  34.672  1.00  0.00     0.175 S 
ATOM     33  C   UNL A   1      44.248  24.930  33.025  1.00  0.00     0.163 C 
ATOM     34  O   UNL A   1      44.758  25.332  35.564  1.00  0.00    -0.224 OA
ATOM     35  O   UNL A   1      42.644  24.117  34.915  1.00  0.00    -0.224 OA
ENDBRANCH  31  32
ENDBRANCH  14  26
ENDBRANCH   6  11
ENDBRANCH   3   5
ENDBRANCH   2   3
ENDBRANCH   1   2
BRANCH   1  36
ATOM     36  C   UNL A   1      33.203  35.802  30.485  1.00  0.00     0.275 C 
BRANCH  36  37
ATOM     37  O   UNL A   1      33.158  34.418  30.093  1.00  0.00    -0.458 OA
BRANCH  37  38
ATOM     38  C   UNL A   1      33.866  34.094  28.990  1.00  0.00     0.338 C 
ATOM     39  O   UNL A   1      33.503  34.166  27.825  1.00  0.00    -0.246 OA
BRANCH  38  40
ATOM     40  C   UNL A   1      35.209  33.623  29.369  1.00  0.00     0.060 A 
ATOM     41  C   UNL A   1      36.323  34.398  29.069  1.00  0.00     0.016 A 
ATOM     42  C   UNL A   1      35.378  32.342  29.890  1.00  0.00     0.016 A 
ATOM     43  C   UNL A   1      37.602  33.851  29.147  1.00  0.00     0.010 A 
ATOM     44  C   UNL A   1      36.671  31.845  30.103  1.00  0.00     0.010 A 
ATOM     45  C   UNL A   1      37.802  32.573  29.688  1.00  0.00    -0.014 A 
BRANCH  45  46
ATOM     46  C   UNL A   1      39.174  31.992  29.801  1.00  0.00     0.031 A 
ATOM     47  C   UNL A   1      39.481  30.630  29.223  1.00  0.00     0.074 A 
ATOM     48  C   UNL A   1      40.161  32.673  30.419  1.00  0.00     0.049 A 
ATOM     49  N   UNL A   1      40.540  29.877  29.392  1.00  0.00    -0.248 NA
ATOM     50  C   UNL A   1      38.454  30.029  28.358  1.00  0.00     0.031 C 
ATOM     51  C   UNL A   1      40.045  34.019  30.985  1.00  0.00     0.029 A 
ATOM     52  N   UNL A   1      41.469  32.328  30.665  1.00  0.00    -0.354 N 
ATOM     53  C   UNL A   1      40.278  28.692  28.714  1.00  0.00     0.074 A 
ATOM     54  C   UNL A   1      38.960  28.823  28.133  1.00  0.00     0.031 C 
ATOM     55  C   UNL A   1      41.239  34.406  31.456  1.00  0.00     0.029 A 
ATOM     56  C   UNL A   1      42.179  33.300  31.328  1.00  0.00     0.049 A 
ATOM     57  H   UNL A   1      41.859  31.466  30.392  1.00  0.00     0.167 HD
ATOM     58  C   UNL A   1      41.061  27.592  28.592  1.00  0.00     0.031 A 
ATOM     59  C   UNL A   1      43.430  33.297  31.826  1.00  0.00     0.031 A 
ATOM     60  C   UNL A   1      42.394  27.477  29.123  1.00  0.00     0.049 A 
ATOM     61  C   UNL A   1      44.263  32.055  31.715  1.00  0.00     0.074 A 
ATOM     62  C   UNL A   1      43.270  26.408  29.033  1.00  0.00     0.029 A 
ATOM     63  N   UNL A   1      43.050  28.472  29.830  1.00  0.00    -0.354 N 
ATOM     64  N   UNL A   1      43.975  30.918  31.130  1.00  0.00    -0.248 NA
ATOM     65  C   UNL A   1      45.585  32.088  32.356  1.00  0.00     0.031 C 
ATOM     66  C   UNL A   1      44.442  26.742  29.722  1.00  0.00     0.029 A 
ATOM     67  C   UNL A   1      44.313  28.037  30.197  1.00  0.00     0.049 A 
ATOM     68  H   UNL A   1      42.675  29.358  30.040  1.00  0.00     0.167 HD
ATOM     69  C   UNL A   1      45.081  30.102  31.328  1.00  0.00     0.074 A 
ATOM     70  C   UNL A   1      46.053  30.882  32.065  1.00  0.00     0.031 C 
ATOM     71  C   UNL A   1      45.268  28.819  30.937  1.00  0.00     0.031 A 
BRANCH  58  72
ATOM     72  C   UNL A   1      40.475  26.398  27.887  1.00  0.00    -0.014 A 
ATOM     73  C   UNL A   1      40.823  26.073  26.568  1.00  0.00     0.009 A 
ATOM     74  C   UNL A   1      39.578  25.566  28.577  1.00  0.00     0.009 A 
ATOM     75  C   UNL A   1      40.257  24.959  25.941  1.00  0.00     0.001 A 
ATOM     76  C   UNL A   1      39.035  24.437  27.959  1.00  0.00     0.001 A 
ATOM     77  C   UNL A   1      39.367  24.141  26.638  1.00  0.00     0.000 A 
ENDBRANCH  58  72
BRANCH  59  78
ATOM     78  C   UNL A   1      43.946  34.500  32.530  1.00  0.00    -0.014 A 
ATOM     79  C   UNL A   1      44.671  35.477  31.832  1.00  0.00     0.009 A 
ATOM     80  C   UNL A   1      43.695  34.686  33.899  1.00  0.00     0.009 A 
ATOM     81  C   UNL A   1      45.139  36.614  32.495  1.00  0.00     0.001 A 
ATOM     82  C   UNL A   1      44.138  35.839  34.550  1.00  0.00     0.001 A 
ATOM     83  C   UNL A   1      44.866  36.798  33.850  1.00  0.00     0.000 A 
ENDBRANCH  59  78
BRANCH  71  84
ATOM     84  C   UNL A   1      46.586  28.190  31.281  1.00  0.00    -0.014 A 
ATOM     85  C   UNL A   1      46.757  27.472  32.474  1.00  0.00     0.009 A 
ATOM     86  C   UNL A   1      47.662  28.297  30.388  1.00  0.00     0.009 A 
ATOM     87  C   UNL A   1      47.994  26.900  32.780  1.00  0.00     0.001 A 
ATOM     88  C   UNL A   1      48.890  27.704  30.686  1.00  0.00     0.001 A 
ATOM     89  C   UNL A   1      49.057  27.013  31.885  1.00  0.00     0.000 A 
ENDBRANCH  71  84
ENDBRANCH  45  46
ENDBRANCH  38  40
ENDBRANCH  37  38
ENDBRANCH  36  37
ENDBRANCH   1  36
TORSDOF 17
ENDMDL
MODEL 3
REMARK VINA RESULT:      -8.2      4.489     11.362
REMARK SMILES COc1ccc([C@H]2CC(c3ccc(S(C)(=O)=O)cc3)=NN2c2ccc(C(=O)OCCOC(=O)c3ccc(-c4c5nc(c(-c6ccccc6)c6ccc([nH]6)c(-c6ccccc6)c6nc(c(-c7ccccc7)c7ccc4[nH]7)C=C6)C=C5)cc3)cc2)cc1OC
REMARK SMILES IDX 29 1 28 2 26 3 27 4 25 5 22 6 23 7 83 8 24 9 82 10 21 11
REMARK SMILES IDX 7 12 8 13 9 14 20 15 6 16 3 17 4 18 85 19 5 20 84 21 2 22
REMARK SMILES IDX 1 23 86 24 87 25 10 26 11 27 19 28 12 29 18 30 13 31 14 32
REMARK SMILES IDX 15 33 16 34 17 35 30 36 31 37 32 38 33 39 34 40 35 41 81 42
REMARK SMILES IDX 36 43 80 44 37 45 38 46 39 47 74 48 40 49 79 50 73 51 75 52
REMARK SMILES IDX 41 53 78 54 72 55 71 56 42 58 64 59 49 60 63 61 50 62 53 63
REMARK SMILES IDX 62 64 76 65 51 66 52 67 61 69 77 70 54 71 43 72 44 73 48 74
REMARK SMILES IDX 45 75 47 76 46 77 65 78 66 79 70 80 67 81 69 82 68 83 55 84
REMARK SMILES IDX 56 85 60 86 57 87 59 88 58 89
REMARK H PARENT 75 57 53 68
REMARK Flexibility Score: inf
ROOT
ATOM      1  C   UNL A   1      37.950  31.179  29.973  1.00  0.00     0.275 C 
ENDROOT
BRANCH   1   2
ATOM      2  O   UNL A   1      37.611  29.780  29.875  1.00  0.00    -0.458 OA
BRANCH   2   3
ATOM      3  C   UNL A   1      37.560  29.288  28.612  1.00  0.00     0.338 C 
ATOM      4  O   UNL A   1      36.663  29.443  27.804  1.00  0.00    -0.246 OA
BRANCH   3   5
ATOM      5  C   UNL A   1      38.807  28.567  28.280  1.00  0.00     0.060 A 
ATOM      6  C   UNL A   1      41.065  27.134  27.402  1.00  0.00     0.060 A 
ATOM      7  C   UNL A   1      40.738  28.369  26.836  1.00  0.00     0.029 A 
ATOM      8  C   UNL A   1      40.261  26.644  28.442  1.00  0.00     0.029 A 
ATOM      9  C   UNL A   1      39.599  29.057  27.240  1.00  0.00     0.018 A 
ATOM     10  C   UNL A   1      39.148  27.366  28.902  1.00  0.00     0.018 A 
BRANCH   6  11
ATOM     11  N   UNL A   1      42.141  26.414  26.900  1.00  0.00    -0.257 N 
ATOM     12  C   UNL A   1      43.536  26.818  27.103  1.00  0.00     0.144 C 
ATOM     13  C   UNL A   1      44.312  25.581  26.623  1.00  0.00     0.091 C 
ATOM     14  C   UNL A   1      43.178  24.615  26.422  1.00  0.00     0.071 C 
ATOM     15  N   UNL A   1      41.987  25.099  26.588  1.00  0.00    -0.176 NA
BRANCH  12  16
ATOM     16  C   UNL A   1      43.858  27.189  28.547  1.00  0.00    -0.019 A 
ATOM     17  C   UNL A   1      44.466  27.917  31.210  1.00  0.00     0.160 A 
ATOM     18  C   UNL A   1      43.869  28.837  30.338  1.00  0.00     0.051 A 
ATOM     19  C   UNL A   1      44.735  26.617  30.771  1.00  0.00     0.161 A 
ATOM     20  C   UNL A   1      43.578  28.480  29.018  1.00  0.00     0.010 A 
ATOM     21  C   UNL A   1      44.415  26.265  29.450  1.00  0.00     0.056 A 
BRANCH  17  22
ATOM     22  O   UNL A   1      44.676  28.280  32.514  1.00  0.00    -0.493 OA
ATOM     23  C   UNL A   1      43.461  28.370  33.258  1.00  0.00     0.278 C 
ENDBRANCH  17  22
BRANCH  19  24
ATOM     24  O   UNL A   1      45.282  25.583  31.485  1.00  0.00    -0.493 OA
ATOM     25  C   UNL A   1      44.431  24.857  32.360  1.00  0.00     0.278 C 
ENDBRANCH  19  24
ENDBRANCH  12  16
BRANCH  14  26
ATOM     26  C   UNL A   1      43.414  23.237  25.973  1.00  0.00    -0.002 A 
ATOM     27  C   UNL A   1      44.398  23.021  25.002  1.00  0.00     0.011 A 
ATOM     28  C   UNL A   1      42.699  22.166  26.514  1.00  0.00     0.011 A 
ATOM     29  C   UNL A   1      44.703  21.723  24.595  1.00  0.00     0.021 A 
ATOM     30  C   UNL A   1      42.982  20.865  26.088  1.00  0.00     0.021 A 
ATOM     31  C   UNL A   1      43.988  20.650  25.138  1.00  0.00     0.067 A 
BRANCH  31  32
ATOM     32  S   UNL A   1      44.419  18.994  24.654  1.00  0.00     0.175 S 
ATOM     33  C   UNL A   1      45.962  18.678  25.469  1.00  0.00     0.163 C 
ATOM     34  O   UNL A   1      43.413  18.121  25.224  1.00  0.00    -0.224 OA
ATOM     35  O   UNL A   1      44.673  19.008  23.225  1.00  0.00    -0.224 OA
ENDBRANCH  31  32
ENDBRANCH  14  26
ENDBRANCH   6  11
ENDBRANCH   3   5
ENDBRANCH   2   3
ENDBRANCH   1   2
BRANCH   1  36
ATOM     36  C   UNL A   1      36.912  31.953  30.787  1.00  0.00     0.275 C 
BRANCH  36  37
ATOM     37  O   UNL A   1      37.143  33.368  30.665  1.00  0.00    -0.458 OA
BRANCH  37  38
ATOM     38  C   UNL A   1      37.959  33.915  31.593  1.00  0.00     0.338 C 
ATOM     39  O   UNL A   1      37.759  34.013  32.795  1.00  0.00    -0.246 OA
BRANCH  38  40
ATOM     40  C   UNL A   1      39.195  34.402  30.958  1.00  0.00     0.060 A 
ATOM     41  C   UNL A   1      39.170  34.832  29.636  1.00  0.00     0.016 A 
ATOM     42  C   UNL A   1      40.413  34.294  31.626  1.00  0.00     0.016 A 
ATOM     43  C   UNL A   1      40.358  35.013  28.932  1.00  0.00     0.010 A 
ATOM     44  C   UNL A   1      41.602  34.615  30.958  1.00  0.00     0.010 A 
ATOM     45  C   UNL A   1      41.596  34.931  29.586  1.00  0.00    -0.014 A 
BRANCH  45  46
ATOM     46  C   UNL A   1      42.873  35.154  28.843  1.00  0.00     0.031 A 
ATOM     47  C   UNL A   1      43.813  34.002  28.571  1.00  0.00     0.074 A 
ATOM     48  C   UNL A   1      43.208  36.384  28.402  1.00  0.00     0.049 A 
ATOM     49  N   UNL A   1      45.046  34.025  28.126  1.00  0.00    -0.248 NA
ATOM     50  C   UNL A   1      43.307  32.650  28.854  1.00  0.00     0.031 C 
ATOM     51  C   UNL A   1      42.390  37.592  28.537  1.00  0.00     0.029 A 
ATOM     52  N   UNL A   1      44.328  36.822  27.736  1.00  0.00    -0.354 N 
ATOM     53  C   UNL A   1      45.482  32.705  28.141  1.00  0.00     0.074 A 
ATOM     54  C   UNL A   1      44.384  31.906  28.641  1.00  0.00     0.031 C 
ATOM     55  C   UNL A   1      43.004  38.613  27.923  1.00  0.00     0.029 A 
ATOM     56  C   UNL A   1      44.307  38.165  27.448  1.00  0.00     0.049 A 
ATOM     57  H   UNL A   1      45.075  36.229  27.489  1.00  0.00     0.167 HD
ATOM     58  C   UNL A   1      46.688  32.204  27.778  1.00  0.00     0.031 A 
ATOM     59  C   UNL A   1      45.242  38.969  26.907  1.00  0.00     0.031 A 
ATOM     60  C   UNL A   1      47.764  32.988  27.231  1.00  0.00     0.049 A 
ATOM     61  C   UNL A   1      46.583  38.402  26.552  1.00  0.00     0.074 A 
ATOM     62  C   UNL A   1      49.017  32.564  26.817  1.00  0.00     0.029 A 
ATOM     63  N   UNL A   1      47.710  34.353  27.005  1.00  0.00    -0.354 N 
ATOM     64  N   UNL A   1      47.004  37.163  26.637  1.00  0.00    -0.248 NA
ATOM     65  C   UNL A   1      47.589  39.349  26.049  1.00  0.00     0.031 C 
ATOM     66  C   UNL A   1      49.735  33.682  26.378  1.00  0.00     0.029 A 
ATOM     67  C   UNL A   1      48.912  34.793  26.473  1.00  0.00     0.049 A 
ATOM     68  H   UNL A   1      46.933  34.927  27.193  1.00  0.00     0.167 HD
ATOM     69  C   UNL A   1      48.320  37.181  26.194  1.00  0.00     0.074 A 
ATOM     70  C   UNL A   1      48.619  38.547  25.819  1.00  0.00     0.031 C 
ATOM     71  C   UNL A   1      49.200  36.155  26.112  1.00  0.00     0.031 A 
BRANCH  58  72
ATOM     72  C   UNL A   1      46.926  30.736  28.005  1.00  0.00    -0.014 A 
ATOM     73  C   UNL A   1      46.758  29.792  26.981  1.00  0.00     0.009 A 
ATOM     74  C   UNL A   1      47.359  30.297  29.268  1.00  0.00     0.009 A 
ATOM     75  C   UNL A   1      46.984  28.434  27.227  1.00  0.00     0.001 A 
ATOM     76  C   UNL A   1      47.611  28.944  29.503  1.00  0.00     0.001 A 
ATOM     77  C   UNL A   1      47.414  28.012  28.486  1.00  0.00     0.000 A 
ENDBRANCH  58  72
BRANCH  59  78
ATOM     78  C   UNL A   1      44.955  40.416  26.727  1.00  0.00    -0.014 A 
ATOM     79  C   UNL A   1      45.297  41.341  27.724  1.00  0.00     0.009 A 
ATOM     80  C   UNL A   1      44.357  40.882  25.543  1.00  0.00     0.009 A 
ATOM     81  C   UNL A   1      45.041  42.701  27.542  1.00  0.00     0.001 A 
ATOM     82  C   UNL A   1      44.131  42.246  25.353  1.00  0.00     0.001 A 
ATOM     83  C   UNL A   1      44.466  43.154  26.355  1.00  0.00     0.000 A 
ENDBRANCH  59  78
BRANCH  71  84
ATOM     84  C   UNL A   1      50.564  36.473  25.573  1.00  0.00    -0.014 A 
ATOM     85  C   UNL A   1      50.883  36.243  24.226  1.00  0.00     0.009 A 
ATOM     86  C   UNL A   1      51.535  37.030  26.419  1.00  0.00     0.009 A 
ATOM     87  C   UNL A   1      52.160  36.537  23.744  1.00  0.00     0.001 A 
ATOM     88  C   UNL A   1      52.803  37.345  25.928  1.00  0.00     0.001 A 
ATOM     89  C   UNL A   1      53.117  37.091  24.594  1.00  0.00     0.000 A 
ENDBRANCH  71  84
ENDBRANCH  45  46
ENDBRANCH  38  40
ENDBRANCH  37  38
ENDBRANCH  36  37
ENDBRANCH   1  36
TORSDOF 17
ENDMDL
