MODEL 1
REMARK VINA RESULT:      -9.6      0.000      0.000
REMARK SMILES CC(C)c1ncc(SC[C@H](O)CO)c(C(=O)OCCOC(=O)c2ccc(-c3c4nc(c(-c5ccccc5)c5ccc([nH]5)c(-c5ccccc5)c5nc(c(-c6ccccc6)c6ccc3[nH]6)C=C5)C=C4)cc2)n1
REMARK SMILES IDX 17 1 15 2 16 3 14 4 4 5 5 6 71 7 6 8 7 9 2 10 1 11 3 12 8 13
REMARK SMILES IDX 9 14 10 15 12 16 13 17 11 19 18 21 19 22 20 23 21 24 22 25
REMARK SMILES IDX 23 26 24 27 70 28 25 29 69 30 26 31 27 32 28 33 63 34 29 35
REMARK SMILES IDX 68 36 62 37 64 38 30 39 67 40 61 41 60 42 31 44 53 45 38 46
REMARK SMILES IDX 52 47 39 48 42 49 51 50 65 51 40 52 41 53 50 55 66 56 43 57
REMARK SMILES IDX 32 58 33 59 37 60 34 61 36 62 35 63 54 64 55 65 59 66 56 67
REMARK SMILES IDX 58 68 57 69 44 70 45 71 49 72 46 73 48 74 47 75
REMARK H PARENT 13 18 11 20 64 43 42 54
REMARK Flexibility Score: inf
ROOT
ATOM      1  O   UNL A   1      36.784  20.960  25.062  1.00  0.00    -0.457 OA
ENDROOT
BRANCH   1   2
ATOM      2  C   UNL A   1      35.873  21.792  25.625  1.00  0.00     0.358 C 
ATOM      3  O   UNL A   1      36.121  22.849  26.186  1.00  0.00    -0.244 OA
BRANCH   2   4
ATOM      4  C   UNL A   1      34.484  21.305  25.326  1.00  0.00     0.165 A 
ATOM      5  C   UNL A   1      33.238  19.480  24.644  1.00  0.00     0.131 A 
ATOM      6  N   UNL A   1      32.089  20.119  24.901  1.00  0.00    -0.240 NA
ATOM      7  N   UNL A   1      34.448  20.018  24.859  1.00  0.00    -0.224 NA
ATOM      8  C   UNL A   1      32.178  21.394  25.336  1.00  0.00     0.130 A 
ATOM      9  C   UNL A   1      33.355  22.098  25.496  1.00  0.00     0.059 A 
BRANCH   5  10
ATOM     10  C   UNL A   1      33.122  18.088  24.059  1.00  0.00     0.051 C 
ATOM     11  C   UNL A   1      32.509  18.121  22.659  1.00  0.00     0.016 C 
ATOM     12  C   UNL A   1      34.465  17.373  24.037  1.00  0.00     0.016 C 
ENDBRANCH   5  10
BRANCH   9  13
ATOM     13  S   UNL A   1      33.361  23.858  25.782  1.00  0.00    -0.119 SA
BRANCH  13  14
ATOM     14  C   UNL A   1      32.857  24.547  24.161  1.00  0.00     0.109 C 
BRANCH  14  15
ATOM     15  C   UNL A   1      33.785  24.297  22.965  1.00  0.00     0.150 C 
BRANCH  15  16
ATOM     16  C   UNL A   1      33.360  23.193  21.991  1.00  0.00     0.188 C 
BRANCH  16  17
ATOM     17  O   UNL A   1      33.050  23.801  20.732  1.00  0.00    -0.394 OA
ATOM     18  H   UNL A   1      33.198  24.758  20.789  1.00  0.00     0.210 HD
ENDBRANCH  16  17
ENDBRANCH  15  16
BRANCH  15  19
ATOM     19  O   UNL A   1      33.854  25.525  22.215  1.00  0.00    -0.390 OA
ATOM     20  H   UNL A   1      34.358  25.377  21.400  1.00  0.00     0.211 HD
ENDBRANCH  15  19
ENDBRANCH  14  15
ENDBRANCH  13  14
ENDBRANCH   9  13
ENDBRANCH   2   4
ENDBRANCH   1   2
BRANCH   1  21
ATOM     21  C   UNL A   1      38.183  21.226  25.282  1.00  0.00     0.275 C 
BRANCH  21  22
ATOM     22  C   UNL A   1      38.937  19.899  25.379  1.00  0.00     0.275 C 
BRANCH  22  23
ATOM     23  O   UNL A   1      39.838  19.928  26.501  1.00  0.00    -0.458 OA
BRANCH  23  24
ATOM     24  C   UNL A   1      41.152  19.892  26.185  1.00  0.00     0.338 C 
ATOM     25  O   UNL A   1      41.748  19.054  25.533  1.00  0.00    -0.246 OA
BRANCH  24  26
ATOM     26  C   UNL A   1      41.766  21.146  26.631  1.00  0.00     0.060 A 
ATOM     27  C   UNL A   1      41.855  21.367  28.002  1.00  0.00     0.016 A 
ATOM     28  C   UNL A   1      42.172  22.126  25.726  1.00  0.00     0.016 A 
ATOM     29  C   UNL A   1      42.295  22.598  28.471  1.00  0.00     0.010 A 
ATOM     30  C   UNL A   1      42.647  23.355  26.208  1.00  0.00     0.010 A 
ATOM     31  C   UNL A   1      42.676  23.617  27.589  1.00  0.00    -0.014 A 
BRANCH  31  32
ATOM     32  C   UNL A   1      43.018  24.958  28.141  1.00  0.00     0.031 A 
ATOM     33  C   UNL A   1      41.927  25.953  28.445  1.00  0.00     0.074 A 
ATOM     34  C   UNL A   1      44.291  25.260  28.469  1.00  0.00     0.049 A 
ATOM     35  N   UNL A   1      42.029  27.197  28.843  1.00  0.00    -0.248 NA
ATOM     36  C   UNL A   1      40.540  25.490  28.278  1.00  0.00     0.031 C 
ATOM     37  C   UNL A   1      45.440  24.366  28.322  1.00  0.00     0.029 A 
ATOM     38  N   UNL A   1      44.825  26.393  29.033  1.00  0.00    -0.354 N 
ATOM     39  C   UNL A   1      40.728  27.681  28.914  1.00  0.00     0.074 A 
ATOM     40  C   UNL A   1      39.853  26.596  28.526  1.00  0.00     0.031 C 
ATOM     41  C   UNL A   1      46.527  24.955  28.845  1.00  0.00     0.029 A 
ATOM     42  C   UNL A   1      46.174  26.304  29.275  1.00  0.00     0.049 A 
ATOM     43  H   UNL A   1      44.291  27.192  29.245  1.00  0.00     0.167 HD
ATOM     44  C   UNL A   1      40.301  28.919  29.263  1.00  0.00     0.031 A 
ATOM     45  C   UNL A   1      47.044  27.212  29.755  1.00  0.00     0.031 A 
ATOM     46  C   UNL A   1      41.163  29.986  29.695  1.00  0.00     0.049 A 
ATOM     47  C   UNL A   1      46.555  28.594  30.083  1.00  0.00     0.074 A 
ATOM     48  C   UNL A   1      40.822  31.278  30.059  1.00  0.00     0.029 A 
ATOM     49  N   UNL A   1      42.537  29.879  29.841  1.00  0.00    -0.354 N 
ATOM     50  N   UNL A   1      45.333  29.064  30.059  1.00  0.00    -0.248 NA
ATOM     51  C   UNL A   1      47.574  29.577  30.478  1.00  0.00     0.031 C 
ATOM     52  C   UNL A   1      41.997  31.966  30.387  1.00  0.00     0.029 A 
ATOM     53  C   UNL A   1      43.061  31.087  30.273  1.00  0.00     0.049 A 
ATOM     54  H   UNL A   1      43.063  29.066  29.665  1.00  0.00     0.167 HD
ATOM     55  C   UNL A   1      45.434  30.398  30.434  1.00  0.00     0.074 A 
ATOM     56  C   UNL A   1      46.834  30.652  30.708  1.00  0.00     0.031 C 
ATOM     57  C   UNL A   1      44.457  31.329  30.531  1.00  0.00     0.031 A 
BRANCH  44  58
ATOM     58  C   UNL A   1      38.831  29.205  29.130  1.00  0.00    -0.014 A 
ATOM     59  C   UNL A   1      37.955  29.103  30.221  1.00  0.00     0.009 A 
ATOM     60  C   UNL A   1      38.324  29.611  27.885  1.00  0.00     0.009 A 
ATOM     61  C   UNL A   1      36.594  29.371  30.057  1.00  0.00     0.001 A 
ATOM     62  C   UNL A   1      36.967  29.902  27.731  1.00  0.00     0.001 A 
ATOM     63  C   UNL A   1      36.102  29.773  28.815  1.00  0.00     0.000 A 
ENDBRANCH  44  58
BRANCH  45  64
ATOM     64  C   UNL A   1      48.482  26.862  29.897  1.00  0.00    -0.014 A 
ATOM     65  C   UNL A   1      48.967  26.301  31.086  1.00  0.00     0.009 A 
ATOM     66  C   UNL A   1      49.374  27.085  28.836  1.00  0.00     0.009 A 
ATOM     67  C   UNL A   1      50.321  25.978  31.213  1.00  0.00     0.001 A 
ATOM     68  C   UNL A   1      50.720  26.732  28.954  1.00  0.00     0.001 A 
ATOM     69  C   UNL A   1      51.193  26.186  30.146  1.00  0.00     0.000 A 
ENDBRANCH  45  64
BRANCH  57  70
ATOM     70  C   UNL A   1      44.867  32.706  30.967  1.00  0.00    -0.014 A 
ATOM     71  C   UNL A   1      45.208  33.690  30.027  1.00  0.00     0.009 A 
ATOM     72  C   UNL A   1      44.885  33.030  32.332  1.00  0.00     0.009 A 
ATOM     73  C   UNL A   1      45.590  34.965  30.448  1.00  0.00     0.001 A 
ATOM     74  C   UNL A   1      45.244  34.312  32.749  1.00  0.00     0.001 A 
ATOM     75  C   UNL A   1      45.604  35.276  31.808  1.00  0.00     0.000 A 
ENDBRANCH  57  70
ENDBRANCH  31  32
ENDBRANCH  24  26
ENDBRANCH  23  24
ENDBRANCH  22  23
ENDBRANCH  21  22
ENDBRANCH   1  21
TORSDOF 18
ENDMDL
MODEL 2
REMARK VINA RESULT:      -9.4      4.449      9.289
REMARK SMILES CC(C)c1ncc(SC[C@H](O)CO)c(C(=O)OCCOC(=O)c2ccc(-c3c4nc(c(-c5ccccc5)c5ccc([nH]5)c(-c5ccccc5)c5nc(c(-c6ccccc6)c6ccc3[nH]6)C=C5)C=C4)cc2)n1
REMARK SMILES IDX 17 1 15 2 16 3 14 4 4 5 5 6 71 7 6 8 7 9 2 10 1 11 3 12 8 13
REMARK SMILES IDX 9 14 10 15 12 16 13 17 11 19 18 21 19 22 20 23 21 24 22 25
REMARK SMILES IDX 23 26 24 27 70 28 25 29 69 30 26 31 27 32 28 33 63 34 29 35
REMARK SMILES IDX 68 36 62 37 64 38 30 39 67 40 61 41 60 42 31 44 53 45 38 46
REMARK SMILES IDX 52 47 39 48 42 49 51 50 65 51 40 52 41 53 50 55 66 56 43 57
REMARK SMILES IDX 32 58 33 59 37 60 34 61 36 62 35 63 54 64 55 65 59 66 56 67
REMARK SMILES IDX 58 68 57 69 44 70 45 71 49 72 46 73 48 74 47 75
REMARK H PARENT 13 18 11 20 64 43 42 54
REMARK Flexibility Score: inf
ROOT
ATOM      1  O   UNL A   1      32.024  30.143  26.553  1.00  0.00    -0.457 OA
ENDROOT
BRANCH   1   2
ATOM      2  C   UNL A   1      32.511  29.383  25.541  1.00  0.00     0.358 C 
ATOM      3  O   UNL A   1      33.660  28.983  25.438  1.00  0.00    -0.244 OA
BRANCH   2   4
ATOM      4  C   UNL A   1      31.392  28.968  24.630  1.00  0.00     0.165 A 
ATOM      5  C   UNL A   1      29.655  29.742  23.313  1.00  0.00     0.131 A 
ATOM      6  N   UNL A   1      29.434  28.517  22.817  1.00  0.00    -0.240 NA
ATOM      7  N   UNL A   1      30.628  30.018  24.195  1.00  0.00    -0.224 NA
ATOM      8  C   UNL A   1      30.197  27.512  23.296  1.00  0.00     0.130 A 
ATOM      9  C   UNL A   1      31.156  27.644  24.282  1.00  0.00     0.059 A 
BRANCH   5  10
ATOM     10  C   UNL A   1      28.724  30.840  22.844  1.00  0.00     0.051 C 
ATOM     11  C   UNL A   1      28.517  30.788  21.330  1.00  0.00     0.016 C 
ATOM     12  C   UNL A   1      27.386  30.791  23.568  1.00  0.00     0.016 C 
ENDBRANCH   5  10
BRANCH   9  13
ATOM     13  S   UNL A   1      31.898  26.222  25.060  1.00  0.00    -0.119 SA
BRANCH  13  14
ATOM     14  C   UNL A   1      30.553  25.579  26.126  1.00  0.00     0.109 C 
BRANCH  14  15
ATOM     15  C   UNL A   1      30.338  24.060  26.157  1.00  0.00     0.150 C 
BRANCH  15  16
ATOM     16  C   UNL A   1      31.590  23.197  26.342  1.00  0.00     0.188 C 
BRANCH  16  17
ATOM     17  O   UNL A   1      31.871  23.108  27.743  1.00  0.00    -0.394 OA
ATOM     18  H   UNL A   1      32.559  22.442  27.893  1.00  0.00     0.210 HD
ENDBRANCH  16  17
ENDBRANCH  15  16
BRANCH  15  19
ATOM     19  O   UNL A   1      29.458  23.777  27.262  1.00  0.00    -0.390 OA
ATOM     20  H   UNL A   1      29.124  24.609  27.630  1.00  0.00     0.211 HD
ENDBRANCH  15  19
ENDBRANCH  14  15
ENDBRANCH  13  14
ENDBRANCH   9  13
ENDBRANCH   2   4
ENDBRANCH   1   2
BRANCH   1  21
ATOM     21  C   UNL A   1      32.929  31.025  27.245  1.00  0.00     0.275 C 
BRANCH  21  22
ATOM     22  C   UNL A   1      32.239  32.371  27.475  1.00  0.00     0.275 C 
BRANCH  22  23
ATOM     23  O   UNL A   1      33.207  33.435  27.408  1.00  0.00    -0.458 OA
BRANCH  23  24
ATOM     24  C   UNL A   1      33.346  34.158  28.542  1.00  0.00     0.338 C 
ATOM     25  O   UNL A   1      32.551  34.933  29.043  1.00  0.00    -0.246 OA
BRANCH  24  26
ATOM     26  C   UNL A   1      34.589  33.746  29.201  1.00  0.00     0.060 A 
ATOM     27  C   UNL A   1      35.787  34.166  28.634  1.00  0.00     0.016 A 
ATOM     28  C   UNL A   1      34.585  32.895  30.306  1.00  0.00     0.016 A 
ATOM     29  C   UNL A   1      36.989  33.684  29.136  1.00  0.00     0.010 A 
ATOM     30  C   UNL A   1      35.804  32.439  30.827  1.00  0.00     0.010 A 
ATOM     31  C   UNL A   1      37.020  32.800  30.221  1.00  0.00    -0.014 A 
BRANCH  31  32
ATOM     32  C   UNL A   1      38.325  32.214  30.637  1.00  0.00     0.031 A 
ATOM     33  C   UNL A   1      38.844  30.967  29.967  1.00  0.00     0.074 A 
ATOM     34  C   UNL A   1      39.102  32.845  31.541  1.00  0.00     0.049 A 
ATOM     35  N   UNL A   1      39.910  30.259  30.250  1.00  0.00    -0.248 NA
ATOM     36  C   UNL A   1      38.064  30.448  28.833  1.00  0.00     0.031 C 
ATOM     37  C   UNL A   1      38.777  34.108  32.205  1.00  0.00     0.029 A 
ATOM     38  N   UNL A   1      40.347  32.527  32.029  1.00  0.00    -0.354 N 
ATOM     39  C   UNL A   1      39.894  29.182  29.372  1.00  0.00     0.074 A 
ATOM     40  C   UNL A   1      38.717  29.331  28.543  1.00  0.00     0.031 C 
ATOM     41  C   UNL A   1      39.821  34.492  32.957  1.00  0.00     0.029 A 
ATOM     42  C   UNL A   1      40.847  33.457  32.907  1.00  0.00     0.049 A 
ATOM     43  H   UNL A   1      40.834  31.711  31.772  1.00  0.00     0.167 HD
ATOM     44  C   UNL A   1      40.773  28.156  29.272  1.00  0.00     0.031 A 
ATOM     45  C   UNL A   1      41.987  33.466  33.623  1.00  0.00     0.031 A 
ATOM     46  C   UNL A   1      41.968  28.027  30.061  1.00  0.00     0.049 A 
ATOM     47  C   UNL A   1      42.919  32.291  33.535  1.00  0.00     0.074 A 
ATOM     48  C   UNL A   1      42.915  27.016  30.036  1.00  0.00     0.029 A 
ATOM     49  N   UNL A   1      42.393  28.949  31.004  1.00  0.00    -0.354 N 
ATOM     50  N   UNL A   1      42.843  31.235  32.765  1.00  0.00    -0.248 NA
ATOM     51  C   UNL A   1      44.080  32.301  34.437  1.00  0.00     0.031 C 
ATOM     52  C   UNL A   1      43.892  27.307  30.995  1.00  0.00     0.029 A 
ATOM     53  C   UNL A   1      43.578  28.523  31.581  1.00  0.00     0.049 A 
ATOM     54  H   UNL A   1      41.923  29.783  31.231  1.00  0.00     0.167 HD
ATOM     55  C   UNL A   1      43.944  30.452  33.089  1.00  0.00     0.074 A 
ATOM     56  C   UNL A   1      44.687  31.171  34.104  1.00  0.00     0.031 C 
ATOM     57  C   UNL A   1      44.300  29.242  32.597  1.00  0.00     0.031 A 
BRANCH  44  58
ATOM     58  C   UNL A   1      40.438  27.051  28.308  1.00  0.00    -0.014 A 
ATOM     59  C   UNL A   1      40.920  27.046  26.991  1.00  0.00     0.009 A 
ATOM     60  C   UNL A   1      39.640  25.981  28.745  1.00  0.00     0.009 A 
ATOM     61  C   UNL A   1      40.582  26.005  26.121  1.00  0.00     0.001 A 
ATOM     62  C   UNL A   1      39.325  24.930  27.881  1.00  0.00     0.001 A 
ATOM     63  C   UNL A   1      39.789  24.948  26.567  1.00  0.00     0.000 A 
ENDBRANCH  44  58
BRANCH  45  64
ATOM     64  C   UNL A   1      42.282  34.602  34.536  1.00  0.00    -0.014 A 
ATOM     65  C   UNL A   1      41.881  34.563  35.879  1.00  0.00     0.009 A 
ATOM     66  C   UNL A   1      42.974  35.729  34.066  1.00  0.00     0.009 A 
ATOM     67  C   UNL A   1      42.159  35.636  36.730  1.00  0.00     0.001 A 
ATOM     68  C   UNL A   1      43.278  36.786  34.925  1.00  0.00     0.001 A 
ATOM     69  C   UNL A   1      42.864  36.741  36.256  1.00  0.00     0.000 A 
ENDBRANCH  45  64
BRANCH  57  70
ATOM     70  C   UNL A   1      45.557  28.628  33.141  1.00  0.00    -0.014 A 
ATOM     71  C   UNL A   1      45.522  27.771  34.252  1.00  0.00     0.009 A 
ATOM     72  C   UNL A   1      46.788  28.887  32.518  1.00  0.00     0.009 A 
ATOM     73  C   UNL A   1      46.700  27.210  34.747  1.00  0.00     0.001 A 
ATOM     74  C   UNL A   1      47.961  28.306  33.001  1.00  0.00     0.001 A 
ATOM     75  C   UNL A   1      47.917  27.474  34.120  1.00  0.00     0.000 A 
ENDBRANCH  57  70
ENDBRANCH  31  32
ENDBRANCH  24  26
ENDBRANCH  23  24
ENDBRANCH  22  23
ENDBRANCH  21  22
ENDBRANCH   1  21
TORSDOF 18
ENDMDL
MODEL 3
REMARK VINA RESULT:      -9.4      4.190      8.530
REMARK SMILES CC(C)c1ncc(SC[C@H](O)CO)c(C(=O)OCCOC(=O)c2ccc(-c3c4nc(c(-c5ccccc5)c5ccc([nH]5)c(-c5ccccc5)c5nc(c(-c6ccccc6)c6ccc3[nH]6)C=C5)C=C4)cc2)n1
REMARK SMILES IDX 17 1 15 2 16 3 14 4 4 5 5 6 71 7 6 8 7 9 2 10 1 11 3 12 8 13
REMARK SMILES IDX 9 14 10 15 12 16 13 17 11 19 18 21 19 22 20 23 21 24 22 25
REMARK SMILES IDX 23 26 24 27 70 28 25 29 69 30 26 31 27 32 28 33 63 34 29 35
REMARK SMILES IDX 68 36 62 37 64 38 30 39 67 40 61 41 60 42 31 44 53 45 38 46
REMARK SMILES IDX 52 47 39 48 42 49 51 50 65 51 40 52 41 53 50 55 66 56 43 57
REMARK SMILES IDX 32 58 33 59 37 60 34 61 36 62 35 63 54 64 55 65 59 66 56 67
REMARK SMILES IDX 58 68 57 69 44 70 45 71 49 72 46 73 48 74 47 75
REMARK H PARENT 13 18 11 20 64 43 42 54
REMARK Flexibility Score: inf
ROOT
ATOM      1  O   UNL A   1      32.270  29.225  26.241  1.00  0.00    -0.457 OA
ENDROOT
BRANCH   1   2
ATOM      2  C   UNL A   1      32.498  29.107  24.910  1.00  0.00     0.358 C 
ATOM      3  O   UNL A   1      33.593  28.999  24.379  1.00  0.00    -0.244 OA
BRANCH   2   4
ATOM      4  C   UNL A   1      31.194  28.971  24.179  1.00  0.00     0.165 A 
ATOM      5  C   UNL A   1      29.425  30.141  23.256  1.00  0.00     0.131 A 
ATOM      6  N   UNL A   1      28.922  29.026  22.708  1.00  0.00    -0.240 NA
ATOM      7  N   UNL A   1      30.559  30.166  23.973  1.00  0.00    -0.224 NA
ATOM      8  C   UNL A   1      29.571  27.870  22.961  1.00  0.00     0.130 A 
ATOM      9  C   UNL A   1      30.684  27.744  23.770  1.00  0.00     0.059 A 
BRANCH   5  10
ATOM     10  C   UNL A   1      28.631  31.413  23.050  1.00  0.00     0.051 C 
ATOM     11  C   UNL A   1      28.362  31.670  21.567  1.00  0.00     0.016 C 
ATOM     12  C   UNL A   1      27.326  31.396  23.834  1.00  0.00     0.016 C 
ENDBRANCH   5  10
BRANCH   9  13
ATOM     13  S   UNL A   1      31.289  26.148  24.287  1.00  0.00    -0.119 SA
BRANCH  13  14
ATOM     14  C   UNL A   1      31.344  25.196  22.722  1.00  0.00     0.109 C 
BRANCH  14  15
ATOM     15  C   UNL A   1      32.366  25.630  21.663  1.00  0.00     0.150 C 
BRANCH  15  16
ATOM     16  C   UNL A   1      33.611  26.362  22.175  1.00  0.00     0.188 C 
BRANCH  16  17
ATOM     17  O   UNL A   1      33.638  27.666  21.585  1.00  0.00    -0.394 OA
ATOM     18  H   UNL A   1      33.152  27.652  20.746  1.00  0.00     0.210 HD
ENDBRANCH  16  17
ENDBRANCH  15  16
BRANCH  15  19
ATOM     19  O   UNL A   1      32.818  24.437  20.993  1.00  0.00    -0.390 OA
ATOM     20  H   UNL A   1      33.156  24.669  20.115  1.00  0.00     0.211 HD
ENDBRANCH  15  19
ENDBRANCH  14  15
ENDBRANCH  13  14
ENDBRANCH   9  13
ENDBRANCH   2   4
ENDBRANCH   1   2
BRANCH   1  21
ATOM     21  C   UNL A   1      32.501  30.503  26.866  1.00  0.00     0.275 C 
BRANCH  21  22
ATOM     22  C   UNL A   1      33.924  30.537  27.427  1.00  0.00     0.275 C 
BRANCH  22  23
ATOM     23  O   UNL A   1      34.273  31.885  27.795  1.00  0.00    -0.458 OA
BRANCH  23  24
ATOM     24  C   UNL A   1      34.707  32.040  29.066  1.00  0.00     0.338 C 
ATOM     25  O   UNL A   1      34.127  32.560  30.002  1.00  0.00    -0.246 OA
BRANCH  24  26
ATOM     26  C   UNL A   1      35.978  31.324  29.208  1.00  0.00     0.060 A 
ATOM     27  C   UNL A   1      35.982  30.165  29.975  1.00  0.00     0.016 A 
ATOM     28  C   UNL A   1      37.164  31.823  28.669  1.00  0.00     0.016 A 
ATOM     29  C   UNL A   1      37.185  29.532  30.258  1.00  0.00     0.010 A 
ATOM     30  C   UNL A   1      38.371  31.160  28.931  1.00  0.00     0.010 A 
ATOM     31  C   UNL A   1      38.398  30.026  29.763  1.00  0.00    -0.014 A 
BRANCH  31  32
ATOM     32  C   UNL A   1      39.671  29.386  30.200  1.00  0.00     0.031 A 
ATOM     33  C   UNL A   1      40.347  29.834  31.470  1.00  0.00     0.074 A 
ATOM     34  C   UNL A   1      40.176  28.334  29.524  1.00  0.00     0.049 A 
ATOM     35  N   UNL A   1      41.500  29.462  31.968  1.00  0.00    -0.248 NA
ATOM     36  C   UNL A   1      39.635  30.830  32.287  1.00  0.00     0.031 C 
ATOM     37  C   UNL A   1      39.582  27.727  28.331  1.00  0.00     0.029 A 
ATOM     38  N   UNL A   1      41.286  27.563  29.768  1.00  0.00    -0.354 N 
ATOM     39  C   UNL A   1      41.679  30.221  33.119  1.00  0.00     0.074 A 
ATOM     40  C   UNL A   1      40.514  31.070  33.250  1.00  0.00     0.031 C 
ATOM     41  C   UNL A   1      40.293  26.641  27.989  1.00  0.00     0.029 A 
ATOM     42  C   UNL A   1      41.445  26.530  28.876  1.00  0.00     0.049 A 
ATOM     43  H   UNL A   1      41.907  27.733  30.512  1.00  0.00     0.167 HD
ATOM     44  C   UNL A   1      42.723  30.220  33.983  1.00  0.00     0.031 A 
ATOM     45  C   UNL A   1      42.424  25.614  28.757  1.00  0.00     0.031 A 
ATOM     46  C   UNL A   1      43.861  29.346  33.883  1.00  0.00     0.049 A 
ATOM     47  C   UNL A   1      43.597  25.667  29.694  1.00  0.00     0.074 A 
ATOM     48  C   UNL A   1      44.973  29.279  34.707  1.00  0.00     0.029 A 
ATOM     49  N   UNL A   1      44.025  28.373  32.911  1.00  0.00    -0.354 N 
ATOM     50  N   UNL A   1      43.795  26.451  30.723  1.00  0.00    -0.248 NA
ATOM     51  C   UNL A   1      44.694  24.724  29.431  1.00  0.00     0.031 C 
ATOM     52  C   UNL A   1      45.829  28.290  34.208  1.00  0.00     0.029 A 
ATOM     53  C   UNL A   1      45.227  27.711  33.103  1.00  0.00     0.049 A 
ATOM     54  H   UNL A   1      43.383  28.179  32.191  1.00  0.00     0.167 HD
ATOM     55  C   UNL A   1      45.038  26.099  31.233  1.00  0.00     0.074 A 
ATOM     56  C   UNL A   1      45.534  25.010  30.416  1.00  0.00     0.031 C 
ATOM     57  C   UNL A   1      45.712  26.637  32.277  1.00  0.00     0.031 A 
BRANCH  44  58
ATOM     58  C   UNL A   1      42.710  31.244  35.084  1.00  0.00    -0.014 A 
ATOM     59  C   UNL A   1      43.229  32.534  34.901  1.00  0.00     0.009 A 
ATOM     60  C   UNL A   1      42.141  30.908  36.323  1.00  0.00     0.009 A 
ATOM     61  C   UNL A   1      43.206  33.458  35.950  1.00  0.00     0.001 A 
ATOM     62  C   UNL A   1      42.097  31.841  37.361  1.00  0.00     0.001 A 
ATOM     63  C   UNL A   1      42.637  33.112  37.176  1.00  0.00     0.000 A 
ENDBRANCH  44  58
BRANCH  45  64
ATOM     64  C   UNL A   1      42.368  24.603  27.669  1.00  0.00    -0.014 A 
ATOM     65  C   UNL A   1      42.953  24.861  26.422  1.00  0.00     0.009 A 
ATOM     66  C   UNL A   1      41.731  23.369  27.878  1.00  0.00     0.009 A 
ATOM     67  C   UNL A   1      42.893  23.907  25.402  1.00  0.00     0.001 A 
ATOM     68  C   UNL A   1      41.699  22.405  26.869  1.00  0.00     0.001 A 
ATOM     69  C   UNL A   1      42.274  22.679  25.629  1.00  0.00     0.000 A 
ENDBRANCH  45  64
BRANCH  57  70
ATOM     70  C   UNL A   1      47.052  26.044  32.602  1.00  0.00    -0.014 A 
ATOM     71  C   UNL A   1      48.217  26.492  31.960  1.00  0.00     0.009 A 
ATOM     72  C   UNL A   1      47.155  25.046  33.583  1.00  0.00     0.009 A 
ATOM     73  C   UNL A   1      49.455  25.929  32.271  1.00  0.00     0.001 A 
ATOM     74  C   UNL A   1      48.397  24.500  33.909  1.00  0.00     0.001 A 
ATOM     75  C   UNL A   1      49.545  24.936  33.248  1.00  0.00     0.000 A 
ENDBRANCH  57  70
ENDBRANCH  31  32
ENDBRANCH  24  26
ENDBRANCH  23  24
ENDBRANCH  22  23
ENDBRANCH  21  22
ENDBRANCH   1  21
TORSDOF 18
ENDMDL
