MODEL 1
REMARK VINA RESULT:     -11.1      0.000      0.000
REMARK SMILES CS(=O)(=O)c1ccc(N2N=C(C(=O)OCCOC(=O)c3ccc(-c4c5nc(c(-c6ccccc6)c6ccc([nH]6)c(-c6ccccc6)c6nc(c(-c7ccccc7)c7ccc4[nH]7)C=C6)C=C5)cc3)C[C@H]2c2cccs2)cc1
REMARK SMILES IDX 15 1 14 2 12 3 13 4 11 5 9 6 10 7 69 8 68 9 8 10 5 11 6 12
REMARK SMILES IDX 76 13 7 14 75 15 2 16 1 17 3 18 4 19 70 20 71 21 74 22 72 23
REMARK SMILES IDX 73 24 16 25 17 26 18 27 19 28 20 29 21 30 67 31 22 32 66 33
REMARK SMILES IDX 23 34 24 35 25 36 60 37 26 38 65 39 59 40 61 41 27 42 64 43
REMARK SMILES IDX 58 44 57 45 28 47 50 48 35 49 49 50 36 51 39 52 48 53 62 54
REMARK SMILES IDX 37 55 38 56 47 58 63 59 40 60 29 61 30 62 34 63 31 64 33 65
REMARK SMILES IDX 32 66 51 67 52 68 56 69 53 70 55 71 54 72 41 73 42 74 46 75
REMARK SMILES IDX 43 76 45 77 44 78
REMARK H PARENT 61 46 39 57
REMARK Flexibility Score: inf
ROOT
ATOM      1  C   UNL A   1      34.310  22.123  25.189  1.00  0.00     0.275 C 
ENDROOT
BRANCH   1   2
ATOM      2  O   UNL A   1      34.505  23.410  25.806  1.00  0.00    -0.458 OA
BRANCH   2   3
ATOM      3  C   UNL A   1      33.384  24.109  26.068  1.00  0.00     0.354 C 
ATOM      4  O   UNL A   1      32.372  23.720  26.619  1.00  0.00    -0.245 OA
BRANCH   3   5
ATOM      5  C   UNL A   1      33.569  25.547  25.654  1.00  0.00     0.148 C 
ATOM      6  N   UNL A   1      33.707  27.647  25.772  1.00  0.00    -0.256 N 
ATOM      7  N   UNL A   1      33.498  26.528  26.504  1.00  0.00    -0.169 NA
ATOM      8  C   UNL A   1      33.594  27.421  24.330  1.00  0.00     0.154 C 
ATOM      9  C   UNL A   1      33.920  25.919  24.248  1.00  0.00     0.099 C 
BRANCH   6  10
ATOM     10  C   UNL A   1      33.840  28.879  26.386  1.00  0.00     0.060 A 
ATOM     11  C   UNL A   1      34.057  31.366  27.676  1.00  0.00     0.067 A 
ATOM     12  C   UNL A   1      32.848  30.999  27.086  1.00  0.00     0.022 A 
ATOM     13  C   UNL A   1      35.161  30.514  27.615  1.00  0.00     0.022 A 
ATOM     14  C   UNL A   1      32.751  29.763  26.435  1.00  0.00     0.029 A 
ATOM     15  C   UNL A   1      35.046  29.279  26.971  1.00  0.00     0.029 A 
BRANCH  11  16
ATOM     16  S   UNL A   1      34.198  32.912  28.544  1.00  0.00     0.175 S 
ATOM     17  C   UNL A   1      35.870  33.448  28.301  1.00  0.00     0.163 C 
ATOM     18  O   UNL A   1      34.040  32.631  29.959  1.00  0.00    -0.224 OA
ATOM     19  O   UNL A   1      33.317  33.844  27.867  1.00  0.00    -0.224 OA
ENDBRANCH  11  16
ENDBRANCH   6  10
BRANCH   8  20
ATOM     20  C   UNL A   1      32.246  27.800  23.738  1.00  0.00     0.030 A 
ATOM     21  C   UNL A   1      31.992  28.825  22.841  1.00  0.00     0.017 A 
ATOM     22  S   UNL A   1      30.782  27.029  24.208  1.00  0.00    -0.147 S 
ATOM     23  C   UNL A   1      30.606  28.972  22.549  1.00  0.00     0.012 A 
ATOM     24  C   UNL A   1      29.839  28.046  23.216  1.00  0.00     0.065 A 
ENDBRANCH   8  20
ENDBRANCH   3   5
ENDBRANCH   2   3
ENDBRANCH   1   2
BRANCH   1  25
ATOM     25  C   UNL A   1      35.657  21.479  24.854  1.00  0.00     0.275 C 
BRANCH  25  26
ATOM     26  O   UNL A   1      36.560  21.538  25.977  1.00  0.00    -0.458 OA
BRANCH  26  27
ATOM     27  C   UNL A   1      37.864  21.333  25.675  1.00  0.00     0.338 C 
ATOM     28  O   UNL A   1      38.336  20.433  25.001  1.00  0.00    -0.246 OA
BRANCH  27  29
ATOM     29  C   UNL A   1      38.664  22.463  26.171  1.00  0.00     0.060 A 
ATOM     30  C   UNL A   1      38.176  23.746  25.931  1.00  0.00     0.016 A 
ATOM     31  C   UNL A   1      39.903  22.286  26.785  1.00  0.00     0.016 A 
ATOM     32  C   UNL A   1      38.912  24.866  26.295  1.00  0.00     0.010 A 
ATOM     33  C   UNL A   1      40.648  23.413  27.157  1.00  0.00     0.010 A 
ATOM     34  C   UNL A   1      40.158  24.709  26.907  1.00  0.00    -0.014 A 
BRANCH  34  35
ATOM     35  C   UNL A   1      40.953  25.911  27.245  1.00  0.00     0.031 A 
ATOM     36  C   UNL A   1      40.405  26.927  28.204  1.00  0.00     0.074 A 
ATOM     37  C   UNL A   1      42.188  26.064  26.736  1.00  0.00     0.049 A 
ATOM     38  N   UNL A   1      40.920  28.072  28.575  1.00  0.00    -0.248 NA
ATOM     39  C   UNL A   1      39.114  26.611  28.836  1.00  0.00     0.031 C 
ATOM     40  C   UNL A   1      42.865  25.108  25.858  1.00  0.00     0.029 A 
ATOM     41  N   UNL A   1      43.099  27.077  26.895  1.00  0.00    -0.354 N 
ATOM     42  C   UNL A   1      40.004  28.628  29.456  1.00  0.00     0.074 A 
ATOM     43  C   UNL A   1      38.904  27.695  29.572  1.00  0.00     0.031 C 
ATOM     44  C   UNL A   1      44.090  25.575  25.566  1.00  0.00     0.029 A 
ATOM     45  C   UNL A   1      44.262  26.882  26.192  1.00  0.00     0.049 A 
ATOM     46  H   UNL A   1      42.934  27.867  27.457  1.00  0.00     0.167 HD
ATOM     47  C   UNL A   1      40.072  29.814  30.106  1.00  0.00     0.031 A 
ATOM     48  C   UNL A   1      45.336  27.680  26.047  1.00  0.00     0.031 A 
ATOM     49  C   UNL A   1      41.166  30.741  29.998  1.00  0.00     0.049 A 
ATOM     50  C   UNL A   1      45.351  29.023  26.715  1.00  0.00     0.074 A 
ATOM     51  C   UNL A   1      41.322  31.969  30.618  1.00  0.00     0.029 A 
ATOM     52  N   UNL A   1      42.292  30.541  29.215  1.00  0.00    -0.354 N 
ATOM     53  N   UNL A   1      44.460  29.555  27.516  1.00  0.00    -0.248 NA
ATOM     54  C   UNL A   1      46.511  29.884  26.442  1.00  0.00     0.031 C 
ATOM     55  C   UNL A   1      42.530  32.528  30.184  1.00  0.00     0.029 A 
ATOM     56  C   UNL A   1      43.138  31.631  29.321  1.00  0.00     0.049 A 
ATOM     57  H   UNL A   1      42.464  29.743  28.666  1.00  0.00     0.167 HD
ATOM     58  C   UNL A   1      44.952  30.811  27.846  1.00  0.00     0.074 A 
ATOM     59  C   UNL A   1      46.227  30.954  27.172  1.00  0.00     0.031 C 
ATOM     60  C   UNL A   1      44.394  31.762  28.633  1.00  0.00     0.031 A 
BRANCH  47  61
ATOM     61  C   UNL A   1      38.900  30.193  30.961  1.00  0.00    -0.014 A 
ATOM     62  C   UNL A   1      37.777  30.831  30.415  1.00  0.00     0.009 A 
ATOM     63  C   UNL A   1      38.912  29.881  32.330  1.00  0.00     0.009 A 
ATOM     64  C   UNL A   1      36.696  31.173  31.230  1.00  0.00     0.001 A 
ATOM     65  C   UNL A   1      37.823  30.210  33.138  1.00  0.00     0.001 A 
ATOM     66  C   UNL A   1      36.719  30.860  32.590  1.00  0.00     0.000 A 
ENDBRANCH  47  61
BRANCH  48  67
ATOM     67  C   UNL A   1      46.466  27.246  25.189  1.00  0.00    -0.014 A 
ATOM     68  C   UNL A   1      46.668  27.827  23.929  1.00  0.00     0.009 A 
ATOM     69  C   UNL A   1      47.352  26.251  25.633  1.00  0.00     0.009 A 
ATOM     70  C   UNL A   1      47.732  27.410  23.125  1.00  0.00     0.001 A 
ATOM     71  C   UNL A   1      48.424  25.852  24.835  1.00  0.00     0.001 A 
ATOM     72  C   UNL A   1      48.611  26.428  23.580  1.00  0.00     0.000 A 
ENDBRANCH  48  67
BRANCH  60  73
ATOM     73  C   UNL A   1      45.164  33.035  28.808  1.00  0.00    -0.014 A 
ATOM     74  C   UNL A   1      46.124  33.160  29.823  1.00  0.00     0.009 A 
ATOM     75  C   UNL A   1      44.952  34.109  27.930  1.00  0.00     0.009 A 
ATOM     76  C   UNL A   1      46.845  34.347  29.968  1.00  0.00     0.001 A 
ATOM     77  C   UNL A   1      45.685  35.288  28.068  1.00  0.00     0.001 A 
ATOM     78  C   UNL A   1      46.626  35.408  29.089  1.00  0.00     0.000 A 
ENDBRANCH  60  73
ENDBRANCH  34  35
ENDBRANCH  27  29
ENDBRANCH  26  27
ENDBRANCH  25  26
ENDBRANCH   1  25
TORSDOF 14
ENDMDL
MODEL 2
REMARK VINA RESULT:     -11.0      3.538      9.063
REMARK SMILES CS(=O)(=O)c1ccc(N2N=C(C(=O)OCCOC(=O)c3ccc(-c4c5nc(c(-c6ccccc6)c6ccc([nH]6)c(-c6ccccc6)c6nc(c(-c7ccccc7)c7ccc4[nH]7)C=C6)C=C5)cc3)C[C@H]2c2cccs2)cc1
REMARK SMILES IDX 15 1 14 2 12 3 13 4 11 5 9 6 10 7 69 8 68 9 8 10 5 11 6 12
REMARK SMILES IDX 76 13 7 14 75 15 2 16 1 17 3 18 4 19 70 20 71 21 74 22 72 23
REMARK SMILES IDX 73 24 16 25 17 26 18 27 19 28 20 29 21 30 67 31 22 32 66 33
REMARK SMILES IDX 23 34 24 35 25 36 60 37 26 38 65 39 59 40 61 41 27 42 64 43
REMARK SMILES IDX 58 44 57 45 28 47 50 48 35 49 49 50 36 51 39 52 48 53 62 54
REMARK SMILES IDX 37 55 38 56 47 58 63 59 40 60 29 61 30 62 34 63 31 64 33 65
REMARK SMILES IDX 32 66 51 67 52 68 56 69 53 70 55 71 54 72 41 73 42 74 46 75
REMARK SMILES IDX 43 76 45 77 44 78
REMARK H PARENT 61 46 39 57
REMARK Flexibility Score: inf
ROOT
ATOM      1  C   UNL A   1      31.735  28.106  24.659  1.00  0.00     0.275 C 
ENDROOT
BRANCH   1   2
ATOM      2  O   UNL A   1      32.924  27.426  25.103  1.00  0.00    -0.458 OA
BRANCH   2   3
ATOM      3  C   UNL A   1      33.416  26.495  24.263  1.00  0.00     0.354 C 
ATOM      4  O   UNL A   1      33.446  26.528  23.047  1.00  0.00    -0.245 OA
BRANCH   3   5
ATOM      5  C   UNL A   1      34.044  25.374  25.050  1.00  0.00     0.148 C 
ATOM      6  N   UNL A   1      35.459  23.954  25.704  1.00  0.00    -0.256 N 
ATOM      7  N   UNL A   1      35.253  24.956  24.817  1.00  0.00    -0.169 NA
ATOM      8  C   UNL A   1      34.224  23.480  26.333  1.00  0.00     0.154 C 
ATOM      9  C   UNL A   1      33.335  24.729  26.198  1.00  0.00     0.099 C 
BRANCH   6  10
ATOM     10  C   UNL A   1      36.705  23.368  25.833  1.00  0.00     0.060 A 
ATOM     11  C   UNL A   1      39.233  22.188  26.166  1.00  0.00     0.067 A 
ATOM     12  C   UNL A   1      39.013  23.487  26.625  1.00  0.00     0.022 A 
ATOM     13  C   UNL A   1      38.212  21.480  25.529  1.00  0.00     0.022 A 
ATOM     14  C   UNL A   1      37.754  24.071  26.445  1.00  0.00     0.029 A 
ATOM     15  C   UNL A   1      36.957  22.074  25.366  1.00  0.00     0.029 A 
BRANCH  11  16
ATOM     16  S   UNL A   1      40.810  21.404  26.415  1.00  0.00     0.175 S 
ATOM     17  C   UNL A   1      41.396  21.993  27.981  1.00  0.00     0.163 C 
ATOM     18  O   UNL A   1      41.713  21.915  25.400  1.00  0.00    -0.224 OA
ATOM     19  O   UNL A   1      40.547  19.982  26.532  1.00  0.00    -0.224 OA
ENDBRANCH  11  16
ENDBRANCH   6  10
BRANCH   8  20
ATOM     20  C   UNL A   1      33.640  22.226  25.702  1.00  0.00     0.030 A 
ATOM     21  C   UNL A   1      33.472  20.993  26.310  1.00  0.00     0.017 A 
ATOM     22  S   UNL A   1      33.184  22.154  24.046  1.00  0.00    -0.147 S 
ATOM     23  C   UNL A   1      32.976  20.001  25.417  1.00  0.00     0.012 A 
ATOM     24  C   UNL A   1      32.761  20.505  24.155  1.00  0.00     0.065 A 
ENDBRANCH   8  20
ENDBRANCH   3   5
ENDBRANCH   2   3
ENDBRANCH   1   2
BRANCH   1  25
ATOM     25  C   UNL A   1      31.664  29.512  25.260  1.00  0.00     0.275 C 
BRANCH  25  26
ATOM     26  O   UNL A   1      32.974  29.997  25.616  1.00  0.00    -0.458 OA
BRANCH  26  27
ATOM     27  C   UNL A   1      33.007  30.827  26.684  1.00  0.00     0.338 C 
ATOM     28  O   UNL A   1      32.094  31.504  27.125  1.00  0.00    -0.246 OA
BRANCH  27  29
ATOM     29  C   UNL A   1      34.307  30.700  27.362  1.00  0.00     0.060 A 
ATOM     30  C   UNL A   1      34.723  29.418  27.712  1.00  0.00     0.016 A 
ATOM     31  C   UNL A   1      35.069  31.810  27.723  1.00  0.00     0.016 A 
ATOM     32  C   UNL A   1      35.897  29.221  28.426  1.00  0.00     0.010 A 
ATOM     33  C   UNL A   1      36.258  31.616  28.441  1.00  0.00     0.010 A 
ATOM     34  C   UNL A   1      36.673  30.321  28.802  1.00  0.00    -0.014 A 
BRANCH  34  35
ATOM     35  C   UNL A   1      37.898  30.100  29.604  1.00  0.00     0.031 A 
ATOM     36  C   UNL A   1      39.068  29.378  29.004  1.00  0.00     0.074 A 
ATOM     37  C   UNL A   1      37.980  30.595  30.852  1.00  0.00     0.049 A 
ATOM     38  N   UNL A   1      40.199  29.033  29.565  1.00  0.00    -0.248 NA
ATOM     39  C   UNL A   1      38.957  29.004  27.585  1.00  0.00     0.031 C 
ATOM     40  C   UNL A   1      36.942  31.384  31.519  1.00  0.00     0.029 A 
ATOM     41  N   UNL A   1      38.989  30.518  31.777  1.00  0.00    -0.354 N 
ATOM     42  C   UNL A   1      40.921  28.374  28.580  1.00  0.00     0.074 A 
ATOM     43  C   UNL A   1      40.105  28.371  27.384  1.00  0.00     0.031 C 
ATOM     44  C   UNL A   1      37.375  31.728  32.743  1.00  0.00     0.029 A 
ATOM     45  C   UNL A   1      38.694  31.143  32.963  1.00  0.00     0.049 A 
ATOM     46  H   UNL A   1      39.842  30.057  31.607  1.00  0.00     0.167 HD
ATOM     47  C   UNL A   1      42.151  27.815  28.668  1.00  0.00     0.031 A 
ATOM     48  C   UNL A   1      39.395  31.212  34.109  1.00  0.00     0.031 A 
ATOM     49  C   UNL A   1      42.966  27.819  29.852  1.00  0.00     0.049 A 
ATOM     50  C   UNL A   1      40.722  30.516  34.204  1.00  0.00     0.074 A 
ATOM     51  C   UNL A   1      44.225  27.277  30.036  1.00  0.00     0.029 A 
ATOM     52  N   UNL A   1      42.598  28.397  31.057  1.00  0.00    -0.354 N 
ATOM     53  N   UNL A   1      41.377  29.862  33.277  1.00  0.00    -0.248 NA
ATOM     54  C   UNL A   1      41.395  30.553  35.511  1.00  0.00     0.031 C 
ATOM     55  C   UNL A   1      44.608  27.498  31.365  1.00  0.00     0.029 A 
ATOM     56  C   UNL A   1      43.599  28.207  31.995  1.00  0.00     0.049 A 
ATOM     57  H   UNL A   1      41.752  28.872  31.222  1.00  0.00     0.167 HD
ATOM     58  C   UNL A   1      42.540  29.410  33.885  1.00  0.00     0.074 A 
ATOM     59  C   UNL A   1      42.509  29.881  35.256  1.00  0.00     0.031 C 
ATOM     60  C   UNL A   1      43.543  28.668  33.356  1.00  0.00     0.031 A 
BRANCH  47  61
ATOM     61  C   UNL A   1      42.669  27.108  27.451  1.00  0.00    -0.014 A 
ATOM     62  C   UNL A   1      43.497  27.762  26.527  1.00  0.00     0.009 A 
ATOM     63  C   UNL A   1      42.343  25.758  27.243  1.00  0.00     0.009 A 
ATOM     64  C   UNL A   1      43.969  27.083  25.402  1.00  0.00     0.001 A 
ATOM     65  C   UNL A   1      42.830  25.078  26.126  1.00  0.00     0.001 A 
ATOM     66  C   UNL A   1      43.637  25.742  25.204  1.00  0.00     0.000 A 
ENDBRANCH  47  61
BRANCH  48  67
ATOM     67  C   UNL A   1      38.830  31.929  35.278  1.00  0.00    -0.014 A 
ATOM     68  C   UNL A   1      38.178  31.224  36.300  1.00  0.00     0.009 A 
ATOM     69  C   UNL A   1      38.945  33.325  35.377  1.00  0.00     0.009 A 
ATOM     70  C   UNL A   1      37.643  31.907  37.395  1.00  0.00     0.001 A 
ATOM     71  C   UNL A   1      38.427  34.001  36.483  1.00  0.00     0.001 A 
ATOM     72  C   UNL A   1      37.772  33.292  37.488  1.00  0.00     0.000 A 
ENDBRANCH  48  67
BRANCH  60  73
ATOM     73  C   UNL A   1      44.685  28.326  34.263  1.00  0.00    -0.014 A 
ATOM     74  C   UNL A   1      44.686  27.130  34.996  1.00  0.00     0.009 A 
ATOM     75  C   UNL A   1      45.785  29.191  34.362  1.00  0.00     0.009 A 
ATOM     76  C   UNL A   1      45.762  26.816  35.829  1.00  0.00     0.001 A 
ATOM     77  C   UNL A   1      46.866  28.867  35.183  1.00  0.00     0.001 A 
ATOM     78  C   UNL A   1      46.851  27.683  35.919  1.00  0.00     0.000 A 
ENDBRANCH  60  73
ENDBRANCH  34  35
ENDBRANCH  27  29
ENDBRANCH  26  27
ENDBRANCH  25  26
ENDBRANCH   1  25
TORSDOF 14
ENDMDL
MODEL 3
REMARK VINA RESULT:     -10.9      2.831      6.942
REMARK SMILES CS(=O)(=O)c1ccc(N2N=C(C(=O)OCCOC(=O)c3ccc(-c4c5nc(c(-c6ccccc6)c6ccc([nH]6)c(-c6ccccc6)c6nc(c(-c7ccccc7)c7ccc4[nH]7)C=C6)C=C5)cc3)C[C@H]2c2cccs2)cc1
REMARK SMILES IDX 15 1 14 2 12 3 13 4 11 5 9 6 10 7 69 8 68 9 8 10 5 11 6 12
REMARK SMILES IDX 76 13 7 14 75 15 2 16 1 17 3 18 4 19 70 20 71 21 74 22 72 23
REMARK SMILES IDX 73 24 16 25 17 26 18 27 19 28 20 29 21 30 67 31 22 32 66 33
REMARK SMILES IDX 23 34 24 35 25 36 60 37 26 38 65 39 59 40 61 41 27 42 64 43
REMARK SMILES IDX 58 44 57 45 28 47 50 48 35 49 49 50 36 51 39 52 48 53 62 54
REMARK SMILES IDX 37 55 38 56 47 58 63 59 40 60 29 61 30 62 34 63 31 64 33 65
REMARK SMILES IDX 32 66 51 67 52 68 56 69 53 70 55 71 54 72 41 73 42 74 46 75
REMARK SMILES IDX 43 76 45 77 44 78
REMARK H PARENT 61 46 39 57
REMARK Flexibility Score: inf
ROOT
ATOM      1  C   UNL A   1      39.632  21.375  26.493  1.00  0.00     0.275 C 
ENDROOT
BRANCH   1   2
ATOM      2  O   UNL A   1      38.480  21.758  25.716  1.00  0.00    -0.458 OA
BRANCH   2   3
ATOM      3  C   UNL A   1      38.038  23.016  25.905  1.00  0.00     0.354 C 
ATOM      4  O   UNL A   1      38.514  23.875  26.622  1.00  0.00    -0.245 OA
BRANCH   3   5
ATOM      5  C   UNL A   1      36.862  23.287  25.002  1.00  0.00     0.148 C 
ATOM      6  N   UNL A   1      35.115  24.177  24.226  1.00  0.00    -0.256 N 
ATOM      7  N   UNL A   1      36.020  24.251  25.230  1.00  0.00    -0.169 NA
ATOM      8  C   UNL A   1      35.181  22.915  23.484  1.00  0.00     0.154 C 
ATOM      9  C   UNL A   1      36.641  22.504  23.747  1.00  0.00     0.099 C 
BRANCH   6  10
ATOM     10  C   UNL A   1      34.145  25.150  24.074  1.00  0.00     0.060 A 
ATOM     11  C   UNL A   1      32.215  27.174  23.799  1.00  0.00     0.067 A 
ATOM     12  C   UNL A   1      32.672  26.825  25.071  1.00  0.00     0.022 A 
ATOM     13  C   UNL A   1      32.698  26.514  22.668  1.00  0.00     0.022 A 
ATOM     14  C   UNL A   1      33.625  25.808  25.199  1.00  0.00     0.029 A 
ATOM     15  C   UNL A   1      33.658  25.507  22.813  1.00  0.00     0.029 A 
BRANCH  11  16
ATOM     16  S   UNL A   1      31.035  28.489  23.601  1.00  0.00     0.175 S 
ATOM     17  C   UNL A   1      29.461  27.697  23.411  1.00  0.00     0.163 C 
ATOM     18  O   UNL A   1      31.334  29.154  22.346  1.00  0.00    -0.224 OA
ATOM     19  O   UNL A   1      31.027  29.225  24.851  1.00  0.00    -0.224 OA
ENDBRANCH  11  16
ENDBRANCH   6  10
BRANCH   8  20
ATOM     20  C   UNL A   1      34.154  21.880  23.913  1.00  0.00     0.030 A 
ATOM     21  C   UNL A   1      32.843  21.783  23.477  1.00  0.00     0.017 A 
ATOM     22  S   UNL A   1      34.480  20.705  25.125  1.00  0.00    -0.147 S 
ATOM     23  C   UNL A   1      32.117  20.752  24.139  1.00  0.00     0.012 A 
ATOM     24  C   UNL A   1      32.896  20.077  25.050  1.00  0.00     0.065 A 
ENDBRANCH   8  20
ENDBRANCH   3   5
ENDBRANCH   2   3
ENDBRANCH   1   2
BRANCH   1  25
ATOM     25  C   UNL A   1      40.249  20.089  25.938  1.00  0.00     0.275 C 
BRANCH  25  26
ATOM     26  O   UNL A   1      41.505  19.791  26.581  1.00  0.00    -0.458 OA
BRANCH  26  27
ATOM     27  C   UNL A   1      42.603  20.248  25.934  1.00  0.00     0.338 C 
ATOM     28  O   UNL A   1      43.232  19.685  25.054  1.00  0.00    -0.246 OA
BRANCH  27  29
ATOM     29  C   UNL A   1      42.874  21.632  26.350  1.00  0.00     0.060 A 
ATOM     30  C   UNL A   1      42.877  21.900  27.717  1.00  0.00     0.016 A 
ATOM     31  C   UNL A   1      43.041  22.666  25.431  1.00  0.00     0.016 A 
ATOM     32  C   UNL A   1      43.043  23.196  28.188  1.00  0.00     0.010 A 
ATOM     33  C   UNL A   1      43.213  23.976  25.901  1.00  0.00     0.010 A 
ATOM     34  C   UNL A   1      43.207  24.247  27.283  1.00  0.00    -0.014 A 
BRANCH  34  35
ATOM     35  C   UNL A   1      43.335  25.629  27.797  1.00  0.00     0.031 A 
ATOM     36  C   UNL A   1      44.694  26.215  28.045  1.00  0.00     0.074 A 
ATOM     37  C   UNL A   1      42.234  26.378  27.988  1.00  0.00     0.049 A 
ATOM     38  N   UNL A   1      45.010  27.380  28.552  1.00  0.00    -0.248 NA
ATOM     39  C   UNL A   1      45.850  25.387  27.665  1.00  0.00     0.031 C 
ATOM     40  C   UNL A   1      40.862  25.952  27.706  1.00  0.00     0.029 A 
ATOM     41  N   UNL A   1      42.099  27.661  28.454  1.00  0.00    -0.354 N 
ATOM     42  C   UNL A   1      46.396  27.413  28.582  1.00  0.00     0.074 A 
ATOM     43  C   UNL A   1      46.864  26.156  28.038  1.00  0.00     0.031 C 
ATOM     44  C   UNL A   1      40.024  26.962  27.994  1.00  0.00     0.029 A 
ATOM     45  C   UNL A   1      40.794  28.082  28.526  1.00  0.00     0.049 A 
ATOM     46  H   UNL A   1      42.863  28.225  28.712  1.00  0.00     0.167 HD
ATOM     47  C   UNL A   1      47.207  28.401  29.031  1.00  0.00     0.031 A 
ATOM     48  C   UNL A   1      40.275  29.231  28.994  1.00  0.00     0.031 A 
ATOM     49  C   UNL A   1      46.745  29.653  29.567  1.00  0.00     0.049 A 
ATOM     50  C   UNL A   1      41.191  30.278  29.558  1.00  0.00     0.074 A 
ATOM     51  C   UNL A   1      47.492  30.714  30.048  1.00  0.00     0.029 A 
ATOM     52  N   UNL A   1      45.413  30.010  29.695  1.00  0.00    -0.354 N 
ATOM     53  N   UNL A   1      42.500  30.281  29.618  1.00  0.00    -0.248 NA
ATOM     54  C   UNL A   1      40.555  31.470  30.138  1.00  0.00     0.031 C 
ATOM     55  C   UNL A   1      46.609  31.703  30.497  1.00  0.00     0.029 A 
ATOM     56  C   UNL A   1      45.315  31.268  30.264  1.00  0.00     0.049 A 
ATOM     57  H   UNL A   1      44.649  29.453  29.420  1.00  0.00     0.167 HD
ATOM     58  C   UNL A   1      42.846  31.474  30.238  1.00  0.00     0.074 A 
ATOM     59  C   UNL A   1      41.610  32.176  30.520  1.00  0.00     0.031 C 
ATOM     60  C   UNL A   1      44.078  31.943  30.550  1.00  0.00     0.031 A 
BRANCH  47  61
ATOM     61  C   UNL A   1      48.683  28.141  28.999  1.00  0.00    -0.014 A 
ATOM     62  C   UNL A   1      49.462  28.505  27.892  1.00  0.00     0.009 A 
ATOM     63  C   UNL A   1      49.305  27.547  30.109  1.00  0.00     0.009 A 
ATOM     64  C   UNL A   1      50.836  28.255  27.886  1.00  0.00     0.001 A 
ATOM     65  C   UNL A   1      50.681  27.314  30.106  1.00  0.00     0.001 A 
ATOM     66  C   UNL A   1      51.444  27.662  28.993  1.00  0.00     0.000 A 
ENDBRANCH  47  61
BRANCH  48  67
ATOM     67  C   UNL A   1      38.804  29.430  28.996  1.00  0.00    -0.014 A 
ATOM     68  C   UNL A   1      38.048  29.139  30.140  1.00  0.00     0.009 A 
ATOM     69  C   UNL A   1      38.153  29.916  27.851  1.00  0.00     0.009 A 
ATOM     70  C   UNL A   1      36.663  29.324  30.132  1.00  0.00     0.001 A 
ATOM     71  C   UNL A   1      36.773  30.118  27.854  1.00  0.00     0.001 A 
ATOM     72  C   UNL A   1      36.028  29.817  28.993  1.00  0.00     0.000 A 
ENDBRANCH  48  67
BRANCH  60  73
ATOM     73  C   UNL A   1      44.144  33.279  31.227  1.00  0.00    -0.014 A 
ATOM     74  C   UNL A   1      44.189  34.462  30.475  1.00  0.00     0.009 A 
ATOM     75  C   UNL A   1      44.128  33.356  32.627  1.00  0.00     0.009 A 
ATOM     76  C   UNL A   1      44.238  35.702  31.117  1.00  0.00     0.001 A 
ATOM     77  C   UNL A   1      44.161  34.596  33.265  1.00  0.00     0.001 A 
ATOM     78  C   UNL A   1      44.221  35.767  32.511  1.00  0.00     0.000 A 
ENDBRANCH  60  73
ENDBRANCH  34  35
ENDBRANCH  27  29
ENDBRANCH  26  27
ENDBRANCH  25  26
ENDBRANCH   1  25
TORSDOF 14
ENDMDL
