MODEL 1
REMARK VINA RESULT:      -9.2      0.000      0.000
REMARK SMILES COC[C@@H](C)CC(=O)N1[C@@H](C2CC2)SC[C@H]1C(=O)OCCOC(=O)c1ccc(-c2c3nc(c(-c4ccccc4)c4ccc([nH]4)c(-c4ccccc4)c4nc(c(-c5ccccc5)c5ccc2[nH]5)C=C4)C=C3)cc1
REMARK SMILES IDX 19 1 17 2 18 3 16 4 9 5 10 6 14 7 15 8 7 9 8 10 6 11 4 12
REMARK SMILES IDX 5 13 3 14 2 15 1 16 11 17 12 18 13 19 20 20 21 21 22 22
REMARK SMILES IDX 23 23 24 24 25 25 26 26 72 27 27 28 71 29 28 30 29 31 30 32
REMARK SMILES IDX 65 33 31 34 70 35 64 36 66 37 32 38 69 39 63 40 62 41 33 43
REMARK SMILES IDX 55 44 40 45 54 46 41 47 44 48 53 49 67 50 42 51 43 52 52 54
REMARK SMILES IDX 68 55 45 56 34 57 35 58 39 59 36 60 38 61 37 62 56 63 57 64
REMARK SMILES IDX 61 65 58 66 60 67 59 68 46 69 47 70 51 71 48 72 50 73 49 74
REMARK H PARENT 66 42 44 53
REMARK Flexibility Score: inf
ROOT
ATOM      1  O   UNL A   1      32.540  30.234  27.042  1.00  0.00    -0.461 OA
ENDROOT
BRANCH   1   2
ATOM      2  C   UNL A   1      32.062  28.983  27.254  1.00  0.00     0.329 C 
ATOM      3  O   UNL A   1      31.122  28.712  27.997  1.00  0.00    -0.250 OA
BRANCH   2   4
ATOM      4  C   UNL A   1      32.813  27.886  26.490  1.00  0.00     0.206 C 
ATOM      5  N   UNL A   1      32.123  27.049  25.507  1.00  0.00    -0.316 N 
ATOM      6  C   UNL A   1      32.178  27.565  24.159  1.00  0.00     0.147 C 
ATOM      7  S   UNL A   1      33.730  28.464  24.028  1.00  0.00    -0.134 SA
ATOM      8  C   UNL A   1      34.035  28.507  25.812  1.00  0.00     0.109 C 
BRANCH   5   9
ATOM      9  C   UNL A   1      31.498  25.891  25.920  1.00  0.00     0.224 C 
ATOM     10  O   UNL A   1      30.386  25.934  26.450  1.00  0.00    -0.275 OA
BRANCH   9  11
ATOM     11  C   UNL A   1      32.308  24.597  25.971  1.00  0.00     0.106 C 
BRANCH  11  12
ATOM     12  C   UNL A   1      31.895  23.400  25.094  1.00  0.00     0.021 C 
ATOM     13  C   UNL A   1      30.952  23.898  23.982  1.00  0.00     0.010 C 
BRANCH  12  14
ATOM     14  C   UNL A   1      31.210  22.302  25.928  1.00  0.00     0.163 C 
BRANCH  14  15
ATOM     15  O   UNL A   1      30.739  22.799  27.179  1.00  0.00    -0.384 OA
ATOM     16  C   UNL A   1      29.321  22.729  27.285  1.00  0.00     0.194 C 
ENDBRANCH  14  15
ENDBRANCH  12  14
ENDBRANCH  11  12
ENDBRANCH   9  11
ENDBRANCH   5   9
BRANCH   6  17
ATOM     17  C   UNL A   1      30.935  28.377  23.889  1.00  0.00     0.022 C 
ATOM     18  C   UNL A   1      30.421  28.762  22.515  1.00  0.00     0.007 C 
ATOM     19  C   UNL A   1      29.675  27.751  23.337  1.00  0.00     0.007 C 
ENDBRANCH   6  17
ENDBRANCH   2   4
ENDBRANCH   1   2
BRANCH   1  20
ATOM     20  C   UNL A   1      31.655  31.130  26.337  1.00  0.00     0.274 C 
BRANCH  20  21
ATOM     21  C   UNL A   1      31.639  32.497  27.006  1.00  0.00     0.275 C 
BRANCH  21  22
ATOM     22  O   UNL A   1      32.992  32.919  27.226  1.00  0.00    -0.458 OA
BRANCH  22  23
ATOM     23  C   UNL A   1      33.160  33.864  28.181  1.00  0.00     0.338 C 
ATOM     24  O   UNL A   1      32.495  34.865  28.369  1.00  0.00    -0.246 OA
BRANCH  23  25
ATOM     25  C   UNL A   1      34.372  33.523  28.940  1.00  0.00     0.060 A 
ATOM     26  C   UNL A   1      35.558  34.223  28.718  1.00  0.00     0.016 A 
ATOM     27  C   UNL A   1      34.332  32.466  29.844  1.00  0.00     0.016 A 
ATOM     28  C   UNL A   1      36.730  33.844  29.366  1.00  0.00     0.010 A 
ATOM     29  C   UNL A   1      35.492  32.125  30.542  1.00  0.00     0.010 A 
ATOM     30  C   UNL A   1      36.702  32.799  30.295  1.00  0.00    -0.014 A 
BRANCH  30  31
ATOM     31  C   UNL A   1      37.940  32.366  30.984  1.00  0.00     0.031 A 
ATOM     32  C   UNL A   1      38.747  31.236  30.415  1.00  0.00     0.074 A 
ATOM     33  C   UNL A   1      38.330  32.972  32.122  1.00  0.00     0.049 A 
ATOM     34  N   UNL A   1      39.724  30.560  30.962  1.00  0.00    -0.248 NA
ATOM     35  C   UNL A   1      38.405  30.805  29.048  1.00  0.00     0.031 C 
ATOM     36  C   UNL A   1      37.677  34.129  32.740  1.00  0.00     0.029 A 
ATOM     37  N   UNL A   1      39.370  32.685  32.970  1.00  0.00    -0.354 N 
ATOM     38  C   UNL A   1      40.091  29.605  30.023  1.00  0.00     0.074 A 
ATOM     39  C   UNL A   1      39.228  29.780  28.875  1.00  0.00     0.031 C 
ATOM     40  C   UNL A   1      38.334  34.454  33.864  1.00  0.00     0.029 A 
ATOM     41  C   UNL A   1      39.401  33.485  34.087  1.00  0.00     0.049 A 
ATOM     42  H   UNL A   1      40.031  31.976  32.795  1.00  0.00     0.167 HD
ATOM     43  C   UNL A   1      41.060  28.664  30.114  1.00  0.00     0.031 A 
ATOM     44  C   UNL A   1      40.168  33.411  35.190  1.00  0.00     0.031 A 
ATOM     45  C   UNL A   1      41.921  28.501  31.256  1.00  0.00     0.049 A 
ATOM     46  C   UNL A   1      41.171  32.297  35.308  1.00  0.00     0.074 A 
ATOM     47  C   UNL A   1      42.917  27.561  31.460  1.00  0.00     0.029 A 
ATOM     48  N   UNL A   1      41.893  29.309  32.381  1.00  0.00    -0.354 N 
ATOM     49  N   UNL A   1      41.471  31.361  34.441  1.00  0.00    -0.248 NA
ATOM     50  C   UNL A   1      41.931  32.223  36.564  1.00  0.00     0.031 C 
ATOM     51  C   UNL A   1      43.469  27.780  32.726  1.00  0.00     0.029 A 
ATOM     52  C   UNL A   1      42.847  28.885  33.289  1.00  0.00     0.049 A 
ATOM     53  H   UNL A   1      41.284  30.070  32.516  1.00  0.00     0.167 HD
ATOM     54  C   UNL A   1      42.466  30.599  35.039  1.00  0.00     0.074 A 
ATOM     55  C   UNL A   1      42.732  31.194  36.333  1.00  0.00     0.031 C 
ATOM     56  C   UNL A   1      43.100  29.500  34.564  1.00  0.00     0.031 A 
BRANCH  43  57
ATOM     57  C   UNL A   1      41.224  27.720  28.959  1.00  0.00    -0.014 A 
ATOM     58  C   UNL A   1      40.447  26.556  28.857  1.00  0.00     0.009 A 
ATOM     59  C   UNL A   1      42.136  28.022  27.937  1.00  0.00     0.009 A 
ATOM     60  C   UNL A   1      40.597  25.703  27.761  1.00  0.00     0.001 A 
ATOM     61  C   UNL A   1      42.268  27.180  26.832  1.00  0.00     0.001 A 
ATOM     62  C   UNL A   1      41.502  26.017  26.748  1.00  0.00     0.000 A 
ENDBRANCH  43  57
BRANCH  44  63
ATOM     63  C   UNL A   1      39.974  34.374  36.306  1.00  0.00    -0.014 A 
ATOM     64  C   UNL A   1      40.679  35.587  36.333  1.00  0.00     0.009 A 
ATOM     65  C   UNL A   1      39.108  34.069  37.368  1.00  0.00     0.009 A 
ATOM     66  C   UNL A   1      40.540  36.461  37.414  1.00  0.00     0.001 A 
ATOM     67  C   UNL A   1      38.948  34.958  38.432  1.00  0.00     0.001 A 
ATOM     68  C   UNL A   1      39.673  36.147  38.460  1.00  0.00     0.000 A 
ENDBRANCH  44  63
BRANCH  56  69
ATOM     69  C   UNL A   1      44.170  28.904  35.430  1.00  0.00    -0.014 A 
ATOM     70  C   UNL A   1      45.503  29.333  35.336  1.00  0.00     0.009 A 
ATOM     71  C   UNL A   1      43.832  27.925  36.376  1.00  0.00     0.009 A 
ATOM     72  C   UNL A   1      46.482  28.770  36.155  1.00  0.00     0.001 A 
ATOM     73  C   UNL A   1      44.809  27.381  37.211  1.00  0.00     0.001 A 
ATOM     74  C   UNL A   1      46.134  27.797  37.093  1.00  0.00     0.000 A 
ENDBRANCH  56  69
ENDBRANCH  30  31
ENDBRANCH  23  25
ENDBRANCH  22  23
ENDBRANCH  21  22
ENDBRANCH  20  21
ENDBRANCH   1  20
TORSDOF 17
ENDMDL
MODEL 2
REMARK VINA RESULT:      -9.2      4.288      7.989
REMARK SMILES COC[C@@H](C)CC(=O)N1[C@@H](C2CC2)SC[C@H]1C(=O)OCCOC(=O)c1ccc(-c2c3nc(c(-c4ccccc4)c4ccc([nH]4)c(-c4ccccc4)c4nc(c(-c5ccccc5)c5ccc2[nH]5)C=C4)C=C3)cc1
REMARK SMILES IDX 19 1 17 2 18 3 16 4 9 5 10 6 14 7 15 8 7 9 8 10 6 11 4 12
REMARK SMILES IDX 5 13 3 14 2 15 1 16 11 17 12 18 13 19 20 20 21 21 22 22
REMARK SMILES IDX 23 23 24 24 25 25 26 26 72 27 27 28 71 29 28 30 29 31 30 32
REMARK SMILES IDX 65 33 31 34 70 35 64 36 66 37 32 38 69 39 63 40 62 41 33 43
REMARK SMILES IDX 55 44 40 45 54 46 41 47 44 48 53 49 67 50 42 51 43 52 52 54
REMARK SMILES IDX 68 55 45 56 34 57 35 58 39 59 36 60 38 61 37 62 56 63 57 64
REMARK SMILES IDX 61 65 58 66 60 67 59 68 46 69 47 70 51 71 48 72 50 73 49 74
REMARK H PARENT 66 42 44 53
REMARK Flexibility Score: inf
ROOT
ATOM      1  O   UNL A   1      32.894  28.857  27.336  1.00  0.00    -0.461 OA
ENDROOT
BRANCH   1   2
ATOM      2  C   UNL A   1      32.035  27.818  27.189  1.00  0.00     0.329 C 
ATOM      3  O   UNL A   1      30.944  27.731  27.748  1.00  0.00    -0.250 OA
BRANCH   2   4
ATOM      4  C   UNL A   1      32.543  26.710  26.259  1.00  0.00     0.206 C 
ATOM      5  N   UNL A   1      31.633  26.030  25.335  1.00  0.00    -0.316 N 
ATOM      6  C   UNL A   1      31.564  26.641  24.028  1.00  0.00     0.147 C 
ATOM      7  S   UNL A   1      33.178  27.377  23.731  1.00  0.00    -0.134 SA
ATOM      8  C   UNL A   1      33.725  27.249  25.452  1.00  0.00     0.109 C 
BRANCH   5   9
ATOM      9  C   UNL A   1      30.939  24.917  25.761  1.00  0.00     0.224 C 
ATOM     10  O   UNL A   1      30.386  24.907  26.862  1.00  0.00    -0.275 OA
BRANCH   9  11
ATOM     11  C   UNL A   1      31.099  23.611  24.985  1.00  0.00     0.106 C 
BRANCH  11  12
ATOM     12  C   UNL A   1      32.391  22.786  25.132  1.00  0.00     0.021 C 
ATOM     13  C   UNL A   1      32.122  21.347  24.654  1.00  0.00     0.010 C 
BRANCH  12  14
ATOM     14  C   UNL A   1      32.894  22.785  26.588  1.00  0.00     0.163 C 
BRANCH  14  15
ATOM     15  O   UNL A   1      34.069  23.575  26.747  1.00  0.00    -0.384 OA
ATOM     16  C   UNL A   1      34.788  23.721  25.526  1.00  0.00     0.194 C 
ENDBRANCH  14  15
ENDBRANCH  12  14
ENDBRANCH  11  12
ENDBRANCH   9  11
ENDBRANCH   5   9
BRANCH   6  17
ATOM     17  C   UNL A   1      30.399  27.599  23.989  1.00  0.00     0.022 C 
ATOM     18  C   UNL A   1      29.707  28.088  22.731  1.00  0.00     0.007 C 
ATOM     19  C   UNL A   1      28.998  27.141  23.657  1.00  0.00     0.007 C 
ENDBRANCH   6  17
ENDBRANCH   2   4
ENDBRANCH   1   2
BRANCH   1  20
ATOM     20  C   UNL A   1      32.320  30.171  27.171  1.00  0.00     0.274 C 
BRANCH  20  21
ATOM     21  C   UNL A   1      33.366  31.245  27.433  1.00  0.00     0.275 C 
BRANCH  21  22
ATOM     22  O   UNL A   1      34.624  30.608  27.702  1.00  0.00    -0.458 OA
BRANCH  22  23
ATOM     23  C   UNL A   1      35.274  31.044  28.807  1.00  0.00     0.338 C 
ATOM     24  O   UNL A   1      34.902  31.871  29.617  1.00  0.00    -0.246 OA
BRANCH  23  25
ATOM     25  C   UNL A   1      36.593  30.396  28.835  1.00  0.00     0.060 A 
ATOM     26  C   UNL A   1      37.143  29.979  30.048  1.00  0.00     0.016 A 
ATOM     27  C   UNL A   1      37.304  30.248  27.648  1.00  0.00     0.016 A 
ATOM     28  C   UNL A   1      38.429  29.450  30.091  1.00  0.00     0.010 A 
ATOM     29  C   UNL A   1      38.569  29.660  27.681  1.00  0.00     0.010 A 
ATOM     30  C   UNL A   1      39.147  29.273  28.905  1.00  0.00    -0.014 A 
BRANCH  30  31
ATOM     31  C   UNL A   1      40.524  28.728  28.928  1.00  0.00     0.031 A 
ATOM     32  C   UNL A   1      41.678  29.644  29.216  1.00  0.00     0.074 A 
ATOM     33  C   UNL A   1      40.742  27.422  28.676  1.00  0.00     0.049 A 
ATOM     34  N   UNL A   1      42.960  29.430  29.070  1.00  0.00    -0.248 NA
ATOM     35  C   UNL A   1      41.343  30.982  29.732  1.00  0.00     0.031 C 
ATOM     36  C   UNL A   1      39.704  26.412  28.456  1.00  0.00     0.029 A 
ATOM     37  N   UNL A   1      41.917  26.725  28.553  1.00  0.00    -0.354 N 
ATOM     38  C   UNL A   1      43.583  30.614  29.443  1.00  0.00     0.074 A 
ATOM     39  C   UNL A   1      42.541  31.547  29.813  1.00  0.00     0.031 C 
ATOM     40  C   UNL A   1      40.289  25.225  28.228  1.00  0.00     0.029 A 
ATOM     41  C   UNL A   1      41.736  25.407  28.208  1.00  0.00     0.049 A 
ATOM     42  H   UNL A   1      42.803  27.129  28.698  1.00  0.00     0.167 HD
ATOM     43  C   UNL A   1      44.906  30.896  29.471  1.00  0.00     0.031 A 
ATOM     44  C   UNL A   1      42.634  24.466  27.863  1.00  0.00     0.031 A 
ATOM     45  C   UNL A   1      45.938  29.961  29.109  1.00  0.00     0.049 A 
ATOM     46  C   UNL A   1      44.091  24.833  27.808  1.00  0.00     0.074 A 
ATOM     47  C   UNL A   1      47.308  30.155  29.076  1.00  0.00     0.029 A 
ATOM     48  N   UNL A   1      45.709  28.648  28.730  1.00  0.00    -0.354 N 
ATOM     49  N   UNL A   1      44.667  25.973  28.104  1.00  0.00    -0.248 NA
ATOM     50  C   UNL A   1      45.019  23.787  27.356  1.00  0.00     0.031 C 
ATOM     51  C   UNL A   1      47.906  28.968  28.643  1.00  0.00     0.029 A 
ATOM     52  C   UNL A   1      46.911  28.022  28.451  1.00  0.00     0.049 A 
ATOM     53  H   UNL A   1      44.823  28.224  28.666  1.00  0.00     0.167 HD
ATOM     54  C   UNL A   1      46.025  25.774  27.893  1.00  0.00     0.074 A 
ATOM     55  C   UNL A   1      46.188  24.401  27.463  1.00  0.00     0.031 C 
ATOM     56  C   UNL A   1      47.047  26.652  28.035  1.00  0.00     0.031 A 
BRANCH  43  57
ATOM     57  C   UNL A   1      45.314  32.282  29.880  1.00  0.00    -0.014 A 
ATOM     58  C   UNL A   1      45.540  32.605  31.226  1.00  0.00     0.009 A 
ATOM     59  C   UNL A   1      45.518  33.265  28.899  1.00  0.00     0.009 A 
ATOM     60  C   UNL A   1      45.942  33.894  31.583  1.00  0.00     0.001 A 
ATOM     61  C   UNL A   1      45.942  34.545  29.257  1.00  0.00     0.001 A 
ATOM     62  C   UNL A   1      46.148  34.860  30.600  1.00  0.00     0.000 A 
ENDBRANCH  43  57
BRANCH  44  63
ATOM     63  C   UNL A   1      42.184  23.105  27.472  1.00  0.00    -0.014 A 
ATOM     64  C   UNL A   1      42.133  22.070  28.418  1.00  0.00     0.009 A 
ATOM     65  C   UNL A   1      41.833  22.825  26.141  1.00  0.00     0.009 A 
ATOM     66  C   UNL A   1      41.768  20.777  28.033  1.00  0.00     0.001 A 
ATOM     67  C   UNL A   1      41.439  21.540  25.766  1.00  0.00     0.001 A 
ATOM     68  C   UNL A   1      41.418  20.514  26.709  1.00  0.00     0.000 A 
ENDBRANCH  44  63
BRANCH  56  69
ATOM     69  C   UNL A   1      48.430  26.135  27.767  1.00  0.00    -0.014 A 
ATOM     70  C   UNL A   1      49.007  26.235  26.492  1.00  0.00     0.009 A 
ATOM     71  C   UNL A   1      49.176  25.573  28.814  1.00  0.00     0.009 A 
ATOM     72  C   UNL A   1      50.297  25.753  26.264  1.00  0.00     0.001 A 
ATOM     73  C   UNL A   1      50.475  25.115  28.589  1.00  0.00     0.001 A 
ATOM     74  C   UNL A   1      51.030  25.197  27.313  1.00  0.00     0.000 A 
ENDBRANCH  56  69
ENDBRANCH  30  31
ENDBRANCH  23  25
ENDBRANCH  22  23
ENDBRANCH  21  22
ENDBRANCH  20  21
ENDBRANCH   1  20
TORSDOF 17
ENDMDL
MODEL 3
REMARK VINA RESULT:      -9.1      7.213     10.512
REMARK SMILES COC[C@@H](C)CC(=O)N1[C@@H](C2CC2)SC[C@H]1C(=O)OCCOC(=O)c1ccc(-c2c3nc(c(-c4ccccc4)c4ccc([nH]4)c(-c4ccccc4)c4nc(c(-c5ccccc5)c5ccc2[nH]5)C=C4)C=C3)cc1
REMARK SMILES IDX 19 1 17 2 18 3 16 4 9 5 10 6 14 7 15 8 7 9 8 10 6 11 4 12
REMARK SMILES IDX 5 13 3 14 2 15 1 16 11 17 12 18 13 19 20 20 21 21 22 22
REMARK SMILES IDX 23 23 24 24 25 25 26 26 72 27 27 28 71 29 28 30 29 31 30 32
REMARK SMILES IDX 65 33 31 34 70 35 64 36 66 37 32 38 69 39 63 40 62 41 33 43
REMARK SMILES IDX 55 44 40 45 54 46 41 47 44 48 53 49 67 50 42 51 43 52 52 54
REMARK SMILES IDX 68 55 45 56 34 57 35 58 39 59 36 60 38 61 37 62 56 63 57 64
REMARK SMILES IDX 61 65 58 66 60 67 59 68 46 69 47 70 51 71 48 72 50 73 49 74
REMARK H PARENT 66 42 44 53
REMARK Flexibility Score: inf
ROOT
ATOM      1  O   UNL A   1      36.145  23.002  25.108  1.00  0.00    -0.461 OA
ENDROOT
BRANCH   1   2
ATOM      2  C   UNL A   1      34.954  23.474  24.664  1.00  0.00     0.329 C 
ATOM      3  O   UNL A   1      34.571  24.635  24.794  1.00  0.00    -0.250 OA
BRANCH   2   4
ATOM      4  C   UNL A   1      34.075  22.419  23.983  1.00  0.00     0.206 C 
ATOM      5  N   UNL A   1      33.072  21.672  24.744  1.00  0.00    -0.316 N 
ATOM      6  C   UNL A   1      31.764  22.284  24.744  1.00  0.00     0.147 C 
ATOM      7  S   UNL A   1      31.616  23.154  23.177  1.00  0.00    -0.134 SA
ATOM      8  C   UNL A   1      33.380  23.059  22.781  1.00  0.00     0.109 C 
BRANCH   5   9
ATOM      9  C   UNL A   1      33.434  20.502  25.379  1.00  0.00     0.224 C 
ATOM     10  O   UNL A   1      33.431  20.429  26.608  1.00  0.00    -0.275 OA
BRANCH   9  11
ATOM     11  C   UNL A   1      34.102  19.399  24.559  1.00  0.00     0.106 C 
BRANCH  11  12
ATOM     12  C   UNL A   1      33.241  18.302  23.905  1.00  0.00     0.021 C 
ATOM     13  C   UNL A   1      32.304  18.954  22.871  1.00  0.00     0.010 C 
BRANCH  12  14
ATOM     14  C   UNL A   1      32.425  17.527  24.957  1.00  0.00     0.163 C 
BRANCH  14  15
ATOM     15  O   UNL A   1      33.264  16.830  25.874  1.00  0.00    -0.384 OA
ATOM     16  C   UNL A   1      33.934  15.732  25.262  1.00  0.00     0.194 C 
ENDBRANCH  14  15
ENDBRANCH  12  14
ENDBRANCH  11  12
ENDBRANCH   9  11
ENDBRANCH   5   9
BRANCH   6  17
ATOM     17  C   UNL A   1      31.618  23.141  25.977  1.00  0.00     0.022 C 
ATOM     18  C   UNL A   1      30.632  24.282  26.140  1.00  0.00     0.007 C 
ATOM     19  C   UNL A   1      30.436  23.007  26.910  1.00  0.00     0.007 C 
ENDBRANCH   6  17
ENDBRANCH   2   4
ENDBRANCH   1   2
BRANCH   1  20
ATOM     20  C   UNL A   1      36.857  22.144  24.191  1.00  0.00     0.274 C 
BRANCH  20  21
ATOM     21  C   UNL A   1      37.467  20.963  24.933  1.00  0.00     0.275 C 
BRANCH  21  22
ATOM     22  O   UNL A   1      38.537  21.441  25.761  1.00  0.00    -0.458 OA
BRANCH  22  23
ATOM     23  C   UNL A   1      39.614  20.625  25.850  1.00  0.00     0.338 C 
ATOM     24  O   UNL A   1      39.677  19.438  25.596  1.00  0.00    -0.246 OA
BRANCH  23  25
ATOM     25  C   UNL A   1      40.727  21.411  26.404  1.00  0.00     0.060 A 
ATOM     26  C   UNL A   1      40.496  22.688  26.916  1.00  0.00     0.016 A 
ATOM     27  C   UNL A   1      42.015  20.886  26.365  1.00  0.00     0.016 A 
ATOM     28  C   UNL A   1      41.558  23.472  27.354  1.00  0.00     0.010 A 
ATOM     29  C   UNL A   1      43.074  21.646  26.863  1.00  0.00     0.010 A 
ATOM     30  C   UNL A   1      42.856  22.950  27.345  1.00  0.00    -0.014 A 
BRANCH  30  31
ATOM     31  C   UNL A   1      44.005  23.772  27.791  1.00  0.00     0.031 A 
ATOM     32  C   UNL A   1      44.263  23.947  29.259  1.00  0.00     0.074 A 
ATOM     33  C   UNL A   1      44.803  24.371  26.887  1.00  0.00     0.049 A 
ATOM     34  N   UNL A   1      45.062  24.788  29.864  1.00  0.00    -0.248 NA
ATOM     35  C   UNL A   1      43.516  23.062  30.170  1.00  0.00     0.031 C 
ATOM     36  C   UNL A   1      44.707  24.221  25.432  1.00  0.00     0.029 A 
ATOM     37  N   UNL A   1      45.851  25.239  27.063  1.00  0.00    -0.354 N 
ATOM     38  C   UNL A   1      44.891  24.557  31.223  1.00  0.00     0.074 A 
ATOM     39  C   UNL A   1      43.906  23.505  31.357  1.00  0.00     0.031 C 
ATOM     40  C   UNL A   1      45.658  24.969  24.851  1.00  0.00     0.029 A 
ATOM     41  C   UNL A   1      46.376  25.708  25.883  1.00  0.00     0.049 A 
ATOM     42  H   UNL A   1      46.193  25.501  27.948  1.00  0.00     0.167 HD
ATOM     43  C   UNL A   1      45.500  25.171  32.264  1.00  0.00     0.031 A 
ATOM     44  C   UNL A   1      47.295  26.665  25.658  1.00  0.00     0.031 A 
ATOM     45  C   UNL A   1      46.484  26.211  32.123  1.00  0.00     0.049 A 
ATOM     46  C   UNL A   1      47.886  27.399  26.830  1.00  0.00     0.074 A 
ATOM     47  C   UNL A   1      47.143  26.918  33.115  1.00  0.00     0.029 A 
ATOM     48  N   UNL A   1      46.960  26.681  30.910  1.00  0.00    -0.354 N 
ATOM     49  N   UNL A   1      47.674  27.217  28.111  1.00  0.00    -0.248 NA
ATOM     50  C   UNL A   1      48.830  28.482  26.522  1.00  0.00     0.031 C 
ATOM     51  C   UNL A   1      47.993  27.842  32.499  1.00  0.00     0.029 A 
ATOM     52  C   UNL A   1      47.897  27.676  31.126  1.00  0.00     0.049 A 
ATOM     53  H   UNL A   1      46.674  26.357  30.026  1.00  0.00     0.167 HD
ATOM     54  C   UNL A   1      48.473  28.147  28.761  1.00  0.00     0.074 A 
ATOM     55  C   UNL A   1      49.187  28.879  27.735  1.00  0.00     0.031 C 
ATOM     56  C   UNL A   1      48.601  28.382  30.089  1.00  0.00     0.031 A 
BRANCH  43  57
ATOM     57  C   UNL A   1      45.099  24.754  33.649  1.00  0.00    -0.014 A 
ATOM     58  C   UNL A   1      44.099  25.441  34.354  1.00  0.00     0.009 A 
ATOM     59  C   UNL A   1      45.698  23.629  34.238  1.00  0.00     0.009 A 
ATOM     60  C   UNL A   1      43.723  25.022  35.632  1.00  0.00     0.001 A 
ATOM     61  C   UNL A   1      45.304  23.199  35.506  1.00  0.00     0.001 A 
ATOM     62  C   UNL A   1      44.321  23.899  36.204  1.00  0.00     0.000 A 
ENDBRANCH  43  57
BRANCH  44  63
ATOM     63  C   UNL A   1      47.666  27.039  24.268  1.00  0.00    -0.014 A 
ATOM     64  C   UNL A   1      48.773  26.447  23.640  1.00  0.00     0.009 A 
ATOM     65  C   UNL A   1      46.934  28.016  23.574  1.00  0.00     0.009 A 
ATOM     66  C   UNL A   1      49.154  26.847  22.357  1.00  0.00     0.001 A 
ATOM     67  C   UNL A   1      47.299  28.391  22.279  1.00  0.00     0.001 A 
ATOM     68  C   UNL A   1      48.416  27.815  21.677  1.00  0.00     0.000 A 
ENDBRANCH  44  63
BRANCH  56  69
ATOM     69  C   UNL A   1      49.580  29.441  30.502  1.00  0.00    -0.014 A 
ATOM     70  C   UNL A   1      50.931  29.133  30.725  1.00  0.00     0.009 A 
ATOM     71  C   UNL A   1      49.150  30.770  30.635  1.00  0.00     0.009 A 
ATOM     72  C   UNL A   1      51.827  30.134  31.103  1.00  0.00     0.001 A 
ATOM     73  C   UNL A   1      50.054  31.772  30.990  1.00  0.00     0.001 A 
ATOM     74  C   UNL A   1      51.388  31.452  31.232  1.00  0.00     0.000 A 
ENDBRANCH  56  69
ENDBRANCH  30  31
ENDBRANCH  23  25
ENDBRANCH  22  23
ENDBRANCH  21  22
ENDBRANCH  20  21
ENDBRANCH   1  20
TORSDOF 17
ENDMDL
