MODEL 1
REMARK VINA RESULT:     -10.7      0.000      0.000
REMARK SMILES C[C@H](c1ccncc1)[N@H+]1[C@@H]2CC[C@H]1C[C@H](CC(=O)OCCOC(=O)c1ccc(-c3c4nc(c(-c5ccccc5)c5ccc([nH]5)c(-c5ccccc5)c5nc(c(-c6ccccc6)c6ccc3[nH]6)C=C5)C=C4)cc1)C2
REMARK SMILES IDX 20 1 19 2 17 3 18 4 16 5 15 6 9 7 10 8 13 9 11 11 73 12
REMARK SMILES IDX 12 13 14 14 2 15 1 16 3 17 4 18 8 19 5 20 7 21 6 22 21 23
REMARK SMILES IDX 22 24 23 25 24 26 25 27 26 28 72 29 27 30 71 31 28 32 29 33
REMARK SMILES IDX 30 34 65 35 31 36 70 37 64 38 66 39 32 40 69 41 63 42 62 43
REMARK SMILES IDX 33 45 55 46 40 47 54 48 41 49 44 50 53 51 67 52 42 53 43 54
REMARK SMILES IDX 52 56 68 57 45 58 34 59 35 60 39 61 36 62 38 63 37 64 56 65
REMARK SMILES IDX 57 66 61 67 58 68 60 69 59 70 46 71 47 72 51 73 48 74 50 75
REMARK SMILES IDX 49 76
REMARK H PARENT 9 10 66 44 44 55
REMARK Flexibility Score: inf
ROOT
ATOM      1  C   UNL A   1      38.507  21.182  25.357  1.00  0.00     0.274 C 
ENDROOT
BRANCH   1   2
ATOM      2  O   UNL A   1      37.291  21.176  24.589  1.00  0.00    -0.462 OA
BRANCH   2   3
ATOM      3  C   UNL A   1      36.873  22.385  24.151  1.00  0.00     0.306 C 
ATOM      4  O   UNL A   1      36.623  22.659  22.981  1.00  0.00    -0.252 OA
BRANCH   3   5
ATOM      5  C   UNL A   1      36.697  23.400  25.251  1.00  0.00     0.126 C 
BRANCH   5   6
ATOM      6  C   UNL A   1      35.372  23.465  26.027  1.00  0.00     0.012 C 
ATOM      7  N   UNL A   1      33.181  21.532  25.724  1.00  0.00    -0.324 N 
ATOM      8  C   UNL A   1      33.909  21.501  26.981  1.00  0.00     0.185 C 
ATOM      9  C   UNL A   1      32.905  22.943  25.488  1.00  0.00     0.185 C 
ATOM     10  H   UNL A   1      32.352  20.951  25.852  1.00  0.00     0.349 HD
ATOM     11  C   UNL A   1      32.954  22.339  27.838  1.00  0.00     0.071 C 
ATOM     12  C   UNL A   1      35.282  22.194  26.916  1.00  0.00     0.069 C 
ATOM     13  C   UNL A   1      32.419  23.398  26.875  1.00  0.00     0.071 C 
ATOM     14  C   UNL A   1      34.178  23.675  25.072  1.00  0.00     0.069 C 
BRANCH   7  15
ATOM     15  C   UNL A   1      33.459  20.661  24.583  1.00  0.00     0.212 C 
ATOM     16  C   UNL A   1      32.396  20.928  23.506  1.00  0.00     0.081 C 
BRANCH  15  17
ATOM     17  C   UNL A   1      33.621  19.165  24.804  1.00  0.00     0.012 A 
ATOM     18  C   UNL A   1      34.786  18.473  24.450  1.00  0.00     0.030 A 
ATOM     19  C   UNL A   1      32.608  18.434  25.443  1.00  0.00     0.030 A 
ATOM     20  C   UNL A   1      34.859  17.106  24.679  1.00  0.00     0.111 A 
ATOM     21  C   UNL A   1      32.778  17.068  25.639  1.00  0.00     0.111 A 
ATOM     22  N   UNL A   1      33.877  16.387  25.258  1.00  0.00    -0.265 NA
ENDBRANCH  15  17
ENDBRANCH   7  15
ENDBRANCH   5   6
ENDBRANCH   3   5
ENDBRANCH   2   3
ENDBRANCH   1   2
BRANCH   1  23
ATOM     23  C   UNL A   1      39.190  19.822  25.239  1.00  0.00     0.275 C 
BRANCH  23  24
ATOM     24  O   UNL A   1      40.152  19.652  26.299  1.00  0.00    -0.458 OA
BRANCH  24  25
ATOM     25  C   UNL A   1      41.441  19.866  25.959  1.00  0.00     0.338 C 
ATOM     26  O   UNL A   1      42.159  19.162  25.260  1.00  0.00    -0.246 OA
BRANCH  25  27
ATOM     27  C   UNL A   1      41.908  21.126  26.547  1.00  0.00     0.060 A 
ATOM     28  C   UNL A   1      41.985  21.255  27.933  1.00  0.00     0.016 A 
ATOM     29  C   UNL A   1      42.161  22.223  25.726  1.00  0.00     0.016 A 
ATOM     30  C   UNL A   1      42.236  22.495  28.510  1.00  0.00     0.010 A 
ATOM     31  C   UNL A   1      42.518  23.444  26.305  1.00  0.00     0.010 A 
ATOM     32  C   UNL A   1      42.538  23.599  27.704  1.00  0.00    -0.014 A 
BRANCH  32  33
ATOM     33  C   UNL A   1      42.884  24.909  28.313  1.00  0.00     0.031 A 
ATOM     34  C   UNL A   1      41.812  25.933  28.567  1.00  0.00     0.074 A 
ATOM     35  C   UNL A   1      44.165  25.193  28.622  1.00  0.00     0.049 A 
ATOM     36  N   UNL A   1      41.936  27.196  28.887  1.00  0.00    -0.248 NA
ATOM     37  C   UNL A   1      40.419  25.479  28.433  1.00  0.00     0.031 C 
ATOM     38  C   UNL A   1      45.299  24.275  28.483  1.00  0.00     0.029 A 
ATOM     39  N   UNL A   1      44.729  26.343  29.116  1.00  0.00    -0.354 N 
ATOM     40  C   UNL A   1      40.643  27.700  28.936  1.00  0.00     0.074 A 
ATOM     41  C   UNL A   1      39.749  26.608  28.619  1.00  0.00     0.031 C 
ATOM     42  C   UNL A   1      46.415  24.889  28.905  1.00  0.00     0.029 A 
ATOM     43  C   UNL A   1      46.093  26.265  29.260  1.00  0.00     0.049 A 
ATOM     44  H   UNL A   1      44.207  27.145  29.345  1.00  0.00     0.167 HD
ATOM     45  C   UNL A   1      40.240  28.964  29.213  1.00  0.00     0.031 A 
ATOM     46  C   UNL A   1      46.995  27.207  29.589  1.00  0.00     0.031 A 
ATOM     47  C   UNL A   1      41.129  30.042  29.558  1.00  0.00     0.049 A 
ATOM     48  C   UNL A   1      46.530  28.610  29.838  1.00  0.00     0.074 A 
ATOM     49  C   UNL A   1      40.816  31.355  29.863  1.00  0.00     0.029 A 
ATOM     50  N   UNL A   1      42.506  29.924  29.656  1.00  0.00    -0.354 N 
ATOM     51  N   UNL A   1      45.311  29.089  29.824  1.00  0.00    -0.248 NA
ATOM     52  C   UNL A   1      47.571  29.607  30.127  1.00  0.00     0.031 C 
ATOM     53  C   UNL A   1      42.010  32.043  30.110  1.00  0.00     0.029 A 
ATOM     54  C   UNL A   1      43.060  31.147  30.000  1.00  0.00     0.049 A 
ATOM     55  H   UNL A   1      43.016  29.096  29.503  1.00  0.00     0.167 HD
ATOM     56  C   UNL A   1      45.435  30.441  30.108  1.00  0.00     0.074 A 
ATOM     57  C   UNL A   1      46.846  30.702  30.310  1.00  0.00     0.031 C 
ATOM     58  C   UNL A   1      44.467  31.386  30.189  1.00  0.00     0.031 A 
BRANCH  45  59
ATOM     59  C   UNL A   1      38.771  29.257  29.109  1.00  0.00    -0.014 A 
ATOM     60  C   UNL A   1      37.919  29.151  30.218  1.00  0.00     0.009 A 
ATOM     61  C   UNL A   1      38.237  29.674  27.878  1.00  0.00     0.009 A 
ATOM     62  C   UNL A   1      36.555  29.425  30.089  1.00  0.00     0.001 A 
ATOM     63  C   UNL A   1      36.879  29.970  27.758  1.00  0.00     0.001 A 
ATOM     64  C   UNL A   1      36.037  29.837  28.862  1.00  0.00     0.000 A 
ENDBRANCH  45  59
BRANCH  46  65
ATOM     65  C   UNL A   1      48.438  26.861  29.642  1.00  0.00    -0.014 A 
ATOM     66  C   UNL A   1      49.018  26.403  30.834  1.00  0.00     0.009 A 
ATOM     67  C   UNL A   1      49.240  26.974  28.494  1.00  0.00     0.009 A 
ATOM     68  C   UNL A   1      50.376  26.079  30.878  1.00  0.00     0.001 A 
ATOM     69  C   UNL A   1      50.590  26.622  28.535  1.00  0.00     0.001 A 
ATOM     70  C   UNL A   1      51.159  26.182  29.729  1.00  0.00     0.000 A 
ENDBRANCH  46  65
BRANCH  58  71
ATOM     71  C   UNL A   1      44.906  32.778  30.531  1.00  0.00    -0.014 A 
ATOM     72  C   UNL A   1      45.312  33.674  29.530  1.00  0.00     0.009 A 
ATOM     73  C   UNL A   1      44.892  33.205  31.867  1.00  0.00     0.009 A 
ATOM     74  C   UNL A   1      45.724  34.964  29.866  1.00  0.00     0.001 A 
ATOM     75  C   UNL A   1      45.283  34.503  32.197  1.00  0.00     0.001 A 
ATOM     76  C   UNL A   1      45.706  35.378  31.198  1.00  0.00     0.000 A 
ENDBRANCH  58  71
ENDBRANCH  32  33
ENDBRANCH  25  27
ENDBRANCH  24  25
ENDBRANCH  23  24
ENDBRANCH   1  23
TORSDOF 14
ENDMDL
MODEL 2
REMARK VINA RESULT:     -10.6      4.990      9.496
REMARK SMILES C[C@H](c1ccncc1)[N@H+]1[C@@H]2CC[C@H]1C[C@H](CC(=O)OCCOC(=O)c1ccc(-c3c4nc(c(-c5ccccc5)c5ccc([nH]5)c(-c5ccccc5)c5nc(c(-c6ccccc6)c6ccc3[nH]6)C=C5)C=C4)cc1)C2
REMARK SMILES IDX 20 1 19 2 17 3 18 4 16 5 15 6 9 7 10 8 13 9 11 11 73 12
REMARK SMILES IDX 12 13 14 14 2 15 1 16 3 17 4 18 8 19 5 20 7 21 6 22 21 23
REMARK SMILES IDX 22 24 23 25 24 26 25 27 26 28 72 29 27 30 71 31 28 32 29 33
REMARK SMILES IDX 30 34 65 35 31 36 70 37 64 38 66 39 32 40 69 41 63 42 62 43
REMARK SMILES IDX 33 45 55 46 40 47 54 48 41 49 44 50 53 51 67 52 42 53 43 54
REMARK SMILES IDX 52 56 68 57 45 58 34 59 35 60 39 61 36 62 38 63 37 64 56 65
REMARK SMILES IDX 57 66 61 67 58 68 60 69 59 70 46 71 47 72 51 73 48 74 50 75
REMARK SMILES IDX 49 76
REMARK H PARENT 9 10 66 44 44 55
REMARK Flexibility Score: inf
ROOT
ATOM      1  C   UNL A   1      32.464  30.944  26.920  1.00  0.00     0.274 C 
ENDROOT
BRANCH   1   2
ATOM      2  O   UNL A   1      31.544  29.839  26.892  1.00  0.00    -0.462 OA
BRANCH   2   3
ATOM      3  C   UNL A   1      32.048  28.651  27.296  1.00  0.00     0.306 C 
ATOM      4  O   UNL A   1      31.442  27.826  27.973  1.00  0.00    -0.252 OA
BRANCH   3   5
ATOM      5  C   UNL A   1      33.449  28.390  26.807  1.00  0.00     0.126 C 
BRANCH   5   6
ATOM      6  C   UNL A   1      33.670  27.731  25.436  1.00  0.00     0.012 C 
ATOM      7  N   UNL A   1      31.599  27.481  23.368  1.00  0.00    -0.324 N 
ATOM      8  C   UNL A   1      32.687  28.405  23.094  1.00  0.00     0.185 C 
ATOM      9  C   UNL A   1      32.251  26.272  23.853  1.00  0.00     0.185 C 
ATOM     10  H   UNL A   1      31.085  27.367  22.494  1.00  0.00     0.349 HD
ATOM     11  C   UNL A   1      33.563  27.499  22.222  1.00  0.00     0.071 C 
ATOM     12  C   UNL A   1      33.472  28.824  24.349  1.00  0.00     0.069 C 
ATOM     13  C   UNL A   1      33.395  26.111  22.839  1.00  0.00     0.071 C 
ATOM     14  C   UNL A   1      32.780  26.481  25.270  1.00  0.00     0.069 C 
BRANCH   7  15
ATOM     15  C   UNL A   1      30.305  27.867  23.930  1.00  0.00     0.212 C 
ATOM     16  C   UNL A   1      29.388  26.635  23.911  1.00  0.00     0.081 C 
BRANCH  15  17
ATOM     17  C   UNL A   1      29.575  29.077  23.368  1.00  0.00     0.012 A 
ATOM     18  C   UNL A   1      28.623  28.975  22.346  1.00  0.00     0.030 A 
ATOM     19  C   UNL A   1      29.795  30.350  23.916  1.00  0.00     0.030 A 
ATOM     20  C   UNL A   1      28.001  30.125  21.880  1.00  0.00     0.111 A 
ATOM     21  C   UNL A   1      29.115  31.442  23.390  1.00  0.00     0.111 A 
ATOM     22  N   UNL A   1      28.233  31.358  22.375  1.00  0.00    -0.265 NA
ENDBRANCH  15  17
ENDBRANCH   7  15
ENDBRANCH   5   6
ENDBRANCH   3   5
ENDBRANCH   2   3
ENDBRANCH   1   2
BRANCH   1  23
ATOM     23  C   UNL A   1      31.721  32.215  27.322  1.00  0.00     0.275 C 
BRANCH  23  24
ATOM     24  O   UNL A   1      32.566  33.369  27.136  1.00  0.00    -0.458 OA
BRANCH  24  25
ATOM     25  C   UNL A   1      33.033  33.940  28.267  1.00  0.00     0.338 C 
ATOM     26  O   UNL A   1      32.487  34.791  28.959  1.00  0.00    -0.246 OA
BRANCH  25  27
ATOM     27  C   UNL A   1      34.347  33.379  28.601  1.00  0.00     0.060 A 
ATOM     28  C   UNL A   1      34.475  32.521  29.692  1.00  0.00     0.016 A 
ATOM     29  C   UNL A   1      35.478  33.794  27.900  1.00  0.00     0.016 A 
ATOM     30  C   UNL A   1      35.734  32.135  30.139  1.00  0.00     0.010 A 
ATOM     31  C   UNL A   1      36.735  33.322  28.286  1.00  0.00     0.010 A 
ATOM     32  C   UNL A   1      36.879  32.504  29.423  1.00  0.00    -0.014 A 
BRANCH  32  33
ATOM     33  C   UNL A   1      38.222  32.033  29.849  1.00  0.00     0.031 A 
ATOM     34  C   UNL A   1      38.771  30.736  29.324  1.00  0.00     0.074 A 
ATOM     35  C   UNL A   1      38.945  32.759  30.725  1.00  0.00     0.049 A 
ATOM     36  N   UNL A   1      39.813  30.056  29.730  1.00  0.00    -0.248 NA
ATOM     37  C   UNL A   1      38.048  30.118  28.202  1.00  0.00     0.031 C 
ATOM     38  C   UNL A   1      38.562  34.063  31.274  1.00  0.00     0.029 A 
ATOM     39  N   UNL A   1      40.158  32.497  31.312  1.00  0.00    -0.354 N 
ATOM     40  C   UNL A   1      39.837  28.905  28.954  1.00  0.00     0.074 A 
ATOM     41  C   UNL A   1      38.710  28.978  28.049  1.00  0.00     0.031 C 
ATOM     42  C   UNL A   1      39.530  34.496  32.094  1.00  0.00     0.029 A 
ATOM     43  C   UNL A   1      40.557  33.467  32.199  1.00  0.00     0.049 A 
ATOM     44  H   UNL A   1      40.690  31.693  31.116  1.00  0.00     0.167 HD
ATOM     45  C   UNL A   1      40.716  27.874  28.999  1.00  0.00     0.031 A 
ATOM     46  C   UNL A   1      41.603  33.506  33.044  1.00  0.00     0.031 A 
ATOM     47  C   UNL A   1      41.854  27.816  29.879  1.00  0.00     0.049 A 
ATOM     48  C   UNL A   1      42.531  32.331  33.113  1.00  0.00     0.074 A 
ATOM     49  C   UNL A   1      42.807  26.820  29.994  1.00  0.00     0.029 A 
ATOM     50  N   UNL A   1      42.198  28.806  30.786  1.00  0.00    -0.354 N 
ATOM     51  N   UNL A   1      42.511  31.222  32.417  1.00  0.00    -0.248 NA
ATOM     52  C   UNL A   1      43.615  32.406  34.104  1.00  0.00     0.031 C 
ATOM     53  C   UNL A   1      43.708  27.190  30.999  1.00  0.00     0.029 A 
ATOM     54  C   UNL A   1      43.339  28.436  31.477  1.00  0.00     0.049 A 
ATOM     55  H   UNL A   1      41.704  29.647  30.920  1.00  0.00     0.167 HD
ATOM     56  C   UNL A   1      43.580  30.468  32.879  1.00  0.00     0.074 A 
ATOM     57  C   UNL A   1      44.241  31.254  33.900  1.00  0.00     0.031 C 
ATOM     58  C   UNL A   1      43.976  29.230  32.495  1.00  0.00     0.031 A 
BRANCH  45  59
ATOM     59  C   UNL A   1      40.453  26.703  28.097  1.00  0.00    -0.014 A 
ATOM     60  C   UNL A   1      41.011  26.622  26.814  1.00  0.00     0.009 A 
ATOM     61  C   UNL A   1      39.648  25.647  28.557  1.00  0.00     0.009 A 
ATOM     62  C   UNL A   1      40.743  25.523  25.995  1.00  0.00     0.001 A 
ATOM     63  C   UNL A   1      39.401  24.539  27.746  1.00  0.00     0.001 A 
ATOM     64  C   UNL A   1      39.942  24.481  26.463  1.00  0.00     0.000 A 
ENDBRANCH  45  59
BRANCH  46  65
ATOM     65  C   UNL A   1      41.790  34.679  33.935  1.00  0.00    -0.014 A 
ATOM     66  C   UNL A   1      42.549  35.781  33.513  1.00  0.00     0.009 A 
ATOM     67  C   UNL A   1      41.197  34.709  35.207  1.00  0.00     0.009 A 
ATOM     68  C   UNL A   1      42.722  36.882  34.355  1.00  0.00     0.001 A 
ATOM     69  C   UNL A   1      41.348  35.823  36.034  1.00  0.00     0.001 A 
ATOM     70  C   UNL A   1      42.116  36.905  35.611  1.00  0.00     0.000 A 
ENDBRANCH  46  65
BRANCH  58  71
ATOM     71  C   UNL A   1      45.192  28.669  33.171  1.00  0.00    -0.014 A 
ATOM     72  C   UNL A   1      45.077  27.879  34.324  1.00  0.00     0.009 A 
ATOM     73  C   UNL A   1      46.464  28.916  32.633  1.00  0.00     0.009 A 
ATOM     74  C   UNL A   1      46.219  27.370  34.944  1.00  0.00     0.001 A 
ATOM     75  C   UNL A   1      47.601  28.386  33.242  1.00  0.00     0.001 A 
ATOM     76  C   UNL A   1      47.479  27.621  34.401  1.00  0.00     0.000 A 
ENDBRANCH  58  71
ENDBRANCH  32  33
ENDBRANCH  25  27
ENDBRANCH  24  25
ENDBRANCH  23  24
ENDBRANCH   1  23
TORSDOF 14
ENDMDL
MODEL 3
REMARK VINA RESULT:     -10.6      2.451      7.170
REMARK SMILES C[C@H](c1ccncc1)[N@H+]1[C@@H]2CC[C@H]1C[C@H](CC(=O)OCCOC(=O)c1ccc(-c3c4nc(c(-c5ccccc5)c5ccc([nH]5)c(-c5ccccc5)c5nc(c(-c6ccccc6)c6ccc3[nH]6)C=C5)C=C4)cc1)C2
REMARK SMILES IDX 20 1 19 2 17 3 18 4 16 5 15 6 9 7 10 8 13 9 11 11 73 12
REMARK SMILES IDX 12 13 14 14 2 15 1 16 3 17 4 18 8 19 5 20 7 21 6 22 21 23
REMARK SMILES IDX 22 24 23 25 24 26 25 27 26 28 72 29 27 30 71 31 28 32 29 33
REMARK SMILES IDX 30 34 65 35 31 36 70 37 64 38 66 39 32 40 69 41 63 42 62 43
REMARK SMILES IDX 33 45 55 46 40 47 54 48 41 49 44 50 53 51 67 52 42 53 43 54
REMARK SMILES IDX 52 56 68 57 45 58 34 59 35 60 39 61 36 62 38 63 37 64 56 65
REMARK SMILES IDX 57 66 61 67 58 68 60 69 59 70 46 71 47 72 51 73 48 74 50 75
REMARK SMILES IDX 49 76
REMARK H PARENT 9 10 66 44 44 55
REMARK Flexibility Score: inf
ROOT
ATOM      1  C   UNL A   1      33.114  28.330  25.553  1.00  0.00     0.274 C 
ENDROOT
BRANCH   1   2
ATOM      2  O   UNL A   1      33.249  27.235  26.476  1.00  0.00    -0.462 OA
BRANCH   2   3
ATOM      3  C   UNL A   1      32.494  26.146  26.203  1.00  0.00     0.306 C 
ATOM      4  O   UNL A   1      31.571  25.740  26.902  1.00  0.00    -0.252 OA
BRANCH   3   5
ATOM      5  C   UNL A   1      32.861  25.465  24.910  1.00  0.00     0.126 C 
BRANCH   5   6
ATOM      6  C   UNL A   1      34.274  24.891  24.722  1.00  0.00     0.012 C 
ATOM      7  N   UNL A   1      34.889  22.022  24.582  1.00  0.00    -0.324 N 
ATOM      8  C   UNL A   1      35.040  22.782  23.353  1.00  0.00     0.185 C 
ATOM      9  C   UNL A   1      35.547  22.828  25.602  1.00  0.00     0.185 C 
ATOM     10  H   UNL A   1      35.317  21.111  24.417  1.00  0.00     0.349 HD
ATOM     11  C   UNL A   1      36.551  23.029  23.402  1.00  0.00     0.071 C 
ATOM     12  C   UNL A   1      34.299  24.130  23.367  1.00  0.00     0.069 C 
ATOM     13  C   UNL A   1      36.850  23.223  24.888  1.00  0.00     0.071 C 
ATOM     14  C   UNL A   1      34.701  24.051  25.945  1.00  0.00     0.069 C 
BRANCH   7  15
ATOM     15  C   UNL A   1      33.697  21.254  24.942  1.00  0.00     0.212 C 
ATOM     16  C   UNL A   1      33.699  21.052  26.465  1.00  0.00     0.081 C 
BRANCH  15  17
ATOM     17  C   UNL A   1      33.414  19.937  24.236  1.00  0.00     0.012 A 
ATOM     18  C   UNL A   1      32.483  19.824  23.195  1.00  0.00     0.030 A 
ATOM     19  C   UNL A   1      34.141  18.785  24.574  1.00  0.00     0.030 A 
ATOM     20  C   UNL A   1      32.275  18.587  22.601  1.00  0.00     0.111 A 
ATOM     21  C   UNL A   1      33.869  17.592  23.914  1.00  0.00     0.111 A 
ATOM     22  N   UNL A   1      32.942  17.467  22.944  1.00  0.00    -0.265 NA
ENDBRANCH  15  17
ENDBRANCH   7  15
ENDBRANCH   5   6
ENDBRANCH   3   5
ENDBRANCH   2   3
ENDBRANCH   1   2
BRANCH   1  23
ATOM     23  C   UNL A   1      33.324  29.648  26.293  1.00  0.00     0.275 C 
BRANCH  23  24
ATOM     24  O   UNL A   1      33.949  29.410  27.570  1.00  0.00    -0.458 OA
BRANCH  24  25
ATOM     25  C   UNL A   1      34.615  30.458  28.101  1.00  0.00     0.338 C 
ATOM     26  O   UNL A   1      34.174  31.570  28.367  1.00  0.00    -0.246 OA
BRANCH  25  27
ATOM     27  C   UNL A   1      36.011  30.084  28.354  1.00  0.00     0.060 A 
ATOM     28  C   UNL A   1      36.951  30.190  27.331  1.00  0.00     0.016 A 
ATOM     29  C   UNL A   1      36.367  29.518  29.576  1.00  0.00     0.016 A 
ATOM     30  C   UNL A   1      38.227  29.661  27.491  1.00  0.00     0.010 A 
ATOM     31  C   UNL A   1      37.680  29.083  29.774  1.00  0.00     0.010 A 
ATOM     32  C   UNL A   1      38.619  29.130  28.725  1.00  0.00    -0.014 A 
BRANCH  32  33
ATOM     33  C   UNL A   1      40.004  28.633  28.930  1.00  0.00     0.031 A 
ATOM     34  C   UNL A   1      41.072  29.559  29.445  1.00  0.00     0.074 A 
ATOM     35  C   UNL A   1      40.313  27.355  28.637  1.00  0.00     0.049 A 
ATOM     36  N   UNL A   1      42.368  29.381  29.488  1.00  0.00    -0.248 NA
ATOM     37  C   UNL A   1      40.625  30.859  29.968  1.00  0.00     0.031 C 
ATOM     38  C   UNL A   1      39.367  26.331  28.184  1.00  0.00     0.029 A 
ATOM     39  N   UNL A   1      41.518  26.698  28.673  1.00  0.00    -0.354 N 
ATOM     40  C   UNL A   1      42.894  30.564  29.989  1.00  0.00     0.074 A 
ATOM     41  C   UNL A   1      41.780  31.452  30.238  1.00  0.00     0.031 C 
ATOM     42  C   UNL A   1      40.022  25.174  28.009  1.00  0.00     0.029 A 
ATOM     43  C   UNL A   1      41.442  25.393  28.252  1.00  0.00     0.049 A 
ATOM     44  H   UNL A   1      42.355  27.122  28.971  1.00  0.00     0.167 HD
ATOM     45  C   UNL A   1      44.192  30.883  30.211  1.00  0.00     0.031 A 
ATOM     46  C   UNL A   1      42.410  24.485  28.032  1.00  0.00     0.031 A 
ATOM     47  C   UNL A   1      45.297  29.988  29.991  1.00  0.00     0.049 A 
ATOM     48  C   UNL A   1      43.842  24.878  28.234  1.00  0.00     0.074 A 
ATOM     49  C   UNL A   1      46.647  30.215  30.193  1.00  0.00     0.029 A 
ATOM     50  N   UNL A   1      45.175  28.687  29.529  1.00  0.00    -0.354 N 
ATOM     51  N   UNL A   1      44.332  26.020  28.651  1.00  0.00    -0.248 NA
ATOM     52  C   UNL A   1      44.856  23.863  27.913  1.00  0.00     0.031 C 
ATOM     53  C   UNL A   1      47.346  29.062  29.818  1.00  0.00     0.029 A 
ATOM     54  C   UNL A   1      46.427  28.104  29.423  1.00  0.00     0.049 A 
ATOM     55  H   UNL A   1      44.325  28.242  29.307  1.00  0.00     0.167 HD
ATOM     56  C   UNL A   1      45.711  25.860  28.649  1.00  0.00     0.074 A 
ATOM     57  C   UNL A   1      45.978  24.506  28.209  1.00  0.00     0.031 C 
ATOM     58  C   UNL A   1      46.671  26.758  28.976  1.00  0.00     0.031 A 
BRANCH  45  59
ATOM     59  C   UNL A   1      44.489  32.279  30.678  1.00  0.00    -0.014 A 
ATOM     60  C   UNL A   1      44.585  32.593  32.042  1.00  0.00     0.009 A 
ATOM     61  C   UNL A   1      44.702  33.293  29.729  1.00  0.00     0.009 A 
ATOM     62  C   UNL A   1      44.856  33.902  32.446  1.00  0.00     0.001 A 
ATOM     63  C   UNL A   1      44.996  34.594  30.136  1.00  0.00     0.001 A 
ATOM     64  C   UNL A   1      45.065  34.900  31.495  1.00  0.00     0.000 A 
ENDBRANCH  45  59
BRANCH  46  65
ATOM     65  C   UNL A   1      42.054  23.130  27.537  1.00  0.00    -0.014 A 
ATOM     66  C   UNL A   1      41.603  22.143  28.425  1.00  0.00     0.009 A 
ATOM     67  C   UNL A   1      42.149  22.824  26.170  1.00  0.00     0.009 A 
ATOM     68  C   UNL A   1      41.270  20.871  27.955  1.00  0.00     0.001 A 
ATOM     69  C   UNL A   1      41.788  21.561  25.700  1.00  0.00     0.001 A 
ATOM     70  C   UNL A   1      41.356  20.583  26.593  1.00  0.00     0.000 A 
ENDBRANCH  46  65
BRANCH  58  71
ATOM     71  C   UNL A   1      48.093  26.289  28.890  1.00  0.00    -0.014 A 
ATOM     72  C   UNL A   1      48.817  26.395  27.693  1.00  0.00     0.009 A 
ATOM     73  C   UNL A   1      48.722  25.758  30.027  1.00  0.00     0.009 A 
ATOM     74  C   UNL A   1      50.138  25.948  27.628  1.00  0.00     0.001 A 
ATOM     75  C   UNL A   1      50.049  25.333  29.964  1.00  0.00     0.001 A 
ATOM     76  C   UNL A   1      50.753  25.421  28.764  1.00  0.00     0.000 A 
ENDBRANCH  58  71
ENDBRANCH  32  33
ENDBRANCH  25  27
ENDBRANCH  24  25
ENDBRANCH  23  24
ENDBRANCH   1  23
TORSDOF 14
ENDMDL
