MODEL 1
REMARK VINA RESULT:     -12.3      0.000      0.000
REMARK SMILES Cc1cc(OCC(=O)OCCOC(=O)c2ccc(-c3c4nc(c(-c5ccccc5)c5ccc([nH]5)c(-c5ccccc5)c5nc(c(-c6ccccc6)c6ccc3[nH]6)C=C5)C=C4)cc2)ccc1NC(=O)c1ccc(N2C(=O)[C@@H]3[C@H](C2=O)[C@H]2C=C[C@@H]3C2)cc1
REMARK SMILES IDX 9 1 7 2 8 3 6 4 5 5 4 6 1 7 2 8 3 9 65 10 64 11 63 12 66 13
REMARK SMILES IDX 67 14 68 16 69 17 70 18 86 19 71 20 85 21 72 22 73 23 74 24
REMARK SMILES IDX 78 25 75 26 76 27 77 28 79 29 83 30 80 31 82 32 84 33 81 34
REMARK SMILES IDX 10 35 11 36 12 37 13 38 14 39 15 40 16 41 62 42 17 43 61 44
REMARK SMILES IDX 18 45 19 46 20 47 55 48 21 49 60 50 54 51 56 52 22 53 59 54
REMARK SMILES IDX 53 55 52 56 23 58 45 59 30 60 44 61 31 62 34 63 43 64 57 65
REMARK SMILES IDX 32 66 33 67 42 69 58 70 35 71 24 72 25 73 29 74 26 75 28 76
REMARK SMILES IDX 27 77 46 78 47 79 51 80 48 81 50 82 49 83 36 84 37 85 41 86
REMARK SMILES IDX 38 87 40 88 39 89
REMARK H PARENT 66 15 56 57 34 68
REMARK Flexibility Score: inf
ROOT
ATOM      1  O   UNL A   1      41.600  20.237  26.054  1.00  0.00    -0.460 OA
ENDROOT
BRANCH   1   2
ATOM      2  C   UNL A   1      41.050  21.055  26.984  1.00  0.00     0.344 C 
ATOM      3  O   UNL A   1      41.591  21.381  28.031  1.00  0.00    -0.248 OA
BRANCH   2   4
ATOM      4  C   UNL A   1      39.709  21.598  26.490  1.00  0.00     0.351 C 
BRANCH   4   5
ATOM      5  O   UNL A   1      39.283  21.208  25.191  1.00  0.00    -0.482 OA
BRANCH   5   6
ATOM      6  C   UNL A   1      37.947  20.972  25.032  1.00  0.00     0.120 A 
ATOM      7  C   UNL A   1      35.951  17.776  24.813  1.00  0.00     0.047 C 
ATOM      8  C   UNL A   1      36.226  19.254  24.807  1.00  0.00    -0.024 A 
ATOM      9  C   UNL A   1      37.571  19.635  24.999  1.00  0.00     0.052 A 
ATOM     10  C   UNL A   1      35.241  20.246  24.627  1.00  0.00     0.044 A 
ATOM     11  C   UNL A   1      35.625  21.587  24.708  1.00  0.00     0.030 A 
ATOM     12  C   UNL A   1      36.964  21.948  24.931  1.00  0.00     0.048 A 
BRANCH  10  13
ATOM     13  N   UNL A   1      33.884  19.880  24.520  1.00  0.00    -0.322 N 
ATOM     14  C   UNL A   1      32.734  20.449  25.029  1.00  0.00     0.255 C 
ATOM     15  H   UNL A   1      33.727  19.069  23.985  1.00  0.00     0.170 HD
ATOM     16  O   UNL A   1      31.762  19.731  25.269  1.00  0.00    -0.269 OA
BRANCH  14  17
ATOM     17  C   UNL A   1      32.552  21.918  25.126  1.00  0.00     0.040 A 
ATOM     18  C   UNL A   1      32.237  22.654  23.982  1.00  0.00     0.016 A 
ATOM     19  C   UNL A   1      32.881  22.606  26.290  1.00  0.00     0.016 A 
ATOM     20  C   UNL A   1      32.143  24.059  24.036  1.00  0.00     0.027 A 
ATOM     21  C   UNL A   1      32.825  24.014  26.324  1.00  0.00     0.027 A 
ATOM     22  C   UNL A   1      32.402  24.772  25.219  1.00  0.00     0.052 A 
BRANCH  22  23
ATOM     23  N   UNL A   1      32.229  26.197  25.297  1.00  0.00    -0.250 N 
ATOM     24  C   UNL A   1      31.241  26.812  26.047  1.00  0.00     0.238 C 
ATOM     25  C   UNL A   1      33.080  27.121  24.721  1.00  0.00     0.238 C 
ATOM     26  O   UNL A   1      30.398  26.308  26.780  1.00  0.00    -0.274 OA
ATOM     27  C   UNL A   1      31.371  28.305  25.927  1.00  0.00     0.099 C 
ATOM     28  C   UNL A   1      32.577  28.512  25.001  1.00  0.00     0.099 C 
ATOM     29  O   UNL A   1      34.111  26.938  24.085  1.00  0.00    -0.274 OA
ATOM     30  C   UNL A   1      31.812  29.008  27.234  1.00  0.00     0.025 C 
ATOM     31  C   UNL A   1      33.555  29.335  25.867  1.00  0.00     0.025 C 
ATOM     32  C   UNL A   1      31.878  30.492  26.937  1.00  0.00    -0.027 C 
ATOM     33  C   UNL A   1      33.320  28.735  27.260  1.00  0.00     0.017 C 
ATOM     34  C   UNL A   1      32.919  30.686  26.111  1.00  0.00    -0.027 C 
ENDBRANCH  22  23
ENDBRANCH  14  17
ENDBRANCH  10  13
ENDBRANCH   5   6
ENDBRANCH   4   5
ENDBRANCH   2   4
ENDBRANCH   1   2
BRANCH   1  35
ATOM     35  C   UNL A   1      42.644  19.380  26.498  1.00  0.00     0.274 C 
BRANCH  35  36
ATOM     36  C   UNL A   1      43.566  19.060  25.321  1.00  0.00     0.275 C 
BRANCH  36  37
ATOM     37  O   UNL A   1      44.298  20.174  24.703  1.00  0.00    -0.458 OA
BRANCH  37  38
ATOM     38  C   UNL A   1      45.406  20.862  25.059  1.00  0.00     0.338 C 
ATOM     39  O   UNL A   1      46.539  20.437  24.955  1.00  0.00    -0.246 OA
BRANCH  38  40
ATOM     40  C   UNL A   1      45.191  22.233  25.493  1.00  0.00     0.060 A 
ATOM     41  C   UNL A   1      45.415  23.298  24.603  1.00  0.00     0.016 A 
ATOM     42  C   UNL A   1      44.688  22.424  26.764  1.00  0.00     0.016 A 
ATOM     43  C   UNL A   1      45.010  24.576  24.963  1.00  0.00     0.010 A 
ATOM     44  C   UNL A   1      44.183  23.651  27.070  1.00  0.00     0.010 A 
ATOM     45  C   UNL A   1      44.374  24.733  26.191  1.00  0.00    -0.014 A 
BRANCH  45  46
ATOM     46  C   UNL A   1      44.076  26.007  26.817  1.00  0.00     0.031 A 
ATOM     47  C   UNL A   1      42.770  26.669  26.741  1.00  0.00     0.074 A 
ATOM     48  C   UNL A   1      45.034  26.366  27.698  1.00  0.00     0.049 A 
ATOM     49  N   UNL A   1      42.555  27.861  27.179  1.00  0.00    -0.248 NA
ATOM     50  C   UNL A   1      41.586  26.063  26.147  1.00  0.00     0.031 C 
ATOM     51  C   UNL A   1      44.972  27.262  28.835  1.00  0.00     0.029 A 
ATOM     52  N   UNL A   1      46.387  26.011  27.618  1.00  0.00    -0.354 N 
ATOM     53  C   UNL A   1      41.191  28.030  27.256  1.00  0.00     0.074 A 
ATOM     54  C   UNL A   1      40.634  26.937  26.495  1.00  0.00     0.031 C 
ATOM     55  C   UNL A   1      46.230  27.630  29.143  1.00  0.00     0.029 A 
ATOM     56  C   UNL A   1      47.093  27.116  28.083  1.00  0.00     0.049 A 
ATOM     57  H   UNL A   1      46.760  25.158  27.298  1.00  0.00     0.167 HD
ATOM     58  C   UNL A   1      40.698  28.979  28.102  1.00  0.00     0.031 A 
ATOM     59  C   UNL A   1      47.838  27.875  27.225  1.00  0.00     0.031 A 
ATOM     60  C   UNL A   1      41.784  29.764  28.692  1.00  0.00     0.049 A 
ATOM     61  C   UNL A   1      47.315  29.290  27.197  1.00  0.00     0.074 A 
ATOM     62  C   UNL A   1      42.416  29.713  29.923  1.00  0.00     0.029 A 
ATOM     63  N   UNL A   1      42.598  30.524  27.858  1.00  0.00    -0.354 N 
ATOM     64  N   UNL A   1      46.060  29.609  27.370  1.00  0.00    -0.248 NA
ATOM     65  C   UNL A   1      48.179  30.449  27.019  1.00  0.00     0.031 C 
ATOM     66  C   UNL A   1      43.676  30.355  29.788  1.00  0.00     0.029 A 
ATOM     67  C   UNL A   1      43.789  30.822  28.488  1.00  0.00     0.049 A 
ATOM     68  H   UNL A   1      42.359  30.807  26.946  1.00  0.00     0.167 HD
ATOM     69  C   UNL A   1      45.959  30.970  27.461  1.00  0.00     0.074 A 
ATOM     70  C   UNL A   1      47.301  31.454  27.181  1.00  0.00     0.031 C 
ATOM     71  C   UNL A   1      44.806  31.609  27.810  1.00  0.00     0.031 A 
BRANCH  58  72
ATOM     72  C   UNL A   1      39.280  29.002  28.627  1.00  0.00    -0.014 A 
ATOM     73  C   UNL A   1      38.255  29.537  27.820  1.00  0.00     0.009 A 
ATOM     74  C   UNL A   1      38.888  28.570  29.904  1.00  0.00     0.009 A 
ATOM     75  C   UNL A   1      36.944  29.706  28.286  1.00  0.00     0.001 A 
ATOM     76  C   UNL A   1      37.582  28.754  30.386  1.00  0.00     0.001 A 
ATOM     77  C   UNL A   1      36.611  29.332  29.579  1.00  0.00     0.000 A 
ENDBRANCH  58  72
BRANCH  59  78
ATOM     78  C   UNL A   1      48.354  27.142  26.024  1.00  0.00    -0.014 A 
ATOM     79  C   UNL A   1      47.811  27.452  24.758  1.00  0.00     0.009 A 
ATOM     80  C   UNL A   1      49.571  26.442  26.064  1.00  0.00     0.009 A 
ATOM     81  C   UNL A   1      48.503  27.152  23.578  1.00  0.00     0.001 A 
ATOM     82  C   UNL A   1      50.254  26.129  24.877  1.00  0.00     0.001 A 
ATOM     83  C   UNL A   1      49.734  26.506  23.640  1.00  0.00     0.000 A 
ENDBRANCH  59  78
BRANCH  71  84
ATOM     84  C   UNL A   1      44.549  33.081  27.633  1.00  0.00    -0.014 A 
ATOM     85  C   UNL A   1      44.138  33.652  26.422  1.00  0.00     0.009 A 
ATOM     86  C   UNL A   1      44.543  33.918  28.770  1.00  0.00     0.009 A 
ATOM     87  C   UNL A   1      43.783  35.004  26.342  1.00  0.00     0.001 A 
ATOM     88  C   UNL A   1      44.141  35.252  28.706  1.00  0.00     0.001 A 
ATOM     89  C   UNL A   1      43.771  35.798  27.486  1.00  0.00     0.000 A 
ENDBRANCH  71  84
ENDBRANCH  45  46
ENDBRANCH  38  40
ENDBRANCH  37  38
ENDBRANCH  36  37
ENDBRANCH  35  36
ENDBRANCH   1  35
TORSDOF 16
ENDMDL
MODEL 2
REMARK VINA RESULT:     -12.0      2.949      8.810
REMARK SMILES Cc1cc(OCC(=O)OCCOC(=O)c2ccc(-c3c4nc(c(-c5ccccc5)c5ccc([nH]5)c(-c5ccccc5)c5nc(c(-c6ccccc6)c6ccc3[nH]6)C=C5)C=C4)cc2)ccc1NC(=O)c1ccc(N2C(=O)[C@@H]3[C@H](C2=O)[C@H]2C=C[C@@H]3C2)cc1
REMARK SMILES IDX 9 1 7 2 8 3 6 4 5 5 4 6 1 7 2 8 3 9 65 10 64 11 63 12 66 13
REMARK SMILES IDX 67 14 68 16 69 17 70 18 86 19 71 20 85 21 72 22 73 23 74 24
REMARK SMILES IDX 78 25 75 26 76 27 77 28 79 29 83 30 80 31 82 32 84 33 81 34
REMARK SMILES IDX 10 35 11 36 12 37 13 38 14 39 15 40 16 41 62 42 17 43 61 44
REMARK SMILES IDX 18 45 19 46 20 47 55 48 21 49 60 50 54 51 56 52 22 53 59 54
REMARK SMILES IDX 53 55 52 56 23 58 45 59 30 60 44 61 31 62 34 63 43 64 57 65
REMARK SMILES IDX 32 66 33 67 42 69 58 70 35 71 24 72 25 73 29 74 26 75 28 76
REMARK SMILES IDX 27 77 46 78 47 79 51 80 48 81 50 82 49 83 36 84 37 85 41 86
REMARK SMILES IDX 38 87 40 88 39 89
REMARK H PARENT 66 15 56 57 34 68
REMARK Flexibility Score: inf
ROOT
ATOM      1  O   UNL A   1      38.339  31.929  31.344  1.00  0.00    -0.460 OA
ENDROOT
BRANCH   1   2
ATOM      2  C   UNL A   1      38.427  33.011  30.532  1.00  0.00     0.344 C 
ATOM      3  O   UNL A   1      38.768  34.128  30.896  1.00  0.00    -0.248 OA
BRANCH   2   4
ATOM      4  C   UNL A   1      38.148  32.615  29.082  1.00  0.00     0.351 C 
BRANCH   4   5
ATOM      5  O   UNL A   1      37.782  31.264  28.833  1.00  0.00    -0.482 OA
BRANCH   5   6
ATOM      6  C   UNL A   1      36.526  31.054  28.338  1.00  0.00     0.120 A 
ATOM      7  C   UNL A   1      33.529  33.323  28.001  1.00  0.00     0.047 C 
ATOM      8  C   UNL A   1      34.339  32.059  27.926  1.00  0.00    -0.024 A 
ATOM      9  C   UNL A   1      35.674  32.151  28.375  1.00  0.00     0.052 A 
ATOM     10  C   UNL A   1      33.850  30.828  27.444  1.00  0.00     0.044 A 
ATOM     11  C   UNL A   1      34.730  29.746  27.369  1.00  0.00     0.030 A 
ATOM     12  C   UNL A   1      36.064  29.863  27.792  1.00  0.00     0.048 A 
BRANCH  10  13
ATOM     13  N   UNL A   1      32.546  30.747  26.914  1.00  0.00    -0.322 N 
ATOM     14  C   UNL A   1      32.021  30.015  25.869  1.00  0.00     0.255 C 
ATOM     15  H   UNL A   1      31.889  31.319  27.373  1.00  0.00     0.170 HD
ATOM     16  O   UNL A   1      31.051  30.457  25.251  1.00  0.00    -0.269 OA
BRANCH  14  17
ATOM     17  C   UNL A   1      32.457  28.628  25.574  1.00  0.00     0.040 A 
ATOM     18  C   UNL A   1      33.194  28.363  24.418  1.00  0.00     0.016 A 
ATOM     19  C   UNL A   1      31.981  27.554  26.320  1.00  0.00     0.016 A 
ATOM     20  C   UNL A   1      33.544  27.042  24.077  1.00  0.00     0.027 A 
ATOM     21  C   UNL A   1      32.300  26.232  25.948  1.00  0.00     0.027 A 
ATOM     22  C   UNL A   1      33.133  25.945  24.853  1.00  0.00     0.052 A 
BRANCH  22  23
ATOM     23  N   UNL A   1      33.556  24.604  24.552  1.00  0.00    -0.250 N 
ATOM     24  C   UNL A   1      34.824  24.118  24.823  1.00  0.00     0.238 C 
ATOM     25  C   UNL A   1      32.728  23.616  24.054  1.00  0.00     0.238 C 
ATOM     26  O   UNL A   1      35.766  24.675  25.374  1.00  0.00    -0.274 OA
ATOM     27  C   UNL A   1      34.911  22.674  24.410  1.00  0.00     0.099 C 
ATOM     28  C   UNL A   1      33.518  22.351  23.853  1.00  0.00     0.099 C 
ATOM     29  O   UNL A   1      31.530  23.659  23.804  1.00  0.00    -0.274 OA
ATOM     30  C   UNL A   1      35.050  21.686  25.594  1.00  0.00     0.025 C 
ATOM     31  C   UNL A   1      33.032  21.196  24.755  1.00  0.00     0.025 C 
ATOM     32  C   UNL A   1      35.135  20.295  25.001  1.00  0.00    -0.027 C 
ATOM     33  C   UNL A   1      33.611  21.598  26.117  1.00  0.00     0.017 C 
ATOM     34  C   UNL A   1      33.927  20.005  24.491  1.00  0.00    -0.027 C 
ENDBRANCH  22  23
ENDBRANCH  14  17
ENDBRANCH  10  13
ENDBRANCH   5   6
ENDBRANCH   4   5
ENDBRANCH   2   4
ENDBRANCH   1   2
BRANCH   1  35
ATOM     35  C   UNL A   1      37.278  31.928  32.289  1.00  0.00     0.274 C 
BRANCH  35  36
ATOM     36  C   UNL A   1      36.314  30.788  31.960  1.00  0.00     0.275 C 
BRANCH  36  37
ATOM     37  O   UNL A   1      36.891  29.500  31.554  1.00  0.00    -0.458 OA
BRANCH  37  38
ATOM     38  C   UNL A   1      37.783  28.664  32.131  1.00  0.00     0.338 C 
ATOM     39  O   UNL A   1      37.627  28.137  33.215  1.00  0.00    -0.246 OA
BRANCH  38  40
ATOM     40  C   UNL A   1      38.943  28.317  31.326  1.00  0.00     0.060 A 
ATOM     41  C   UNL A   1      40.232  28.372  31.884  1.00  0.00     0.016 A 
ATOM     42  C   UNL A   1      38.710  27.860  30.043  1.00  0.00     0.016 A 
ATOM     43  C   UNL A   1      41.300  27.843  31.172  1.00  0.00     0.010 A 
ATOM     44  C   UNL A   1      39.732  27.234  29.397  1.00  0.00     0.010 A 
ATOM     45  C   UNL A   1      41.031  27.256  29.939  1.00  0.00    -0.014 A 
BRANCH  45  46
ATOM     46  C   UNL A   1      42.034  26.847  28.975  1.00  0.00     0.031 A 
ATOM     47  C   UNL A   1      42.488  25.463  28.805  1.00  0.00     0.074 A 
ATOM     48  C   UNL A   1      42.288  27.821  28.076  1.00  0.00     0.049 A 
ATOM     49  N   UNL A   1      43.476  25.131  28.049  1.00  0.00    -0.248 NA
ATOM     50  C   UNL A   1      41.889  24.323  29.487  1.00  0.00     0.031 C 
ATOM     51  C   UNL A   1      42.832  27.739  26.736  1.00  0.00     0.029 A 
ATOM     52  N   UNL A   1      42.175  29.198  28.313  1.00  0.00    -0.354 N 
ATOM     53  C   UNL A   1      43.411  23.768  27.865  1.00  0.00     0.074 A 
ATOM     54  C   UNL A   1      42.487  23.298  28.868  1.00  0.00     0.031 C 
ATOM     55  C   UNL A   1      43.291  28.959  26.398  1.00  0.00     0.029 A 
ATOM     56  C   UNL A   1      43.211  29.789  27.597  1.00  0.00     0.049 A 
ATOM     57  H   UNL A   1      41.503  29.651  28.871  1.00  0.00     0.167 HD
ATOM     58  C   UNL A   1      44.017  23.229  26.769  1.00  0.00     0.031 A 
ATOM     59  C   UNL A   1      44.273  30.350  28.249  1.00  0.00     0.031 A 
ATOM     60  C   UNL A   1      44.774  24.247  26.039  1.00  0.00     0.049 A 
ATOM     61  C   UNL A   1      45.550  29.643  27.864  1.00  0.00     0.074 A 
ATOM     62  C   UNL A   1      44.495  24.984  24.899  1.00  0.00     0.029 A 
ATOM     63  N   UNL A   1      45.840  24.879  26.671  1.00  0.00    -0.354 N 
ATOM     64  N   UNL A   1      45.619  28.377  27.552  1.00  0.00    -0.248 NA
ATOM     65  C   UNL A   1      46.832  30.327  27.759  1.00  0.00     0.031 C 
ATOM     66  C   UNL A   1      45.332  26.132  24.913  1.00  0.00     0.029 A 
ATOM     67  C   UNL A   1      46.137  26.070  26.039  1.00  0.00     0.049 A 
ATOM     68  H   UNL A   1      46.314  24.527  27.457  1.00  0.00     0.167 HD
ATOM     69  C   UNL A   1      46.876  28.105  27.087  1.00  0.00     0.074 A 
ATOM     70  C   UNL A   1      47.614  29.342  27.287  1.00  0.00     0.031 C 
ATOM     71  C   UNL A   1      47.220  26.912  26.524  1.00  0.00     0.031 A 
BRANCH  58  72
ATOM     72  C   UNL A   1      43.687  21.871  26.192  1.00  0.00    -0.014 A 
ATOM     73  C   UNL A   1      42.452  21.268  26.510  1.00  0.00     0.009 A 
ATOM     74  C   UNL A   1      44.546  21.109  25.383  1.00  0.00     0.009 A 
ATOM     75  C   UNL A   1      42.130  19.962  26.116  1.00  0.00     0.001 A 
ATOM     76  C   UNL A   1      44.240  19.793  25.001  1.00  0.00     0.001 A 
ATOM     77  C   UNL A   1      43.034  19.215  25.377  1.00  0.00     0.000 A 
ENDBRANCH  58  72
BRANCH  59  78
ATOM     78  C   UNL A   1      43.969  30.853  29.627  1.00  0.00    -0.014 A 
ATOM     79  C   UNL A   1      42.844  31.686  29.810  1.00  0.00     0.009 A 
ATOM     80  C   UNL A   1      44.534  30.252  30.764  1.00  0.00     0.009 A 
ATOM     81  C   UNL A   1      42.252  31.841  31.070  1.00  0.00     0.001 A 
ATOM     82  C   UNL A   1      43.946  30.422  32.029  1.00  0.00     0.001 A 
ATOM     83  C   UNL A   1      42.793  31.193  32.176  1.00  0.00     0.000 A 
ENDBRANCH  59  78
BRANCH  71  84
ATOM     84  C   UNL A   1      48.630  26.447  26.279  1.00  0.00    -0.014 A 
ATOM     85  C   UNL A   1      49.396  26.852  25.179  1.00  0.00     0.009 A 
ATOM     86  C   UNL A   1      49.293  25.709  27.284  1.00  0.00     0.009 A 
ATOM     87  C   UNL A   1      50.745  26.499  25.066  1.00  0.00     0.001 A 
ATOM     88  C   UNL A   1      50.650  25.399  27.201  1.00  0.00     0.001 A 
ATOM     89  C   UNL A   1      51.374  25.785  26.083  1.00  0.00     0.000 A 
ENDBRANCH  71  84
ENDBRANCH  45  46
ENDBRANCH  38  40
ENDBRANCH  37  38
ENDBRANCH  36  37
ENDBRANCH  35  36
ENDBRANCH   1  35
TORSDOF 16
ENDMDL
MODEL 3
REMARK VINA RESULT:     -11.9      4.444      6.854
REMARK SMILES Cc1cc(OCC(=O)OCCOC(=O)c2ccc(-c3c4nc(c(-c5ccccc5)c5ccc([nH]5)c(-c5ccccc5)c5nc(c(-c6ccccc6)c6ccc3[nH]6)C=C5)C=C4)cc2)ccc1NC(=O)c1ccc(N2C(=O)[C@@H]3[C@H](C2=O)[C@H]2C=C[C@@H]3C2)cc1
REMARK SMILES IDX 9 1 7 2 8 3 6 4 5 5 4 6 1 7 2 8 3 9 65 10 64 11 63 12 66 13
REMARK SMILES IDX 67 14 68 16 69 17 70 18 86 19 71 20 85 21 72 22 73 23 74 24
REMARK SMILES IDX 78 25 75 26 76 27 77 28 79 29 83 30 80 31 82 32 84 33 81 34
REMARK SMILES IDX 10 35 11 36 12 37 13 38 14 39 15 40 16 41 62 42 17 43 61 44
REMARK SMILES IDX 18 45 19 46 20 47 55 48 21 49 60 50 54 51 56 52 22 53 59 54
REMARK SMILES IDX 53 55 52 56 23 58 45 59 30 60 44 61 31 62 34 63 43 64 57 65
REMARK SMILES IDX 32 66 33 67 42 69 58 70 35 71 24 72 25 73 29 74 26 75 28 76
REMARK SMILES IDX 27 77 46 78 47 79 51 80 48 81 50 82 49 83 36 84 37 85 41 86
REMARK SMILES IDX 38 87 40 88 39 89
REMARK H PARENT 66 15 56 57 34 68
REMARK Flexibility Score: inf
ROOT
ATOM      1  O   UNL A   1      44.055  25.201  27.844  1.00  0.00    -0.460 OA
ENDROOT
BRANCH   1   2
ATOM      2  C   UNL A   1      42.987  25.460  28.637  1.00  0.00     0.344 C 
ATOM      3  O   UNL A   1      42.888  26.428  29.377  1.00  0.00    -0.248 OA
BRANCH   2   4
ATOM      4  C   UNL A   1      41.881  24.432  28.395  1.00  0.00     0.351 C 
BRANCH   4   5
ATOM      5  O   UNL A   1      40.582  24.927  28.097  1.00  0.00    -0.482 OA
BRANCH   5   6
ATOM      6  C   UNL A   1      39.771  24.109  27.362  1.00  0.00     0.120 A 
ATOM      7  C   UNL A   1      40.168  20.541  26.196  1.00  0.00     0.047 C 
ATOM      8  C   UNL A   1      39.537  21.896  26.356  1.00  0.00    -0.024 A 
ATOM      9  C   UNL A   1      40.261  22.829  27.128  1.00  0.00     0.052 A 
ATOM     10  C   UNL A   1      38.300  22.268  25.793  1.00  0.00     0.044 A 
ATOM     11  C   UNL A   1      37.798  23.542  26.075  1.00  0.00     0.030 A 
ATOM     12  C   UNL A   1      38.517  24.447  26.872  1.00  0.00     0.048 A 
BRANCH  10  13
ATOM     13  N   UNL A   1      37.529  21.318  25.093  1.00  0.00    -0.322 N 
ATOM     14  C   UNL A   1      36.166  21.132  24.991  1.00  0.00     0.255 C 
ATOM     15  H   UNL A   1      38.062  20.667  24.582  1.00  0.00     0.170 HD
ATOM     16  O   UNL A   1      35.725  19.999  24.791  1.00  0.00    -0.269 OA
BRANCH  14  17
ATOM     17  C   UNL A   1      35.213  22.268  24.927  1.00  0.00     0.040 A 
ATOM     18  C   UNL A   1      34.253  22.426  25.928  1.00  0.00     0.016 A 
ATOM     19  C   UNL A   1      35.125  23.065  23.789  1.00  0.00     0.016 A 
ATOM     20  C   UNL A   1      33.286  23.446  25.841  1.00  0.00     0.027 A 
ATOM     21  C   UNL A   1      34.127  24.056  23.691  1.00  0.00     0.027 A 
ATOM     22  C   UNL A   1      33.220  24.309  24.734  1.00  0.00     0.052 A 
BRANCH  22  23
ATOM     23  N   UNL A   1      32.287  25.401  24.680  1.00  0.00    -0.250 N 
ATOM     24  C   UNL A   1      32.586  26.690  25.088  1.00  0.00     0.238 C 
ATOM     25  C   UNL A   1      31.023  25.323  24.126  1.00  0.00     0.238 C 
ATOM     26  O   UNL A   1      33.643  27.144  25.509  1.00  0.00    -0.274 OA
ATOM     27  C   UNL A   1      31.394  27.580  24.864  1.00  0.00     0.099 C 
ATOM     28  C   UNL A   1      30.331  26.652  24.260  1.00  0.00     0.099 C 
ATOM     29  O   UNL A   1      30.473  24.378  23.575  1.00  0.00    -0.274 OA
ATOM     30  C   UNL A   1      31.599  28.642  23.755  1.00  0.00     0.025 C 
ATOM     31  C   UNL A   1      30.024  27.303  22.894  1.00  0.00     0.025 C 
ATOM     32  C   UNL A   1      30.319  29.449  23.674  1.00  0.00    -0.027 C 
ATOM     33  C   UNL A   1      31.406  27.820  22.475  1.00  0.00     0.017 C 
ATOM     34  C   UNL A   1      29.373  28.642  23.165  1.00  0.00    -0.027 C 
ENDBRANCH  22  23
ENDBRANCH  14  17
ENDBRANCH  10  13
ENDBRANCH   5   6
ENDBRANCH   4   5
ENDBRANCH   2   4
ENDBRANCH   1   2
BRANCH   1  35
ATOM     35  C   UNL A   1      43.889  25.447  26.454  1.00  0.00     0.274 C 
BRANCH  35  36
ATOM     36  C   UNL A   1      44.735  26.656  26.054  1.00  0.00     0.275 C 
BRANCH  36  37
ATOM     37  O   UNL A   1      44.070  27.964  25.988  1.00  0.00    -0.458 OA
BRANCH  37  38
ATOM     38  C   UNL A   1      42.804  28.344  25.704  1.00  0.00     0.338 C 
ATOM     39  O   UNL A   1      42.268  28.191  24.625  1.00  0.00    -0.246 OA
BRANCH  38  40
ATOM     40  C   UNL A   1      42.034  28.871  26.819  1.00  0.00     0.060 A 
ATOM     41  C   UNL A   1      40.676  28.537  26.959  1.00  0.00     0.016 A 
ATOM     42  C   UNL A   1      42.711  29.628  27.754  1.00  0.00     0.016 A 
ATOM     43  C   UNL A   1      40.014  28.876  28.131  1.00  0.00     0.010 A 
ATOM     44  C   UNL A   1      42.100  29.855  28.950  1.00  0.00     0.010 A 
ATOM     45  C   UNL A   1      40.746  29.515  29.128  1.00  0.00    -0.014 A 
BRANCH  45  46
ATOM     46  C   UNL A   1      40.180  30.125  30.316  1.00  0.00     0.031 A 
ATOM     47  C   UNL A   1      39.468  31.407  30.315  1.00  0.00     0.074 A 
ATOM     48  C   UNL A   1      40.135  29.259  31.350  1.00  0.00     0.049 A 
ATOM     49  N   UNL A   1      39.092  32.008  31.391  1.00  0.00    -0.248 NA
ATOM     50  C   UNL A   1      39.128  32.146  29.107  1.00  0.00     0.031 C 
ATOM     51  C   UNL A   1      39.293  29.250  32.528  1.00  0.00     0.029 A 
ATOM     52  N   UNL A   1      41.023  28.194  31.558  1.00  0.00    -0.354 N 
ATOM     53  C   UNL A   1      38.185  32.976  31.024  1.00  0.00     0.074 A 
ATOM     54  C   UNL A   1      38.331  33.104  29.594  1.00  0.00     0.031 C 
ATOM     55  C   UNL A   1      39.880  28.467  33.453  1.00  0.00     0.029 A 
ATOM     56  C   UNL A   1      41.200  28.117  32.935  1.00  0.00     0.049 A 
ATOM     57  H   UNL A   1      41.435  27.621  30.872  1.00  0.00     0.167 HD
ATOM     58  C   UNL A   1      37.300  33.427  31.958  1.00  0.00     0.031 A 
ATOM     59  C   UNL A   1      42.395  28.465  33.501  1.00  0.00     0.031 A 
ATOM     60  C   UNL A   1      37.595  32.857  33.273  1.00  0.00     0.049 A 
ATOM     61  C   UNL A   1      42.202  29.624  34.448  1.00  0.00     0.074 A 
ATOM     62  C   UNL A   1      37.041  31.806  33.985  1.00  0.00     0.029 A 
ATOM     63  N   UNL A   1      38.815  33.147  33.876  1.00  0.00    -0.354 N 
ATOM     64  N   UNL A   1      41.303  30.557  34.287  1.00  0.00    -0.248 NA
ATOM     65  C   UNL A   1      42.980  29.787  35.668  1.00  0.00     0.031 C 
ATOM     66  C   UNL A   1      37.994  31.391  34.954  1.00  0.00     0.029 A 
ATOM     67  C   UNL A   1      39.105  32.212  34.849  1.00  0.00     0.049 A 
ATOM     68  H   UNL A   1      39.390  33.910  33.641  1.00  0.00     0.167 HD
ATOM     69  C   UNL A   1      41.280  31.346  35.404  1.00  0.00     0.074 A 
ATOM     70  C   UNL A   1      42.383  30.859  36.216  1.00  0.00     0.031 C 
ATOM     71  C   UNL A   1      40.336  32.306  35.619  1.00  0.00     0.031 A 
BRANCH  58  72
ATOM     72  C   UNL A   1      36.002  34.131  31.633  1.00  0.00    -0.014 A 
ATOM     73  C   UNL A   1      35.405  34.960  32.606  1.00  0.00     0.009 A 
ATOM     74  C   UNL A   1      35.288  33.991  30.432  1.00  0.00     0.009 A 
ATOM     75  C   UNL A   1      34.143  35.544  32.424  1.00  0.00     0.001 A 
ATOM     76  C   UNL A   1      34.016  34.555  30.249  1.00  0.00     0.001 A 
ATOM     77  C   UNL A   1      33.438  35.324  31.250  1.00  0.00     0.000 A 
ENDBRANCH  58  72
BRANCH  59  78
ATOM     78  C   UNL A   1      43.586  28.293  32.609  1.00  0.00    -0.014 A 
ATOM     79  C   UNL A   1      44.251  29.447  32.138  1.00  0.00     0.009 A 
ATOM     80  C   UNL A   1      44.262  27.065  32.522  1.00  0.00     0.009 A 
ATOM     81  C   UNL A   1      45.573  29.388  31.680  1.00  0.00     0.001 A 
ATOM     82  C   UNL A   1      45.582  27.007  32.048  1.00  0.00     0.001 A 
ATOM     83  C   UNL A   1      46.244  28.169  31.652  1.00  0.00     0.000 A 
ENDBRANCH  59  78
BRANCH  71  84
ATOM     84  C   UNL A   1      40.430  33.393  36.656  1.00  0.00    -0.014 A 
ATOM     85  C   UNL A   1      40.782  34.715  36.358  1.00  0.00     0.009 A 
ATOM     86  C   UNL A   1      39.976  33.131  37.967  1.00  0.00     0.009 A 
ATOM     87  C   UNL A   1      40.726  35.717  37.334  1.00  0.00     0.001 A 
ATOM     88  C   UNL A   1      39.870  34.136  38.928  1.00  0.00     0.001 A 
ATOM     89  C   UNL A   1      40.258  35.429  38.613  1.00  0.00     0.000 A 
ENDBRANCH  71  84
ENDBRANCH  45  46
ENDBRANCH  38  40
ENDBRANCH  37  38
ENDBRANCH  36  37
ENDBRANCH  35  36
ENDBRANCH   1  35
TORSDOF 16
ENDMDL
