MODEL 1
REMARK VINA RESULT:     -11.1      0.000      0.000
REMARK SMILES CC(C)[C@H](C(=O)OCCOC(=O)c1ccc(-c2c3nc(c(-c4ccccc4)c4ccc([nH]4)c(-c4ccccc4)c4nc(c(-c5ccccc5)c5ccc2[nH]5)C=C4)C=C3)cc1)N1C(=O)/C(=C/c2ccccc2Cl)SC1=S
REMARK SMILES IDX 8 1 7 2 5 3 6 4 4 5 2 6 1 7 3 8 61 9 62 10 74 11 63 12 64 13
REMARK SMILES IDX 73 14 75 15 65 16 66 17 67 18 71 19 68 20 70 21 72 22 69 23
REMARK SMILES IDX 9 24 10 25 11 26 12 27 13 28 14 29 60 30 15 31 59 32 16 33
REMARK SMILES IDX 17 34 18 35 53 36 19 37 58 38 52 39 54 40 20 41 57 42 51 43
REMARK SMILES IDX 50 44 21 46 43 47 28 48 42 49 29 50 32 51 41 52 55 53 30 54
REMARK SMILES IDX 31 55 40 57 56 58 33 59 22 60 23 61 27 62 24 63 26 64 25 65
REMARK SMILES IDX 44 66 45 67 49 68 46 69 48 70 47 71 34 72 35 73 39 74 36 75
REMARK SMILES IDX 38 76 37 77
REMARK H PARENT 54 45 32 56
REMARK Flexibility Score: inf
ROOT
ATOM      1  C   UNL A   1      32.012  29.213  25.080  1.00  0.00     0.274 C 
ENDROOT
BRANCH   1   2
ATOM      2  O   UNL A   1      30.996  28.198  25.214  1.00  0.00    -0.461 OA
BRANCH   2   3
ATOM      3  C   UNL A   1      31.217  27.218  26.142  1.00  0.00     0.329 C 
ATOM      4  O   UNL A   1      31.491  27.425  27.314  1.00  0.00    -0.250 OA
BRANCH   3   5
ATOM      5  C   UNL A   1      31.089  25.829  25.489  1.00  0.00     0.204 C 
BRANCH   5   6
ATOM      6  C   UNL A   1      30.560  25.919  24.023  1.00  0.00     0.017 C 
ATOM      7  C   UNL A   1      30.858  24.604  23.278  1.00  0.00     0.010 C 
ATOM      8  C   UNL A   1      29.080  26.243  23.820  1.00  0.00     0.010 C 
ENDBRANCH   5   6
BRANCH   5   9
ATOM      9  N   UNL A   1      32.264  24.948  25.755  1.00  0.00    -0.278 N 
ATOM     10  C   UNL A   1      33.560  25.334  25.464  1.00  0.00     0.267 C 
ATOM     11  C   UNL A   1      32.169  23.751  26.453  1.00  0.00     0.149 C 
ATOM     12  O   UNL A   1      33.938  26.445  25.124  1.00  0.00    -0.268 OA
ATOM     13  C   UNL A   1      34.535  24.244  25.765  1.00  0.00     0.081 C 
ATOM     14  S   UNL A   1      33.770  23.063  26.730  1.00  0.00    -0.054 SA
ATOM     15  S   UNL A   1      30.801  22.967  27.003  1.00  0.00    -0.052 S 
ATOM     16  C   UNL A   1      35.812  24.335  25.362  1.00  0.00     0.031 C 
BRANCH  16  17
ATOM     17  C   UNL A   1      36.984  23.491  25.679  1.00  0.00    -0.006 A 
ATOM     18  C   UNL A   1      38.033  24.152  26.346  1.00  0.00     0.010 A 
ATOM     19  C   UNL A   1      37.187  22.147  25.325  1.00  0.00     0.048 A 
ATOM     20  C   UNL A   1      39.207  23.488  26.708  1.00  0.00     0.001 A 
ATOM     21  C   UNL A   1      38.355  21.473  25.717  1.00  0.00     0.021 A 
ATOM     22  Cl  UNL A   1      36.091  21.271  24.314  1.00  0.00    -0.084 Cl
ATOM     23  C   UNL A   1      39.359  22.139  26.416  1.00  0.00     0.002 A 
ENDBRANCH  16  17
ENDBRANCH   5   9
ENDBRANCH   3   5
ENDBRANCH   2   3
ENDBRANCH   1   2
BRANCH   1  24
ATOM     24  C   UNL A   1      31.537  30.543  25.657  1.00  0.00     0.275 C 
BRANCH  24  25
ATOM     25  O   UNL A   1      32.054  30.684  26.990  1.00  0.00    -0.458 OA
BRANCH  25  26
ATOM     26  C   UNL A   1      32.767  31.800  27.240  1.00  0.00     0.338 C 
ATOM     27  O   UNL A   1      32.417  32.964  27.088  1.00  0.00    -0.246 OA
BRANCH  26  28
ATOM     28  C   UNL A   1      34.081  31.422  27.777  1.00  0.00     0.060 A 
ATOM     29  C   UNL A   1      34.404  30.074  27.905  1.00  0.00     0.016 A 
ATOM     30  C   UNL A   1      34.954  32.397  28.257  1.00  0.00     0.016 A 
ATOM     31  C   UNL A   1      35.554  29.690  28.583  1.00  0.00     0.010 A 
ATOM     32  C   UNL A   1      36.152  32.010  28.868  1.00  0.00     0.010 A 
ATOM     33  C   UNL A   1      36.445  30.650  29.078  1.00  0.00    -0.014 A 
BRANCH  33  34
ATOM     34  C   UNL A   1      37.615  30.223  29.892  1.00  0.00     0.031 A 
ATOM     35  C   UNL A   1      38.786  29.551  29.222  1.00  0.00     0.074 A 
ATOM     36  C   UNL A   1      37.695  30.528  31.204  1.00  0.00     0.049 A 
ATOM     37  N   UNL A   1      39.834  28.981  29.763  1.00  0.00    -0.248 NA
ATOM     38  C   UNL A   1      38.776  29.509  27.750  1.00  0.00     0.031 C 
ATOM     39  C   UNL A   1      36.710  31.299  31.963  1.00  0.00     0.029 A 
ATOM     40  N   UNL A   1      38.697  30.292  32.113  1.00  0.00    -0.354 N 
ATOM     41  C   UNL A   1      40.558  28.443  28.705  1.00  0.00     0.074 A 
ATOM     42  C   UNL A   1      39.843  28.768  27.491  1.00  0.00     0.031 C 
ATOM     43  C   UNL A   1      37.210  31.578  33.176  1.00  0.00     0.029 A 
ATOM     44  C   UNL A   1      38.498  30.911  33.324  1.00  0.00     0.049 A 
ATOM     45  H   UNL A   1      39.483  29.733  31.917  1.00  0.00     0.167 HD
ATOM     46  C   UNL A   1      41.710  27.733  28.744  1.00  0.00     0.031 A 
ATOM     47  C   UNL A   1      39.262  30.930  34.433  1.00  0.00     0.031 A 
ATOM     48  C   UNL A   1      42.471  27.492  29.940  1.00  0.00     0.049 A 
ATOM     49  C   UNL A   1      40.525  30.118  34.465  1.00  0.00     0.074 A 
ATOM     50  C   UNL A   1      43.625  26.744  30.094  1.00  0.00     0.029 A 
ATOM     51  N   UNL A   1      42.172  28.031  31.179  1.00  0.00    -0.354 N 
ATOM     52  N   UNL A   1      41.117  29.474  33.489  1.00  0.00    -0.248 NA
ATOM     53  C   UNL A   1      41.202  30.005  35.764  1.00  0.00     0.031 C 
ATOM     54  C   UNL A   1      44.015  26.816  31.437  1.00  0.00     0.029 A 
ATOM     55  C   UNL A   1      43.122  27.639  32.105  1.00  0.00     0.049 A 
ATOM     56  H   UNL A   1      41.398  28.608  31.373  1.00  0.00     0.167 HD
ATOM     57  C   UNL A   1      42.226  28.865  34.061  1.00  0.00     0.074 A 
ATOM     58  C   UNL A   1      42.251  29.257  35.455  1.00  0.00     0.031 C 
ATOM     59  C   UNL A   1      43.130  28.035  33.487  1.00  0.00     0.031 A 
BRANCH  46  60
ATOM     60  C   UNL A   1      42.177  27.104  27.464  1.00  0.00    -0.014 A 
ATOM     61  C   UNL A   1      41.907  25.763  27.153  1.00  0.00     0.009 A 
ATOM     62  C   UNL A   1      42.887  27.889  26.541  1.00  0.00     0.009 A 
ATOM     63  C   UNL A   1      42.364  25.217  25.951  1.00  0.00     0.001 A 
ATOM     64  C   UNL A   1      43.321  27.347  25.331  1.00  0.00     0.001 A 
ATOM     65  C   UNL A   1      43.066  26.008  25.040  1.00  0.00     0.000 A 
ENDBRANCH  46  60
BRANCH  47  66
ATOM     66  C   UNL A   1      38.844  31.719  35.622  1.00  0.00    -0.014 A 
ATOM     67  C   UNL A   1      39.251  33.054  35.763  1.00  0.00     0.009 A 
ATOM     68  C   UNL A   1      38.047  31.145  36.624  1.00  0.00     0.009 A 
ATOM     69  C   UNL A   1      38.877  33.794  36.888  1.00  0.00     0.001 A 
ATOM     70  C   UNL A   1      37.647  31.895  37.731  1.00  0.00     0.001 A 
ATOM     71  C   UNL A   1      38.069  33.216  37.866  1.00  0.00     0.000 A 
ENDBRANCH  47  66
BRANCH  59  72
ATOM     72  C   UNL A   1      44.220  27.501  34.368  1.00  0.00    -0.014 A 
ATOM     73  C   UNL A   1      45.428  28.200  34.520  1.00  0.00     0.009 A 
ATOM     74  C   UNL A   1      44.026  26.308  35.080  1.00  0.00     0.009 A 
ATOM     75  C   UNL A   1      46.433  27.698  35.349  1.00  0.00     0.001 A 
ATOM     76  C   UNL A   1      45.024  25.821  35.926  1.00  0.00     0.001 A 
ATOM     77  C   UNL A   1      46.229  26.511  36.053  1.00  0.00     0.000 A 
ENDBRANCH  59  72
ENDBRANCH  33  34
ENDBRANCH  26  28
ENDBRANCH  25  26
ENDBRANCH  24  25
ENDBRANCH   1  24
TORSDOF 14
ENDMDL
MODEL 2
REMARK VINA RESULT:     -11.0      3.843      6.949
REMARK SMILES CC(C)[C@H](C(=O)OCCOC(=O)c1ccc(-c2c3nc(c(-c4ccccc4)c4ccc([nH]4)c(-c4ccccc4)c4nc(c(-c5ccccc5)c5ccc2[nH]5)C=C4)C=C3)cc1)N1C(=O)/C(=C/c2ccccc2Cl)SC1=S
REMARK SMILES IDX 8 1 7 2 5 3 6 4 4 5 2 6 1 7 3 8 61 9 62 10 74 11 63 12 64 13
REMARK SMILES IDX 73 14 75 15 65 16 66 17 67 18 71 19 68 20 70 21 72 22 69 23
REMARK SMILES IDX 9 24 10 25 11 26 12 27 13 28 14 29 60 30 15 31 59 32 16 33
REMARK SMILES IDX 17 34 18 35 53 36 19 37 58 38 52 39 54 40 20 41 57 42 51 43
REMARK SMILES IDX 50 44 21 46 43 47 28 48 42 49 29 50 32 51 41 52 55 53 30 54
REMARK SMILES IDX 31 55 40 57 56 58 33 59 22 60 23 61 27 62 24 63 26 64 25 65
REMARK SMILES IDX 44 66 45 67 49 68 46 69 48 70 47 71 34 72 35 73 39 74 36 75
REMARK SMILES IDX 38 76 37 77
REMARK H PARENT 54 45 32 56
REMARK Flexibility Score: inf
ROOT
ATOM      1  C   UNL A   1      35.717  21.681  25.354  1.00  0.00     0.274 C 
ENDROOT
BRANCH   1   2
ATOM      2  O   UNL A   1      34.865  21.771  24.193  1.00  0.00    -0.461 OA
BRANCH   2   3
ATOM      3  C   UNL A   1      34.969  22.904  23.434  1.00  0.00     0.329 C 
ATOM      4  O   UNL A   1      36.012  23.321  22.953  1.00  0.00    -0.250 OA
BRANCH   3   5
ATOM      5  C   UNL A   1      33.592  23.580  23.295  1.00  0.00     0.204 C 
BRANCH   5   6
ATOM      6  C   UNL A   1      32.437  22.658  23.798  1.00  0.00     0.017 C 
ATOM      7  C   UNL A   1      31.158  23.492  24.011  1.00  0.00     0.010 C 
ATOM      8  C   UNL A   1      32.065  21.451  22.936  1.00  0.00     0.010 C 
ENDBRANCH   5   6
BRANCH   5   9
ATOM      9  N   UNL A   1      33.593  25.005  23.739  1.00  0.00    -0.278 N 
ATOM     10  C   UNL A   1      34.026  25.388  24.996  1.00  0.00     0.267 C 
ATOM     11  C   UNL A   1      33.315  26.063  22.884  1.00  0.00     0.149 C 
ATOM     12  O   UNL A   1      34.594  24.692  25.823  1.00  0.00    -0.268 OA
ATOM     13  C   UNL A   1      33.859  26.858  25.205  1.00  0.00     0.081 C 
ATOM     14  S   UNL A   1      33.574  27.607  23.699  1.00  0.00    -0.054 SA
ATOM     15  S   UNL A   1      32.796  26.017  21.298  1.00  0.00    -0.052 S 
ATOM     16  C   UNL A   1      34.020  27.400  26.422  1.00  0.00     0.031 C 
BRANCH  16  17
ATOM     17  C   UNL A   1      34.079  28.815  26.845  1.00  0.00    -0.006 A 
ATOM     18  C   UNL A   1      35.330  29.242  27.330  1.00  0.00     0.010 A 
ATOM     19  C   UNL A   1      33.021  29.738  26.884  1.00  0.00     0.048 A 
ATOM     20  C   UNL A   1      35.540  30.551  27.771  1.00  0.00     0.001 A 
ATOM     21  C   UNL A   1      33.242  31.062  27.298  1.00  0.00     0.021 A 
ATOM     22  Cl  UNL A   1      31.385  29.300  26.535  1.00  0.00    -0.084 Cl
ATOM     23  C   UNL A   1      34.502  31.471  27.731  1.00  0.00     0.002 A 
ENDBRANCH  16  17
ENDBRANCH   5   9
ENDBRANCH   3   5
ENDBRANCH   2   3
ENDBRANCH   1   2
BRANCH   1  24
ATOM     24  C   UNL A   1      36.822  20.650  25.144  1.00  0.00     0.275 C 
BRANCH  24  25
ATOM     25  O   UNL A   1      38.070  21.337  24.958  1.00  0.00    -0.458 OA
BRANCH  25  26
ATOM     26  C   UNL A   1      39.046  21.055  25.844  1.00  0.00     0.338 C 
ATOM     27  O   UNL A   1      39.521  19.958  26.112  1.00  0.00    -0.246 OA
BRANCH  26  28
ATOM     28  C   UNL A   1      39.514  22.304  26.459  1.00  0.00     0.060 A 
ATOM     29  C   UNL A   1      38.923  23.510  26.092  1.00  0.00     0.016 A 
ATOM     30  C   UNL A   1      40.610  22.299  27.319  1.00  0.00     0.016 A 
ATOM     31  C   UNL A   1      39.472  24.715  26.511  1.00  0.00     0.010 A 
ATOM     32  C   UNL A   1      41.112  23.511  27.806  1.00  0.00     0.010 A 
ATOM     33  C   UNL A   1      40.575  24.736  27.372  1.00  0.00    -0.014 A 
BRANCH  33  34
ATOM     34  C   UNL A   1      41.213  26.034  27.725  1.00  0.00     0.031 A 
ATOM     35  C   UNL A   1      42.491  26.449  27.041  1.00  0.00     0.074 A 
ATOM     36  C   UNL A   1      40.606  26.899  28.564  1.00  0.00     0.049 A 
ATOM     37  N   UNL A   1      43.276  27.465  27.301  1.00  0.00    -0.248 NA
ATOM     38  C   UNL A   1      42.950  25.608  25.923  1.00  0.00     0.031 C 
ATOM     39  C   UNL A   1      39.299  26.704  29.193  1.00  0.00     0.029 A 
ATOM     40  N   UNL A   1      40.980  28.156  28.969  1.00  0.00    -0.354 N 
ATOM     41  C   UNL A   1      44.357  27.335  26.436  1.00  0.00     0.074 A 
ATOM     42  C   UNL A   1      44.122  26.154  25.634  1.00  0.00     0.031 C 
ATOM     43  C   UNL A   1      38.927  27.843  29.795  1.00  0.00     0.029 A 
ATOM     44  C   UNL A   1      40.014  28.810  29.696  1.00  0.00     0.049 A 
ATOM     45  H   UNL A   1      41.856  28.553  28.759  1.00  0.00     0.167 HD
ATOM     46  C   UNL A   1      45.453  28.122  26.329  1.00  0.00     0.031 A 
ATOM     47  C   UNL A   1      40.008  30.046  30.233  1.00  0.00     0.031 A 
ATOM     48  C   UNL A   1      45.642  29.347  27.058  1.00  0.00     0.049 A 
ATOM     49  C   UNL A   1      41.241  30.896  30.123  1.00  0.00     0.074 A 
ATOM     50  C   UNL A   1      46.738  30.193  27.058  1.00  0.00     0.029 A 
ATOM     51  N   UNL A   1      44.693  29.919  27.887  1.00  0.00    -0.354 N 
ATOM     52  N   UNL A   1      42.332  30.683  29.428  1.00  0.00    -0.248 NA
ATOM     53  C   UNL A   1      41.255  32.139  30.906  1.00  0.00     0.031 C 
ATOM     54  C   UNL A   1      46.456  31.271  27.906  1.00  0.00     0.029 A 
ATOM     55  C   UNL A   1      45.172  31.111  28.400  1.00  0.00     0.049 A 
ATOM     56  H   UNL A   1      43.807  29.534  28.082  1.00  0.00     0.167 HD
ATOM     57  C   UNL A   1      43.168  31.756  29.705  1.00  0.00     0.074 A 
ATOM     58  C   UNL A   1      42.440  32.642  30.590  1.00  0.00     0.031 C 
ATOM     59  C   UNL A   1      44.436  31.977  29.281  1.00  0.00     0.031 A 
BRANCH  46  60
ATOM     60  C   UNL A   1      46.565  27.643  25.443  1.00  0.00    -0.014 A 
ATOM     61  C   UNL A   1      46.679  28.052  24.106  1.00  0.00     0.009 A 
ATOM     62  C   UNL A   1      47.533  26.777  25.977  1.00  0.00     0.009 A 
ATOM     63  C   UNL A   1      47.730  27.579  23.316  1.00  0.00     0.001 A 
ATOM     64  C   UNL A   1      48.594  26.325  25.192  1.00  0.00     0.001 A 
ATOM     65  C   UNL A   1      48.687  26.720  23.858  1.00  0.00     0.000 A 
ENDBRANCH  46  60
BRANCH  47  66
ATOM     66  C   UNL A   1      38.808  30.548  30.952  1.00  0.00    -0.014 A 
ATOM     67  C   UNL A   1      38.564  30.157  32.278  1.00  0.00     0.009 A 
ATOM     68  C   UNL A   1      37.897  31.409  30.322  1.00  0.00     0.009 A 
ATOM     69  C   UNL A   1      37.428  30.610  32.952  1.00  0.00     0.001 A 
ATOM     70  C   UNL A   1      36.780  31.887  31.009  1.00  0.00     0.001 A 
ATOM     71  C   UNL A   1      36.541  31.481  32.320  1.00  0.00     0.000 A 
ENDBRANCH  47  66
BRANCH  59  72
ATOM     72  C   UNL A   1      45.110  33.225  29.770  1.00  0.00    -0.014 A 
ATOM     73  C   UNL A   1      45.018  34.422  29.043  1.00  0.00     0.009 A 
ATOM     74  C   UNL A   1      45.812  33.213  30.984  1.00  0.00     0.009 A 
ATOM     75  C   UNL A   1      45.642  35.580  29.511  1.00  0.00     0.001 A 
ATOM     76  C   UNL A   1      46.417  34.378  31.460  1.00  0.00     0.001 A 
ATOM     77  C   UNL A   1      46.338  35.557  30.720  1.00  0.00     0.000 A 
ENDBRANCH  59  72
ENDBRANCH  33  34
ENDBRANCH  26  28
ENDBRANCH  25  26
ENDBRANCH  24  25
ENDBRANCH   1  24
TORSDOF 14
ENDMDL
MODEL 3
REMARK VINA RESULT:     -10.6      3.874      7.052
REMARK SMILES CC(C)[C@H](C(=O)OCCOC(=O)c1ccc(-c2c3nc(c(-c4ccccc4)c4ccc([nH]4)c(-c4ccccc4)c4nc(c(-c5ccccc5)c5ccc2[nH]5)C=C4)C=C3)cc1)N1C(=O)/C(=C/c2ccccc2Cl)SC1=S
REMARK SMILES IDX 8 1 7 2 5 3 6 4 4 5 2 6 1 7 3 8 61 9 62 10 74 11 63 12 64 13
REMARK SMILES IDX 73 14 75 15 65 16 66 17 67 18 71 19 68 20 70 21 72 22 69 23
REMARK SMILES IDX 9 24 10 25 11 26 12 27 13 28 14 29 60 30 15 31 59 32 16 33
REMARK SMILES IDX 17 34 18 35 53 36 19 37 58 38 52 39 54 40 20 41 57 42 51 43
REMARK SMILES IDX 50 44 21 46 43 47 28 48 42 49 29 50 32 51 41 52 55 53 30 54
REMARK SMILES IDX 31 55 40 57 56 58 33 59 22 60 23 61 27 62 24 63 26 64 25 65
REMARK SMILES IDX 44 66 45 67 49 68 46 69 48 70 47 71 34 72 35 73 39 74 36 75
REMARK SMILES IDX 38 76 37 77
REMARK H PARENT 54 45 32 56
REMARK Flexibility Score: inf
ROOT
ATOM      1  C   UNL A   1      36.509  21.884  25.572  1.00  0.00     0.274 C 
ENDROOT
BRANCH   1   2
ATOM      2  O   UNL A   1      35.322  21.068  25.473  1.00  0.00    -0.461 OA
BRANCH   2   3
ATOM      3  C   UNL A   1      34.172  21.582  26.004  1.00  0.00     0.329 C 
ATOM      4  O   UNL A   1      33.830  21.451  27.170  1.00  0.00    -0.250 OA
BRANCH   3   5
ATOM      5  C   UNL A   1      33.370  22.324  24.919  1.00  0.00     0.204 C 
BRANCH   5   6
ATOM      6  C   UNL A   1      32.329  21.392  24.222  1.00  0.00     0.017 C 
ATOM      7  C   UNL A   1      32.153  21.814  22.750  1.00  0.00     0.010 C 
ATOM      8  C   UNL A   1      32.597  19.887  24.245  1.00  0.00     0.010 C 
ENDBRANCH   5   6
BRANCH   5   9
ATOM      9  N   UNL A   1      32.915  23.678  25.353  1.00  0.00    -0.278 N 
ATOM     10  C   UNL A   1      33.605  24.832  25.026  1.00  0.00     0.267 C 
ATOM     11  C   UNL A   1      31.694  23.901  25.976  1.00  0.00     0.149 C 
ATOM     12  O   UNL A   1      34.537  24.934  24.244  1.00  0.00    -0.268 OA
ATOM     13  C   UNL A   1      32.973  26.037  25.641  1.00  0.00     0.081 C 
ATOM     14  S   UNL A   1      31.411  25.629  26.191  1.00  0.00    -0.054 SA
ATOM     15  S   UNL A   1      30.568  22.784  26.500  1.00  0.00    -0.052 S 
ATOM     16  C   UNL A   1      33.600  27.224  25.622  1.00  0.00     0.031 C 
BRANCH  16  17
ATOM     17  C   UNL A   1      33.121  28.571  25.999  1.00  0.00    -0.006 A 
ATOM     18  C   UNL A   1      31.971  29.009  25.313  1.00  0.00     0.010 A 
ATOM     19  C   UNL A   1      33.722  29.470  26.894  1.00  0.00     0.048 A 
ATOM     20  C   UNL A   1      31.403  30.262  25.557  1.00  0.00     0.001 A 
ATOM     21  C   UNL A   1      33.131  30.716  27.161  1.00  0.00     0.021 A 
ATOM     22  Cl  UNL A   1      35.253  29.165  27.638  1.00  0.00    -0.084 Cl
ATOM     23  C   UNL A   1      31.968  31.108  26.501  1.00  0.00     0.002 A 
ENDBRANCH  16  17
ENDBRANCH   5   9
ENDBRANCH   3   5
ENDBRANCH   2   3
ENDBRANCH   1   2
BRANCH   1  24
ATOM     24  C   UNL A   1      37.768  21.045  25.378  1.00  0.00     0.275 C 
BRANCH  24  25
ATOM     25  O   UNL A   1      38.911  21.915  25.376  1.00  0.00    -0.458 OA
BRANCH  25  26
ATOM     26  C   UNL A   1      39.789  21.753  26.387  1.00  0.00     0.338 C 
ATOM     27  O   UNL A   1      40.348  20.721  26.737  1.00  0.00    -0.246 OA
BRANCH  26  28
ATOM     28  C   UNL A   1      40.024  23.051  27.033  1.00  0.00     0.060 A 
ATOM     29  C   UNL A   1      39.311  24.168  26.603  1.00  0.00     0.016 A 
ATOM     30  C   UNL A   1      41.027  23.191  27.990  1.00  0.00     0.016 A 
ATOM     31  C   UNL A   1      39.650  25.434  27.061  1.00  0.00     0.010 A 
ATOM     32  C   UNL A   1      41.313  24.458  28.511  1.00  0.00     0.010 A 
ATOM     33  C   UNL A   1      40.657  25.601  28.019  1.00  0.00    -0.014 A 
BRANCH  33  34
ATOM     34  C   UNL A   1      41.077  26.972  28.419  1.00  0.00     0.031 A 
ATOM     35  C   UNL A   1      42.490  27.427  28.155  1.00  0.00     0.074 A 
ATOM     36  C   UNL A   1      40.184  27.855  28.910  1.00  0.00     0.049 A 
ATOM     37  N   UNL A   1      43.094  28.521  28.547  1.00  0.00    -0.248 NA
ATOM     38  C   UNL A   1      43.338  26.531  27.352  1.00  0.00     0.031 C 
ATOM     39  C   UNL A   1      38.751  27.612  29.087  1.00  0.00     0.029 A 
ATOM     40  N   UNL A   1      40.340  29.170  29.275  1.00  0.00    -0.354 N 
ATOM     41  C   UNL A   1      44.408  28.403  28.110  1.00  0.00     0.074 A 
ATOM     42  C   UNL A   1      44.512  27.141  27.410  1.00  0.00     0.031 C 
ATOM     43  C   UNL A   1      38.146  28.766  29.404  1.00  0.00     0.029 A 
ATOM     44  C   UNL A   1      39.157  29.805  29.565  1.00  0.00     0.049 A 
ATOM     45  H   UNL A   1      41.217  29.615  29.325  1.00  0.00     0.167 HD
ATOM     46  C   UNL A   1      45.438  29.263  28.286  1.00  0.00     0.031 A 
ATOM     47  C   UNL A   1      38.913  31.078  29.930  1.00  0.00     0.031 A 
ATOM     48  C   UNL A   1      45.314  30.559  28.898  1.00  0.00     0.049 A 
ATOM     49  C   UNL A   1      40.070  32.012  30.143  1.00  0.00     0.074 A 
ATOM     50  C   UNL A   1      46.304  31.486  29.167  1.00  0.00     0.029 A 
ATOM     51  N   UNL A   1      44.115  31.123  29.298  1.00  0.00    -0.354 N 
ATOM     52  N   UNL A   1      41.339  31.827  29.876  1.00  0.00    -0.248 NA
ATOM     53  C   UNL A   1      39.761  33.316  30.745  1.00  0.00     0.031 C 
ATOM     54  C   UNL A   1      45.703  32.609  29.750  1.00  0.00     0.029 A 
ATOM     55  C   UNL A   1      44.337  32.390  29.806  1.00  0.00     0.049 A 
ATOM     56  H   UNL A   1      43.234  30.687  29.229  1.00  0.00     0.167 HD
ATOM     57  C   UNL A   1      41.983  32.984  30.294  1.00  0.00     0.074 A 
ATOM     58  C   UNL A   1      40.959  33.883  30.786  1.00  0.00     0.031 C 
ATOM     59  C   UNL A   1      43.307  33.268  30.293  1.00  0.00     0.031 A 
BRANCH  46  60
ATOM     60  C   UNL A   1      46.805  28.799  27.876  1.00  0.00    -0.014 A 
ATOM     61  C   UNL A   1      47.664  28.139  28.767  1.00  0.00     0.009 A 
ATOM     62  C   UNL A   1      47.226  29.012  26.553  1.00  0.00     0.009 A 
ATOM     63  C   UNL A   1      48.930  27.725  28.343  1.00  0.00     0.001 A 
ATOM     64  C   UNL A   1      48.481  28.577  26.127  1.00  0.00     0.001 A 
ATOM     65  C   UNL A   1      49.336  27.941  27.026  1.00  0.00     0.000 A 
ENDBRANCH  46  60
BRANCH  47  66
ATOM     66  C   UNL A   1      37.519  31.544  30.153  1.00  0.00    -0.014 A 
ATOM     67  C   UNL A   1      36.914  31.389  31.410  1.00  0.00     0.009 A 
ATOM     68  C   UNL A   1      36.781  32.134  29.115  1.00  0.00     0.009 A 
ATOM     69  C   UNL A   1      35.597  31.807  31.618  1.00  0.00     0.001 A 
ATOM     70  C   UNL A   1      35.477  32.581  29.335  1.00  0.00     0.001 A 
ATOM     71  C   UNL A   1      34.883  32.409  30.583  1.00  0.00     0.000 A 
ENDBRANCH  47  66
BRANCH  59  72
ATOM     72  C   UNL A   1      43.719  34.604  30.838  1.00  0.00    -0.014 A 
ATOM     73  C   UNL A   1      43.788  35.729  30.002  1.00  0.00     0.009 A 
ATOM     74  C   UNL A   1      44.004  34.747  32.203  1.00  0.00     0.009 A 
ATOM     75  C   UNL A   1      44.164  36.970  30.520  1.00  0.00     0.001 A 
ATOM     76  C   UNL A   1      44.358  35.994  32.722  1.00  0.00     0.001 A 
ATOM     77  C   UNL A   1      44.446  37.101  31.880  1.00  0.00     0.000 A 
ENDBRANCH  59  72
ENDBRANCH  33  34
ENDBRANCH  26  28
ENDBRANCH  25  26
ENDBRANCH  24  25
ENDBRANCH   1  24
TORSDOF 14
ENDMDL
