MODEL 1
REMARK VINA RESULT:     -12.9      0.000      0.000
REMARK SMILES O=C(OCCOC(=O)[C@H]1C[C@](O)(c2ccc(Cl)cc2)[C@@H](c2ccc(Cl)cc2)O1)c1ccc(-c2c3nc(c(-c4ccccc4)c4ccc([nH]4)c(-c4ccccc4)c4nc(c(-c5ccccc5)c5ccc2[nH]5)C=C4)C=C3)cc1
REMARK SMILES IDX 4 1 3 2 2 3 1 4 29 5 30 6 76 7 31 8 75 9 32 10 33 11 34 12
REMARK SMILES IDX 69 13 35 14 74 15 68 16 70 17 36 18 73 19 67 20 66 21 37 23
REMARK SMILES IDX 59 24 44 25 58 26 45 27 48 28 57 29 71 30 46 31 47 32 56 34
REMARK SMILES IDX 72 35 49 36 38 37 39 38 43 39 40 40 42 41 41 42 60 43 61 44
REMARK SMILES IDX 65 45 62 46 64 47 63 48 50 49 51 50 55 51 52 52 54 53 53 54
REMARK SMILES IDX 5 55 6 56 7 57 8 58 9 59 10 60 28 61 11 62 20 63 13 64 14 65
REMARK SMILES IDX 19 66 15 67 18 68 16 69 17 70 12 71 21 73 22 74 27 75 23 76
REMARK SMILES IDX 26 77 24 78 25 79
REMARK H PARENT 70 22 48 33 12 72
REMARK Flexibility Score: inf
ROOT
ATOM      1  C   UNL A   1      30.581  26.026  24.776  1.00  0.00     0.275 C 
ENDROOT
BRANCH   1   2
ATOM      2  O   UNL A   1      31.785  26.060  23.958  1.00  0.00    -0.458 OA
BRANCH   2   3
ATOM      3  C   UNL A   1      32.674  27.094  23.831  1.00  0.00     0.338 C 
ATOM      4  O   UNL A   1      33.448  27.115  22.871  1.00  0.00    -0.246 OA
BRANCH   3   5
ATOM      5  C   UNL A   1      32.947  28.018  25.008  1.00  0.00     0.060 A 
ATOM      6  C   UNL A   1      33.666  27.615  26.099  1.00  0.00     0.016 A 
ATOM      7  C   UNL A   1      32.609  29.385  25.058  1.00  0.00     0.016 A 
ATOM      8  C   UNL A   1      34.174  28.543  27.060  1.00  0.00     0.010 A 
ATOM      9  C   UNL A   1      33.234  30.314  26.024  1.00  0.00     0.010 A 
ATOM     10  C   UNL A   1      34.210  29.914  26.980  1.00  0.00    -0.014 A 
BRANCH  10  11
ATOM     11  C   UNL A   1      35.067  30.749  28.092  1.00  0.00     0.031 A 
ATOM     12  C   UNL A   1      36.420  30.191  28.280  1.00  0.00     0.074 A 
ATOM     13  C   UNL A   1      34.986  31.938  28.833  1.00  0.00     0.049 A 
ATOM     14  N   UNL A   1      37.203  30.310  29.312  1.00  0.00    -0.248 NA
ATOM     15  C   UNL A   1      36.927  29.387  27.168  1.00  0.00     0.031 C 
ATOM     16  C   UNL A   1      33.966  32.944  28.820  1.00  0.00     0.029 A 
ATOM     17  N   UNL A   1      35.766  32.545  29.859  1.00  0.00    -0.354 N 
ATOM     18  C   UNL A   1      38.275  29.515  29.011  1.00  0.00     0.074 A 
ATOM     19  C   UNL A   1      37.985  28.860  27.748  1.00  0.00     0.031 C 
ATOM     20  C   UNL A   1      34.102  34.006  29.611  1.00  0.00     0.029 A 
ATOM     21  C   UNL A   1      35.157  33.654  30.494  1.00  0.00     0.049 A 
ATOM     22  H   UNL A   1      36.662  32.219  30.106  1.00  0.00     0.167 HD
ATOM     23  C   UNL A   1      39.415  29.364  29.709  1.00  0.00     0.031 A 
ATOM     24  C   UNL A   1      35.202  34.274  31.700  1.00  0.00     0.031 A 
ATOM     25  C   UNL A   1      39.770  30.043  30.917  1.00  0.00     0.049 A 
ATOM     26  C   UNL A   1      36.269  33.876  32.634  1.00  0.00     0.074 A 
ATOM     27  C   UNL A   1      40.942  29.905  31.636  1.00  0.00     0.029 A 
ATOM     28  N   UNL A   1      38.997  30.975  31.591  1.00  0.00    -0.354 N 
ATOM     29  N   UNL A   1      37.174  32.964  32.427  1.00  0.00    -0.248 NA
ATOM     30  C   UNL A   1      36.369  34.583  33.916  1.00  0.00     0.031 C 
ATOM     31  C   UNL A   1      40.860  30.709  32.774  1.00  0.00     0.029 A 
ATOM     32  C   UNL A   1      39.666  31.402  32.732  1.00  0.00     0.049 A 
ATOM     33  H   UNL A   1      38.109  31.289  31.303  1.00  0.00     0.167 HD
ATOM     34  C   UNL A   1      38.017  33.050  33.508  1.00  0.00     0.074 A 
ATOM     35  C   UNL A   1      37.484  34.056  34.404  1.00  0.00     0.031 C 
ATOM     36  C   UNL A   1      39.171  32.375  33.668  1.00  0.00     0.031 A 
BRANCH  23  37
ATOM     37  C   UNL A   1      40.303  28.303  29.162  1.00  0.00    -0.014 A 
ATOM     38  C   UNL A   1      41.440  28.618  28.402  1.00  0.00     0.009 A 
ATOM     39  C   UNL A   1      39.865  26.977  29.263  1.00  0.00     0.009 A 
ATOM     40  C   UNL A   1      42.073  27.619  27.671  1.00  0.00     0.001 A 
ATOM     41  C   UNL A   1      40.533  25.976  28.570  1.00  0.00     0.001 A 
ATOM     42  C   UNL A   1      41.619  26.302  27.757  1.00  0.00     0.000 A 
ENDBRANCH  23  37
BRANCH  24  43
ATOM     43  C   UNL A   1      34.134  35.233  32.195  1.00  0.00    -0.014 A 
ATOM     44  C   UNL A   1      32.848  34.801  32.561  1.00  0.00     0.009 A 
ATOM     45  C   UNL A   1      34.379  36.623  32.201  1.00  0.00     0.009 A 
ATOM     46  C   UNL A   1      31.844  35.726  32.904  1.00  0.00     0.001 A 
ATOM     47  C   UNL A   1      33.383  37.542  32.567  1.00  0.00     0.001 A 
ATOM     48  C   UNL A   1      32.113  37.094  32.912  1.00  0.00     0.000 A 
ENDBRANCH  24  43
BRANCH  36  49
ATOM     49  C   UNL A   1      40.021  32.760  34.829  1.00  0.00    -0.014 A 
ATOM     50  C   UNL A   1      40.987  33.770  34.734  1.00  0.00     0.009 A 
ATOM     51  C   UNL A   1      39.808  32.117  36.058  1.00  0.00     0.009 A 
ATOM     52  C   UNL A   1      41.719  34.139  35.863  1.00  0.00     0.001 A 
ATOM     53  C   UNL A   1      40.519  32.508  37.188  1.00  0.00     0.001 A 
ATOM     54  C   UNL A   1      41.473  33.519  37.089  1.00  0.00     0.000 A 
ENDBRANCH  36  49
ENDBRANCH  10  11
ENDBRANCH   3   5
ENDBRANCH   2   3
ENDBRANCH   1   2
BRANCH   1  55
ATOM     55  C   UNL A   1      30.766  25.106  25.995  1.00  0.00     0.274 C 
BRANCH  55  56
ATOM     56  O   UNL A   1      31.917  24.260  25.864  1.00  0.00    -0.460 OA
BRANCH  56  57
ATOM     57  C   UNL A   1      31.803  23.019  25.321  1.00  0.00     0.335 C 
ATOM     58  O   UNL A   1      31.086  22.109  25.780  1.00  0.00    -0.249 OA
BRANCH  57  59
ATOM     59  C   UNL A   1      32.781  22.832  24.147  1.00  0.00     0.232 C 
ATOM     60  C   UNL A   1      34.255  23.186  24.404  1.00  0.00     0.087 C 
ATOM     61  O   UNL A   1      32.650  21.486  23.680  1.00  0.00    -0.355 OA
ATOM     62  C   UNL A   1      34.822  21.953  25.078  1.00  0.00     0.123 C 
ATOM     63  C   UNL A   1      33.805  20.725  24.081  1.00  0.00     0.186 C 
BRANCH  62  64
ATOM     64  C   UNL A   1      36.503  22.259  25.345  1.00  0.00    -0.013 A 
ATOM     65  C   UNL A   1      36.970  23.496  25.889  1.00  0.00     0.008 A 
ATOM     66  C   UNL A   1      37.602  21.384  25.109  1.00  0.00     0.008 A 
ATOM     67  C   UNL A   1      38.282  23.697  26.425  1.00  0.00     0.021 A 
ATOM     68  C   UNL A   1      38.888  21.526  25.731  1.00  0.00     0.021 A 
ATOM     69  C   UNL A   1      39.211  22.674  26.425  1.00  0.00     0.041 A 
ATOM     70  Cl  UNL A   1      40.736  22.851  27.206  1.00  0.00    -0.084 Cl
ENDBRANCH  62  64
BRANCH  62  71
ATOM     71  O   UNL A   1      34.211  22.133  26.357  1.00  0.00    -0.382 OA
ATOM     72  H   UNL A   1      34.774  22.701  26.907  1.00  0.00     0.212 HD
ENDBRANCH  62  71
BRANCH  63  73
ATOM     73  C   UNL A   1      33.275  19.174  24.298  1.00  0.00    -0.016 A 
ATOM     74  C   UNL A   1      32.688  18.746  25.516  1.00  0.00     0.008 A 
ATOM     75  C   UNL A   1      33.437  18.083  23.377  1.00  0.00     0.008 A 
ATOM     76  C   UNL A   1      32.566  17.375  25.898  1.00  0.00     0.021 A 
ATOM     77  C   UNL A   1      33.301  16.705  23.740  1.00  0.00     0.021 A 
ATOM     78  C   UNL A   1      32.911  16.358  25.022  1.00  0.00     0.041 A 
ATOM     79  Cl  UNL A   1      32.876  14.710  25.524  1.00  0.00    -0.084 Cl
ENDBRANCH  63  73
ENDBRANCH  57  59
ENDBRANCH  56  57
ENDBRANCH  55  56
ENDBRANCH   1  55
TORSDOF 14
ENDMDL
MODEL 2
REMARK VINA RESULT:     -12.6      1.103      3.840
REMARK SMILES O=C(OCCOC(=O)[C@H]1C[C@](O)(c2ccc(Cl)cc2)[C@@H](c2ccc(Cl)cc2)O1)c1ccc(-c2c3nc(c(-c4ccccc4)c4ccc([nH]4)c(-c4ccccc4)c4nc(c(-c5ccccc5)c5ccc2[nH]5)C=C4)C=C3)cc1
REMARK SMILES IDX 4 1 3 2 2 3 1 4 29 5 30 6 76 7 31 8 75 9 32 10 33 11 34 12
REMARK SMILES IDX 69 13 35 14 74 15 68 16 70 17 36 18 73 19 67 20 66 21 37 23
REMARK SMILES IDX 59 24 44 25 58 26 45 27 48 28 57 29 71 30 46 31 47 32 56 34
REMARK SMILES IDX 72 35 49 36 38 37 39 38 43 39 40 40 42 41 41 42 60 43 61 44
REMARK SMILES IDX 65 45 62 46 64 47 63 48 50 49 51 50 55 51 52 52 54 53 53 54
REMARK SMILES IDX 5 55 6 56 7 57 8 58 9 59 10 60 28 61 11 62 20 63 13 64 14 65
REMARK SMILES IDX 19 66 15 67 18 68 16 69 17 70 12 71 21 73 22 74 27 75 23 76
REMARK SMILES IDX 26 77 24 78 25 79
REMARK H PARENT 70 22 48 33 12 72
REMARK Flexibility Score: inf
ROOT
ATOM      1  C   UNL A   1      32.022  27.006  22.389  1.00  0.00     0.275 C 
ENDROOT
BRANCH   1   2
ATOM      2  O   UNL A   1      30.881  27.100  23.289  1.00  0.00    -0.458 OA
BRANCH   2   3
ATOM      3  C   UNL A   1      30.889  26.991  24.655  1.00  0.00     0.338 C 
ATOM      4  O   UNL A   1      30.222  26.107  25.197  1.00  0.00    -0.246 OA
BRANCH   3   5
ATOM      5  C   UNL A   1      31.429  28.126  25.511  1.00  0.00     0.060 A 
ATOM      6  C   UNL A   1      31.866  27.928  26.791  1.00  0.00     0.016 A 
ATOM      7  C   UNL A   1      31.648  29.444  25.063  1.00  0.00     0.016 A 
ATOM      8  C   UNL A   1      32.636  28.907  27.492  1.00  0.00     0.010 A 
ATOM      9  C   UNL A   1      32.525  30.386  25.791  1.00  0.00     0.010 A 
ATOM     10  C   UNL A   1      33.209  30.052  26.994  1.00  0.00    -0.014 A 
BRANCH  10  11
ATOM     11  C   UNL A   1      34.254  30.886  27.932  1.00  0.00     0.031 A 
ATOM     12  C   UNL A   1      35.597  30.277  27.939  1.00  0.00     0.074 A 
ATOM     13  C   UNL A   1      34.331  32.102  28.629  1.00  0.00     0.049 A 
ATOM     14  N   UNL A   1      36.531  30.397  28.837  1.00  0.00    -0.248 NA
ATOM     15  C   UNL A   1      35.901  29.415  26.797  1.00  0.00     0.031 C 
ATOM     16  C   UNL A   1      33.359  33.150  28.728  1.00  0.00     0.029 A 
ATOM     17  N   UNL A   1      35.278  32.709  29.502  1.00  0.00    -0.354 N 
ATOM     18  C   UNL A   1      37.514  29.547  28.412  1.00  0.00     0.074 A 
ATOM     19  C   UNL A   1      37.014  28.862  27.233  1.00  0.00     0.031 C 
ATOM     20  C   UNL A   1      33.653  34.232  29.446  1.00  0.00     0.029 A 
ATOM     21  C   UNL A   1      34.814  33.864  30.176  1.00  0.00     0.049 A 
ATOM     22  H   UNL A   1      36.188  32.353  29.626  1.00  0.00     0.167 HD
ATOM     23  C   UNL A   1      38.740  29.369  28.938  1.00  0.00     0.031 A 
ATOM     24  C   UNL A   1      35.063  34.522  31.337  1.00  0.00     0.031 A 
ATOM     25  C   UNL A   1      39.298  30.073  30.052  1.00  0.00     0.049 A 
ATOM     26  C   UNL A   1      36.243  34.109  32.116  1.00  0.00     0.074 A 
ATOM     27  C   UNL A   1      40.559  29.908  30.594  1.00  0.00     0.029 A 
ATOM     28  N   UNL A   1      38.671  31.060  30.796  1.00  0.00    -0.354 N 
ATOM     29  N   UNL A   1      37.070  33.153  31.813  1.00  0.00    -0.248 NA
ATOM     30  C   UNL A   1      36.561  34.855  33.340  1.00  0.00     0.031 C 
ATOM     31  C   UNL A   1      40.679  30.753  31.697  1.00  0.00     0.029 A 
ATOM     32  C   UNL A   1      39.519  31.495  31.806  1.00  0.00     0.049 A 
ATOM     33  H   UNL A   1      37.763  31.402  30.631  1.00  0.00     0.167 HD
ATOM     34  C   UNL A   1      38.069  33.239  32.753  1.00  0.00     0.074 A 
ATOM     35  C   UNL A   1      37.716  34.296  33.677  1.00  0.00     0.031 C 
ATOM     36  C   UNL A   1      39.208  32.520  32.766  1.00  0.00     0.031 A 
BRANCH  23  37
ATOM     37  C   UNL A   1      39.495  28.253  28.308  1.00  0.00    -0.014 A 
ATOM     38  C   UNL A   1      39.585  26.993  28.920  1.00  0.00     0.009 A 
ATOM     39  C   UNL A   1      40.274  28.551  27.185  1.00  0.00     0.009 A 
ATOM     40  C   UNL A   1      40.525  26.075  28.461  1.00  0.00     0.001 A 
ATOM     41  C   UNL A   1      41.174  27.611  26.701  1.00  0.00     0.001 A 
ATOM     42  C   UNL A   1      41.315  26.386  27.354  1.00  0.00     0.000 A 
ENDBRANCH  23  37
BRANCH  24  43
ATOM     43  C   UNL A   1      34.119  35.542  31.946  1.00  0.00    -0.014 A 
ATOM     44  C   UNL A   1      34.526  36.850  32.258  1.00  0.00     0.009 A 
ATOM     45  C   UNL A   1      32.810  35.164  32.316  1.00  0.00     0.009 A 
ATOM     46  C   UNL A   1      33.663  37.738  32.927  1.00  0.00     0.001 A 
ATOM     47  C   UNL A   1      31.942  36.059  32.963  1.00  0.00     0.001 A 
ATOM     48  C   UNL A   1      32.372  37.344  33.275  1.00  0.00     0.000 A 
ENDBRANCH  24  43
BRANCH  36  49
ATOM     49  C   UNL A   1      40.237  32.907  33.772  1.00  0.00    -0.014 A 
ATOM     50  C   UNL A   1      41.167  33.924  33.522  1.00  0.00     0.009 A 
ATOM     51  C   UNL A   1      40.236  32.258  35.016  1.00  0.00     0.009 A 
ATOM     52  C   UNL A   1      42.074  34.294  34.515  1.00  0.00     0.001 A 
ATOM     53  C   UNL A   1      41.122  32.650  36.013  1.00  0.00     0.001 A 
ATOM     54  C   UNL A   1      42.040  33.668  35.762  1.00  0.00     0.000 A 
ENDBRANCH  36  49
ENDBRANCH  10  11
ENDBRANCH   3   5
ENDBRANCH   2   3
ENDBRANCH   1   2
BRANCH   1  55
ATOM     55  C   UNL A   1      32.067  25.635  21.693  1.00  0.00     0.274 C 
BRANCH  55  56
ATOM     56  O   UNL A   1      32.151  24.554  22.632  1.00  0.00    -0.460 OA
BRANCH  56  57
ATOM     57  C   UNL A   1      33.311  24.306  23.296  1.00  0.00     0.335 C 
ATOM     58  O   UNL A   1      34.448  24.422  22.801  1.00  0.00    -0.249 OA
BRANCH  57  59
ATOM     59  C   UNL A   1      33.039  23.726  24.696  1.00  0.00     0.232 C 
ATOM     60  C   UNL A   1      32.460  22.303  24.761  1.00  0.00     0.087 C 
ATOM     61  O   UNL A   1      34.250  23.822  25.451  1.00  0.00    -0.355 OA
ATOM     62  C   UNL A   1      33.671  21.402  24.618  1.00  0.00     0.123 C 
ATOM     63  C   UNL A   1      34.832  22.513  25.593  1.00  0.00     0.186 C 
BRANCH  62  64
ATOM     64  C   UNL A   1      33.099  19.774  24.742  1.00  0.00    -0.013 A 
ATOM     65  C   UNL A   1      33.006  18.916  23.602  1.00  0.00     0.008 A 
ATOM     66  C   UNL A   1      32.688  19.076  25.913  1.00  0.00     0.008 A 
ATOM     67  C   UNL A   1      32.851  17.496  23.673  1.00  0.00     0.021 A 
ATOM     68  C   UNL A   1      32.635  17.645  26.017  1.00  0.00     0.021 A 
ATOM     69  C   UNL A   1      32.758  16.854  24.894  1.00  0.00     0.041 A 
ATOM     70  Cl  UNL A   1      32.730  15.135  25.000  1.00  0.00    -0.084 Cl
ENDBRANCH  62  64
BRANCH  62  71
ATOM     71  O   UNL A   1      33.898  21.603  23.222  1.00  0.00    -0.382 OA
ATOM     72  H   UNL A   1      34.541  22.319  23.099  1.00  0.00     0.212 HD
ENDBRANCH  62  71
BRANCH  63  73
ATOM     73  C   UNL A   1      36.468  22.748  25.663  1.00  0.00    -0.016 A 
ATOM     74  C   UNL A   1      37.386  21.706  25.380  1.00  0.00     0.008 A 
ATOM     75  C   UNL A   1      37.138  23.938  26.111  1.00  0.00     0.008 A 
ATOM     76  C   UNL A   1      38.757  21.727  25.782  1.00  0.00     0.021 A 
ATOM     77  C   UNL A   1      38.514  23.978  26.501  1.00  0.00     0.021 A 
ATOM     78  C   UNL A   1      39.307  22.850  26.379  1.00  0.00     0.041 A 
ATOM     79  Cl  UNL A   1      40.925  22.834  26.971  1.00  0.00    -0.084 Cl
ENDBRANCH  63  73
ENDBRANCH  57  59
ENDBRANCH  56  57
ENDBRANCH  55  56
ENDBRANCH   1  55
TORSDOF 14
ENDMDL
MODEL 3
REMARK VINA RESULT:     -12.3      2.981      5.681
REMARK SMILES O=C(OCCOC(=O)[C@H]1C[C@](O)(c2ccc(Cl)cc2)[C@@H](c2ccc(Cl)cc2)O1)c1ccc(-c2c3nc(c(-c4ccccc4)c4ccc([nH]4)c(-c4ccccc4)c4nc(c(-c5ccccc5)c5ccc2[nH]5)C=C4)C=C3)cc1
REMARK SMILES IDX 4 1 3 2 2 3 1 4 29 5 30 6 76 7 31 8 75 9 32 10 33 11 34 12
REMARK SMILES IDX 69 13 35 14 74 15 68 16 70 17 36 18 73 19 67 20 66 21 37 23
REMARK SMILES IDX 59 24 44 25 58 26 45 27 48 28 57 29 71 30 46 31 47 32 56 34
REMARK SMILES IDX 72 35 49 36 38 37 39 38 43 39 40 40 42 41 41 42 60 43 61 44
REMARK SMILES IDX 65 45 62 46 64 47 63 48 50 49 51 50 55 51 52 52 54 53 53 54
REMARK SMILES IDX 5 55 6 56 7 57 8 58 9 59 10 60 28 61 11 62 20 63 13 64 14 65
REMARK SMILES IDX 19 66 15 67 18 68 16 69 17 70 12 71 21 73 22 74 27 75 23 76
REMARK SMILES IDX 26 77 24 78 25 79
REMARK H PARENT 70 22 48 33 12 72
REMARK Flexibility Score: inf
ROOT
ATOM      1  C   UNL A   1      39.076  21.033  25.717  1.00  0.00     0.275 C 
ENDROOT
BRANCH   1   2
ATOM      2  O   UNL A   1      40.060  21.618  26.616  1.00  0.00    -0.458 OA
BRANCH   2   3
ATOM      3  C   UNL A   1      40.895  22.674  26.360  1.00  0.00     0.338 C 
ATOM      4  O   UNL A   1      42.074  22.459  26.071  1.00  0.00    -0.246 OA
BRANCH   3   5
ATOM      5  C   UNL A   1      40.485  24.086  26.747  1.00  0.00     0.060 A 
ATOM      6  C   UNL A   1      39.669  24.341  27.814  1.00  0.00     0.016 A 
ATOM      7  C   UNL A   1      40.976  25.264  26.150  1.00  0.00     0.016 A 
ATOM      8  C   UNL A   1      39.516  25.653  28.359  1.00  0.00     0.010 A 
ATOM      9  C   UNL A   1      40.862  26.584  26.805  1.00  0.00     0.010 A 
ATOM     10  C   UNL A   1      40.248  26.781  28.075  1.00  0.00    -0.014 A 
BRANCH  10  11
ATOM     11  C   UNL A   1      40.053  28.106  29.008  1.00  0.00     0.031 A 
ATOM     12  C   UNL A   1      41.028  28.151  30.115  1.00  0.00     0.074 A 
ATOM     13  C   UNL A   1      39.343  29.317  29.014  1.00  0.00     0.049 A 
ATOM     14  N   UNL A   1      40.934  28.787  31.246  1.00  0.00    -0.248 NA
ATOM     15  C   UNL A   1      42.242  27.359  29.913  1.00  0.00     0.031 C 
ATOM     16  C   UNL A   1      38.440  29.840  28.032  1.00  0.00     0.029 A 
ATOM     17  N   UNL A   1      39.180  30.389  29.936  1.00  0.00    -0.354 N 
ATOM     18  C   UNL A   1      42.047  28.400  31.940  1.00  0.00     0.074 A 
ATOM     19  C   UNL A   1      42.739  27.411  31.132  1.00  0.00     0.031 C 
ATOM     20  C   UNL A   1      37.880  31.028  28.244  1.00  0.00     0.029 A 
ATOM     21  C   UNL A   1      38.153  31.307  29.609  1.00  0.00     0.049 A 
ATOM     22  H   UNL A   1      39.740  30.486  30.741  1.00  0.00     0.167 HD
ATOM     23  C   UNL A   1      42.475  28.849  33.134  1.00  0.00     0.031 A 
ATOM     24  C   UNL A   1      37.319  32.160  30.257  1.00  0.00     0.031 A 
ATOM     25  C   UNL A   1      41.865  29.870  33.929  1.00  0.00     0.049 A 
ATOM     26  C   UNL A   1      37.576  32.414  31.685  1.00  0.00     0.074 A 
ATOM     27  C   UNL A   1      42.301  30.347  35.150  1.00  0.00     0.029 A 
ATOM     28  N   UNL A   1      40.716  30.578  33.613  1.00  0.00    -0.354 N 
ATOM     29  N   UNL A   1      38.521  31.881  32.404  1.00  0.00    -0.248 NA
ATOM     30  C   UNL A   1      36.723  33.384  32.382  1.00  0.00     0.031 C 
ATOM     31  C   UNL A   1      41.390  31.302  35.602  1.00  0.00     0.029 A 
ATOM     32  C   UNL A   1      40.421  31.473  34.633  1.00  0.00     0.049 A 
ATOM     33  H   UNL A   1      40.189  30.463  32.788  1.00  0.00     0.167 HD
ATOM     34  C   UNL A   1      38.444  32.522  33.618  1.00  0.00     0.074 A 
ATOM     35  C   UNL A   1      37.322  33.436  33.565  1.00  0.00     0.031 C 
ATOM     36  C   UNL A   1      39.305  32.380  34.644  1.00  0.00     0.031 A 
BRANCH  23  37
ATOM     37  C   UNL A   1      43.647  28.098  33.659  1.00  0.00    -0.014 A 
ATOM     38  C   UNL A   1      44.962  28.480  33.347  1.00  0.00     0.009 A 
ATOM     39  C   UNL A   1      43.399  26.885  34.312  1.00  0.00     0.009 A 
ATOM     40  C   UNL A   1      46.009  27.602  33.606  1.00  0.00     0.001 A 
ATOM     41  C   UNL A   1      44.456  26.035  34.612  1.00  0.00     0.001 A 
ATOM     42  C   UNL A   1      45.754  26.384  34.237  1.00  0.00     0.000 A 
ENDBRANCH  23  37
BRANCH  24  43
ATOM     43  C   UNL A   1      36.061  32.740  29.638  1.00  0.00    -0.014 A 
ATOM     44  C   UNL A   1      34.889  31.983  29.469  1.00  0.00     0.009 A 
ATOM     45  C   UNL A   1      36.069  34.050  29.113  1.00  0.00     0.009 A 
ATOM     46  C   UNL A   1      33.777  32.512  28.788  1.00  0.00     0.001 A 
ATOM     47  C   UNL A   1      34.950  34.585  28.454  1.00  0.00     0.001 A 
ATOM     48  C   UNL A   1      33.806  33.812  28.285  1.00  0.00     0.000 A 
ENDBRANCH  24  43
BRANCH  36  49
ATOM     49  C   UNL A   1      39.139  33.311  35.795  1.00  0.00    -0.014 A 
ATOM     50  C   UNL A   1      38.394  32.957  36.927  1.00  0.00     0.009 A 
ATOM     51  C   UNL A   1      39.787  34.554  35.752  1.00  0.00     0.009 A 
ATOM     52  C   UNL A   1      38.314  33.836  38.008  1.00  0.00     0.001 A 
ATOM     53  C   UNL A   1      39.729  35.415  36.843  1.00  0.00     0.001 A 
ATOM     54  C   UNL A   1      38.993  35.054  37.970  1.00  0.00     0.000 A 
ENDBRANCH  36  49
ENDBRANCH  10  11
ENDBRANCH   3   5
ENDBRANCH   2   3
ENDBRANCH   1   2
BRANCH   1  55
ATOM     55  C   UNL A   1      37.835  21.933  25.593  1.00  0.00     0.274 C 
BRANCH  55  56
ATOM     56  O   UNL A   1      37.172  21.770  24.331  1.00  0.00    -0.460 OA
BRANCH  56  57
ATOM     57  C   UNL A   1      36.425  22.780  23.809  1.00  0.00     0.335 C 
ATOM     58  O   UNL A   1      36.615  23.292  22.689  1.00  0.00    -0.249 OA
BRANCH  57  59
ATOM     59  C   UNL A   1      35.404  23.305  24.833  1.00  0.00     0.232 C 
ATOM     60  C   UNL A   1      34.434  24.397  24.353  1.00  0.00     0.087 C 
ATOM     61  O   UNL A   1      34.692  22.180  25.356  1.00  0.00    -0.355 OA
ATOM     62  C   UNL A   1      33.335  23.633  23.643  1.00  0.00     0.123 C 
ATOM     63  C   UNL A   1      33.358  22.163  24.815  1.00  0.00     0.186 C 
BRANCH  62  64
ATOM     64  C   UNL A   1      32.169  24.800  23.124  1.00  0.00    -0.013 A 
ATOM     65  C   UNL A   1      30.850  24.848  23.673  1.00  0.00     0.008 A 
ATOM     66  C   UNL A   1      32.334  25.836  22.161  1.00  0.00     0.008 A 
ATOM     67  C   UNL A   1      29.957  25.957  23.530  1.00  0.00     0.021 A 
ATOM     68  C   UNL A   1      31.501  27.002  22.086  1.00  0.00     0.021 A 
ATOM     69  C   UNL A   1      30.328  27.076  22.807  1.00  0.00     0.041 A 
ATOM     70  Cl  UNL A   1      29.330  28.479  22.757  1.00  0.00    -0.084 Cl
ENDBRANCH  62  64
BRANCH  62  71
ATOM     71  O   UNL A   1      34.065  23.296  22.461  1.00  0.00    -0.382 OA
ATOM     72  H   UNL A   1      34.744  22.638  22.678  1.00  0.00     0.212 HD
ENDBRANCH  62  71
BRANCH  63  73
ATOM     73  C   UNL A   1      32.923  20.570  24.727  1.00  0.00    -0.016 A 
ATOM     74  C   UNL A   1      32.942  19.725  25.866  1.00  0.00     0.008 A 
ATOM     75  C   UNL A   1      32.602  19.840  23.531  1.00  0.00     0.008 A 
ATOM     76  C   UNL A   1      32.953  18.298  25.793  1.00  0.00     0.021 A 
ATOM     77  C   UNL A   1      32.592  18.411  23.447  1.00  0.00     0.021 A 
ATOM     78  C   UNL A   1      32.818  17.645  24.578  1.00  0.00     0.041 A 
ATOM     79  Cl  UNL A   1      32.951  15.931  24.476  1.00  0.00    -0.084 Cl
ENDBRANCH  63  73
ENDBRANCH  57  59
ENDBRANCH  56  57
ENDBRANCH  55  56
ENDBRANCH   1  55
TORSDOF 14
ENDMDL
