MODEL 1
REMARK VINA RESULT:     -10.0      0.000      0.000
REMARK SMILES COc1ccc2c(C)cc(SCC(=O)OCCOC(=O)c3ccc(-c4c5nc(c(-c6ccccc6)c6ccc([nH]6)c(-c6ccccc6)c6nc(c(-c7ccccc7)c7ccc4[nH]7)C=C6)C=C5)cc3)nc2c1
REMARK SMILES IDX 16 1 15 2 13 3 14 4 12 5 11 6 10 7 3 8 4 9 71 10 5 11 70 12
REMARK SMILES IDX 6 13 69 14 7 15 8 16 9 17 2 18 1 19 17 20 18 21 19 22 20 23
REMARK SMILES IDX 21 24 22 25 68 26 23 27 67 28 24 29 25 30 26 31 61 32 27 33
REMARK SMILES IDX 66 34 60 35 62 36 28 37 65 38 59 39 58 40 29 42 51 43 36 44
REMARK SMILES IDX 50 45 37 46 40 47 49 48 63 49 38 50 39 51 48 53 64 54 41 55
REMARK SMILES IDX 30 56 31 57 35 58 32 59 34 60 33 61 52 62 53 63 57 64 54 65
REMARK SMILES IDX 56 66 55 67 42 68 43 69 47 70 44 71 46 72 45 73
REMARK H PARENT 62 41 40 52
REMARK Flexibility Score: inf
ROOT
ATOM      1  C   UNL A   1      44.869  20.881  24.909  1.00  0.00     0.274 C 
ENDROOT
BRANCH   1   2
ATOM      2  O   UNL A   1      43.950  19.909  24.371  1.00  0.00    -0.461 OA
BRANCH   2   3
ATOM      3  C   UNL A   1      43.390  19.055  25.265  1.00  0.00     0.316 C 
ATOM      4  O   UNL A   1      43.931  18.026  25.665  1.00  0.00    -0.251 OA
BRANCH   3   5
ATOM      5  C   UNL A   1      42.020  19.453  25.766  1.00  0.00     0.199 C 
BRANCH   5   6
ATOM      6  S   UNL A   1      41.978  20.374  27.327  1.00  0.00    -0.095 SA
BRANCH   6   7
ATOM      7  C   UNL A   1      40.688  21.584  27.113  1.00  0.00     0.098 A 
ATOM      8  C   UNL A   1      36.569  22.285  24.837  1.00  0.00     0.121 A 
ATOM      9  C   UNL A   1      36.506  23.607  25.255  1.00  0.00     0.047 A 
ATOM     10  C   UNL A   1      37.613  21.466  25.268  1.00  0.00     0.075 A 
ATOM     11  C   UNL A   1      37.511  24.108  26.079  1.00  0.00     0.014 A 
ATOM     12  C   UNL A   1      38.639  21.950  26.065  1.00  0.00     0.075 A 
ATOM     13  C   UNL A   1      38.587  23.291  26.494  1.00  0.00     0.003 A 
ATOM     14  N   UNL A   1      39.651  21.124  26.380  1.00  0.00    -0.241 NA
ATOM     15  C   UNL A   1      39.636  23.743  27.319  1.00  0.00    -0.039 A 
ATOM     16  C   UNL A   1      39.672  25.145  27.851  1.00  0.00     0.045 C 
ATOM     17  C   UNL A   1      40.705  22.878  27.601  1.00  0.00     0.039 A 
BRANCH   8  18
ATOM     18  O   UNL A   1      35.625  21.704  24.036  1.00  0.00    -0.497 OA
ATOM     19  C   UNL A   1      34.524  22.565  23.754  1.00  0.00     0.278 C 
ENDBRANCH   8  18
ENDBRANCH   6   7
ENDBRANCH   5   6
ENDBRANCH   3   5
ENDBRANCH   2   3
ENDBRANCH   1   2
BRANCH   1  20
ATOM     20  C   UNL A   1      44.536  22.285  24.415  1.00  0.00     0.275 C 
BRANCH  20  21
ATOM     21  O   UNL A   1      44.254  23.145  25.533  1.00  0.00    -0.458 OA
BRANCH  21  22
ATOM     22  C   UNL A   1      44.854  24.354  25.490  1.00  0.00     0.338 C 
ATOM     23  O   UNL A   1      45.610  24.772  24.629  1.00  0.00    -0.246 OA
BRANCH  22  24
ATOM     24  C   UNL A   1      44.481  25.177  26.656  1.00  0.00     0.060 A 
ATOM     25  C   UNL A   1      43.752  24.652  27.727  1.00  0.00     0.016 A 
ATOM     26  C   UNL A   1      44.720  26.553  26.575  1.00  0.00     0.016 A 
ATOM     27  C   UNL A   1      43.202  25.515  28.681  1.00  0.00     0.010 A 
ATOM     28  C   UNL A   1      44.211  27.406  27.551  1.00  0.00     0.010 A 
ATOM     29  C   UNL A   1      43.423  26.899  28.595  1.00  0.00    -0.014 A 
BRANCH  29  30
ATOM     30  C   UNL A   1      42.885  27.837  29.607  1.00  0.00     0.031 A 
ATOM     31  C   UNL A   1      43.544  27.996  30.949  1.00  0.00     0.074 A 
ATOM     32  C   UNL A   1      41.740  28.489  29.343  1.00  0.00     0.049 A 
ATOM     33  N   UNL A   1      43.101  28.595  32.026  1.00  0.00    -0.248 NA
ATOM     34  C   UNL A   1      44.878  27.401  31.100  1.00  0.00     0.031 C 
ATOM     35  C   UNL A   1      41.013  28.439  28.074  1.00  0.00     0.029 A 
ATOM     36  N   UNL A   1      40.971  29.293  30.143  1.00  0.00    -0.354 N 
ATOM     37  C   UNL A   1      44.097  28.439  32.984  1.00  0.00     0.074 A 
ATOM     38  C   UNL A   1      45.162  27.679  32.366  1.00  0.00     0.031 C 
ATOM     39  C   UNL A   1      39.887  29.158  28.189  1.00  0.00     0.029 A 
ATOM     40  C   UNL A   1      39.792  29.671  29.552  1.00  0.00     0.049 A 
ATOM     41  H   UNL A   1      41.236  29.569  31.050  1.00  0.00     0.167 HD
ATOM     42  C   UNL A   1      44.120  28.889  34.261  1.00  0.00     0.031 A 
ATOM     43  C   UNL A   1      38.728  30.315  30.063  1.00  0.00     0.031 A 
ATOM     44  C   UNL A   1      43.058  29.640  34.876  1.00  0.00     0.049 A 
ATOM     45  C   UNL A   1      38.741  30.741  31.499  1.00  0.00     0.074 A 
ATOM     46  C   UNL A   1      42.987  30.141  36.164  1.00  0.00     0.029 A 
ATOM     47  N   UNL A   1      41.880  29.998  34.241  1.00  0.00    -0.354 N 
ATOM     48  N   UNL A   1      39.673  30.562  32.403  1.00  0.00    -0.248 NA
ATOM     49  C   UNL A   1      37.553  31.455  31.985  1.00  0.00     0.031 C 
ATOM     50  C   UNL A   1      41.751  30.781  36.317  1.00  0.00     0.029 A 
ATOM     51  C   UNL A   1      41.071  30.705  35.113  1.00  0.00     0.049 A 
ATOM     52  H   UNL A   1      41.653  29.782  33.308  1.00  0.00     0.167 HD
ATOM     53  C   UNL A   1      39.191  31.153  33.562  1.00  0.00     0.074 A 
ATOM     54  C   UNL A   1      37.888  31.702  33.244  1.00  0.00     0.031 C 
ATOM     55  C   UNL A   1      39.777  31.234  34.781  1.00  0.00     0.031 A 
BRANCH  42  56
ATOM     56  C   UNL A   1      45.328  28.569  35.094  1.00  0.00    -0.014 A 
ATOM     57  C   UNL A   1      46.414  29.456  35.161  1.00  0.00     0.009 A 
ATOM     58  C   UNL A   1      45.351  27.403  35.874  1.00  0.00     0.009 A 
ATOM     59  C   UNL A   1      47.505  29.171  35.985  1.00  0.00     0.001 A 
ATOM     60  C   UNL A   1      46.435  27.130  36.708  1.00  0.00     0.001 A 
ATOM     61  C   UNL A   1      47.514  28.013  36.761  1.00  0.00     0.000 A 
ENDBRANCH  42  56
BRANCH  43  62
ATOM     62  C   UNL A   1      37.542  30.541  29.204  1.00  0.00    -0.014 A 
ATOM     63  C   UNL A   1      36.693  29.478  28.868  1.00  0.00     0.009 A 
ATOM     64  C   UNL A   1      37.232  31.835  28.758  1.00  0.00     0.009 A 
ATOM     65  C   UNL A   1      35.555  29.708  28.094  1.00  0.00     0.001 A 
ATOM     66  C   UNL A   1      36.082  32.064  28.003  1.00  0.00     0.001 A 
ATOM     67  C   UNL A   1      35.246  31.000  27.668  1.00  0.00     0.000 A 
ENDBRANCH  43  62
BRANCH  55  68
ATOM     68  C   UNL A   1      39.020  31.967  35.846  1.00  0.00    -0.014 A 
ATOM     69  C   UNL A   1      39.149  33.356  35.996  1.00  0.00     0.009 A 
ATOM     70  C   UNL A   1      38.152  31.262  36.695  1.00  0.00     0.009 A 
ATOM     71  C   UNL A   1      38.442  34.023  36.998  1.00  0.00     0.001 A 
ATOM     72  C   UNL A   1      37.435  31.934  37.684  1.00  0.00     0.001 A 
ATOM     73  C   UNL A   1      37.586  33.312  37.839  1.00  0.00     0.000 A 
ENDBRANCH  55  68
ENDBRANCH  29  30
ENDBRANCH  22  24
ENDBRANCH  21  22
ENDBRANCH  20  21
ENDBRANCH   1  20
TORSDOF 14
ENDMDL
MODEL 2
REMARK VINA RESULT:     -10.0      4.652      7.237
REMARK SMILES COc1ccc2c(C)cc(SCC(=O)OCCOC(=O)c3ccc(-c4c5nc(c(-c6ccccc6)c6ccc([nH]6)c(-c6ccccc6)c6nc(c(-c7ccccc7)c7ccc4[nH]7)C=C6)C=C5)cc3)nc2c1
REMARK SMILES IDX 16 1 15 2 13 3 14 4 12 5 11 6 10 7 3 8 4 9 71 10 5 11 70 12
REMARK SMILES IDX 6 13 69 14 7 15 8 16 9 17 2 18 1 19 17 20 18 21 19 22 20 23
REMARK SMILES IDX 21 24 22 25 68 26 23 27 67 28 24 29 25 30 26 31 61 32 27 33
REMARK SMILES IDX 66 34 60 35 62 36 28 37 65 38 59 39 58 40 29 42 51 43 36 44
REMARK SMILES IDX 50 45 37 46 40 47 49 48 63 49 38 50 39 51 48 53 64 54 41 55
REMARK SMILES IDX 30 56 31 57 35 58 32 59 34 60 33 61 52 62 53 63 57 64 54 65
REMARK SMILES IDX 56 66 55 67 42 68 43 69 47 70 44 71 46 72 45 73
REMARK H PARENT 62 41 40 52
REMARK Flexibility Score: inf
ROOT
ATOM      1  C   UNL A   1      42.280  19.502  26.697  1.00  0.00     0.274 C 
ENDROOT
BRANCH   1   2
ATOM      2  O   UNL A   1      41.033  19.811  26.044  1.00  0.00    -0.461 OA
BRANCH   2   3
ATOM      3  C   UNL A   1      40.299  20.811  26.597  1.00  0.00     0.316 C 
ATOM      4  O   UNL A   1      40.564  21.345  27.673  1.00  0.00    -0.251 OA
BRANCH   3   5
ATOM      5  C   UNL A   1      39.100  21.253  25.789  1.00  0.00     0.199 C 
BRANCH   5   6
ATOM      6  S   UNL A   1      38.404  22.872  26.213  1.00  0.00    -0.095 SA
BRANCH   6   7
ATOM      7  C   UNL A   1      36.753  22.853  25.545  1.00  0.00     0.098 A 
ATOM      8  C   UNL A   1      33.271  19.867  24.282  1.00  0.00     0.121 A 
ATOM      9  C   UNL A   1      32.513  20.899  23.749  1.00  0.00     0.047 A 
ATOM     10  C   UNL A   1      34.486  20.146  24.909  1.00  0.00     0.075 A 
ATOM     11  C   UNL A   1      32.993  22.204  23.820  1.00  0.00     0.014 A 
ATOM     12  C   UNL A   1      34.998  21.434  24.967  1.00  0.00     0.075 A 
ATOM     13  C   UNL A   1      34.237  22.489  24.427  1.00  0.00     0.003 A 
ATOM     14  N   UNL A   1      36.209  21.618  25.521  1.00  0.00    -0.241 NA
ATOM     15  C   UNL A   1      34.781  23.786  24.521  1.00  0.00    -0.039 A 
ATOM     16  C   UNL A   1      34.048  24.987  23.999  1.00  0.00     0.045 C 
ATOM     17  C   UNL A   1      36.064  23.952  25.064  1.00  0.00     0.039 A 
BRANCH   8  18
ATOM     18  O   UNL A   1      32.877  18.558  24.267  1.00  0.00    -0.497 OA
ATOM     19  C   UNL A   1      32.559  18.084  22.959  1.00  0.00     0.278 C 
ENDBRANCH   8  18
ENDBRANCH   6   7
ENDBRANCH   5   6
ENDBRANCH   3   5
ENDBRANCH   2   3
ENDBRANCH   1   2
BRANCH   1  20
ATOM     20  C   UNL A   1      43.181  18.667  25.793  1.00  0.00     0.275 C 
BRANCH  20  21
ATOM     21  O   UNL A   1      43.456  19.381  24.576  1.00  0.00    -0.458 OA
BRANCH  21  22
ATOM     22  C   UNL A   1      44.763  19.620  24.336  1.00  0.00     0.338 C 
ATOM     23  O   UNL A   1      45.584  18.842  23.881  1.00  0.00    -0.246 OA
BRANCH  22  24
ATOM     24  C   UNL A   1      45.128  21.003  24.698  1.00  0.00     0.060 A 
ATOM     25  C   UNL A   1      45.535  21.345  25.991  1.00  0.00     0.016 A 
ATOM     26  C   UNL A   1      44.877  22.002  23.752  1.00  0.00     0.016 A 
ATOM     27  C   UNL A   1      45.622  22.693  26.357  1.00  0.00     0.010 A 
ATOM     28  C   UNL A   1      45.009  23.344  24.105  1.00  0.00     0.010 A 
ATOM     29  C   UNL A   1      45.354  23.701  25.417  1.00  0.00    -0.014 A 
BRANCH  29  30
ATOM     30  C   UNL A   1      45.471  25.137  25.762  1.00  0.00     0.031 A 
ATOM     31  C   UNL A   1      46.802  25.835  25.742  1.00  0.00     0.074 A 
ATOM     32  C   UNL A   1      44.377  25.795  26.179  1.00  0.00     0.049 A 
ATOM     33  N   UNL A   1      47.130  27.011  26.214  1.00  0.00    -0.248 NA
ATOM     34  C   UNL A   1      47.913  25.115  25.105  1.00  0.00     0.031 C 
ATOM     35  C   UNL A   1      43.024  25.240  26.224  1.00  0.00     0.029 A 
ATOM     36  N   UNL A   1      44.240  27.064  26.678  1.00  0.00    -0.354 N 
ATOM     37  C   UNL A   1      48.485  27.165  25.943  1.00  0.00     0.074 A 
ATOM     38  C   UNL A   1      48.922  25.959  25.274  1.00  0.00     0.031 C 
ATOM     39  C   UNL A   1      42.196  26.154  26.751  1.00  0.00     0.029 A 
ATOM     40  C   UNL A   1      42.971  27.332  27.125  1.00  0.00     0.049 A 
ATOM     41  H   UNL A   1      44.977  27.715  26.713  1.00  0.00     0.167 HD
ATOM     42  C   UNL A   1      49.290  28.217  26.225  1.00  0.00     0.031 A 
ATOM     43  C   UNL A   1      42.493  28.387  27.808  1.00  0.00     0.031 A 
ATOM     44  C   UNL A   1      48.855  29.415  26.895  1.00  0.00     0.049 A 
ATOM     45  C   UNL A   1      43.415  29.510  28.176  1.00  0.00     0.074 A 
ATOM     46  C   UNL A   1      49.595  30.537  27.226  1.00  0.00     0.029 A 
ATOM     47  N   UNL A   1      47.561  29.643  27.333  1.00  0.00    -0.354 N 
ATOM     48  N   UNL A   1      44.698  29.632  27.941  1.00  0.00    -0.248 NA
ATOM     49  C   UNL A   1      42.821  30.638  28.906  1.00  0.00     0.031 C 
ATOM     50  C   UNL A   1      48.752  31.435  27.891  1.00  0.00     0.029 A 
ATOM     51  C   UNL A   1      47.482  30.884  27.942  1.00  0.00     0.049 A 
ATOM     52  H   UNL A   1      46.810  29.017  27.227  1.00  0.00     0.167 HD
ATOM     53  C   UNL A   1      45.064  30.855  28.482  1.00  0.00     0.074 A 
ATOM     54  C   UNL A   1      43.866  31.441  29.049  1.00  0.00     0.031 C 
ATOM     55  C   UNL A   1      46.285  31.443  28.506  1.00  0.00     0.031 A 
BRANCH  42  56
ATOM     56  C   UNL A   1      50.734  28.121  25.826  1.00  0.00    -0.014 A 
ATOM     57  C   UNL A   1      51.695  27.608  26.712  1.00  0.00     0.009 A 
ATOM     58  C   UNL A   1      51.127  28.479  24.527  1.00  0.00     0.009 A 
ATOM     59  C   UNL A   1      53.024  27.471  26.307  1.00  0.00     0.001 A 
ATOM     60  C   UNL A   1      52.453  28.325  24.121  1.00  0.00     0.001 A 
ATOM     61  C   UNL A   1      53.401  27.825  25.011  1.00  0.00     0.000 A 
ENDBRANCH  42  56
BRANCH  43  62
ATOM     62  C   UNL A   1      41.072  28.389  28.228  1.00  0.00    -0.014 A 
ATOM     63  C   UNL A   1      40.693  27.847  29.462  1.00  0.00     0.009 A 
ATOM     64  C   UNL A   1      40.097  28.980  27.409  1.00  0.00     0.009 A 
ATOM     65  C   UNL A   1      39.359  27.892  29.869  1.00  0.00     0.001 A 
ATOM     66  C   UNL A   1      38.768  29.042  27.827  1.00  0.00     0.001 A 
ATOM     67  C   UNL A   1      38.399  28.494  29.055  1.00  0.00     0.000 A 
ENDBRANCH  43  62
BRANCH  55  68
ATOM     68  C   UNL A   1      46.371  32.797  29.143  1.00  0.00    -0.014 A 
ATOM     69  C   UNL A   1      46.676  32.934  30.505  1.00  0.00     0.009 A 
ATOM     70  C   UNL A   1      46.164  33.947  28.365  1.00  0.00     0.009 A 
ATOM     71  C   UNL A   1      46.746  34.202  31.085  1.00  0.00     0.001 A 
ATOM     72  C   UNL A   1      46.250  35.213  28.944  1.00  0.00     0.001 A 
ATOM     73  C   UNL A   1      46.535  35.339  30.304  1.00  0.00     0.000 A 
ENDBRANCH  55  68
ENDBRANCH  29  30
ENDBRANCH  22  24
ENDBRANCH  21  22
ENDBRANCH  20  21
ENDBRANCH   1  20
TORSDOF 14
ENDMDL
MODEL 3
REMARK VINA RESULT:      -9.8      4.786     10.929
REMARK SMILES COc1ccc2c(C)cc(SCC(=O)OCCOC(=O)c3ccc(-c4c5nc(c(-c6ccccc6)c6ccc([nH]6)c(-c6ccccc6)c6nc(c(-c7ccccc7)c7ccc4[nH]7)C=C6)C=C5)cc3)nc2c1
REMARK SMILES IDX 16 1 15 2 13 3 14 4 12 5 11 6 10 7 3 8 4 9 71 10 5 11 70 12
REMARK SMILES IDX 6 13 69 14 7 15 8 16 9 17 2 18 1 19 17 20 18 21 19 22 20 23
REMARK SMILES IDX 21 24 22 25 68 26 23 27 67 28 24 29 25 30 26 31 61 32 27 33
REMARK SMILES IDX 66 34 60 35 62 36 28 37 65 38 59 39 58 40 29 42 51 43 36 44
REMARK SMILES IDX 50 45 37 46 40 47 49 48 63 49 38 50 39 51 48 53 64 54 41 55
REMARK SMILES IDX 30 56 31 57 35 58 32 59 34 60 33 61 52 62 53 63 57 64 54 65
REMARK SMILES IDX 56 66 55 67 42 68 43 69 47 70 44 71 46 72 45 73
REMARK H PARENT 62 41 40 52
REMARK Flexibility Score: inf
ROOT
ATOM      1  C   UNL A   1      33.535  34.827  28.813  1.00  0.00     0.274 C 
ENDROOT
BRANCH   1   2
ATOM      2  O   UNL A   1      33.528  34.559  30.229  1.00  0.00    -0.461 OA
BRANCH   2   3
ATOM      3  C   UNL A   1      33.117  35.575  31.030  1.00  0.00     0.316 C 
ATOM      4  O   UNL A   1      32.514  36.568  30.626  1.00  0.00    -0.251 OA
BRANCH   3   5
ATOM      5  C   UNL A   1      33.446  35.413  32.497  1.00  0.00     0.199 C 
BRANCH   5   6
ATOM      6  S   UNL A   1      34.049  33.780  33.003  1.00  0.00    -0.095 SA
BRANCH   6   7
ATOM      7  C   UNL A   1      35.758  34.035  33.436  1.00  0.00     0.098 A 
ATOM      8  C   UNL A   1      40.072  34.513  31.489  1.00  0.00     0.121 A 
ATOM      9  C   UNL A   1      40.689  34.502  32.732  1.00  0.00     0.047 A 
ATOM     10  C   UNL A   1      38.681  34.459  31.400  1.00  0.00     0.075 A 
ATOM     11  C   UNL A   1      39.906  34.404  33.878  1.00  0.00     0.014 A 
ATOM     12  C   UNL A   1      37.882  34.333  32.526  1.00  0.00     0.075 A 
ATOM     13  C   UNL A   1      38.498  34.318  33.793  1.00  0.00     0.003 A 
ATOM     14  N   UNL A   1      36.554  34.210  32.360  1.00  0.00    -0.241 NA
ATOM     15  C   UNL A   1      37.653  34.207  34.916  1.00  0.00    -0.039 A 
ATOM     16  C   UNL A   1      38.198  34.203  36.314  1.00  0.00     0.045 C 
ATOM     17  C   UNL A   1      36.273  34.038  34.721  1.00  0.00     0.039 A 
BRANCH   8  18
ATOM     18  O   UNL A   1      40.757  34.616  30.310  1.00  0.00    -0.497 OA
ATOM     19  C   UNL A   1      39.920  34.952  29.204  1.00  0.00     0.278 C 
ENDBRANCH   8  18
ENDBRANCH   6   7
ENDBRANCH   5   6
ENDBRANCH   3   5
ENDBRANCH   2   3
ENDBRANCH   1   2
BRANCH   1  20
ATOM     20  C   UNL A   1      33.359  33.544  28.009  1.00  0.00     0.275 C 
BRANCH  20  21
ATOM     21  O   UNL A   1      34.645  32.976  27.701  1.00  0.00    -0.458 OA
BRANCH  21  22
ATOM     22  C   UNL A   1      34.695  31.627  27.727  1.00  0.00     0.338 C 
ATOM     23  O   UNL A   1      33.907  30.849  27.216  1.00  0.00    -0.246 OA
BRANCH  22  24
ATOM     24  C   UNL A   1      35.873  31.152  28.476  1.00  0.00     0.060 A 
ATOM     25  C   UNL A   1      37.123  31.768  28.355  1.00  0.00     0.016 A 
ATOM     26  C   UNL A   1      35.747  29.947  29.176  1.00  0.00     0.016 A 
ATOM     27  C   UNL A   1      38.259  31.138  28.876  1.00  0.00     0.010 A 
ATOM     28  C   UNL A   1      36.873  29.345  29.733  1.00  0.00     0.010 A 
ATOM     29  C   UNL A   1      38.142  29.919  29.563  1.00  0.00    -0.014 A 
BRANCH  29  30
ATOM     30  C   UNL A   1      39.319  29.244  30.157  1.00  0.00     0.031 A 
ATOM     31  C   UNL A   1      39.996  29.795  31.380  1.00  0.00     0.074 A 
ATOM     32  C   UNL A   1      39.832  28.170  29.534  1.00  0.00     0.049 A 
ATOM     33  N   UNL A   1      41.150  29.471  31.907  1.00  0.00    -0.248 NA
ATOM     34  C   UNL A   1      39.281  30.851  32.108  1.00  0.00     0.031 C 
ATOM     35  C   UNL A   1      39.259  27.524  28.353  1.00  0.00     0.029 A 
ATOM     36  N   UNL A   1      40.974  27.456  29.791  1.00  0.00    -0.354 N 
ATOM     37  C   UNL A   1      41.303  30.291  33.020  1.00  0.00     0.074 A 
ATOM     38  C   UNL A   1      40.130  31.135  33.087  1.00  0.00     0.031 C 
ATOM     39  C   UNL A   1      40.067  26.525  27.968  1.00  0.00     0.029 A 
ATOM     40  C   UNL A   1      41.234  26.499  28.844  1.00  0.00     0.049 A 
ATOM     41  H   UNL A   1      41.549  27.616  30.573  1.00  0.00     0.167 HD
ATOM     42  C   UNL A   1      42.328  30.334  33.904  1.00  0.00     0.031 A 
ATOM     43  C   UNL A   1      42.316  25.720  28.666  1.00  0.00     0.031 A 
ATOM     44  C   UNL A   1      43.496  29.497  33.834  1.00  0.00     0.049 A 
ATOM     45  C   UNL A   1      43.472  25.832  29.612  1.00  0.00     0.074 A 
ATOM     46  C   UNL A   1      44.589  29.464  34.683  1.00  0.00     0.029 A 
ATOM     47  N   UNL A   1      43.720  28.542  32.855  1.00  0.00    -0.354 N 
ATOM     48  N   UNL A   1      43.619  26.631  30.642  1.00  0.00    -0.248 NA
ATOM     49  C   UNL A   1      44.612  24.939  29.369  1.00  0.00     0.031 C 
ATOM     50  C   UNL A   1      45.489  28.507  34.201  1.00  0.00     0.029 A 
ATOM     51  C   UNL A   1      44.938  27.922  33.073  1.00  0.00     0.049 A 
ATOM     52  H   UNL A   1      43.104  28.336  32.116  1.00  0.00     0.167 HD
ATOM     53  C   UNL A   1      44.861  26.327  31.178  1.00  0.00     0.074 A 
ATOM     54  C   UNL A   1      45.424  25.266  30.366  1.00  0.00     0.031 C 
ATOM     55  C   UNL A   1      45.482  26.877  32.249  1.00  0.00     0.031 A 
BRANCH  42  56
ATOM     56  C   UNL A   1      42.245  31.332  35.023  1.00  0.00    -0.014 A 
ATOM     57  C   UNL A   1      42.957  32.540  34.967  1.00  0.00     0.009 A 
ATOM     58  C   UNL A   1      41.392  31.093  36.112  1.00  0.00     0.009 A 
ATOM     59  C   UNL A   1      42.826  33.483  35.988  1.00  0.00     0.001 A 
ATOM     60  C   UNL A   1      41.251  32.045  37.122  1.00  0.00     0.001 A 
ATOM     61  C   UNL A   1      41.970  33.238  37.062  1.00  0.00     0.000 A 
ENDBRANCH  42  56
BRANCH  43  62
ATOM     62  C   UNL A   1      42.360  24.802  27.503  1.00  0.00    -0.014 A 
ATOM     63  C   UNL A   1      42.961  25.203  26.303  1.00  0.00     0.009 A 
ATOM     64  C   UNL A   1      41.840  23.503  27.611  1.00  0.00     0.009 A 
ATOM     65  C   UNL A   1      43.036  24.317  25.227  1.00  0.00     0.001 A 
ATOM     66  C   UNL A   1      41.936  22.614  26.541  1.00  0.00     0.001 A 
ATOM     67  C   UNL A   1      42.530  23.022  25.348  1.00  0.00     0.000 A 
ENDBRANCH  43  62
BRANCH  55  68
ATOM     68  C   UNL A   1      46.824  26.318  32.614  1.00  0.00    -0.014 A 
ATOM     69  C   UNL A   1      48.001  26.865  32.081  1.00  0.00     0.009 A 
ATOM     70  C   UNL A   1      46.911  25.247  33.516  1.00  0.00     0.009 A 
ATOM     71  C   UNL A   1      49.242  26.329  32.425  1.00  0.00     0.001 A 
ATOM     72  C   UNL A   1      48.154  24.724  33.870  1.00  0.00     0.001 A 
ATOM     73  C   UNL A   1      49.318  25.261  33.319  1.00  0.00     0.000 A 
ENDBRANCH  55  68
ENDBRANCH  29  30
ENDBRANCH  22  24
ENDBRANCH  21  22
ENDBRANCH  20  21
ENDBRANCH   1  20
TORSDOF 14
ENDMDL
