MODEL 1
REMARK VINA RESULT:     -10.0      0.000      0.000
REMARK SMILES CC(=O)N[C@H](C(=O)NC1(CC(=O)OCCOC(=O)c2ccc(-c3c4nc(c(-c5ccccc5)c5ccc([nH]5)c(-c5ccccc5)c5nc(c(-c6ccccc6)c6ccc3[nH]6)C=C5)C=C4)cc2)CCC1)C(C)C
REMARK SMILES IDX 14 1 13 2 11 3 12 4 10 5 9 6 67 7 69 8 68 9 8 10 6 11 7 12
REMARK SMILES IDX 5 14 4 15 1 16 2 17 3 18 70 20 71 21 72 22 15 23 16 24 17 25
REMARK SMILES IDX 18 26 19 27 20 28 66 29 21 30 65 31 22 32 23 33 24 34 59 35
REMARK SMILES IDX 25 36 64 37 58 38 60 39 26 40 63 41 57 42 56 43 27 45 49 46
REMARK SMILES IDX 34 47 48 48 35 49 38 50 47 51 61 52 36 53 37 54 46 56 62 57
REMARK SMILES IDX 39 58 28 59 29 60 33 61 30 62 32 63 31 64 50 65 51 66 55 67
REMARK SMILES IDX 52 68 54 69 53 70 40 71 41 72 45 73 42 74 44 75 43 76
REMARK H PARENT 8 13 4 19 60 44 38 55
REMARK Flexibility Score: inf
ROOT
ATOM      1  C   UNL A   1      37.630  21.404  24.950  1.00  0.00     0.274 C 
ENDROOT
BRANCH   1   2
ATOM      2  O   UNL A   1      36.399  21.098  25.642  1.00  0.00    -0.462 OA
BRANCH   2   3
ATOM      3  C   UNL A   1      35.516  22.119  25.671  1.00  0.00     0.308 C 
ATOM      4  O   UNL A   1      35.480  22.971  26.557  1.00  0.00    -0.252 OA
BRANCH   3   5
ATOM      5  C   UNL A   1      34.479  22.117  24.595  1.00  0.00     0.151 C 
BRANCH   5   6
ATOM      6  C   UNL A   1      32.968  21.976  24.836  1.00  0.00     0.051 C 
ATOM      7  C   UNL A   1      32.681  20.416  25.014  1.00  0.00     0.029 C 
ATOM      8  C   UNL A   1      32.042  21.839  23.592  1.00  0.00     0.029 C 
ATOM      9  C   UNL A   1      32.402  20.344  23.510  1.00  0.00     0.005 C 
BRANCH   6  10
ATOM     10  N   UNL A   1      32.444  22.631  26.065  1.00  0.00    -0.348 N 
ATOM     11  C   UNL A   1      32.060  23.909  26.402  1.00  0.00     0.243 C 
ATOM     12  O   UNL A   1      31.274  23.988  27.354  1.00  0.00    -0.273 OA
ATOM     13  H   UNL A   1      32.348  22.000  26.815  1.00  0.00     0.164 HD
BRANCH  11  14
ATOM     14  C   UNL A   1      32.545  25.168  25.636  1.00  0.00     0.173 C 
BRANCH  14  15
ATOM     15  N   UNL A   1      31.769  25.413  24.411  1.00  0.00    -0.344 N 
ATOM     16  C   UNL A   1      33.642  25.720  22.818  1.00  0.00     0.114 C 
ATOM     17  C   UNL A   1      32.192  25.451  23.115  1.00  0.00     0.217 C 
ATOM     18  O   UNL A   1      31.356  25.353  22.217  1.00  0.00    -0.275 OA
ATOM     19  H   UNL A   1      30.807  25.575  24.546  1.00  0.00     0.164 HD
ENDBRANCH  14  15
BRANCH  14  20
ATOM     20  C   UNL A   1      32.657  26.513  26.433  1.00  0.00     0.015 C 
ATOM     21  C   UNL A   1      33.826  27.449  26.106  1.00  0.00     0.010 C 
ATOM     22  C   UNL A   1      31.366  27.335  26.228  1.00  0.00     0.010 C 
ENDBRANCH  14  20
ENDBRANCH  11  14
ENDBRANCH   6  10
ENDBRANCH   5   6
ENDBRANCH   3   5
ENDBRANCH   2   3
ENDBRANCH   1   2
BRANCH   1  23
ATOM     23  C   UNL A   1      38.892  21.247  25.810  1.00  0.00     0.275 C 
BRANCH  23  24
ATOM     24  O   UNL A   1      39.495  19.940  25.716  1.00  0.00    -0.458 OA
BRANCH  24  25
ATOM     25  C   UNL A   1      40.800  19.933  26.065  1.00  0.00     0.338 C 
ATOM     26  O   UNL A   1      41.585  19.023  25.887  1.00  0.00    -0.246 OA
BRANCH  25  27
ATOM     27  C   UNL A   1      41.256  21.192  26.645  1.00  0.00     0.060 A 
ATOM     28  C   UNL A   1      41.854  22.133  25.807  1.00  0.00     0.016 A 
ATOM     29  C   UNL A   1      41.263  21.358  28.029  1.00  0.00     0.016 A 
ATOM     30  C   UNL A   1      42.425  23.277  26.347  1.00  0.00     0.010 A 
ATOM     31  C   UNL A   1      41.793  22.530  28.570  1.00  0.00     0.010 A 
ATOM     32  C   UNL A   1      42.349  23.505  27.727  1.00  0.00    -0.014 A 
BRANCH  32  33
ATOM     33  C   UNL A   1      42.668  24.850  28.248  1.00  0.00     0.031 A 
ATOM     34  C   UNL A   1      41.620  25.898  28.434  1.00  0.00     0.074 A 
ATOM     35  C   UNL A   1      43.961  25.102  28.529  1.00  0.00     0.049 A 
ATOM     36  N   UNL A   1      41.767  27.137  28.828  1.00  0.00    -0.248 NA
ATOM     37  C   UNL A   1      40.232  25.516  28.139  1.00  0.00     0.031 C 
ATOM     38  C   UNL A   1      45.057  24.136  28.384  1.00  0.00     0.029 A 
ATOM     39  N   UNL A   1      44.574  26.234  28.991  1.00  0.00    -0.354 N 
ATOM     40  C   UNL A   1      40.496  27.692  28.815  1.00  0.00     0.074 A 
ATOM     41  C   UNL A   1      39.588  26.655  28.365  1.00  0.00     0.031 C 
ATOM     42  C   UNL A   1      46.202  24.711  28.772  1.00  0.00     0.029 A 
ATOM     43  C   UNL A   1      45.932  26.096  29.133  1.00  0.00     0.049 A 
ATOM     44  H   UNL A   1      44.089  27.065  29.201  1.00  0.00     0.167 HD
ATOM     45  C   UNL A   1      40.130  28.955  29.143  1.00  0.00     0.031 A 
ATOM     46  C   UNL A   1      46.866  26.994  29.487  1.00  0.00     0.031 A 
ATOM     47  C   UNL A   1      41.050  29.978  29.569  1.00  0.00     0.049 A 
ATOM     48  C   UNL A   1      46.435  28.391  29.803  1.00  0.00     0.074 A 
ATOM     49  C   UNL A   1      40.779  31.285  29.937  1.00  0.00     0.029 A 
ATOM     50  N   UNL A   1      42.424  29.813  29.675  1.00  0.00    -0.354 N 
ATOM     51  N   UNL A   1      45.226  28.898  29.801  1.00  0.00    -0.248 NA
ATOM     52  C   UNL A   1      47.494  29.340  30.166  1.00  0.00     0.031 C 
ATOM     53  C   UNL A   1      41.993  31.922  30.222  1.00  0.00     0.029 A 
ATOM     54  C   UNL A   1      43.016  30.998  30.079  1.00  0.00     0.049 A 
ATOM     55  H   UNL A   1      42.906  28.975  29.492  1.00  0.00     0.167 HD
ATOM     56  C   UNL A   1      45.375  30.226  30.170  1.00  0.00     0.074 A 
ATOM     57  C   UNL A   1      46.790  30.436  30.412  1.00  0.00     0.031 C 
ATOM     58  C   UNL A   1      44.428  31.187  30.293  1.00  0.00     0.031 A 
BRANCH  45  59
ATOM     59  C   UNL A   1      38.676  29.311  29.016  1.00  0.00    -0.014 A 
ATOM     60  C   UNL A   1      38.136  29.755  27.799  1.00  0.00     0.009 A 
ATOM     61  C   UNL A   1      37.822  29.156  30.120  1.00  0.00     0.009 A 
ATOM     62  C   UNL A   1      36.776  30.060  27.698  1.00  0.00     0.001 A 
ATOM     63  C   UNL A   1      36.460  29.442  30.011  1.00  0.00     0.001 A 
ATOM     64  C   UNL A   1      35.940  29.901  28.802  1.00  0.00     0.000 A 
ENDBRANCH  45  59
BRANCH  46  65
ATOM     65  C   UNL A   1      48.292  26.589  29.537  1.00  0.00    -0.014 A 
ATOM     66  C   UNL A   1      48.805  25.927  30.660  1.00  0.00     0.009 A 
ATOM     67  C   UNL A   1      49.135  26.823  28.438  1.00  0.00     0.009 A 
ATOM     68  C   UNL A   1      50.140  25.521  30.690  1.00  0.00     0.001 A 
ATOM     69  C   UNL A   1      50.462  26.391  28.460  1.00  0.00     0.001 A 
ATOM     70  C   UNL A   1      50.965  25.746  29.588  1.00  0.00     0.000 A 
ENDBRANCH  46  65
BRANCH  58  71
ATOM     71  C   UNL A   1      44.907  32.543  30.719  1.00  0.00    -0.014 A 
ATOM     72  C   UNL A   1      44.992  32.885  32.078  1.00  0.00     0.009 A 
ATOM     73  C   UNL A   1      45.273  33.489  29.751  1.00  0.00     0.009 A 
ATOM     74  C   UNL A   1      45.400  34.164  32.457  1.00  0.00     0.001 A 
ATOM     75  C   UNL A   1      45.704  34.760  30.135  1.00  0.00     0.001 A 
ATOM     76  C   UNL A   1      45.757  35.098  31.486  1.00  0.00     0.000 A 
ENDBRANCH  58  71
ENDBRANCH  32  33
ENDBRANCH  25  27
ENDBRANCH  24  25
ENDBRANCH  23  24
ENDBRANCH   1  23
TORSDOF 16
ENDMDL
MODEL 2
REMARK VINA RESULT:      -9.9      0.997      6.183
REMARK SMILES CC(=O)N[C@H](C(=O)NC1(CC(=O)OCCOC(=O)c2ccc(-c3c4nc(c(-c5ccccc5)c5ccc([nH]5)c(-c5ccccc5)c5nc(c(-c6ccccc6)c6ccc3[nH]6)C=C5)C=C4)cc2)CCC1)C(C)C
REMARK SMILES IDX 14 1 13 2 11 3 12 4 10 5 9 6 67 7 69 8 68 9 8 10 6 11 7 12
REMARK SMILES IDX 5 14 4 15 1 16 2 17 3 18 70 20 71 21 72 22 15 23 16 24 17 25
REMARK SMILES IDX 18 26 19 27 20 28 66 29 21 30 65 31 22 32 23 33 24 34 59 35
REMARK SMILES IDX 25 36 64 37 58 38 60 39 26 40 63 41 57 42 56 43 27 45 49 46
REMARK SMILES IDX 34 47 48 48 35 49 38 50 47 51 61 52 36 53 37 54 46 56 62 57
REMARK SMILES IDX 39 58 28 59 29 60 33 61 30 62 32 63 31 64 50 65 51 66 55 67
REMARK SMILES IDX 52 68 54 69 53 70 40 71 41 72 45 73 42 74 44 75 43 76
REMARK H PARENT 8 13 4 19 60 44 38 55
REMARK Flexibility Score: inf
ROOT
ATOM      1  C   UNL A   1      38.271  20.532  25.295  1.00  0.00     0.274 C 
ENDROOT
BRANCH   1   2
ATOM      2  O   UNL A   1      36.906  20.110  25.081  1.00  0.00    -0.462 OA
BRANCH   2   3
ATOM      3  C   UNL A   1      35.990  21.074  25.318  1.00  0.00     0.308 C 
ATOM      4  O   UNL A   1      36.092  21.915  26.209  1.00  0.00    -0.252 OA
BRANCH   3   5
ATOM      5  C   UNL A   1      34.751  21.018  24.483  1.00  0.00     0.151 C 
BRANCH   5   6
ATOM      6  C   UNL A   1      33.340  20.755  25.031  1.00  0.00     0.051 C 
ATOM      7  C   UNL A   1      33.286  19.209  25.423  1.00  0.00     0.029 C 
ATOM      8  C   UNL A   1      32.225  20.369  24.014  1.00  0.00     0.029 C 
ATOM      9  C   UNL A   1      32.747  18.919  24.018  1.00  0.00     0.005 C 
BRANCH   6  10
ATOM     10  N   UNL A   1      32.973  21.502  26.263  1.00  0.00    -0.348 N 
ATOM     11  C   UNL A   1      32.483  22.759  26.533  1.00  0.00     0.243 C 
ATOM     12  O   UNL A   1      31.890  22.873  27.614  1.00  0.00    -0.273 OA
ATOM     13  H   UNL A   1      33.113  20.970  27.081  1.00  0.00     0.164 HD
BRANCH  11  14
ATOM     14  C   UNL A   1      32.628  23.953  25.552  1.00  0.00     0.173 C 
BRANCH  14  15
ATOM     15  N   UNL A   1      31.580  24.967  25.742  1.00  0.00    -0.344 N 
ATOM     16  C   UNL A   1      30.486  24.817  23.524  1.00  0.00     0.114 C 
ATOM     17  C   UNL A   1      30.489  25.236  24.969  1.00  0.00     0.217 C 
ATOM     18  O   UNL A   1      29.569  25.894  25.453  1.00  0.00    -0.275 OA
ATOM     19  H   UNL A   1      31.681  25.534  26.541  1.00  0.00     0.164 HD
ENDBRANCH  14  15
BRANCH  14  20
ATOM     20  C   UNL A   1      34.015  24.678  25.480  1.00  0.00     0.015 C 
ATOM     21  C   UNL A   1      34.807  24.592  24.170  1.00  0.00     0.010 C 
ATOM     22  C   UNL A   1      33.821  26.180  25.777  1.00  0.00     0.010 C 
ENDBRANCH  14  20
ENDBRANCH  11  14
ENDBRANCH   6  10
ENDBRANCH   5   6
ENDBRANCH   3   5
ENDBRANCH   2   3
ENDBRANCH   1   2
BRANCH   1  23
ATOM     23  C   UNL A   1      39.220  19.403  25.722  1.00  0.00     0.275 C 
BRANCH  23  24
ATOM     24  O   UNL A   1      40.546  19.520  25.167  1.00  0.00    -0.458 OA
BRANCH  24  25
ATOM     25  C   UNL A   1      41.511  19.586  26.109  1.00  0.00     0.338 C 
ATOM     26  O   UNL A   1      42.174  18.656  26.522  1.00  0.00    -0.246 OA
BRANCH  25  27
ATOM     27  C   UNL A   1      41.773  20.941  26.583  1.00  0.00     0.060 A 
ATOM     28  C   UNL A   1      41.536  21.236  27.925  1.00  0.00     0.016 A 
ATOM     29  C   UNL A   1      42.067  21.952  25.669  1.00  0.00     0.016 A 
ATOM     30  C   UNL A   1      41.638  22.544  28.376  1.00  0.00     0.010 A 
ATOM     31  C   UNL A   1      42.217  23.261  26.128  1.00  0.00     0.010 A 
ATOM     32  C   UNL A   1      42.031  23.554  27.489  1.00  0.00    -0.014 A 
BRANCH  32  33
ATOM     33  C   UNL A   1      42.442  24.864  28.034  1.00  0.00     0.031 A 
ATOM     34  C   UNL A   1      43.855  25.154  28.424  1.00  0.00     0.074 A 
ATOM     35  C   UNL A   1      41.475  25.788  28.189  1.00  0.00     0.049 A 
ATOM     36  N   UNL A   1      44.344  26.239  28.967  1.00  0.00    -0.248 NA
ATOM     37  C   UNL A   1      44.846  24.097  28.179  1.00  0.00     0.031 C 
ATOM     38  C   UNL A   1      40.064  25.598  27.831  1.00  0.00     0.029 A 
ATOM     39  N   UNL A   1      41.523  27.063  28.683  1.00  0.00    -0.354 N 
ATOM     40  C   UNL A   1      45.698  25.995  29.146  1.00  0.00     0.074 A 
ATOM     41  C   UNL A   1      45.952  24.653  28.660  1.00  0.00     0.031 C 
ATOM     42  C   UNL A   1      39.388  26.723  28.096  1.00  0.00     0.029 A 
ATOM     43  C   UNL A   1      40.300  27.686  28.696  1.00  0.00     0.049 A 
ATOM     44  H   UNL A   1      42.352  27.490  28.999  1.00  0.00     0.167 HD
ATOM     45  C   UNL A   1      46.634  26.819  29.676  1.00  0.00     0.031 A 
ATOM     46  C   UNL A   1      39.943  28.893  29.165  1.00  0.00     0.031 A 
ATOM     47  C   UNL A   1      46.359  28.143  30.173  1.00  0.00     0.049 A 
ATOM     48  C   UNL A   1      40.993  29.763  29.782  1.00  0.00     0.074 A 
ATOM     49  C   UNL A   1      47.239  29.063  30.716  1.00  0.00     0.029 A 
ATOM     50  N   UNL A   1      45.103  28.734  30.195  1.00  0.00    -0.354 N 
ATOM     51  N   UNL A   1      42.273  29.524  29.931  1.00  0.00    -0.248 NA
ATOM     52  C   UNL A   1      40.550  31.063  30.297  1.00  0.00     0.031 C 
ATOM     53  C   UNL A   1      46.509  30.191  31.108  1.00  0.00     0.029 A 
ATOM     54  C   UNL A   1      45.181  29.994  30.764  1.00  0.00     0.049 A 
ATOM     55  H   UNL A   1      44.278  28.318  29.855  1.00  0.00     0.167 HD
ATOM     56  C   UNL A   1      42.794  30.649  30.552  1.00  0.00     0.074 A 
ATOM     57  C   UNL A   1      41.693  31.577  30.726  1.00  0.00     0.031 C 
ATOM     58  C   UNL A   1      44.068  30.890  30.946  1.00  0.00     0.031 A 
BRANCH  45  59
ATOM     59  C   UNL A   1      48.039  26.296  29.781  1.00  0.00    -0.014 A 
ATOM     60  C   UNL A   1      48.930  26.375  28.699  1.00  0.00     0.009 A 
ATOM     61  C   UNL A   1      48.493  25.756  30.995  1.00  0.00     0.009 A 
ATOM     62  C   UNL A   1      50.239  25.902  28.825  1.00  0.00     0.001 A 
ATOM     63  C   UNL A   1      49.807  25.303  31.124  1.00  0.00     0.001 A 
ATOM     64  C   UNL A   1      50.676  25.370  30.037  1.00  0.00     0.000 A 
ENDBRANCH  45  59
BRANCH  46  65
ATOM     65  C   UNL A   1      38.526  29.323  29.081  1.00  0.00    -0.014 A 
ATOM     66  C   UNL A   1      37.669  29.170  30.178  1.00  0.00     0.009 A 
ATOM     67  C   UNL A   1      38.038  29.930  27.912  1.00  0.00     0.009 A 
ATOM     68  C   UNL A   1      36.344  29.603  30.103  1.00  0.00     0.001 A 
ATOM     69  C   UNL A   1      36.720  30.387  27.850  1.00  0.00     0.001 A 
ATOM     70  C   UNL A   1      35.873  30.218  28.943  1.00  0.00     0.000 A 
ENDBRANCH  46  65
BRANCH  58  71
ATOM     71  C   UNL A   1      44.323  32.219  31.593  1.00  0.00    -0.014 A 
ATOM     72  C   UNL A   1      44.666  33.343  30.824  1.00  0.00     0.009 A 
ATOM     73  C   UNL A   1      44.224  32.347  32.986  1.00  0.00     0.009 A 
ATOM     74  C   UNL A   1      44.941  34.562  31.445  1.00  0.00     0.001 A 
ATOM     75  C   UNL A   1      44.477  33.574  33.601  1.00  0.00     0.001 A 
ATOM     76  C   UNL A   1      44.845  34.676  32.831  1.00  0.00     0.000 A 
ENDBRANCH  58  71
ENDBRANCH  32  33
ENDBRANCH  25  27
ENDBRANCH  24  25
ENDBRANCH  23  24
ENDBRANCH   1  23
TORSDOF 16
ENDMDL
MODEL 3
REMARK VINA RESULT:      -9.8      2.222      7.247
REMARK SMILES CC(=O)N[C@H](C(=O)NC1(CC(=O)OCCOC(=O)c2ccc(-c3c4nc(c(-c5ccccc5)c5ccc([nH]5)c(-c5ccccc5)c5nc(c(-c6ccccc6)c6ccc3[nH]6)C=C5)C=C4)cc2)CCC1)C(C)C
REMARK SMILES IDX 14 1 13 2 11 3 12 4 10 5 9 6 67 7 69 8 68 9 8 10 6 11 7 12
REMARK SMILES IDX 5 14 4 15 1 16 2 17 3 18 70 20 71 21 72 22 15 23 16 24 17 25
REMARK SMILES IDX 18 26 19 27 20 28 66 29 21 30 65 31 22 32 23 33 24 34 59 35
REMARK SMILES IDX 25 36 64 37 58 38 60 39 26 40 63 41 57 42 56 43 27 45 49 46
REMARK SMILES IDX 34 47 48 48 35 49 38 50 47 51 61 52 36 53 37 54 46 56 62 57
REMARK SMILES IDX 39 58 28 59 29 60 33 61 30 62 32 63 31 64 50 65 51 66 55 67
REMARK SMILES IDX 52 68 54 69 53 70 40 71 41 72 45 73 42 74 44 75 43 76
REMARK H PARENT 8 13 4 19 60 44 38 55
REMARK Flexibility Score: inf
ROOT
ATOM      1  C   UNL A   1      31.825  29.657  26.299  1.00  0.00     0.274 C 
ENDROOT
BRANCH   1   2
ATOM      2  O   UNL A   1      32.185  28.336  25.838  1.00  0.00    -0.462 OA
BRANCH   2   3
ATOM      3  C   UNL A   1      31.573  27.335  26.507  1.00  0.00     0.308 C 
ATOM      4  O   UNL A   1      31.333  27.361  27.713  1.00  0.00    -0.252 OA
BRANCH   3   5
ATOM      5  C   UNL A   1      31.274  26.104  25.713  1.00  0.00     0.151 C 
BRANCH   5   6
ATOM      6  C   UNL A   1      31.089  26.071  24.188  1.00  0.00     0.051 C 
ATOM      7  C   UNL A   1      30.088  27.260  23.827  1.00  0.00     0.029 C 
ATOM      8  C   UNL A   1      29.962  25.164  23.612  1.00  0.00     0.029 C 
ATOM      9  C   UNL A   1      28.933  26.261  23.944  1.00  0.00     0.005 C 
BRANCH   6  10
ATOM     10  N   UNL A   1      32.316  26.309  23.381  1.00  0.00    -0.348 N 
ATOM     11  C   UNL A   1      33.399  25.549  23.005  1.00  0.00     0.243 C 
ATOM     12  O   UNL A   1      33.986  25.937  21.986  1.00  0.00    -0.273 OA
ATOM     13  H   UNL A   1      32.363  27.229  23.032  1.00  0.00     0.164 HD
BRANCH  11  14
ATOM     14  C   UNL A   1      33.849  24.278  23.772  1.00  0.00     0.173 C 
BRANCH  14  15
ATOM     15  N   UNL A   1      33.490  23.038  23.066  1.00  0.00    -0.344 N 
ATOM     16  C   UNL A   1      31.801  22.162  24.653  1.00  0.00     0.114 C 
ATOM     17  C   UNL A   1      32.453  22.183  23.297  1.00  0.00     0.217 C 
ATOM     18  O   UNL A   1      32.135  21.387  22.414  1.00  0.00    -0.275 OA
ATOM     19  H   UNL A   1      34.084  22.790  22.321  1.00  0.00     0.164 HD
ENDBRANCH  14  15
BRANCH  14  20
ATOM     20  C   UNL A   1      35.349  24.182  24.215  1.00  0.00     0.015 C 
ATOM     21  C   UNL A   1      35.648  23.831  25.678  1.00  0.00     0.010 C 
ATOM     22  C   UNL A   1      36.068  23.120  23.355  1.00  0.00     0.010 C 
ENDBRANCH  14  20
ENDBRANCH  11  14
ENDBRANCH   6  10
ENDBRANCH   5   6
ENDBRANCH   3   5
ENDBRANCH   2   3
ENDBRANCH   1   2
BRANCH   1  23
ATOM     23  C   UNL A   1      33.024  30.557  26.629  1.00  0.00     0.275 C 
BRANCH  23  24
ATOM     24  O   UNL A   1      33.963  29.956  27.544  1.00  0.00    -0.458 OA
BRANCH  24  25
ATOM     25  C   UNL A   1      34.786  30.856  28.125  1.00  0.00     0.338 C 
ATOM     26  O   UNL A   1      34.500  31.995  28.431  1.00  0.00    -0.246 OA
BRANCH  25  27
ATOM     27  C   UNL A   1      36.105  30.318  28.446  1.00  0.00     0.060 A 
ATOM     28  C   UNL A   1      37.076  30.294  27.446  1.00  0.00     0.016 A 
ATOM     29  C   UNL A   1      36.315  29.674  29.665  1.00  0.00     0.016 A 
ATOM     30  C   UNL A   1      38.290  29.663  27.675  1.00  0.00     0.010 A 
ATOM     31  C   UNL A   1      37.552  29.080  29.915  1.00  0.00     0.010 A 
ATOM     32  C   UNL A   1      38.553  29.098  28.930  1.00  0.00    -0.014 A 
BRANCH  32  33
ATOM     33  C   UNL A   1      39.940  28.717  29.267  1.00  0.00     0.031 A 
ATOM     34  C   UNL A   1      40.867  29.646  29.980  1.00  0.00     0.074 A 
ATOM     35  C   UNL A   1      40.345  27.494  28.877  1.00  0.00     0.049 A 
ATOM     36  N   UNL A   1      42.125  29.463  30.288  1.00  0.00    -0.248 NA
ATOM     37  C   UNL A   1      40.321  30.944  30.400  1.00  0.00     0.031 C 
ATOM     38  C   UNL A   1      39.506  26.512  28.178  1.00  0.00     0.029 A 
ATOM     39  N   UNL A   1      41.552  26.864  29.010  1.00  0.00    -0.354 N 
ATOM     40  C   UNL A   1      42.532  30.628  30.925  1.00  0.00     0.074 A 
ATOM     41  C   UNL A   1      41.386  31.515  30.951  1.00  0.00     0.031 C 
ATOM     42  C   UNL A   1      40.219  25.399  27.965  1.00  0.00     0.029 A 
ATOM     43  C   UNL A   1      41.573  25.609  28.456  1.00  0.00     0.049 A 
ATOM     44  H   UNL A   1      42.328  27.271  29.459  1.00  0.00     0.167 HD
ATOM     45  C   UNL A   1      43.754  30.922  31.430  1.00  0.00     0.031 A 
ATOM     46  C   UNL A   1      42.582  24.731  28.328  1.00  0.00     0.031 A 
ATOM     47  C   UNL A   1      44.887  30.035  31.376  1.00  0.00     0.049 A 
ATOM     48  C   UNL A   1      43.929  25.102  28.860  1.00  0.00     0.074 A 
ATOM     49  C   UNL A   1      46.165  30.233  31.870  1.00  0.00     0.029 A 
ATOM     50  N   UNL A   1      44.882  28.780  30.782  1.00  0.00    -0.354 N 
ATOM     51  N   UNL A   1      44.295  26.202  29.473  1.00  0.00    -0.248 NA
ATOM     52  C   UNL A   1      45.002  24.118  28.680  1.00  0.00     0.031 C 
ATOM     53  C   UNL A   1      46.944  29.118  31.536  1.00  0.00     0.029 A 
ATOM     54  C   UNL A   1      46.138  28.204  30.876  1.00  0.00     0.049 A 
ATOM     55  H   UNL A   1      44.099  28.361  30.357  1.00  0.00     0.167 HD
ATOM     56  C   UNL A   1      45.642  26.040  29.761  1.00  0.00     0.074 A 
ATOM     57  C   UNL A   1      46.017  24.726  29.277  1.00  0.00     0.031 C 
ATOM     58  C   UNL A   1      46.492  26.903  30.368  1.00  0.00     0.031 A 
BRANCH  45  59
ATOM     59  C   UNL A   1      43.939  32.278  32.052  1.00  0.00    -0.014 A 
ATOM     60  C   UNL A   1      43.729  32.485  33.424  1.00  0.00     0.009 A 
ATOM     61  C   UNL A   1      44.374  33.353  31.262  1.00  0.00     0.009 A 
ATOM     62  C   UNL A   1      43.927  33.749  33.986  1.00  0.00     0.001 A 
ATOM     63  C   UNL A   1      44.591  34.611  31.830  1.00  0.00     0.001 A 
ATOM     64  C   UNL A   1      44.360  34.809  33.190  1.00  0.00     0.000 A 
ENDBRANCH  45  59
BRANCH  46  65
ATOM     65  C   UNL A   1      42.342  23.432  27.652  1.00  0.00    -0.014 A 
ATOM     66  C   UNL A   1      41.915  22.316  28.384  1.00  0.00     0.009 A 
ATOM     67  C   UNL A   1      42.498  23.318  26.261  1.00  0.00     0.009 A 
ATOM     68  C   UNL A   1      41.662  21.105  27.738  1.00  0.00     0.001 A 
ATOM     69  C   UNL A   1      42.218  22.113  25.614  1.00  0.00     0.001 A 
ATOM     70  C   UNL A   1      41.806  21.006  26.354  1.00  0.00     0.000 A 
ENDBRANCH  46  65
BRANCH  58  71
ATOM     71  C   UNL A   1      47.905  26.432  30.543  1.00  0.00    -0.014 A 
ATOM     72  C   UNL A   1      48.864  26.635  29.537  1.00  0.00     0.009 A 
ATOM     73  C   UNL A   1      48.279  25.774  31.723  1.00  0.00     0.009 A 
ATOM     74  C   UNL A   1      50.164  26.153  29.698  1.00  0.00     0.001 A 
ATOM     75  C   UNL A   1      49.587  25.316  31.891  1.00  0.00     0.001 A 
ATOM     76  C   UNL A   1      50.523  25.496  30.874  1.00  0.00     0.000 A 
ENDBRANCH  58  71
ENDBRANCH  32  33
ENDBRANCH  25  27
ENDBRANCH  24  25
ENDBRANCH  23  24
ENDBRANCH   1  23
TORSDOF 16
ENDMDL
