MODEL 1
REMARK VINA RESULT:     -10.8      0.000      0.000
REMARK SMILES COc1cccc([C@@H]2CN(C(=O)c3cnn(C)c3)C[C@H]2C(=O)OCCOC(=O)c2ccc(-c3c4nc(c(-c5ccccc5)c5ccc([nH]5)c(-c5ccccc5)c5nc(c(-c6ccccc6)c6ccc3[nH]6)C=C5)C=C4)cc2)c1OC
REMARK SMILES IDX 24 1 23 2 21 3 22 4 20 5 8 6 9 7 10 8 19 9 7 10 3 11 4 12
REMARK SMILES IDX 77 13 5 14 6 15 2 16 1 17 78 18 79 19 11 20 12 21 13 22
REMARK SMILES IDX 14 23 18 24 15 25 16 26 17 27 25 28 26 29 27 30 28 31 29 32
REMARK SMILES IDX 30 33 76 34 31 35 75 36 32 37 33 38 34 39 69 40 35 41 74 42
REMARK SMILES IDX 68 43 70 44 36 45 73 46 67 47 66 48 37 50 59 51 44 52 58 53
REMARK SMILES IDX 45 54 48 55 57 56 71 57 46 58 47 59 56 61 72 62 49 63 38 64
REMARK SMILES IDX 39 65 43 66 40 67 42 68 41 69 60 70 61 71 65 72 62 73 64 74
REMARK SMILES IDX 63 75 50 76 51 77 55 78 52 79 54 80 53 81
REMARK H PARENT 70 49 48 60
REMARK Flexibility Score: inf
ROOT
ATOM      1  C   UNL A   1      38.389  21.662  25.669  1.00  0.00     0.274 C 
ENDROOT
BRANCH   1   2
ATOM      2  O   UNL A   1      36.974  21.825  25.445  1.00  0.00    -0.462 OA
BRANCH   2   3
ATOM      3  C   UNL A   1      36.522  23.104  25.462  1.00  0.00     0.311 C 
ATOM      4  O   UNL A   1      37.242  24.097  25.439  1.00  0.00    -0.252 OA
BRANCH   3   5
ATOM      5  C   UNL A   1      35.024  23.219  25.595  1.00  0.00     0.128 C 
ATOM      6  C   UNL A   1      34.257  23.881  24.437  1.00  0.00     0.059 C 
ATOM      7  C   UNL A   1      32.948  23.087  24.357  1.00  0.00     0.129 C 
ATOM      8  N   UNL A   1      33.257  21.777  24.900  1.00  0.00    -0.337 N 
ATOM      9  C   UNL A   1      34.467  21.804  25.695  1.00  0.00     0.135 C 
BRANCH   6  10
ATOM     10  C   UNL A   1      33.996  25.381  24.531  1.00  0.00     0.004 A 
ATOM     11  C   UNL A   1      33.649  27.599  23.576  1.00  0.00     0.161 A 
ATOM     12  C   UNL A   1      33.707  28.163  24.855  1.00  0.00     0.050 A 
ATOM     13  C   UNL A   1      33.796  26.211  23.398  1.00  0.00     0.164 A 
ATOM     14  C   UNL A   1      33.888  27.351  25.968  1.00  0.00     0.004 A 
ATOM     15  C   UNL A   1      34.033  25.974  25.807  1.00  0.00     0.008 A 
BRANCH  11  16
ATOM     16  O   UNL A   1      33.566  28.443  22.498  1.00  0.00    -0.493 OA
ATOM     17  C   UNL A   1      32.308  29.116  22.443  1.00  0.00     0.278 C 
ENDBRANCH  11  16
BRANCH  13  18
ATOM     18  O   UNL A   1      33.806  25.550  22.197  1.00  0.00    -0.493 OA
ATOM     19  C   UNL A   1      32.605  25.452  21.448  1.00  0.00     0.278 C 
ENDBRANCH  13  18
ENDBRANCH   6  10
BRANCH   8  20
ATOM     20  C   UNL A   1      32.421  20.673  24.961  1.00  0.00     0.257 C 
ATOM     21  O   UNL A   1      31.392  20.681  25.634  1.00  0.00    -0.269 OA
BRANCH  20  22
ATOM     22  C   UNL A   1      32.773  19.514  24.166  1.00  0.00     0.077 A 
ATOM     23  C   UNL A   1      32.166  19.090  22.964  1.00  0.00     0.149 A 
ATOM     24  C   UNL A   1      33.713  18.533  24.422  1.00  0.00     0.122 A 
ATOM     25  N   UNL A   1      32.733  17.992  22.454  1.00  0.00    -0.181 NA
ATOM     26  N   UNL A   1      33.682  17.685  23.355  1.00  0.00    -0.275 N 
ATOM     27  C   UNL A   1      34.554  16.561  23.122  1.00  0.00     0.173 C 
ENDBRANCH  20  22
ENDBRANCH   8  20
ENDBRANCH   3   5
ENDBRANCH   2   3
ENDBRANCH   1   2
BRANCH   1  28
ATOM     28  C   UNL A   1      38.854  20.263  25.270  1.00  0.00     0.275 C 
BRANCH  28  29
ATOM     29  O   UNL A   1      39.688  19.699  26.299  1.00  0.00    -0.458 OA
BRANCH  29  30
ATOM     30  C   UNL A   1      41.016  19.725  26.045  1.00  0.00     0.338 C 
ATOM     31  O   UNL A   1      41.675  18.888  25.453  1.00  0.00    -0.246 OA
BRANCH  30  32
ATOM     32  C   UNL A   1      41.605  20.947  26.609  1.00  0.00     0.060 A 
ATOM     33  C   UNL A   1      41.531  21.187  27.980  1.00  0.00     0.016 A 
ATOM     34  C   UNL A   1      42.106  21.924  25.750  1.00  0.00     0.016 A 
ATOM     35  C   UNL A   1      41.895  22.432  28.488  1.00  0.00     0.010 A 
ATOM     36  C   UNL A   1      42.521  23.156  26.270  1.00  0.00     0.010 A 
ATOM     37  C   UNL A   1      42.374  23.441  27.639  1.00  0.00    -0.014 A 
BRANCH  37  38
ATOM     38  C   UNL A   1      42.635  24.806  28.175  1.00  0.00     0.031 A 
ATOM     39  C   UNL A   1      44.032  25.213  28.578  1.00  0.00     0.074 A 
ATOM     40  C   UNL A   1      41.638  25.712  28.251  1.00  0.00     0.049 A 
ATOM     41  N   UNL A   1      44.454  26.359  29.053  1.00  0.00    -0.248 NA
ATOM     42  C   UNL A   1      45.100  24.215  28.401  1.00  0.00     0.031 C 
ATOM     43  C   UNL A   1      40.248  25.479  27.855  1.00  0.00     0.029 A 
ATOM     44  N   UNL A   1      41.648  27.017  28.681  1.00  0.00    -0.354 N 
ATOM     45  C   UNL A   1      45.823  26.217  29.240  1.00  0.00     0.074 A 
ATOM     46  C   UNL A   1      46.165  24.870  28.839  1.00  0.00     0.031 C 
ATOM     47  C   UNL A   1      39.545  26.608  28.041  1.00  0.00     0.029 A 
ATOM     48  C   UNL A   1      40.416  27.623  28.624  1.00  0.00     0.049 A 
ATOM     49  H   UNL A   1      42.459  27.474  29.000  1.00  0.00     0.167 HD
ATOM     50  C   UNL A   1      46.722  27.120  29.701  1.00  0.00     0.031 A 
ATOM     51  C   UNL A   1      40.018  28.846  29.025  1.00  0.00     0.031 A 
ATOM     52  C   UNL A   1      46.398  28.452  30.134  1.00  0.00     0.049 A 
ATOM     53  C   UNL A   1      41.016  29.789  29.637  1.00  0.00     0.074 A 
ATOM     54  C   UNL A   1      47.245  29.424  30.638  1.00  0.00     0.029 A 
ATOM     55  N   UNL A   1      45.125  28.997  30.128  1.00  0.00    -0.354 N 
ATOM     56  N   UNL A   1      42.306  29.630  29.808  1.00  0.00    -0.248 NA
ATOM     57  C   UNL A   1      40.498  31.080  30.112  1.00  0.00     0.031 C 
ATOM     58  C   UNL A   1      46.476  30.539  30.985  1.00  0.00     0.029 A 
ATOM     59  C   UNL A   1      45.159  30.282  30.644  1.00  0.00     0.049 A 
ATOM     60  H   UNL A   1      44.315  28.538  29.804  1.00  0.00     0.167 HD
ATOM     61  C   UNL A   1      42.755  30.807  30.392  1.00  0.00     0.074 A 
ATOM     62  C   UNL A   1      41.606  31.677  30.528  1.00  0.00     0.031 C 
ATOM     63  C   UNL A   1      44.011  31.137  30.782  1.00  0.00     0.031 A 
BRANCH  50  64
ATOM     64  C   UNL A   1      48.154  26.675  29.803  1.00  0.00    -0.014 A 
ATOM     65  C   UNL A   1      48.626  25.999  30.938  1.00  0.00     0.009 A 
ATOM     66  C   UNL A   1      49.028  26.899  28.729  1.00  0.00     0.009 A 
ATOM     67  C   UNL A   1      49.955  25.574  31.002  1.00  0.00     0.001 A 
ATOM     68  C   UNL A   1      50.350  26.455  28.787  1.00  0.00     0.001 A 
ATOM     69  C   UNL A   1      50.814  25.799  29.927  1.00  0.00     0.000 A 
ENDBRANCH  50  64
BRANCH  51  70
ATOM     70  C   UNL A   1      38.589  29.237  28.905  1.00  0.00    -0.014 A 
ATOM     71  C   UNL A   1      37.711  29.098  29.992  1.00  0.00     0.009 A 
ATOM     72  C   UNL A   1      38.092  29.735  27.690  1.00  0.00     0.009 A 
ATOM     73  C   UNL A   1      36.362  29.431  29.855  1.00  0.00     0.001 A 
ATOM     74  C   UNL A   1      36.749  30.095  27.567  1.00  0.00     0.001 A 
ATOM     75  C   UNL A   1      35.884  29.935  28.646  1.00  0.00     0.000 A 
ENDBRANCH  51  70
BRANCH  63  76
ATOM     76  C   UNL A   1      44.211  32.509  31.361  1.00  0.00    -0.014 A 
ATOM     77  C   UNL A   1      44.500  33.612  30.542  1.00  0.00     0.009 A 
ATOM     78  C   UNL A   1      44.090  32.702  32.746  1.00  0.00     0.009 A 
ATOM     79  C   UNL A   1      44.703  34.874  31.105  1.00  0.00     0.001 A 
ATOM     80  C   UNL A   1      44.266  33.970  33.302  1.00  0.00     0.001 A 
ATOM     81  C   UNL A   1      44.582  35.052  32.483  1.00  0.00     0.000 A 
ENDBRANCH  63  76
ENDBRANCH  37  38
ENDBRANCH  30  32
ENDBRANCH  29  30
ENDBRANCH  28  29
ENDBRANCH   1  28
TORSDOF 16
ENDMDL
MODEL 2
REMARK VINA RESULT:     -10.7      3.804      9.035
REMARK SMILES COc1cccc([C@@H]2CN(C(=O)c3cnn(C)c3)C[C@H]2C(=O)OCCOC(=O)c2ccc(-c3c4nc(c(-c5ccccc5)c5ccc([nH]5)c(-c5ccccc5)c5nc(c(-c6ccccc6)c6ccc3[nH]6)C=C5)C=C4)cc2)c1OC
REMARK SMILES IDX 24 1 23 2 21 3 22 4 20 5 8 6 9 7 10 8 19 9 7 10 3 11 4 12
REMARK SMILES IDX 77 13 5 14 6 15 2 16 1 17 78 18 79 19 11 20 12 21 13 22
REMARK SMILES IDX 14 23 18 24 15 25 16 26 17 27 25 28 26 29 27 30 28 31 29 32
REMARK SMILES IDX 30 33 76 34 31 35 75 36 32 37 33 38 34 39 69 40 35 41 74 42
REMARK SMILES IDX 68 43 70 44 36 45 73 46 67 47 66 48 37 50 59 51 44 52 58 53
REMARK SMILES IDX 45 54 48 55 57 56 71 57 46 58 47 59 56 61 72 62 49 63 38 64
REMARK SMILES IDX 39 65 43 66 40 67 42 68 41 69 60 70 61 71 65 72 62 73 64 74
REMARK SMILES IDX 63 75 50 76 51 77 55 78 52 79 54 80 53 81
REMARK H PARENT 70 49 48 60
REMARK Flexibility Score: inf
ROOT
ATOM      1  C   UNL A   1      33.512  30.418  26.939  1.00  0.00     0.274 C 
ENDROOT
BRANCH   1   2
ATOM      2  O   UNL A   1      33.187  29.192  27.622  1.00  0.00    -0.462 OA
BRANCH   2   3
ATOM      3  C   UNL A   1      32.101  28.528  27.151  1.00  0.00     0.311 C 
ATOM      4  O   UNL A   1      31.059  28.363  27.779  1.00  0.00    -0.252 OA
BRANCH   3   5
ATOM      5  C   UNL A   1      32.303  27.922  25.785  1.00  0.00     0.128 C 
ATOM      6  C   UNL A   1      31.832  26.471  25.576  1.00  0.00     0.059 C 
ATOM      7  C   UNL A   1      31.293  26.461  24.141  1.00  0.00     0.129 C 
ATOM      8  N   UNL A   1      30.885  27.828  23.870  1.00  0.00    -0.337 N 
ATOM      9  C   UNL A   1      31.500  28.757  24.795  1.00  0.00     0.135 C 
BRANCH   6  10
ATOM     10  C   UNL A   1      32.852  25.360  25.798  1.00  0.00     0.004 A 
ATOM     11  C   UNL A   1      33.659  23.322  26.869  1.00  0.00     0.161 A 
ATOM     12  C   UNL A   1      34.902  23.483  26.247  1.00  0.00     0.050 A 
ATOM     13  C   UNL A   1      32.626  24.254  26.657  1.00  0.00     0.164 A 
ATOM     14  C   UNL A   1      35.121  24.557  25.393  1.00  0.00     0.004 A 
ATOM     15  C   UNL A   1      34.107  25.487  25.173  1.00  0.00     0.008 A 
BRANCH  11  16
ATOM     16  O   UNL A   1      33.516  22.305  27.777  1.00  0.00    -0.493 OA
ATOM     17  C   UNL A   1      34.031  21.069  27.280  1.00  0.00     0.278 C 
ENDBRANCH  11  16
BRANCH  13  18
ATOM     18  O   UNL A   1      31.388  24.231  27.244  1.00  0.00    -0.493 OA
ATOM     19  C   UNL A   1      30.406  23.327  26.760  1.00  0.00     0.278 C 
ENDBRANCH  13  18
ENDBRANCH   6  10
BRANCH   8  20
ATOM     20  C   UNL A   1      30.253  28.308  22.733  1.00  0.00     0.257 C 
ATOM     21  O   UNL A   1      30.453  27.811  21.627  1.00  0.00    -0.269 OA
BRANCH  20  22
ATOM     22  C   UNL A   1      29.306  29.393  22.895  1.00  0.00     0.077 A 
ATOM     23  C   UNL A   1      27.949  29.288  23.273  1.00  0.00     0.149 A 
ATOM     24  C   UNL A   1      29.477  30.743  22.656  1.00  0.00     0.122 A 
ATOM     25  N   UNL A   1      27.341  30.476  23.358  1.00  0.00    -0.181 NA
ATOM     26  N   UNL A   1      28.301  31.344  22.992  1.00  0.00    -0.275 N 
ATOM     27  C   UNL A   1      28.029  32.759  23.006  1.00  0.00     0.173 C 
ENDBRANCH  20  22
ENDBRANCH   8  20
ENDBRANCH   3   5
ENDBRANCH   2   3
ENDBRANCH   1   2
BRANCH   1  28
ATOM     28  C   UNL A   1      32.502  31.517  27.261  1.00  0.00     0.275 C 
BRANCH  28  29
ATOM     29  O   UNL A   1      33.051  32.811  26.951  1.00  0.00    -0.458 OA
BRANCH  29  30
ATOM     30  C   UNL A   1      33.168  33.655  28.000  1.00  0.00     0.338 C 
ATOM     31  O   UNL A   1      32.385  34.522  28.347  1.00  0.00    -0.246 OA
BRANCH  30  32
ATOM     32  C   UNL A   1      34.428  33.394  28.709  1.00  0.00     0.060 A 
ATOM     33  C   UNL A   1      35.645  33.677  28.090  1.00  0.00     0.016 A 
ATOM     34  C   UNL A   1      34.400  32.731  29.935  1.00  0.00     0.016 A 
ATOM     35  C   UNL A   1      36.836  33.237  28.666  1.00  0.00     0.010 A 
ATOM     36  C   UNL A   1      35.601  32.338  30.536  1.00  0.00     0.010 A 
ATOM     37  C   UNL A   1      36.829  32.543  29.885  1.00  0.00    -0.014 A 
BRANCH  37  38
ATOM     38  C   UNL A   1      38.094  31.966  30.422  1.00  0.00     0.031 A 
ATOM     39  C   UNL A   1      38.636  30.671  29.866  1.00  0.00     0.074 A 
ATOM     40  C   UNL A   1      38.797  32.622  31.366  1.00  0.00     0.049 A 
ATOM     41  N   UNL A   1      39.725  30.021  30.198  1.00  0.00    -0.248 NA
ATOM     42  C   UNL A   1      37.872  30.033  28.780  1.00  0.00     0.031 C 
ATOM     43  C   UNL A   1      38.424  33.905  31.965  1.00  0.00     0.029 A 
ATOM     44  N   UNL A   1      39.983  32.300  31.982  1.00  0.00    -0.354 N 
ATOM     45  C   UNL A   1      39.771  28.903  29.374  1.00  0.00     0.074 A 
ATOM     46  C   UNL A   1      38.596  28.951  28.532  1.00  0.00     0.031 C 
ATOM     47  C   UNL A   1      39.370  34.269  32.845  1.00  0.00     0.029 A 
ATOM     48  C   UNL A   1      40.384  33.223  32.918  1.00  0.00     0.049 A 
ATOM     49  H   UNL A   1      40.496  31.487  31.773  1.00  0.00     0.167 HD
ATOM     50  C   UNL A   1      40.704  27.922  29.316  1.00  0.00     0.031 A 
ATOM     51  C   UNL A   1      41.430  33.218  33.767  1.00  0.00     0.031 A 
ATOM     52  C   UNL A   1      41.861  27.839  30.164  1.00  0.00     0.049 A 
ATOM     53  C   UNL A   1      42.389  32.060  33.757  1.00  0.00     0.074 A 
ATOM     54  C   UNL A   1      42.845  26.865  30.188  1.00  0.00     0.029 A 
ATOM     55  N   UNL A   1      42.187  28.758  31.148  1.00  0.00    -0.354 N 
ATOM     56  N   UNL A   1      42.409  31.010  32.972  1.00  0.00    -0.248 NA
ATOM     57  C   UNL A   1      43.468  32.089  34.755  1.00  0.00     0.031 C 
ATOM     58  C   UNL A   1      43.737  27.166  31.221  1.00  0.00     0.029 A 
ATOM     59  C   UNL A   1      43.341  28.359  31.802  1.00  0.00     0.049 A 
ATOM     60  H   UNL A   1      41.674  29.574  31.352  1.00  0.00     0.167 HD
ATOM     61  C   UNL A   1      43.512  30.265  33.369  1.00  0.00     0.074 A 
ATOM     62  C   UNL A   1      44.146  30.992  34.450  1.00  0.00     0.031 C 
ATOM     63  C   UNL A   1      43.960  29.083  32.880  1.00  0.00     0.031 A 
BRANCH  50  64
ATOM     64  C   UNL A   1      40.483  26.821  28.317  1.00  0.00    -0.014 A 
ATOM     65  C   UNL A   1      39.647  25.732  28.607  1.00  0.00     0.009 A 
ATOM     66  C   UNL A   1      41.086  26.900  27.052  1.00  0.00     0.009 A 
ATOM     67  C   UNL A   1      39.438  24.732  27.656  1.00  0.00     0.001 A 
ATOM     68  C   UNL A   1      40.859  25.909  26.096  1.00  0.00     0.001 A 
ATOM     69  C   UNL A   1      40.040  24.823  26.401  1.00  0.00     0.000 A 
ENDBRANCH  50  64
BRANCH  51  70
ATOM     70  C   UNL A   1      41.603  34.329  34.738  1.00  0.00    -0.014 A 
ATOM     71  C   UNL A   1      41.031  34.262  36.018  1.00  0.00     0.009 A 
ATOM     72  C   UNL A   1      42.328  35.476  34.379  1.00  0.00     0.009 A 
ATOM     73  C   UNL A   1      41.166  35.330  36.908  1.00  0.00     0.001 A 
ATOM     74  C   UNL A   1      42.487  36.528  35.281  1.00  0.00     0.001 A 
ATOM     75  C   UNL A   1      41.898  36.458  36.541  1.00  0.00     0.000 A 
ENDBRANCH  51  70
BRANCH  63  76
ATOM     76  C   UNL A   1      45.213  28.520  33.489  1.00  0.00    -0.014 A 
ATOM     77  C   UNL A   1      45.162  27.630  34.573  1.00  0.00     0.009 A 
ATOM     78  C   UNL A   1      46.463  28.874  32.957  1.00  0.00     0.009 A 
ATOM     79  C   UNL A   1      46.342  27.137  35.137  1.00  0.00     0.001 A 
ATOM     80  C   UNL A   1      47.638  28.358  33.504  1.00  0.00     0.001 A 
ATOM     81  C   UNL A   1      47.577  27.498  34.600  1.00  0.00     0.000 A 
ENDBRANCH  63  76
ENDBRANCH  37  38
ENDBRANCH  30  32
ENDBRANCH  29  30
ENDBRANCH  28  29
ENDBRANCH   1  28
TORSDOF 16
ENDMDL
MODEL 3
REMARK VINA RESULT:     -10.6      4.539      9.712
REMARK SMILES COc1cccc([C@@H]2CN(C(=O)c3cnn(C)c3)C[C@H]2C(=O)OCCOC(=O)c2ccc(-c3c4nc(c(-c5ccccc5)c5ccc([nH]5)c(-c5ccccc5)c5nc(c(-c6ccccc6)c6ccc3[nH]6)C=C5)C=C4)cc2)c1OC
REMARK SMILES IDX 24 1 23 2 21 3 22 4 20 5 8 6 9 7 10 8 19 9 7 10 3 11 4 12
REMARK SMILES IDX 77 13 5 14 6 15 2 16 1 17 78 18 79 19 11 20 12 21 13 22
REMARK SMILES IDX 14 23 18 24 15 25 16 26 17 27 25 28 26 29 27 30 28 31 29 32
REMARK SMILES IDX 30 33 76 34 31 35 75 36 32 37 33 38 34 39 69 40 35 41 74 42
REMARK SMILES IDX 68 43 70 44 36 45 73 46 67 47 66 48 37 50 59 51 44 52 58 53
REMARK SMILES IDX 45 54 48 55 57 56 71 57 46 58 47 59 56 61 72 62 49 63 38 64
REMARK SMILES IDX 39 65 43 66 40 67 42 68 41 69 60 70 61 71 65 72 62 73 64 74
REMARK SMILES IDX 63 75 50 76 51 77 55 78 52 79 54 80 53 81
REMARK H PARENT 70 49 48 60
REMARK Flexibility Score: inf
ROOT
ATOM      1  C   UNL A   1      32.409  31.155  26.859  1.00  0.00     0.274 C 
ENDROOT
BRANCH   1   2
ATOM      2  O   UNL A   1      31.674  30.596  25.752  1.00  0.00    -0.462 OA
BRANCH   2   3
ATOM      3  C   UNL A   1      32.245  29.523  25.151  1.00  0.00     0.311 C 
ATOM      4  O   UNL A   1      33.334  29.048  25.463  1.00  0.00    -0.252 OA
BRANCH   3   5
ATOM      5  C   UNL A   1      31.457  28.987  23.983  1.00  0.00     0.128 C 
ATOM      6  C   UNL A   1      30.906  27.554  24.095  1.00  0.00     0.059 C 
ATOM      7  C   UNL A   1      29.547  27.624  23.390  1.00  0.00     0.129 C 
ATOM      8  N   UNL A   1      29.121  29.007  23.506  1.00  0.00    -0.337 N 
ATOM      9  C   UNL A   1      30.235  29.880  23.812  1.00  0.00     0.135 C 
BRANCH   6  10
ATOM     10  C   UNL A   1      31.766  26.423  23.542  1.00  0.00     0.004 A 
ATOM     11  C   UNL A   1      33.347  24.577  23.759  1.00  0.00     0.161 A 
ATOM     12  C   UNL A   1      33.449  24.496  22.366  1.00  0.00     0.050 A 
ATOM     13  C   UNL A   1      32.512  25.538  24.361  1.00  0.00     0.164 A 
ATOM     14  C   UNL A   1      32.707  25.352  21.560  1.00  0.00     0.004 A 
ATOM     15  C   UNL A   1      31.875  26.307  22.143  1.00  0.00     0.008 A 
BRANCH  11  16
ATOM     16  O   UNL A   1      34.166  23.781  24.517  1.00  0.00    -0.493 OA
ATOM     17  C   UNL A   1      34.718  22.706  23.756  1.00  0.00     0.278 C 
ENDBRANCH  11  16
BRANCH  13  18
ATOM     18  O   UNL A   1      32.365  25.746  25.708  1.00  0.00    -0.493 OA
ATOM     19  C   UNL A   1      31.477  24.920  26.446  1.00  0.00     0.278 C 
ENDBRANCH  13  18
ENDBRANCH   6  10
BRANCH   8  20
ATOM     20  C   UNL A   1      27.912  29.553  23.101  1.00  0.00     0.257 C 
ATOM     21  O   UNL A   1      26.839  29.043  23.415  1.00  0.00    -0.269 OA
BRANCH  20  22
ATOM     22  C   UNL A   1      27.950  30.778  22.327  1.00  0.00     0.077 A 
ATOM     23  C   UNL A   1      27.892  32.099  22.823  1.00  0.00     0.149 A 
ATOM     24  C   UNL A   1      27.977  30.943  20.956  1.00  0.00     0.122 A 
ATOM     25  N   UNL A   1      27.972  33.019  21.857  1.00  0.00    -0.181 NA
ATOM     26  N   UNL A   1      28.039  32.286  20.732  1.00  0.00    -0.275 N 
ATOM     27  C   UNL A   1      28.185  32.943  19.457  1.00  0.00     0.173 C 
ENDBRANCH  20  22
ENDBRANCH   8  20
ENDBRANCH   3   5
ENDBRANCH   2   3
ENDBRANCH   1   2
BRANCH   1  28
ATOM     28  C   UNL A   1      31.925  32.565  27.189  1.00  0.00     0.275 C 
BRANCH  28  29
ATOM     29  O   UNL A   1      33.023  33.496  27.147  1.00  0.00    -0.458 OA
BRANCH  29  30
ATOM     30  C   UNL A   1      33.169  34.266  28.248  1.00  0.00     0.338 C 
ATOM     31  O   UNL A   1      32.493  35.225  28.579  1.00  0.00    -0.246 OA
BRANCH  30  32
ATOM     32  C   UNL A   1      34.311  33.789  29.039  1.00  0.00     0.060 A 
ATOM     33  C   UNL A   1      35.602  34.209  28.721  1.00  0.00     0.016 A 
ATOM     34  C   UNL A   1      34.110  32.808  30.009  1.00  0.00     0.016 A 
ATOM     35  C   UNL A   1      36.700  33.599  29.326  1.00  0.00     0.010 A 
ATOM     36  C   UNL A   1      35.213  32.235  30.653  1.00  0.00     0.010 A 
ATOM     37  C   UNL A   1      36.522  32.589  30.283  1.00  0.00    -0.014 A 
BRANCH  37  38
ATOM     38  C   UNL A   1      37.701  31.857  30.823  1.00  0.00     0.031 A 
ATOM     39  C   UNL A   1      38.213  32.155  32.213  1.00  0.00     0.074 A 
ATOM     40  C   UNL A   1      38.288  30.881  30.102  1.00  0.00     0.049 A 
ATOM     41  N   UNL A   1      39.218  31.614  32.857  1.00  0.00    -0.248 NA
ATOM     42  C   UNL A   1      37.489  33.174  32.991  1.00  0.00     0.031 C 
ATOM     43  C   UNL A   1      37.877  30.449  28.765  1.00  0.00     0.029 A 
ATOM     44  N   UNL A   1      39.355  30.067  30.400  1.00  0.00    -0.354 N 
ATOM     45  C   UNL A   1      39.251  32.229  34.102  1.00  0.00     0.074 A 
ATOM     46  C   UNL A   1      38.175  33.194  34.125  1.00  0.00     0.031 C 
ATOM     47  C   UNL A   1      38.667  29.439  28.368  1.00  0.00     0.029 A 
ATOM     48  C   UNL A   1      39.676  29.191  29.392  1.00  0.00     0.049 A 
ATOM     49  H   UNL A   1      39.842  30.108  31.254  1.00  0.00     0.167 HD
ATOM     50  C   UNL A   1      40.096  32.014  35.139  1.00  0.00     0.031 A 
ATOM     51  C   UNL A   1      40.687  28.307  29.284  1.00  0.00     0.031 A 
ATOM     52  C   UNL A   1      41.191  31.082  35.126  1.00  0.00     0.049 A 
ATOM     53  C   UNL A   1      41.677  28.169  30.406  1.00  0.00     0.074 A 
ATOM     54  C   UNL A   1      42.112  30.820  36.127  1.00  0.00     0.029 A 
ATOM     55  N   UNL A   1      41.524  30.269  34.055  1.00  0.00    -0.354 N 
ATOM     56  N   UNL A   1      41.692  28.766  31.573  1.00  0.00    -0.248 NA
ATOM     57  C   UNL A   1      42.792  27.235  30.191  1.00  0.00     0.031 C 
ATOM     58  C   UNL A   1      43.032  29.885  35.642  1.00  0.00     0.029 A 
ATOM     59  C   UNL A   1      42.650  29.524  34.361  1.00  0.00     0.049 A 
ATOM     60  H   UNL A   1      41.031  30.227  33.203  1.00  0.00     0.167 HD
ATOM     61  C   UNL A   1      42.804  28.265  32.237  1.00  0.00     0.074 A 
ATOM     62  C   UNL A   1      43.427  27.303  31.352  1.00  0.00     0.031 C 
ATOM     63  C   UNL A   1      43.267  28.575  33.473  1.00  0.00     0.031 A 
BRANCH  50  64
ATOM     64  C   UNL A   1      39.894  32.844  36.375  1.00  0.00    -0.014 A 
ATOM     65  C   UNL A   1      40.648  34.005  36.604  1.00  0.00     0.009 A 
ATOM     66  C   UNL A   1      38.903  32.481  37.301  1.00  0.00     0.009 A 
ATOM     67  C   UNL A   1      40.427  34.775  37.748  1.00  0.00     0.001 A 
ATOM     68  C   UNL A   1      38.671  33.263  38.433  1.00  0.00     0.001 A 
ATOM     69  C   UNL A   1      39.437  34.405  38.659  1.00  0.00     0.000 A 
ENDBRANCH  50  64
BRANCH  51  70
ATOM     70  C   UNL A   1      40.846  27.511  28.038  1.00  0.00    -0.014 A 
ATOM     71  C   UNL A   1      40.271  26.236  27.920  1.00  0.00     0.009 A 
ATOM     72  C   UNL A   1      41.597  28.019  26.966  1.00  0.00     0.009 A 
ATOM     73  C   UNL A   1      40.462  25.481  26.761  1.00  0.00     0.001 A 
ATOM     74  C   UNL A   1      41.760  27.274  25.798  1.00  0.00     0.001 A 
ATOM     75  C   UNL A   1      41.200  26.003  25.699  1.00  0.00     0.000 A 
ENDBRANCH  51  70
BRANCH  63  76
ATOM     76  C   UNL A   1      44.489  27.842  33.951  1.00  0.00    -0.014 A 
ATOM     77  C   UNL A   1      44.387  26.612  34.618  1.00  0.00     0.009 A 
ATOM     78  C   UNL A   1      45.761  28.385  33.713  1.00  0.00     0.009 A 
ATOM     79  C   UNL A   1      45.536  25.959  35.073  1.00  0.00     0.001 A 
ATOM     80  C   UNL A   1      46.908  27.716  34.144  1.00  0.00     0.001 A 
ATOM     81  C   UNL A   1      46.794  26.510  34.833  1.00  0.00     0.000 A 
ENDBRANCH  63  76
ENDBRANCH  37  38
ENDBRANCH  30  32
ENDBRANCH  29  30
ENDBRANCH  28  29
ENDBRANCH   1  28
TORSDOF 16
ENDMDL
