MODEL 1
REMARK VINA RESULT:      -8.7      0.000      0.000
REMARK SMILES CCOc1ccccc1Nc1ccc(C(=O)OCCOC(=O)c2ccc(-c3c4nc(c(-c5ccccc5)c5ccc([nH]5)c(-c5ccccc5)c5nc(c(-c6ccccc6)c6ccc3[nH]6)C=C5)C=C4)cc2)cc1N
REMARK SMILES IDX 18 1 17 2 15 3 16 4 14 5 11 6 12 7 72 8 13 9 71 10 10 11
REMARK SMILES IDX 9 13 4 14 5 15 6 16 8 17 7 18 3 19 2 20 1 21 73 22 19 25
REMARK SMILES IDX 20 26 21 27 22 28 23 29 24 30 70 31 25 32 69 33 26 34 27 35
REMARK SMILES IDX 28 36 63 37 29 38 68 39 62 40 64 41 30 42 67 43 61 44 60 45
REMARK SMILES IDX 31 47 53 48 38 49 52 50 39 51 42 52 51 53 65 54 40 55 41 56
REMARK SMILES IDX 50 58 66 59 43 60 32 61 33 62 37 63 34 64 36 65 35 66 54 67
REMARK SMILES IDX 55 68 59 69 56 70 58 71 57 72 44 73 45 74 49 75 46 76 48 77
REMARK SMILES IDX 47 78
REMARK H PARENT 10 12 73 23 73 24 64 46 42 57
REMARK Flexibility Score: inf
ROOT
ATOM      1  C   UNL A   1      32.964  36.455  30.855  1.00  0.00     0.275 C 
ENDROOT
BRANCH   1   2
ATOM      2  O   UNL A   1      33.371  35.425  31.778  1.00  0.00    -0.458 OA
BRANCH   2   3
ATOM      3  C   UNL A   1      34.284  35.816  32.699  1.00  0.00     0.338 C 
ATOM      4  O   UNL A   1      34.340  36.905  33.253  1.00  0.00    -0.246 OA
BRANCH   3   5
ATOM      5  C   UNL A   1      35.206  34.714  33.043  1.00  0.00     0.062 A 
ATOM      6  C   UNL A   1      36.766  32.523  33.842  1.00  0.00     0.062 A 
ATOM      7  C   UNL A   1      35.598  32.332  33.093  1.00  0.00     0.029 A 
ATOM      8  C   UNL A   1      37.189  33.842  34.139  1.00  0.00     0.056 A 
ATOM      9  C   UNL A   1      34.814  33.414  32.717  1.00  0.00     0.018 A 
ATOM     10  C   UNL A   1      36.395  34.928  33.743  1.00  0.00     0.043 A 
BRANCH   6  11
ATOM     11  N   UNL A   1      37.407  31.359  34.301  1.00  0.00    -0.351 N 
ATOM     12  H   UNL A   1      37.392  31.265  35.282  1.00  0.00     0.167 HD
BRANCH  11  13
ATOM     13  C   UNL A   1      38.063  30.302  33.649  1.00  0.00     0.081 A 
ATOM     14  C   UNL A   1      39.446  30.141  33.856  1.00  0.00     0.142 A 
ATOM     15  C   UNL A   1      40.159  29.112  33.244  1.00  0.00     0.048 A 
ATOM     16  C   UNL A   1      39.485  28.202  32.430  1.00  0.00     0.004 A 
ATOM     17  C   UNL A   1      37.407  29.379  32.830  1.00  0.00     0.030 A 
ATOM     18  C   UNL A   1      38.111  28.337  32.222  1.00  0.00     0.002 A 
BRANCH  14  19
ATOM     19  O   UNL A   1      40.132  31.083  34.585  1.00  0.00    -0.492 OA
BRANCH  19  20
ATOM     20  C   UNL A   1      41.404  30.593  35.031  1.00  0.00     0.226 C 
ATOM     21  C   UNL A   1      41.842  31.377  36.259  1.00  0.00     0.049 C 
ENDBRANCH  19  20
ENDBRANCH  14  19
ENDBRANCH  11  13
ENDBRANCH   6  11
BRANCH   8  22
ATOM     22  N   UNL A   1      38.346  34.090  34.871  1.00  0.00    -0.397 N 
ATOM     23  H   UNL A   1      39.204  33.701  34.582  1.00  0.00     0.156 HD
ATOM     24  H   UNL A   1      38.308  34.652  35.678  1.00  0.00     0.156 HD
ENDBRANCH   8  22
ENDBRANCH   3   5
ENDBRANCH   2   3
ENDBRANCH   1   2
BRANCH   1  25
ATOM     25  C   UNL A   1      32.901  35.921  29.425  1.00  0.00     0.275 C 
BRANCH  25  26
ATOM     26  O   UNL A   1      32.740  34.490  29.433  1.00  0.00    -0.458 OA
BRANCH  26  27
ATOM     27  C   UNL A   1      33.473  33.810  28.523  1.00  0.00     0.338 C 
ATOM     28  O   UNL A   1      33.156  33.547  27.371  1.00  0.00    -0.246 OA
BRANCH  27  29
ATOM     29  C   UNL A   1      34.767  33.392  29.099  1.00  0.00     0.060 A 
ATOM     30  C   UNL A   1      35.848  34.269  29.132  1.00  0.00     0.016 A 
ATOM     31  C   UNL A   1      34.947  32.064  29.484  1.00  0.00     0.016 A 
ATOM     32  C   UNL A   1      37.130  33.799  29.430  1.00  0.00     0.010 A 
ATOM     33  C   UNL A   1      36.212  31.620  29.888  1.00  0.00     0.010 A 
ATOM     34  C   UNL A   1      37.336  32.464  29.815  1.00  0.00    -0.014 A 
BRANCH  34  35
ATOM     35  C   UNL A   1      38.709  31.923  30.068  1.00  0.00     0.031 A 
ATOM     36  C   UNL A   1      39.132  30.613  29.440  1.00  0.00     0.074 A 
ATOM     37  C   UNL A   1      39.601  32.581  30.835  1.00  0.00     0.049 A 
ATOM     38  N   UNL A   1      40.167  29.856  29.715  1.00  0.00    -0.248 NA
ATOM     39  C   UNL A   1      38.268  30.076  28.375  1.00  0.00     0.031 C 
ATOM     40  C   UNL A   1      39.395  33.883  31.468  1.00  0.00     0.029 A 
ATOM     41  N   UNL A   1      40.884  32.239  31.201  1.00  0.00    -0.354 N 
ATOM     42  C   UNL A   1      40.031  28.722  28.920  1.00  0.00     0.074 A 
ATOM     43  C   UNL A   1      38.822  28.894  28.144  1.00  0.00     0.031 C 
ATOM     44  C   UNL A   1      40.526  34.258  32.086  1.00  0.00     0.029 A 
ATOM     45  C   UNL A   1      41.504  33.182  31.984  1.00  0.00     0.049 A 
ATOM     46  H   UNL A   1      41.315  31.398  30.926  1.00  0.00     0.167 HD
ATOM     47  C   UNL A   1      40.832  27.632  28.848  1.00  0.00     0.031 A 
ATOM     48  C   UNL A   1      42.708  33.174  32.590  1.00  0.00     0.031 A 
ATOM     49  C   UNL A   1      42.074  27.480  29.558  1.00  0.00     0.049 A 
ATOM     50  C   UNL A   1      43.580  31.955  32.503  1.00  0.00     0.074 A 
ATOM     51  C   UNL A   1      42.944  26.401  29.558  1.00  0.00     0.029 A 
ATOM     52  N   UNL A   1      42.644  28.451  30.363  1.00  0.00    -0.354 N 
ATOM     53  N   UNL A   1      43.375  30.839  31.848  1.00  0.00    -0.248 NA
ATOM     54  C   UNL A   1      44.836  31.987  33.266  1.00  0.00     0.031 C 
ATOM     55  C   UNL A   1      44.034  26.716  30.378  1.00  0.00     0.029 A 
ATOM     56  C   UNL A   1      43.856  28.003  30.858  1.00  0.00     0.049 A 
ATOM     57  H   UNL A   1      42.245  29.331  30.555  1.00  0.00     0.167 HD
ATOM     58  C   UNL A   1      44.476  30.037  32.119  1.00  0.00     0.074 A 
ATOM     59  C   UNL A   1      45.358  30.802  32.976  1.00  0.00     0.031 C 
ATOM     60  C   UNL A   1      44.726  28.773  31.705  1.00  0.00     0.031 A 
BRANCH  47  61
ATOM     61  C   UNL A   1      40.370  26.488  27.991  1.00  0.00    -0.014 A 
ATOM     62  C   UNL A   1      39.446  25.542  28.463  1.00  0.00     0.009 A 
ATOM     63  C   UNL A   1      40.841  26.382  26.673  1.00  0.00     0.009 A 
ATOM     64  C   UNL A   1      39.025  24.499  27.636  1.00  0.00     0.001 A 
ATOM     65  C   UNL A   1      40.399  25.352  25.841  1.00  0.00     0.001 A 
ATOM     66  C   UNL A   1      39.497  24.407  26.326  1.00  0.00     0.000 A 
ENDBRANCH  47  61
BRANCH  48  67
ATOM     67  C   UNL A   1      43.144  34.350  33.389  1.00  0.00    -0.014 A 
ATOM     68  C   UNL A   1      42.824  34.440  34.751  1.00  0.00     0.009 A 
ATOM     69  C   UNL A   1      43.878  35.387  32.791  1.00  0.00     0.009 A 
ATOM     70  C   UNL A   1      43.219  35.553  35.497  1.00  0.00     0.001 A 
ATOM     71  C   UNL A   1      44.296  36.484  33.546  1.00  0.00     0.001 A 
ATOM     72  C   UNL A   1      43.960  36.569  34.896  1.00  0.00     0.000 A 
ENDBRANCH  48  67
BRANCH  60  73
ATOM     73  C   UNL A   1      46.017  28.152  32.150  1.00  0.00    -0.014 A 
ATOM     74  C   UNL A   1      47.190  28.306  31.396  1.00  0.00     0.009 A 
ATOM     75  C   UNL A   1      46.063  27.421  33.346  1.00  0.00     0.009 A 
ATOM     76  C   UNL A   1      48.381  27.712  31.819  1.00  0.00     0.001 A 
ATOM     77  C   UNL A   1      47.258  26.844  33.775  1.00  0.00     0.001 A 
ATOM     78  C   UNL A   1      48.415  26.984  33.007  1.00  0.00     0.000 A 
ENDBRANCH  60  73
ENDBRANCH  34  35
ENDBRANCH  27  29
ENDBRANCH  26  27
ENDBRANCH  25  26
ENDBRANCH   1  25
TORSDOF 16
ENDMDL
MODEL 2
REMARK VINA RESULT:      -8.6      6.156     11.875
REMARK SMILES CCOc1ccccc1Nc1ccc(C(=O)OCCOC(=O)c2ccc(-c3c4nc(c(-c5ccccc5)c5ccc([nH]5)c(-c5ccccc5)c5nc(c(-c6ccccc6)c6ccc3[nH]6)C=C5)C=C4)cc2)cc1N
REMARK SMILES IDX 18 1 17 2 15 3 16 4 14 5 11 6 12 7 72 8 13 9 71 10 10 11
REMARK SMILES IDX 9 13 4 14 5 15 6 16 8 17 7 18 3 19 2 20 1 21 73 22 19 25
REMARK SMILES IDX 20 26 21 27 22 28 23 29 24 30 70 31 25 32 69 33 26 34 27 35
REMARK SMILES IDX 28 36 63 37 29 38 68 39 62 40 64 41 30 42 67 43 61 44 60 45
REMARK SMILES IDX 31 47 53 48 38 49 52 50 39 51 42 52 51 53 65 54 40 55 41 56
REMARK SMILES IDX 50 58 66 59 43 60 32 61 33 62 37 63 34 64 36 65 35 66 54 67
REMARK SMILES IDX 55 68 59 69 56 70 58 71 57 72 44 73 45 74 49 75 46 76 48 77
REMARK SMILES IDX 47 78
REMARK H PARENT 10 12 73 23 73 24 64 46 42 57
REMARK Flexibility Score: inf
ROOT
ATOM      1  C   UNL A   1      42.284  19.582  26.843  1.00  0.00     0.275 C 
ENDROOT
BRANCH   1   2
ATOM      2  O   UNL A   1      41.514  20.620  26.203  1.00  0.00    -0.458 OA
BRANCH   2   3
ATOM      3  C   UNL A   1      41.087  21.604  27.031  1.00  0.00     0.338 C 
ATOM      4  O   UNL A   1      41.665  22.020  28.026  1.00  0.00    -0.246 OA
BRANCH   3   5
ATOM      5  C   UNL A   1      39.830  22.207  26.546  1.00  0.00     0.062 A 
ATOM      6  C   UNL A   1      37.369  23.374  25.871  1.00  0.00     0.062 A 
ATOM      7  C   UNL A   1      38.318  24.089  26.613  1.00  0.00     0.029 A 
ATOM      8  C   UNL A   1      37.688  22.074  25.408  1.00  0.00     0.056 A 
ATOM      9  C   UNL A   1      39.526  23.504  26.966  1.00  0.00     0.018 A 
ATOM     10  C   UNL A   1      38.918  21.498  25.761  1.00  0.00     0.043 A 
BRANCH   6  11
ATOM     11  N   UNL A   1      36.121  23.997  25.695  1.00  0.00    -0.351 N 
ATOM     12  H   UNL A   1      36.175  24.849  25.204  1.00  0.00     0.167 HD
BRANCH  11  13
ATOM     13  C   UNL A   1      34.813  23.652  26.073  1.00  0.00     0.081 A 
ATOM     14  C   UNL A   1      33.745  24.081  25.264  1.00  0.00     0.142 A 
ATOM     15  C   UNL A   1      32.423  23.771  25.577  1.00  0.00     0.048 A 
ATOM     16  C   UNL A   1      32.150  22.994  26.703  1.00  0.00     0.004 A 
ATOM     17  C   UNL A   1      34.518  22.874  27.197  1.00  0.00     0.030 A 
ATOM     18  C   UNL A   1      33.197  22.548  27.512  1.00  0.00     0.002 A 
BRANCH  14  19
ATOM     19  O   UNL A   1      33.998  24.918  24.204  1.00  0.00    -0.492 OA
BRANCH  19  20
ATOM     20  C   UNL A   1      33.191  26.103  24.252  1.00  0.00     0.226 C 
ATOM     21  C   UNL A   1      33.741  27.043  25.316  1.00  0.00     0.049 C 
ENDBRANCH  19  20
ENDBRANCH  14  19
ENDBRANCH  11  13
ENDBRANCH   6  11
BRANCH   8  22
ATOM     22  N   UNL A   1      36.787  21.323  24.661  1.00  0.00    -0.397 N 
ATOM     23  H   UNL A   1      37.105  20.552  24.136  1.00  0.00     0.156 HD
ATOM     24  H   UNL A   1      35.832  21.562  24.655  1.00  0.00     0.156 HD
ENDBRANCH   8  22
ENDBRANCH   3   5
ENDBRANCH   2   3
ENDBRANCH   1   2
BRANCH   1  25
ATOM     25  C   UNL A   1      42.871  18.616  25.814  1.00  0.00     0.275 C 
BRANCH  25  26
ATOM     26  O   UNL A   1      43.214  19.321  24.607  1.00  0.00    -0.458 OA
BRANCH  26  27
ATOM     27  C   UNL A   1      44.535  19.488  24.379  1.00  0.00     0.338 C 
ATOM     28  O   UNL A   1      45.329  18.641  23.990  1.00  0.00    -0.246 OA
BRANCH  27  29
ATOM     29  C   UNL A   1      44.946  20.878  24.667  1.00  0.00     0.060 A 
ATOM     30  C   UNL A   1      45.568  21.201  25.870  1.00  0.00     0.016 A 
ATOM     31  C   UNL A   1      44.581  21.896  23.786  1.00  0.00     0.016 A 
ATOM     32  C   UNL A   1      45.717  22.537  26.251  1.00  0.00     0.010 A 
ATOM     33  C   UNL A   1      44.830  23.232  24.123  1.00  0.00     0.010 A 
ATOM     34  C   UNL A   1      45.352  23.579  25.383  1.00  0.00    -0.014 A 
BRANCH  34  35
ATOM     35  C   UNL A   1      45.435  25.014  25.801  1.00  0.00     0.031 A 
ATOM     36  C   UNL A   1      46.738  25.768  25.659  1.00  0.00     0.074 A 
ATOM     37  C   UNL A   1      44.366  25.673  26.292  1.00  0.00     0.049 A 
ATOM     38  N   UNL A   1      47.091  26.922  26.173  1.00  0.00    -0.248 NA
ATOM     39  C   UNL A   1      47.790  25.133  24.847  1.00  0.00     0.031 C 
ATOM     40  C   UNL A   1      43.016  25.131  26.441  1.00  0.00     0.029 A 
ATOM     41  N   UNL A   1      44.250  26.968  26.748  1.00  0.00    -0.354 N 
ATOM     42  C   UNL A   1      48.423  27.107  25.817  1.00  0.00     0.074 A 
ATOM     43  C   UNL A   1      48.813  25.955  25.033  1.00  0.00     0.031 C 
ATOM     44  C   UNL A   1      42.198  26.097  26.889  1.00  0.00     0.029 A 
ATOM     45  C   UNL A   1      42.981  27.297  27.158  1.00  0.00     0.049 A 
ATOM     46  H   UNL A   1      45.007  27.597  26.778  1.00  0.00     0.167 HD
ATOM     47  C   UNL A   1      49.250  28.136  26.120  1.00  0.00     0.031 A 
ATOM     48  C   UNL A   1      42.499  28.420  27.725  1.00  0.00     0.031 A 
ATOM     49  C   UNL A   1      48.857  29.321  26.835  1.00  0.00     0.049 A 
ATOM     50  C   UNL A   1      43.433  29.548  28.059  1.00  0.00     0.074 A 
ATOM     51  C   UNL A   1      49.633  30.408  27.202  1.00  0.00     0.029 A 
ATOM     52  N   UNL A   1      47.566  29.593  27.255  1.00  0.00    -0.354 N 
ATOM     53  N   UNL A   1      44.718  29.651  27.827  1.00  0.00    -0.248 NA
ATOM     54  C   UNL A   1      42.850  30.702  28.760  1.00  0.00     0.031 C 
ATOM     55  C   UNL A   1      48.813  31.332  27.859  1.00  0.00     0.029 A 
ATOM     56  C   UNL A   1      47.521  30.833  27.869  1.00  0.00     0.049 A 
ATOM     57  H   UNL A   1      46.794  28.993  27.134  1.00  0.00     0.167 HD
ATOM     58  C   UNL A   1      45.097  30.879  28.353  1.00  0.00     0.074 A 
ATOM     59  C   UNL A   1      43.904  31.497  28.892  1.00  0.00     0.031 C 
ATOM     60  C   UNL A   1      46.329  31.438  28.397  1.00  0.00     0.031 A 
BRANCH  47  61
ATOM     61  C   UNL A   1      50.691  28.011  25.710  1.00  0.00    -0.014 A 
ATOM     62  C   UNL A   1      51.143  28.470  24.464  1.00  0.00     0.009 A 
ATOM     63  C   UNL A   1      51.616  27.459  26.610  1.00  0.00     0.009 A 
ATOM     64  C   UNL A   1      52.491  28.354  24.119  1.00  0.00     0.001 A 
ATOM     65  C   UNL A   1      52.967  27.366  26.271  1.00  0.00     0.001 A 
ATOM     66  C   UNL A   1      53.402  27.806  25.023  1.00  0.00     0.000 A 
ENDBRANCH  47  61
BRANCH  48  67
ATOM     67  C   UNL A   1      41.056  28.518  28.070  1.00  0.00    -0.014 A 
ATOM     68  C   UNL A   1      40.587  28.032  29.299  1.00  0.00     0.009 A 
ATOM     69  C   UNL A   1      40.144  29.091  27.171  1.00  0.00     0.009 A 
ATOM     70  C   UNL A   1      39.229  28.108  29.615  1.00  0.00     0.001 A 
ATOM     71  C   UNL A   1      38.792  29.192  27.502  1.00  0.00     0.001 A 
ATOM     72  C   UNL A   1      38.335  28.694  28.720  1.00  0.00     0.000 A 
ENDBRANCH  48  67
BRANCH  60  73
ATOM     73  C   UNL A   1      46.440  32.797  29.023  1.00  0.00    -0.014 A 
ATOM     74  C   UNL A   1      46.265  33.960  28.259  1.00  0.00     0.009 A 
ATOM     75  C   UNL A   1      46.703  32.912  30.396  1.00  0.00     0.009 A 
ATOM     76  C   UNL A   1      46.382  35.218  28.856  1.00  0.00     0.001 A 
ATOM     77  C   UNL A   1      46.802  34.170  30.993  1.00  0.00     0.001 A 
ATOM     78  C   UNL A   1      46.649  35.321  30.220  1.00  0.00     0.000 A 
ENDBRANCH  60  73
ENDBRANCH  34  35
ENDBRANCH  27  29
ENDBRANCH  26  27
ENDBRANCH  25  26
ENDBRANCH   1  25
TORSDOF 16
ENDMDL
MODEL 3
REMARK VINA RESULT:      -8.5      4.726     10.964
REMARK SMILES CCOc1ccccc1Nc1ccc(C(=O)OCCOC(=O)c2ccc(-c3c4nc(c(-c5ccccc5)c5ccc([nH]5)c(-c5ccccc5)c5nc(c(-c6ccccc6)c6ccc3[nH]6)C=C5)C=C4)cc2)cc1N
REMARK SMILES IDX 18 1 17 2 15 3 16 4 14 5 11 6 12 7 72 8 13 9 71 10 10 11
REMARK SMILES IDX 9 13 4 14 5 15 6 16 8 17 7 18 3 19 2 20 1 21 73 22 19 25
REMARK SMILES IDX 20 26 21 27 22 28 23 29 24 30 70 31 25 32 69 33 26 34 27 35
REMARK SMILES IDX 28 36 63 37 29 38 68 39 62 40 64 41 30 42 67 43 61 44 60 45
REMARK SMILES IDX 31 47 53 48 38 49 52 50 39 51 42 52 51 53 65 54 40 55 41 56
REMARK SMILES IDX 50 58 66 59 43 60 32 61 33 62 37 63 34 64 36 65 35 66 54 67
REMARK SMILES IDX 55 68 59 69 56 70 58 71 57 72 44 73 45 74 49 75 46 76 48 77
REMARK SMILES IDX 47 78
REMARK H PARENT 10 12 73 23 73 24 64 46 42 57
REMARK Flexibility Score: inf
ROOT
ATOM      1  C   UNL A   1      42.437  20.510  25.917  1.00  0.00     0.275 C 
ENDROOT
BRANCH   1   2
ATOM      2  O   UNL A   1      41.135  21.028  25.578  1.00  0.00    -0.458 OA
BRANCH   2   3
ATOM      3  C   UNL A   1      40.335  21.293  26.639  1.00  0.00     0.338 C 
ATOM      4  O   UNL A   1      40.634  21.189  27.821  1.00  0.00    -0.246 OA
BRANCH   3   5
ATOM      5  C   UNL A   1      39.026  21.821  26.206  1.00  0.00     0.062 A 
ATOM      6  C   UNL A   1      36.509  22.918  25.622  1.00  0.00     0.062 A 
ATOM      7  C   UNL A   1      37.583  23.744  25.975  1.00  0.00     0.029 A 
ATOM      8  C   UNL A   1      36.722  21.523  25.499  1.00  0.00     0.056 A 
ATOM      9  C   UNL A   1      38.822  23.201  26.286  1.00  0.00     0.018 A 
ATOM     10  C   UNL A   1      37.982  20.986  25.803  1.00  0.00     0.043 A 
BRANCH   6  11
ATOM     11  N   UNL A   1      35.262  23.549  25.474  1.00  0.00    -0.351 N 
ATOM     12  H   UNL A   1      34.834  23.777  26.331  1.00  0.00     0.167 HD
BRANCH  11  13
ATOM     13  C   UNL A   1      34.501  23.922  24.353  1.00  0.00     0.081 A 
ATOM     14  C   UNL A   1      33.969  25.224  24.307  1.00  0.00     0.142 A 
ATOM     15  C   UNL A   1      33.209  25.663  23.225  1.00  0.00     0.048 A 
ATOM     16  C   UNL A   1      32.992  24.804  22.148  1.00  0.00     0.004 A 
ATOM     17  C   UNL A   1      34.272  23.077  23.264  1.00  0.00     0.030 A 
ATOM     18  C   UNL A   1      33.521  23.512  22.169  1.00  0.00     0.002 A 
BRANCH  14  19
ATOM     19  O   UNL A   1      34.105  26.046  25.401  1.00  0.00    -0.492 OA
BRANCH  19  20
ATOM     20  C   UNL A   1      32.981  26.923  25.555  1.00  0.00     0.226 C 
ATOM     21  C   UNL A   1      31.975  26.290  26.506  1.00  0.00     0.049 C 
ENDBRANCH  19  20
ENDBRANCH  14  19
ENDBRANCH  11  13
ENDBRANCH   6  11
BRANCH   8  22
ATOM     22  N   UNL A   1      35.693  20.656  25.142  1.00  0.00    -0.397 N 
ATOM     23  H   UNL A   1      34.756  20.910  25.309  1.00  0.00     0.156 HD
ATOM     24  H   UNL A   1      35.901  19.791  24.722  1.00  0.00     0.156 HD
ENDBRANCH   8  22
ENDBRANCH   3   5
ENDBRANCH   2   3
ENDBRANCH   1   2
BRANCH   1  25
ATOM     25  C   UNL A   1      43.547  21.416  25.385  1.00  0.00     0.275 C 
BRANCH  25  26
ATOM     26  O   UNL A   1      42.982  22.582  24.758  1.00  0.00    -0.458 OA
BRANCH  26  27
ATOM     27  C   UNL A   1      43.703  23.719  24.872  1.00  0.00     0.338 C 
ATOM     28  O   UNL A   1      44.773  23.970  24.332  1.00  0.00    -0.246 OA
BRANCH  27  29
ATOM     29  C   UNL A   1      43.029  24.680  25.769  1.00  0.00     0.060 A 
ATOM     30  C   UNL A   1      43.238  26.050  25.630  1.00  0.00     0.016 A 
ATOM     31  C   UNL A   1      42.289  24.204  26.851  1.00  0.00     0.016 A 
ATOM     32  C   UNL A   1      42.816  26.933  26.627  1.00  0.00     0.010 A 
ATOM     33  C   UNL A   1      41.773  25.102  27.792  1.00  0.00     0.010 A 
ATOM     34  C   UNL A   1      42.074  26.475  27.728  1.00  0.00    -0.014 A 
BRANCH  34  35
ATOM     35  C   UNL A   1      41.677  27.392  28.843  1.00  0.00     0.031 A 
ATOM     36  C   UNL A   1      42.505  27.448  30.107  1.00  0.00     0.074 A 
ATOM     37  C   UNL A   1      40.597  28.195  28.752  1.00  0.00     0.049 A 
ATOM     38  N   UNL A   1      42.213  27.980  31.270  1.00  0.00    -0.248 NA
ATOM     39  C   UNL A   1      43.830  26.806  30.064  1.00  0.00     0.031 C 
ATOM     40  C   UNL A   1      39.718  28.323  27.589  1.00  0.00     0.029 A 
ATOM     41  N   UNL A   1      40.062  29.075  29.665  1.00  0.00    -0.354 N 
ATOM     42  C   UNL A   1      43.275  27.664  32.111  1.00  0.00     0.074 A 
ATOM     43  C   UNL A   1      44.224  26.907  31.325  1.00  0.00     0.031 C 
ATOM     44  C   UNL A   1      38.798  29.270  27.833  1.00  0.00     0.029 A 
ATOM     45  C   UNL A   1      38.954  29.744  29.204  1.00  0.00     0.049 A 
ATOM     46  H   UNL A   1      40.438  29.212  30.564  1.00  0.00     0.167 HD
ATOM     47  C   UNL A   1      43.443  27.969  33.420  1.00  0.00     0.031 A 
ATOM     48  C   UNL A   1      38.126  30.611  29.818  1.00  0.00     0.031 A 
ATOM     49  C   UNL A   1      42.544  28.783  34.195  1.00  0.00     0.049 A 
ATOM     50  C   UNL A   1      38.325  30.932  31.271  1.00  0.00     0.074 A 
ATOM     51  C   UNL A   1      42.627  29.130  35.534  1.00  0.00     0.029 A 
ATOM     52  N   UNL A   1      41.420  29.412  33.689  1.00  0.00    -0.354 N 
ATOM     53  N   UNL A   1      39.265  30.522  32.085  1.00  0.00    -0.248 NA
ATOM     54  C   UNL A   1      37.327  31.814  31.895  1.00  0.00     0.031 C 
ATOM     55  C   UNL A   1      41.541  29.958  35.841  1.00  0.00     0.029 A 
ATOM     56  C   UNL A   1      40.804  30.151  34.684  1.00  0.00     0.049 A 
ATOM     57  H   UNL A   1      41.105  29.343  32.758  1.00  0.00     0.167 HD
ATOM     58  C   UNL A   1      38.973  31.094  33.316  1.00  0.00     0.074 A 
ATOM     59  C   UNL A   1      37.785  31.902  33.137  1.00  0.00     0.031 C 
ATOM     60  C   UNL A   1      39.626  30.953  34.494  1.00  0.00     0.031 A 
BRANCH  47  61
ATOM     61  C   UNL A   1      44.637  27.383  34.120  1.00  0.00    -0.014 A 
ATOM     62  C   UNL A   1      45.849  28.083  34.218  1.00  0.00     0.009 A 
ATOM     63  C   UNL A   1      44.527  26.122  34.728  1.00  0.00     0.009 A 
ATOM     64  C   UNL A   1      46.935  27.517  34.889  1.00  0.00     0.001 A 
ATOM     65  C   UNL A   1      45.607  25.570  35.418  1.00  0.00     0.001 A 
ATOM     66  C   UNL A   1      46.813  26.264  35.492  1.00  0.00     0.000 A 
ENDBRANCH  47  61
BRANCH  48  67
ATOM     67  C   UNL A   1      36.985  31.204  29.071  1.00  0.00    -0.014 A 
ATOM     68  C   UNL A   1      37.013  32.553  28.688  1.00  0.00     0.009 A 
ATOM     69  C   UNL A   1      35.863  30.426  28.744  1.00  0.00     0.009 A 
ATOM     70  C   UNL A   1      35.934  33.113  28.001  1.00  0.00     0.001 A 
ATOM     71  C   UNL A   1      34.799  30.982  28.033  1.00  0.00     0.001 A 
ATOM     72  C   UNL A   1      34.832  32.327  27.669  1.00  0.00     0.000 A 
ENDBRANCH  48  67
BRANCH  60  73
ATOM     73  C   UNL A   1      39.084  31.710  35.670  1.00  0.00    -0.014 A 
ATOM     74  C   UNL A   1      38.184  31.110  36.562  1.00  0.00     0.009 A 
ATOM     75  C   UNL A   1      39.494  33.032  35.896  1.00  0.00     0.009 A 
ATOM     76  C   UNL A   1      37.680  31.833  37.646  1.00  0.00     0.001 A 
ATOM     77  C   UNL A   1      39.003  33.746  36.990  1.00  0.00     0.001 A 
ATOM     78  C   UNL A   1      38.090  33.148  37.859  1.00  0.00     0.000 A 
ENDBRANCH  60  73
ENDBRANCH  34  35
ENDBRANCH  27  29
ENDBRANCH  26  27
ENDBRANCH  25  26
ENDBRANCH   1  25
TORSDOF 16
ENDMDL
