MODEL 1
REMARK VINA RESULT:     -10.7      0.000      0.000
REMARK SMILES COc1ccc([C@@H](CC(=O)OCCOC(=O)c2ccc(-c3c4nc(c(-c5ccccc5)c5ccc([nH]5)c(-c5ccccc5)c5nc(c(-c6ccccc6)c6ccc3[nH]6)C=C5)C=C4)cc2)NC(=O)c2ccc(Cl)c([N+](=O)[O-])c2)cc1
REMARK SMILES IDX 12 1 11 2 9 3 10 4 8 5 7 6 6 7 3 8 4 9 79 10 5 11 78 12 2 13
REMARK SMILES IDX 1 14 65 15 66 16 67 18 68 19 69 20 77 21 70 22 73 23 71 24
REMARK SMILES IDX 72 25 74 26 75 27 76 28 13 29 14 30 15 31 16 32 17 33 18 34
REMARK SMILES IDX 64 35 19 36 63 37 20 38 21 39 22 40 57 41 23 42 62 43 56 44
REMARK SMILES IDX 58 45 24 46 61 47 55 48 54 49 25 51 47 52 32 53 46 54 33 55
REMARK SMILES IDX 36 56 45 57 59 58 34 59 35 60 44 62 60 63 37 64 26 65 27 66
REMARK SMILES IDX 31 67 28 68 30 69 29 70 48 71 49 72 53 73 50 74 52 75 51 76
REMARK SMILES IDX 38 77 39 78 43 79 40 80 42 81 41 82
REMARK H PARENT 65 17 58 50 36 61
REMARK Flexibility Score: inf
ROOT
ATOM      1  C   UNL A   1      32.975  29.689  25.108  1.00  0.00     0.274 C 
ENDROOT
BRANCH   1   2
ATOM      2  O   UNL A   1      33.714  28.449  25.113  1.00  0.00    -0.462 OA
BRANCH   2   3
ATOM      3  C   UNL A   1      33.711  27.723  23.973  1.00  0.00     0.308 C 
ATOM      4  O   UNL A   1      33.776  28.209  22.848  1.00  0.00    -0.252 OA
BRANCH   3   5
ATOM      5  C   UNL A   1      33.520  26.238  24.183  1.00  0.00     0.152 C 
BRANCH   5   6
ATOM      6  C   UNL A   1      34.100  25.557  25.432  1.00  0.00     0.123 C 
BRANCH   6   7
ATOM      7  C   UNL A   1      35.068  24.434  25.099  1.00  0.00    -0.025 A 
ATOM      8  C   UNL A   1      36.609  22.181  24.432  1.00  0.00     0.118 A 
ATOM      9  C   UNL A   1      36.566  22.632  25.748  1.00  0.00     0.047 A 
ATOM     10  C   UNL A   1      35.903  22.853  23.439  1.00  0.00     0.047 A 
ATOM     11  C   UNL A   1      35.825  23.769  26.075  1.00  0.00     0.010 A 
ATOM     12  C   UNL A   1      35.138  23.972  23.771  1.00  0.00     0.010 A 
BRANCH   8  13
ATOM     13  O   UNL A   1      37.278  21.013  24.195  1.00  0.00    -0.497 OA
ATOM     14  C   UNL A   1      38.162  20.674  25.261  1.00  0.00     0.278 C 
ENDBRANCH   8  13
ENDBRANCH   6   7
BRANCH   6  15
ATOM     15  N   UNL A   1      33.103  25.191  26.435  1.00  0.00    -0.345 N 
ATOM     16  C   UNL A   1      32.133  24.221  26.419  1.00  0.00     0.252 C 
ATOM     17  H   UNL A   1      33.133  25.728  27.261  1.00  0.00     0.164 HD
ATOM     18  O   UNL A   1      31.258  24.175  27.278  1.00  0.00    -0.269 OA
BRANCH  16  19
ATOM     19  C   UNL A   1      32.119  23.193  25.362  1.00  0.00     0.046 A 
ATOM     20  C   UNL A   1      31.590  23.518  24.109  1.00  0.00     0.016 A 
ATOM     21  C   UNL A   1      32.559  21.895  25.622  1.00  0.00     0.101 A 
ATOM     22  C   UNL A   1      31.567  22.561  23.089  1.00  0.00     0.028 A 
ATOM     23  C   UNL A   1      32.542  20.947  24.587  1.00  0.00     0.288 A 
ATOM     24  C   UNL A   1      32.064  21.271  23.313  1.00  0.00     0.118 A 
ATOM     25  Cl  UNL A   1      32.097  20.198  21.962  1.00  0.00    -0.077 Cl
BRANCH  23  26
ATOM     26  N   UNL A   1      33.080  19.633  24.889  1.00  0.00     0.064 N 
ATOM     27  O   UNL A   1      32.347  18.816  25.455  1.00  0.00    -0.258 OA
ATOM     28  O   UNL A   1      34.273  19.447  24.602  1.00  0.00    -0.258 OA
ENDBRANCH  23  26
ENDBRANCH  16  19
ENDBRANCH   6  15
ENDBRANCH   5   6
ENDBRANCH   3   5
ENDBRANCH   2   3
ENDBRANCH   1   2
BRANCH   1  29
ATOM     29  C   UNL A   1      32.725  30.214  26.526  1.00  0.00     0.275 C 
BRANCH  29  30
ATOM     30  O   UNL A   1      33.717  29.730  27.450  1.00  0.00    -0.458 OA
BRANCH  30  31
ATOM     31  C   UNL A   1      34.519  30.687  27.969  1.00  0.00     0.338 C 
ATOM     32  O   UNL A   1      34.195  31.816  28.292  1.00  0.00    -0.246 OA
BRANCH  31  33
ATOM     33  C   UNL A   1      35.848  30.121  28.242  1.00  0.00     0.060 A 
ATOM     34  C   UNL A   1      36.107  29.606  29.515  1.00  0.00     0.016 A 
ATOM     35  C   UNL A   1      36.849  30.166  27.274  1.00  0.00     0.016 A 
ATOM     36  C   UNL A   1      37.374  29.123  29.830  1.00  0.00     0.010 A 
ATOM     37  C   UNL A   1      38.120  29.676  27.587  1.00  0.00     0.010 A 
ATOM     38  C   UNL A   1      38.389  29.157  28.868  1.00  0.00    -0.014 A 
BRANCH  38  39
ATOM     39  C   UNL A   1      39.747  28.679  29.205  1.00  0.00     0.031 A 
ATOM     40  C   UNL A   1      40.693  29.582  29.940  1.00  0.00     0.074 A 
ATOM     41  C   UNL A   1      40.131  27.442  28.843  1.00  0.00     0.049 A 
ATOM     42  N   UNL A   1      41.960  29.401  30.214  1.00  0.00    -0.248 NA
ATOM     43  C   UNL A   1      40.142  30.856  30.427  1.00  0.00     0.031 C 
ATOM     44  C   UNL A   1      39.282  26.453  28.176  1.00  0.00     0.029 A 
ATOM     45  N   UNL A   1      41.342  26.811  28.978  1.00  0.00    -0.354 N 
ATOM     46  C   UNL A   1      42.367  30.550  30.878  1.00  0.00     0.074 A 
ATOM     47  C   UNL A   1      41.214  31.423  30.961  1.00  0.00     0.031 C 
ATOM     48  C   UNL A   1      40.002  25.341  27.956  1.00  0.00     0.029 A 
ATOM     49  C   UNL A   1      41.369  25.558  28.419  1.00  0.00     0.049 A 
ATOM     50  H   UNL A   1      42.115  27.218  29.432  1.00  0.00     0.167 HD
ATOM     51  C   UNL A   1      43.593  30.850  31.369  1.00  0.00     0.031 A 
ATOM     52  C   UNL A   1      42.391  24.696  28.266  1.00  0.00     0.031 A 
ATOM     53  C   UNL A   1      44.735  29.979  31.286  1.00  0.00     0.049 A 
ATOM     54  C   UNL A   1      43.758  25.081  28.756  1.00  0.00     0.074 A 
ATOM     55  C   UNL A   1      46.017  30.190  31.762  1.00  0.00     0.029 A 
ATOM     56  N   UNL A   1      44.731  28.731  30.682  1.00  0.00    -0.354 N 
ATOM     57  N   UNL A   1      44.136  26.176  29.372  1.00  0.00    -0.248 NA
ATOM     58  C   UNL A   1      44.840  24.115  28.525  1.00  0.00     0.031 C 
ATOM     59  C   UNL A   1      46.801  29.085  31.409  1.00  0.00     0.029 A 
ATOM     60  C   UNL A   1      45.994  28.168  30.755  1.00  0.00     0.049 A 
ATOM     61  H   UNL A   1      43.946  28.308  30.264  1.00  0.00     0.167 HD
ATOM     62  C   UNL A   1      45.493  26.021  29.621  1.00  0.00     0.074 A 
ATOM     63  C   UNL A   1      45.869  24.722  29.100  1.00  0.00     0.031 C 
ATOM     64  C   UNL A   1      46.350  26.875  30.229  1.00  0.00     0.031 A 
BRANCH  51  65
ATOM     65  C   UNL A   1      43.767  32.201  32.001  1.00  0.00    -0.014 A 
ATOM     66  C   UNL A   1      44.166  33.315  31.248  1.00  0.00     0.009 A 
ATOM     67  C   UNL A   1      43.508  32.362  33.371  1.00  0.00     0.009 A 
ATOM     68  C   UNL A   1      44.333  34.558  31.864  1.00  0.00     0.001 A 
ATOM     69  C   UNL A   1      43.652  33.610  33.978  1.00  0.00     0.001 A 
ATOM     70  C   UNL A   1      44.073  34.706  33.227  1.00  0.00     0.000 A 
ENDBRANCH  51  65
BRANCH  52  71
ATOM     71  C   UNL A   1      42.167  23.394  27.589  1.00  0.00    -0.014 A 
ATOM     72  C   UNL A   1      41.664  22.297  28.303  1.00  0.00     0.009 A 
ATOM     73  C   UNL A   1      42.454  23.243  26.222  1.00  0.00     0.009 A 
ATOM     74  C   UNL A   1      41.469  21.070  27.666  1.00  0.00     0.001 A 
ATOM     75  C   UNL A   1      42.234  22.022  25.583  1.00  0.00     0.001 A 
ATOM     76  C   UNL A   1      41.749  20.935  26.307  1.00  0.00     0.000 A 
ENDBRANCH  52  71
BRANCH  64  77
ATOM     77  C   UNL A   1      47.770  26.416  30.394  1.00  0.00    -0.014 A 
ATOM     78  C   UNL A   1      48.716  26.599  29.374  1.00  0.00     0.009 A 
ATOM     79  C   UNL A   1      48.171  25.825  31.602  1.00  0.00     0.009 A 
ATOM     80  C   UNL A   1      50.034  26.172  29.553  1.00  0.00     0.001 A 
ATOM     81  C   UNL A   1      49.493  25.420  31.786  1.00  0.00     0.001 A 
ATOM     82  C   UNL A   1      50.421  25.587  30.758  1.00  0.00     0.000 A 
ENDBRANCH  64  77
ENDBRANCH  38  39
ENDBRANCH  31  33
ENDBRANCH  30  31
ENDBRANCH  29  30
ENDBRANCH   1  29
TORSDOF 17
ENDMDL
MODEL 2
REMARK VINA RESULT:     -10.6      1.733      6.827
REMARK SMILES COc1ccc([C@@H](CC(=O)OCCOC(=O)c2ccc(-c3c4nc(c(-c5ccccc5)c5ccc([nH]5)c(-c5ccccc5)c5nc(c(-c6ccccc6)c6ccc3[nH]6)C=C5)C=C4)cc2)NC(=O)c2ccc(Cl)c([N+](=O)[O-])c2)cc1
REMARK SMILES IDX 12 1 11 2 9 3 10 4 8 5 7 6 6 7 3 8 4 9 79 10 5 11 78 12 2 13
REMARK SMILES IDX 1 14 65 15 66 16 67 18 68 19 69 20 77 21 70 22 73 23 71 24
REMARK SMILES IDX 72 25 74 26 75 27 76 28 13 29 14 30 15 31 16 32 17 33 18 34
REMARK SMILES IDX 64 35 19 36 63 37 20 38 21 39 22 40 57 41 23 42 62 43 56 44
REMARK SMILES IDX 58 45 24 46 61 47 55 48 54 49 25 51 47 52 32 53 46 54 33 55
REMARK SMILES IDX 36 56 45 57 59 58 34 59 35 60 44 62 60 63 37 64 26 65 27 66
REMARK SMILES IDX 31 67 28 68 30 69 29 70 48 71 49 72 53 73 50 74 52 75 51 76
REMARK SMILES IDX 38 77 39 78 43 79 40 80 42 81 41 82
REMARK H PARENT 65 17 58 50 36 61
REMARK Flexibility Score: inf
ROOT
ATOM      1  C   UNL A   1      37.625  20.676  24.637  1.00  0.00     0.274 C 
ENDROOT
BRANCH   1   2
ATOM      2  O   UNL A   1      37.181  21.473  25.755  1.00  0.00    -0.462 OA
BRANCH   2   3
ATOM      3  C   UNL A   1      37.569  22.768  25.783  1.00  0.00     0.308 C 
ATOM      4  O   UNL A   1      38.492  23.195  26.470  1.00  0.00    -0.252 OA
BRANCH   3   5
ATOM      5  C   UNL A   1      36.701  23.694  24.961  1.00  0.00     0.152 C 
BRANCH   5   6
ATOM      6  C   UNL A   1      35.170  23.588  25.043  1.00  0.00     0.123 C 
BRANCH   6   7
ATOM      7  C   UNL A   1      34.461  24.832  24.535  1.00  0.00    -0.025 A 
ATOM      8  C   UNL A   1      32.908  27.044  23.766  1.00  0.00     0.118 A 
ATOM      9  C   UNL A   1      33.193  26.039  22.847  1.00  0.00     0.047 A 
ATOM     10  C   UNL A   1      33.405  26.967  25.064  1.00  0.00     0.047 A 
ATOM     11  C   UNL A   1      33.990  24.954  23.220  1.00  0.00     0.010 A 
ATOM     12  C   UNL A   1      34.176  25.868  25.445  1.00  0.00     0.010 A 
BRANCH   8  13
ATOM     13  O   UNL A   1      32.051  28.031  23.365  1.00  0.00    -0.497 OA
ATOM     14  C   UNL A   1      30.989  28.230  24.295  1.00  0.00     0.278 C 
ENDBRANCH   8  13
ENDBRANCH   6   7
BRANCH   6  15
ATOM     15  N   UNL A   1      34.668  23.115  26.331  1.00  0.00    -0.345 N 
ATOM     16  C   UNL A   1      33.809  22.089  26.633  1.00  0.00     0.252 C 
ATOM     17  H   UNL A   1      35.004  23.614  27.112  1.00  0.00     0.164 HD
ATOM     18  O   UNL A   1      33.350  21.950  27.763  1.00  0.00    -0.269 OA
BRANCH  16  19
ATOM     19  C   UNL A   1      33.414  21.112  25.601  1.00  0.00     0.046 A 
ATOM     20  C   UNL A   1      32.683  21.556  24.495  1.00  0.00     0.016 A 
ATOM     21  C   UNL A   1      33.702  19.756  25.754  1.00  0.00     0.101 A 
ATOM     22  C   UNL A   1      32.299  20.649  23.501  1.00  0.00     0.028 A 
ATOM     23  C   UNL A   1      33.321  18.859  24.745  1.00  0.00     0.288 A 
ATOM     24  C   UNL A   1      32.634  19.293  23.607  1.00  0.00     0.118 A 
ATOM     25  Cl  UNL A   1      32.216  18.277  22.277  1.00  0.00    -0.077 Cl
BRANCH  23  26
ATOM     26  N   UNL A   1      33.710  17.470  24.917  1.00  0.00     0.064 N 
ATOM     27  O   UNL A   1      33.001  16.748  25.625  1.00  0.00    -0.258 OA
ATOM     28  O   UNL A   1      34.773  17.125  24.379  1.00  0.00    -0.258 OA
ENDBRANCH  23  26
ENDBRANCH  16  19
ENDBRANCH   6  15
ENDBRANCH   5   6
ENDBRANCH   3   5
ENDBRANCH   2   3
ENDBRANCH   1   2
BRANCH   1  29
ATOM     29  C   UNL A   1      38.521  19.515  25.080  1.00  0.00     0.275 C 
BRANCH  29  30
ATOM     30  O   UNL A   1      39.241  19.834  26.285  1.00  0.00    -0.458 OA
BRANCH  30  31
ATOM     31  C   UNL A   1      40.587  19.811  26.161  1.00  0.00     0.338 C 
ATOM     32  O   UNL A   1      41.256  18.954  25.609  1.00  0.00    -0.246 OA
BRANCH  31  33
ATOM     33  C   UNL A   1      41.151  21.072  26.664  1.00  0.00     0.060 A 
ATOM     34  C   UNL A   1      41.186  21.285  28.046  1.00  0.00     0.016 A 
ATOM     35  C   UNL A   1      41.572  22.062  25.780  1.00  0.00     0.016 A 
ATOM     36  C   UNL A   1      41.651  22.493  28.555  1.00  0.00     0.010 A 
ATOM     37  C   UNL A   1      42.044  23.274  26.291  1.00  0.00     0.010 A 
ATOM     38  C   UNL A   1      42.081  23.496  27.680  1.00  0.00    -0.014 A 
BRANCH  38  39
ATOM     39  C   UNL A   1      42.543  24.797  28.212  1.00  0.00     0.031 A 
ATOM     40  C   UNL A   1      41.549  25.888  28.478  1.00  0.00     0.074 A 
ATOM     41  C   UNL A   1      43.852  24.998  28.445  1.00  0.00     0.049 A 
ATOM     42  N   UNL A   1      41.763  27.133  28.819  1.00  0.00    -0.248 NA
ATOM     43  C   UNL A   1      40.128  25.532  28.338  1.00  0.00     0.031 C 
ATOM     44  C   UNL A   1      44.906  23.996  28.280  1.00  0.00     0.029 A 
ATOM     45  N   UNL A   1      44.518  26.122  28.862  1.00  0.00    -0.354 N 
ATOM     46  C   UNL A   1      40.507  27.719  28.906  1.00  0.00     0.074 A 
ATOM     47  C   UNL A   1      39.538  26.695  28.576  1.00  0.00     0.031 C 
ATOM     48  C   UNL A   1      46.088  24.553  28.588  1.00  0.00     0.029 A 
ATOM     49  C   UNL A   1      45.880  25.959  28.922  1.00  0.00     0.049 A 
ATOM     50  H   UNL A   1      44.065  26.964  29.096  1.00  0.00     0.167 HD
ATOM     51  C   UNL A   1      40.194  28.997  29.226  1.00  0.00     0.031 A 
ATOM     52  C   UNL A   1      46.853  26.852  29.182  1.00  0.00     0.031 A 
ATOM     53  C   UNL A   1      41.160  30.010  29.554  1.00  0.00     0.049 A 
ATOM     54  C   UNL A   1      46.484  28.280  29.466  1.00  0.00     0.074 A 
ATOM     55  C   UNL A   1      40.940  31.332  29.902  1.00  0.00     0.029 A 
ATOM     56  N   UNL A   1      42.533  29.814  29.572  1.00  0.00    -0.354 N 
ATOM     57  N   UNL A   1      45.294  28.828  29.532  1.00  0.00    -0.248 NA
ATOM     58  C   UNL A   1      47.592  29.214  29.704  1.00  0.00     0.031 C 
ATOM     59  C   UNL A   1      42.184  31.948  30.089  1.00  0.00     0.029 A 
ATOM     60  C   UNL A   1      43.174  30.996  29.903  1.00  0.00     0.049 A 
ATOM     61  H   UNL A   1      42.984  28.961  29.377  1.00  0.00     0.167 HD
ATOM     62  C   UNL A   1      45.509  30.164  29.841  1.00  0.00     0.074 A 
ATOM     63  C   UNL A   1      46.942  30.341  29.959  1.00  0.00     0.031 C 
ATOM     64  C   UNL A   1      44.601  31.154  30.014  1.00  0.00     0.031 A 
BRANCH  51  65
ATOM     65  C   UNL A   1      38.742  29.377  29.191  1.00  0.00    -0.014 A 
ATOM     66  C   UNL A   1      38.140  29.861  28.019  1.00  0.00     0.009 A 
ATOM     67  C   UNL A   1      37.960  29.227  30.346  1.00  0.00     0.009 A 
ATOM     68  C   UNL A   1      36.789  30.219  28.017  1.00  0.00     0.001 A 
ATOM     69  C   UNL A   1      36.605  29.563  30.334  1.00  0.00     0.001 A 
ATOM     70  C   UNL A   1      36.023  30.067  29.173  1.00  0.00     0.000 A 
ENDBRANCH  51  65
BRANCH  52  71
ATOM     71  C   UNL A   1      48.275  26.426  29.155  1.00  0.00    -0.014 A 
ATOM     72  C   UNL A   1      48.899  25.952  30.318  1.00  0.00     0.009 A 
ATOM     73  C   UNL A   1      49.015  26.492  27.963  1.00  0.00     0.009 A 
ATOM     74  C   UNL A   1      50.241  25.568  30.291  1.00  0.00     0.001 A 
ATOM     75  C   UNL A   1      50.349  26.083  27.935  1.00  0.00     0.001 A 
ATOM     76  C   UNL A   1      50.963  25.628  29.100  1.00  0.00     0.000 A 
ENDBRANCH  52  71
BRANCH  64  77
ATOM     77  C   UNL A   1      45.131  32.509  30.384  1.00  0.00    -0.014 A 
ATOM     78  C   UNL A   1      45.435  33.464  29.402  1.00  0.00     0.009 A 
ATOM     79  C   UNL A   1      45.294  32.845  31.738  1.00  0.00     0.009 A 
ATOM     80  C   UNL A   1      45.920  34.722  29.769  1.00  0.00     0.001 A 
ATOM     81  C   UNL A   1      45.755  34.109  32.102  1.00  0.00     0.001 A 
ATOM     82  C   UNL A   1      46.075  35.044  31.117  1.00  0.00     0.000 A 
ENDBRANCH  64  77
ENDBRANCH  38  39
ENDBRANCH  31  33
ENDBRANCH  30  31
ENDBRANCH  29  30
ENDBRANCH   1  29
TORSDOF 17
ENDMDL
MODEL 3
REMARK VINA RESULT:     -10.6      1.694      7.310
REMARK SMILES COc1ccc([C@@H](CC(=O)OCCOC(=O)c2ccc(-c3c4nc(c(-c5ccccc5)c5ccc([nH]5)c(-c5ccccc5)c5nc(c(-c6ccccc6)c6ccc3[nH]6)C=C5)C=C4)cc2)NC(=O)c2ccc(Cl)c([N+](=O)[O-])c2)cc1
REMARK SMILES IDX 12 1 11 2 9 3 10 4 8 5 7 6 6 7 3 8 4 9 79 10 5 11 78 12 2 13
REMARK SMILES IDX 1 14 65 15 66 16 67 18 68 19 69 20 77 21 70 22 73 23 71 24
REMARK SMILES IDX 72 25 74 26 75 27 76 28 13 29 14 30 15 31 16 32 17 33 18 34
REMARK SMILES IDX 64 35 19 36 63 37 20 38 21 39 22 40 57 41 23 42 62 43 56 44
REMARK SMILES IDX 58 45 24 46 61 47 55 48 54 49 25 51 47 52 32 53 46 54 33 55
REMARK SMILES IDX 36 56 45 57 59 58 34 59 35 60 44 62 60 63 37 64 26 65 27 66
REMARK SMILES IDX 31 67 28 68 30 69 29 70 48 71 49 72 53 73 50 74 52 75 51 76
REMARK SMILES IDX 38 77 39 78 43 79 40 80 42 81 41 82
REMARK H PARENT 65 17 58 50 36 61
REMARK Flexibility Score: inf
ROOT
ATOM      1  C   UNL A   1      38.439  20.100  24.925  1.00  0.00     0.274 C 
ENDROOT
BRANCH   1   2
ATOM      2  O   UNL A   1      37.584  21.014  25.645  1.00  0.00    -0.462 OA
BRANCH   2   3
ATOM      3  C   UNL A   1      37.937  22.318  25.649  1.00  0.00     0.308 C 
ATOM      4  O   UNL A   1      38.890  22.771  26.277  1.00  0.00    -0.252 OA
BRANCH   3   5
ATOM      5  C   UNL A   1      36.996  23.219  24.882  1.00  0.00     0.152 C 
BRANCH   5   6
ATOM      6  C   UNL A   1      35.480  22.973  24.937  1.00  0.00     0.123 C 
BRANCH   6   7
ATOM      7  C   UNL A   1      34.667  24.188  24.525  1.00  0.00    -0.025 A 
ATOM      8  C   UNL A   1      33.408  26.521  23.593  1.00  0.00     0.118 A 
ATOM      9  C   UNL A   1      33.808  26.428  24.922  1.00  0.00     0.047 A 
ATOM     10  C   UNL A   1      33.613  25.454  22.724  1.00  0.00     0.047 A 
ATOM     11  C   UNL A   1      34.407  25.258  25.394  1.00  0.00     0.010 A 
ATOM     12  C   UNL A   1      34.239  24.295  23.188  1.00  0.00     0.010 A 
BRANCH   8  13
ATOM     13  O   UNL A   1      32.911  27.724  23.174  1.00  0.00    -0.497 OA
ATOM     14  C   UNL A   1      32.004  28.288  24.118  1.00  0.00     0.278 C 
ENDBRANCH   8  13
ENDBRANCH   6   7
BRANCH   6  15
ATOM     15  N   UNL A   1      35.017  22.351  26.175  1.00  0.00    -0.345 N 
ATOM     16  C   UNL A   1      34.113  21.341  26.384  1.00  0.00     0.252 C 
ATOM     17  H   UNL A   1      35.421  22.718  26.996  1.00  0.00     0.164 HD
ATOM     18  O   UNL A   1      33.704  21.069  27.509  1.00  0.00    -0.269 OA
BRANCH  16  19
ATOM     19  C   UNL A   1      33.608  20.541  25.254  1.00  0.00     0.046 A 
ATOM     20  C   UNL A   1      32.674  21.113  24.384  1.00  0.00     0.016 A 
ATOM     21  C   UNL A   1      33.996  19.211  25.089  1.00  0.00     0.101 A 
ATOM     22  C   UNL A   1      32.181  20.376  23.302  1.00  0.00     0.028 A 
ATOM     23  C   UNL A   1      33.503  18.486  23.993  1.00  0.00     0.288 A 
ATOM     24  C   UNL A   1      32.610  19.060  23.084  1.00  0.00     0.118 A 
ATOM     25  Cl  UNL A   1      32.033  18.273  21.661  1.00  0.00    -0.077 Cl
BRANCH  23  26
ATOM     26  N   UNL A   1      33.997  17.130  23.826  1.00  0.00     0.064 N 
ATOM     27  O   UNL A   1      34.144  16.432  24.834  1.00  0.00    -0.258 OA
ATOM     28  O   UNL A   1      34.293  16.791  22.670  1.00  0.00    -0.258 OA
ENDBRANCH  23  26
ENDBRANCH  16  19
ENDBRANCH   6  15
ENDBRANCH   5   6
ENDBRANCH   3   5
ENDBRANCH   2   3
ENDBRANCH   1   2
BRANCH   1  29
ATOM     29  C   UNL A   1      39.379  19.335  25.861  1.00  0.00     0.275 C 
BRANCH  29  30
ATOM     30  O   UNL A   1      40.721  19.295  25.343  1.00  0.00    -0.458 OA
BRANCH  30  31
ATOM     31  C   UNL A   1      41.691  19.356  26.284  1.00  0.00     0.338 C 
ATOM     32  O   UNL A   1      42.404  18.442  26.659  1.00  0.00    -0.246 OA
BRANCH  31  33
ATOM     33  C   UNL A   1      41.884  20.752  26.703  1.00  0.00     0.060 A 
ATOM     34  C   UNL A   1      42.260  21.694  25.741  1.00  0.00     0.016 A 
ATOM     35  C   UNL A   1      41.766  21.111  28.044  1.00  0.00     0.016 A 
ATOM     36  C   UNL A   1      42.515  23.010  26.114  1.00  0.00     0.010 A 
ATOM     37  C   UNL A   1      42.018  22.433  28.418  1.00  0.00     0.010 A 
ATOM     38  C   UNL A   1      42.398  23.387  27.456  1.00  0.00    -0.014 A 
BRANCH  38  39
ATOM     39  C   UNL A   1      42.703  24.775  27.866  1.00  0.00     0.031 A 
ATOM     40  C   UNL A   1      44.119  25.170  28.162  1.00  0.00     0.074 A 
ATOM     41  C   UNL A   1      41.708  25.673  27.981  1.00  0.00     0.049 A 
ATOM     42  N   UNL A   1      44.575  26.293  28.656  1.00  0.00    -0.248 NA
ATOM     43  C   UNL A   1      45.156  24.170  27.866  1.00  0.00     0.031 C 
ATOM     44  C   UNL A   1      40.301  25.423  27.666  1.00  0.00     0.029 A 
ATOM     45  N   UNL A   1      41.732  26.977  28.406  1.00  0.00    -0.354 N 
ATOM     46  C   UNL A   1      45.950  26.125  28.760  1.00  0.00     0.074 A 
ATOM     47  C   UNL A   1      46.250  24.791  28.282  1.00  0.00     0.031 C 
ATOM     48  C   UNL A   1      39.595  26.539  27.913  1.00  0.00     0.029 A 
ATOM     49  C   UNL A   1      40.490  27.559  28.451  1.00  0.00     0.049 A 
ATOM     50  H   UNL A   1      42.559  27.449  28.655  1.00  0.00     0.167 HD
ATOM     51  C   UNL A   1      46.874  27.003  29.217  1.00  0.00     0.031 A 
ATOM     52  C   UNL A   1      40.111  28.768  28.906  1.00  0.00     0.031 A 
ATOM     53  C   UNL A   1      46.570  28.327  29.690  1.00  0.00     0.049 A 
ATOM     54  C   UNL A   1      41.146  29.697  29.474  1.00  0.00     0.074 A 
ATOM     55  C   UNL A   1      47.439  29.294  30.164  1.00  0.00     0.029 A 
ATOM     56  N   UNL A   1      45.295  28.868  29.750  1.00  0.00    -0.354 N 
ATOM     57  N   UNL A   1      42.442  29.524  29.580  1.00  0.00    -0.248 NA
ATOM     58  C   UNL A   1      40.665  30.986  29.990  1.00  0.00     0.031 C 
ATOM     59  C   UNL A   1      46.683  30.408  30.551  1.00  0.00     0.029 A 
ATOM     60  C   UNL A   1      45.351  30.149  30.274  1.00  0.00     0.049 A 
ATOM     61  H   UNL A   1      44.472  28.410  29.463  1.00  0.00     0.167 HD
ATOM     62  C   UNL A   1      42.934  30.688  30.154  1.00  0.00     0.074 A 
ATOM     63  C   UNL A   1      41.798  31.564  30.363  1.00  0.00     0.031 C 
ATOM     64  C   UNL A   1      44.211  31.005  30.476  1.00  0.00     0.031 A 
BRANCH  51  65
ATOM     65  C   UNL A   1      48.299  26.533  29.269  1.00  0.00    -0.014 A 
ATOM     66  C   UNL A   1      48.813  25.875  30.397  1.00  0.00     0.009 A 
ATOM     67  C   UNL A   1      49.135  26.737  28.160  1.00  0.00     0.009 A 
ATOM     68  C   UNL A   1      50.147  25.460  30.424  1.00  0.00     0.001 A 
ATOM     69  C   UNL A   1      50.460  26.299  28.180  1.00  0.00     0.001 A 
ATOM     70  C   UNL A   1      50.968  25.670  29.315  1.00  0.00     0.000 A 
ENDBRANCH  51  65
BRANCH  52  71
ATOM     71  C   UNL A   1      38.679  29.156  28.873  1.00  0.00    -0.014 A 
ATOM     72  C   UNL A   1      38.117  29.711  27.714  1.00  0.00     0.009 A 
ATOM     73  C   UNL A   1      37.865  28.973  30.003  1.00  0.00     0.009 A 
ATOM     74  C   UNL A   1      36.774  30.089  27.692  1.00  0.00     0.001 A 
ATOM     75  C   UNL A   1      36.516  29.330  29.970  1.00  0.00     0.001 A 
ATOM     76  C   UNL A   1      35.973  29.894  28.816  1.00  0.00     0.000 A 
ENDBRANCH  52  71
BRANCH  64  77
ATOM     77  C   UNL A   1      44.450  32.369  31.057  1.00  0.00    -0.014 A 
ATOM     78  C   UNL A   1      44.457  32.578  32.444  1.00  0.00     0.009 A 
ATOM     79  C   UNL A   1      44.708  33.451  30.201  1.00  0.00     0.009 A 
ATOM     80  C   UNL A   1      44.690  33.853  32.963  1.00  0.00     0.001 A 
ATOM     81  C   UNL A   1      44.963  34.719  30.722  1.00  0.00     0.001 A 
ATOM     82  C   UNL A   1      44.947  34.921  32.102  1.00  0.00     0.000 A 
ENDBRANCH  64  77
ENDBRANCH  38  39
ENDBRANCH  31  33
ENDBRANCH  30  31
ENDBRANCH  29  30
ENDBRANCH   1  29
TORSDOF 17
ENDMDL
