MODEL 1
REMARK VINA RESULT:      -8.9      0.000      0.000
REMARK SMILES C[C@H](CNS(=O)(=O)c1ccc(C(=O)OCCOC(=O)c2ccc(-c3c4nc(c(-c5ccccc5)c5ccc([nH]5)c(-c5ccccc5)c5nc(c(-c6ccccc6)c6ccc3[nH]6)C=C5)C=C4)cc2)o1)c1ccccc1
REMARK SMILES IDX 14 1 12 2 13 3 11 4 8 5 9 6 68 7 10 8 5 9 6 10 7 11 4 12
REMARK SMILES IDX 3 14 2 15 1 16 69 17 70 18 74 19 71 20 73 21 72 22 15 23
REMARK SMILES IDX 16 24 17 25 18 26 19 27 20 28 21 29 67 30 22 31 66 32 23 33
REMARK SMILES IDX 24 34 25 35 60 36 26 37 65 38 59 39 61 40 27 41 64 42 58 43
REMARK SMILES IDX 57 44 28 46 50 47 35 48 49 49 36 50 39 51 48 52 62 53 37 54
REMARK SMILES IDX 38 55 47 57 63 58 40 59 29 60 30 61 34 62 31 63 33 64 32 65
REMARK SMILES IDX 51 66 52 67 56 68 53 69 55 70 54 71 41 72 42 73 46 74 43 75
REMARK SMILES IDX 45 76 44 77
REMARK H PARENT 4 13 61 45 39 56
REMARK Flexibility Score: inf
ROOT
ATOM      1  O   UNL A   1      44.172  19.526  24.690  1.00  0.00    -0.456 OA
ENDROOT
BRANCH   1   2
ATOM      2  C   UNL A   1      45.343  20.206  24.481  1.00  0.00     0.374 C 
ATOM      3  O   UNL A   1      46.387  19.689  24.136  1.00  0.00    -0.242 OA
BRANCH   2   4
ATOM      4  C   UNL A   1      45.115  21.629  24.629  1.00  0.00     0.213 A 
ATOM      5  C   UNL A   1      45.852  23.738  24.783  1.00  0.00     0.234 A 
ATOM      6  C   UNL A   1      44.467  23.777  24.667  1.00  0.00     0.065 A 
ATOM      7  O   UNL A   1      46.211  22.409  24.859  1.00  0.00    -0.436 OA
ATOM      8  C   UNL A   1      44.006  22.440  24.530  1.00  0.00     0.060 A 
BRANCH   5   9
ATOM      9  S   UNL A   1      47.128  25.001  24.768  1.00  0.00     0.274 S 
ATOM     10  O   UNL A   1      47.838  24.797  23.525  1.00  0.00    -0.204 OA
ATOM     11  O   UNL A   1      47.789  24.896  26.049  1.00  0.00    -0.204 OA
BRANCH   9  12
ATOM     12  N   UNL A   1      46.439  26.543  24.710  1.00  0.00    -0.208 NA
ATOM     13  H   UNL A   1      47.183  27.205  24.490  1.00  0.00     0.141 HD
BRANCH  12  14
ATOM     14  C   UNL A   1      45.764  27.021  25.937  1.00  0.00     0.107 C 
BRANCH  14  15
ATOM     15  C   UNL A   1      46.586  28.141  26.628  1.00  0.00     0.031 C 
ATOM     16  C   UNL A   1      47.919  28.357  25.892  1.00  0.00     0.014 C 
BRANCH  15  17
ATOM     17  C   UNL A   1      45.777  29.409  26.898  1.00  0.00    -0.044 A 
ATOM     18  C   UNL A   1      46.357  30.609  27.336  1.00  0.00     0.004 A 
ATOM     19  C   UNL A   1      44.373  29.368  26.783  1.00  0.00     0.004 A 
ATOM     20  C   UNL A   1      45.567  31.725  27.636  1.00  0.00     0.000 A 
ATOM     21  C   UNL A   1      43.587  30.487  27.068  1.00  0.00     0.000 A 
ATOM     22  C   UNL A   1      44.185  31.666  27.497  1.00  0.00     0.000 A 
ENDBRANCH  15  17
ENDBRANCH  14  15
ENDBRANCH  12  14
ENDBRANCH   9  12
ENDBRANCH   5   9
ENDBRANCH   2   4
ENDBRANCH   1   2
BRANCH   1  23
ATOM     23  C   UNL A   1      44.186  18.607  25.799  1.00  0.00     0.275 C 
BRANCH  23  24
ATOM     24  C   UNL A   1      42.827  17.919  25.993  1.00  0.00     0.275 C 
BRANCH  24  25
ATOM     25  O   UNL A   1      41.968  18.639  26.898  1.00  0.00    -0.458 OA
BRANCH  25  26
ATOM     26  C   UNL A   1      41.122  19.525  26.319  1.00  0.00     0.338 C 
ATOM     27  O   UNL A   1      40.157  19.258  25.621  1.00  0.00    -0.246 OA
BRANCH  26  28
ATOM     28  C   UNL A   1      41.440  20.897  26.764  1.00  0.00     0.060 A 
ATOM     29  C   UNL A   1      42.244  21.038  27.897  1.00  0.00     0.016 A 
ATOM     30  C   UNL A   1      40.933  22.030  26.122  1.00  0.00     0.016 A 
ATOM     31  C   UNL A   1      42.569  22.300  28.385  1.00  0.00     0.010 A 
ATOM     32  C   UNL A   1      41.244  23.302  26.622  1.00  0.00     0.010 A 
ATOM     33  C   UNL A   1      42.065  23.444  27.754  1.00  0.00    -0.014 A 
BRANCH  33  34
ATOM     34  C   UNL A   1      42.376  24.777  28.320  1.00  0.00     0.031 A 
ATOM     35  C   UNL A   1      43.782  25.115  28.718  1.00  0.00     0.074 A 
ATOM     36  C   UNL A   1      41.404  25.702  28.428  1.00  0.00     0.049 A 
ATOM     37  N   UNL A   1      44.248  26.217  29.249  1.00  0.00    -0.248 NA
ATOM     38  C   UNL A   1      44.798  24.078  28.483  1.00  0.00     0.031 C 
ATOM     39  C   UNL A   1      40.014  25.520  28.016  1.00  0.00     0.029 A 
ATOM     40  N   UNL A   1      41.449  26.988  28.907  1.00  0.00    -0.354 N 
ATOM     41  C   UNL A   1      45.610  26.005  29.420  1.00  0.00     0.074 A 
ATOM     42  C   UNL A   1      45.891  24.664  28.954  1.00  0.00     0.031 C 
ATOM     43  C   UNL A   1      39.336  26.656  28.249  1.00  0.00     0.029 A 
ATOM     44  C   UNL A   1      40.239  27.632  28.858  1.00  0.00     0.049 A 
ATOM     45  H   UNL A   1      42.269  27.407  29.252  1.00  0.00     0.167 HD
ATOM     46  C   UNL A   1      46.541  26.853  29.917  1.00  0.00     0.031 A 
ATOM     47  C   UNL A   1      39.890  28.864  29.271  1.00  0.00     0.031 A 
ATOM     48  C   UNL A   1      46.266  28.185  30.384  1.00  0.00     0.049 A 
ATOM     49  C   UNL A   1      40.929  29.758  29.891  1.00  0.00     0.074 A 
ATOM     50  C   UNL A   1      47.147  29.116  30.910  1.00  0.00     0.029 A 
ATOM     51  N   UNL A   1      45.014  28.779  30.378  1.00  0.00    -0.354 N 
ATOM     52  N   UNL A   1      42.208  29.539  30.066  1.00  0.00    -0.248 NA
ATOM     53  C   UNL A   1      40.469  31.067  30.377  1.00  0.00     0.031 C 
ATOM     54  C   UNL A   1      46.419  30.260  31.259  1.00  0.00     0.029 A 
ATOM     55  C   UNL A   1      45.093  30.054  30.913  1.00  0.00     0.049 A 
ATOM     56  H   UNL A   1      44.190  28.357  30.044  1.00  0.00     0.167 HD
ATOM     57  C   UNL A   1      42.710  30.685  30.668  1.00  0.00     0.074 A 
ATOM     58  C   UNL A   1      41.600  31.603  30.815  1.00  0.00     0.031 C 
ATOM     59  C   UNL A   1      43.978  30.952  31.062  1.00  0.00     0.031 A 
BRANCH  46  60
ATOM     60  C   UNL A   1      47.948  26.341  30.017  1.00  0.00    -0.014 A 
ATOM     61  C   UNL A   1      48.830  26.426  28.929  1.00  0.00     0.009 A 
ATOM     62  C   UNL A   1      48.402  25.787  31.223  1.00  0.00     0.009 A 
ATOM     63  C   UNL A   1      50.134  25.938  29.041  1.00  0.00     0.001 A 
ATOM     64  C   UNL A   1      49.711  25.319  31.338  1.00  0.00     0.001 A 
ATOM     65  C   UNL A   1      50.574  25.388  30.245  1.00  0.00     0.000 A 
ENDBRANCH  46  60
BRANCH  47  66
ATOM     66  C   UNL A   1      38.485  29.323  29.134  1.00  0.00    -0.014 A 
ATOM     67  C   UNL A   1      37.594  29.229  30.209  1.00  0.00     0.009 A 
ATOM     68  C   UNL A   1      38.032  29.855  27.915  1.00  0.00     0.009 A 
ATOM     69  C   UNL A   1      36.267  29.646  30.066  1.00  0.00     0.001 A 
ATOM     70  C   UNL A   1      36.712  30.291  27.781  1.00  0.00     0.001 A 
ATOM     71  C   UNL A   1      35.830  30.179  28.856  1.00  0.00     0.000 A 
ENDBRANCH  47  66
BRANCH  59  72
ATOM     72  C   UNL A   1      44.233  32.297  31.677  1.00  0.00    -0.014 A 
ATOM     73  C   UNL A   1      44.151  32.482  33.065  1.00  0.00     0.009 A 
ATOM     74  C   UNL A   1      44.594  33.380  30.862  1.00  0.00     0.009 A 
ATOM     75  C   UNL A   1      44.400  33.737  33.623  1.00  0.00     0.001 A 
ATOM     76  C   UNL A   1      44.861  34.629  31.425  1.00  0.00     0.001 A 
ATOM     77  C   UNL A   1      44.758  34.808  32.804  1.00  0.00     0.000 A 
ENDBRANCH  59  72
ENDBRANCH  33  34
ENDBRANCH  26  28
ENDBRANCH  25  26
ENDBRANCH  24  25
ENDBRANCH  23  24
ENDBRANCH   1  23
TORSDOF 16
ENDMDL
MODEL 2
REMARK VINA RESULT:      -8.9      4.721      8.087
REMARK SMILES C[C@H](CNS(=O)(=O)c1ccc(C(=O)OCCOC(=O)c2ccc(-c3c4nc(c(-c5ccccc5)c5ccc([nH]5)c(-c5ccccc5)c5nc(c(-c6ccccc6)c6ccc3[nH]6)C=C5)C=C4)cc2)o1)c1ccccc1
REMARK SMILES IDX 14 1 12 2 13 3 11 4 8 5 9 6 68 7 10 8 5 9 6 10 7 11 4 12
REMARK SMILES IDX 3 14 2 15 1 16 69 17 70 18 74 19 71 20 73 21 72 22 15 23
REMARK SMILES IDX 16 24 17 25 18 26 19 27 20 28 21 29 67 30 22 31 66 32 23 33
REMARK SMILES IDX 24 34 25 35 60 36 26 37 65 38 59 39 61 40 27 41 64 42 58 43
REMARK SMILES IDX 57 44 28 46 50 47 35 48 49 49 36 50 39 51 48 52 62 53 37 54
REMARK SMILES IDX 38 55 47 57 63 58 40 59 29 60 30 61 34 62 31 63 33 64 32 65
REMARK SMILES IDX 51 66 52 67 56 68 53 69 55 70 54 71 41 72 42 73 46 74 43 75
REMARK SMILES IDX 45 76 44 77
REMARK H PARENT 4 13 61 45 39 56
REMARK Flexibility Score: inf
ROOT
ATOM      1  O   UNL A   1      41.157  20.724  26.661  1.00  0.00    -0.456 OA
ENDROOT
BRANCH   1   2
ATOM      2  C   UNL A   1      39.982  20.504  25.990  1.00  0.00     0.374 C 
ATOM      3  O   UNL A   1      39.626  19.425  25.562  1.00  0.00    -0.242 OA
BRANCH   2   4
ATOM      4  C   UNL A   1      39.197  21.722  25.969  1.00  0.00     0.213 A 
ATOM      5  C   UNL A   1      37.319  22.848  25.500  1.00  0.00     0.234 A 
ATOM      6  C   UNL A   1      38.146  23.685  26.242  1.00  0.00     0.065 A 
ATOM      7  O   UNL A   1      38.030  21.691  25.262  1.00  0.00    -0.436 OA
ATOM      8  C   UNL A   1      39.319  22.955  26.572  1.00  0.00     0.060 A 
BRANCH   5   9
ATOM      9  S   UNL A   1      35.622  22.978  24.929  1.00  0.00     0.274 S 
ATOM     10  O   UNL A   1      35.700  23.745  23.706  1.00  0.00    -0.204 OA
ATOM     11  O   UNL A   1      34.865  23.440  26.071  1.00  0.00    -0.204 OA
BRANCH   9  12
ATOM     12  N   UNL A   1      35.008  21.454  24.533  1.00  0.00    -0.208 NA
ATOM     13  H   UNL A   1      34.451  21.557  23.685  1.00  0.00     0.141 HD
BRANCH  12  14
ATOM     14  C   UNL A   1      34.160  20.790  25.547  1.00  0.00     0.107 C 
BRANCH  14  15
ATOM     15  C   UNL A   1      32.926  20.116  24.890  1.00  0.00     0.031 C 
ATOM     16  C   UNL A   1      32.565  20.828  23.575  1.00  0.00     0.014 C 
BRANCH  15  17
ATOM     17  C   UNL A   1      33.043  18.595  24.798  1.00  0.00    -0.044 A 
ATOM     18  C   UNL A   1      32.689  17.734  25.848  1.00  0.00     0.004 A 
ATOM     19  C   UNL A   1      33.605  18.016  23.644  1.00  0.00     0.004 A 
ATOM     20  C   UNL A   1      32.877  16.352  25.744  1.00  0.00     0.000 A 
ATOM     21  C   UNL A   1      33.779  16.634  23.534  1.00  0.00     0.000 A 
ATOM     22  C   UNL A   1      33.417  15.801  24.586  1.00  0.00     0.000 A 
ENDBRANCH  15  17
ENDBRANCH  14  15
ENDBRANCH  12  14
ENDBRANCH   9  12
ENDBRANCH   5   9
ENDBRANCH   2   4
ENDBRANCH   1   2
BRANCH   1  23
ATOM     23  C   UNL A   1      42.333  20.179  26.033  1.00  0.00     0.275 C 
BRANCH  23  24
ATOM     24  C   UNL A   1      43.360  21.269  25.691  1.00  0.00     0.275 C 
BRANCH  24  25
ATOM     25  O   UNL A   1      42.750  22.437  25.107  1.00  0.00    -0.458 OA
BRANCH  25  26
ATOM     26  C   UNL A   1      43.538  23.537  25.047  1.00  0.00     0.338 C 
ATOM     27  O   UNL A   1      44.371  23.787  24.190  1.00  0.00    -0.246 OA
BRANCH  26  28
ATOM     28  C   UNL A   1      43.156  24.496  26.104  1.00  0.00     0.060 A 
ATOM     29  C   UNL A   1      42.534  23.985  27.245  1.00  0.00     0.016 A 
ATOM     30  C   UNL A   1      43.355  25.873  25.975  1.00  0.00     0.016 A 
ATOM     31  C   UNL A   1      42.130  24.830  28.273  1.00  0.00     0.010 A 
ATOM     32  C   UNL A   1      42.933  26.729  27.001  1.00  0.00     0.010 A 
ATOM     33  C   UNL A   1      42.320  26.212  28.156  1.00  0.00    -0.014 A 
BRANCH  33  34
ATOM     34  C   UNL A   1      41.833  27.103  29.235  1.00  0.00     0.031 A 
ATOM     35  C   UNL A   1      42.610  27.229  30.512  1.00  0.00     0.074 A 
ATOM     36  C   UNL A   1      40.721  27.837  29.047  1.00  0.00     0.049 A 
ATOM     37  N   UNL A   1      42.338  27.938  31.578  1.00  0.00    -0.248 NA
ATOM     38  C   UNL A   1      43.861  26.460  30.599  1.00  0.00     0.031 C 
ATOM     39  C   UNL A   1      39.915  27.854  27.828  1.00  0.00     0.029 A 
ATOM     40  N   UNL A   1      40.089  28.724  29.883  1.00  0.00    -0.354 N 
ATOM     41  C   UNL A   1      43.376  27.695  32.466  1.00  0.00     0.074 A 
ATOM     42  C   UNL A   1      44.275  26.760  31.822  1.00  0.00     0.031 C 
ATOM     43  C   UNL A   1      38.898  28.717  27.988  1.00  0.00     0.029 A 
ATOM     44  C   UNL A   1      38.965  29.286  29.334  1.00  0.00     0.049 A 
ATOM     45  H   UNL A   1      40.411  28.935  30.788  1.00  0.00     0.167 HD
ATOM     46  C   UNL A   1      43.566  28.208  33.705  1.00  0.00     0.031 A 
ATOM     47  C   UNL A   1      38.077  30.151  29.859  1.00  0.00     0.031 A 
ATOM     48  C   UNL A   1      42.676  29.135  34.350  1.00  0.00     0.049 A 
ATOM     49  C   UNL A   1      38.270  30.645  31.266  1.00  0.00     0.074 A 
ATOM     50  C   UNL A   1      42.784  29.704  35.608  1.00  0.00     0.029 A 
ATOM     51  N   UNL A   1      41.512  29.632  33.786  1.00  0.00    -0.354 N 
ATOM     52  N   UNL A   1      39.246  30.393  32.103  1.00  0.00    -0.248 NA
ATOM     53  C   UNL A   1      37.233  31.539  31.801  1.00  0.00     0.031 C 
ATOM     54  C   UNL A   1      41.664  30.516  35.820  1.00  0.00     0.029 A 
ATOM     55  C   UNL A   1      40.879  30.482  34.678  1.00  0.00     0.049 A 
ATOM     56  H   UNL A   1      41.182  29.412  32.885  1.00  0.00     0.167 HD
ATOM     57  C   UNL A   1      38.948  31.106  33.257  1.00  0.00     0.074 A 
ATOM     58  C   UNL A   1      37.709  31.813  33.007  1.00  0.00     0.031 C 
ATOM     59  C   UNL A   1      39.642  31.170  34.418  1.00  0.00     0.031 A 
BRANCH  46  60
ATOM     60  C   UNL A   1      44.775  27.739  34.461  1.00  0.00    -0.014 A 
ATOM     61  C   UNL A   1      44.724  26.600  35.279  1.00  0.00     0.009 A 
ATOM     62  C   UNL A   1      45.986  28.435  34.334  1.00  0.00     0.009 A 
ATOM     63  C   UNL A   1      45.859  26.184  35.978  1.00  0.00     0.001 A 
ATOM     64  C   UNL A   1      47.124  28.005  35.018  1.00  0.00     0.001 A 
ATOM     65  C   UNL A   1      47.058  26.885  35.844  1.00  0.00     0.000 A 
ENDBRANCH  46  60
BRANCH  47  66
ATOM     66  C   UNL A   1      36.907  30.591  29.059  1.00  0.00    -0.014 A 
ATOM     67  C   UNL A   1      35.893  29.689  28.719  1.00  0.00     0.009 A 
ATOM     68  C   UNL A   1      36.808  31.925  28.628  1.00  0.00     0.009 A 
ATOM     69  C   UNL A   1      34.803  30.107  27.949  1.00  0.00     0.001 A 
ATOM     70  C   UNL A   1      35.709  32.345  27.877  1.00  0.00     0.001 A 
ATOM     71  C   UNL A   1      34.711  31.433  27.533  1.00  0.00     0.000 A 
ENDBRANCH  47  66
BRANCH  59  72
ATOM     72  C   UNL A   1      39.082  32.045  35.501  1.00  0.00    -0.014 A 
ATOM     73  C   UNL A   1      38.364  31.495  36.574  1.00  0.00     0.009 A 
ATOM     74  C   UNL A   1      39.305  33.429  35.465  1.00  0.00     0.009 A 
ATOM     75  C   UNL A   1      37.857  32.321  37.579  1.00  0.00     0.001 A 
ATOM     76  C   UNL A   1      38.813  34.250  36.481  1.00  0.00     0.001 A 
ATOM     77  C   UNL A   1      38.084  33.697  37.534  1.00  0.00     0.000 A 
ENDBRANCH  59  72
ENDBRANCH  33  34
ENDBRANCH  26  28
ENDBRANCH  25  26
ENDBRANCH  24  25
ENDBRANCH  23  24
ENDBRANCH   1  23
TORSDOF 16
ENDMDL
MODEL 3
REMARK VINA RESULT:      -8.8      5.943     11.246
REMARK SMILES C[C@H](CNS(=O)(=O)c1ccc(C(=O)OCCOC(=O)c2ccc(-c3c4nc(c(-c5ccccc5)c5ccc([nH]5)c(-c5ccccc5)c5nc(c(-c6ccccc6)c6ccc3[nH]6)C=C5)C=C4)cc2)o1)c1ccccc1
REMARK SMILES IDX 14 1 12 2 13 3 11 4 8 5 9 6 68 7 10 8 5 9 6 10 7 11 4 12
REMARK SMILES IDX 3 14 2 15 1 16 69 17 70 18 74 19 71 20 73 21 72 22 15 23
REMARK SMILES IDX 16 24 17 25 18 26 19 27 20 28 21 29 67 30 22 31 66 32 23 33
REMARK SMILES IDX 24 34 25 35 60 36 26 37 65 38 59 39 61 40 27 41 64 42 58 43
REMARK SMILES IDX 57 44 28 46 50 47 35 48 49 49 36 50 39 51 48 52 62 53 37 54
REMARK SMILES IDX 38 55 47 57 63 58 40 59 29 60 30 61 34 62 31 63 33 64 32 65
REMARK SMILES IDX 51 66 52 67 56 68 53 69 55 70 54 71 41 72 42 73 46 74 43 75
REMARK SMILES IDX 45 76 44 77
REMARK H PARENT 4 13 61 45 39 56
REMARK Flexibility Score: inf
ROOT
ATOM      1  O   UNL A   1      32.006  29.646  27.169  1.00  0.00    -0.456 OA
ENDROOT
BRANCH   1   2
ATOM      2  C   UNL A   1      31.784  29.004  25.979  1.00  0.00     0.374 C 
ATOM      3  O   UNL A   1      31.298  29.524  24.996  1.00  0.00    -0.242 OA
BRANCH   2   4
ATOM      4  C   UNL A   1      32.314  27.657  26.046  1.00  0.00     0.213 A 
ATOM      5  C   UNL A   1      32.059  25.450  26.324  1.00  0.00     0.234 A 
ATOM      6  C   UNL A   1      33.362  25.679  25.896  1.00  0.00     0.065 A 
ATOM      7  O   UNL A   1      31.473  26.685  26.505  1.00  0.00    -0.436 OA
ATOM      8  C   UNL A   1      33.509  27.075  25.683  1.00  0.00     0.060 A 
BRANCH   5   9
ATOM      9  S   UNL A   1      31.085  23.963  26.577  1.00  0.00     0.274 S 
ATOM     10  O   UNL A   1      29.749  24.438  26.859  1.00  0.00    -0.204 OA
ATOM     11  O   UNL A   1      31.829  23.172  27.530  1.00  0.00    -0.204 OA
BRANCH   9  12
ATOM     12  N   UNL A   1      31.010  23.052  25.155  1.00  0.00    -0.208 NA
ATOM     13  H   UNL A   1      30.091  22.610  25.121  1.00  0.00     0.141 HD
BRANCH  12  14
ATOM     14  C   UNL A   1      32.024  21.988  24.987  1.00  0.00     0.107 C 
BRANCH  14  15
ATOM     15  C   UNL A   1      32.886  22.231  23.721  1.00  0.00     0.031 C 
ATOM     16  C   UNL A   1      32.352  23.441  22.935  1.00  0.00     0.014 C 
BRANCH  15  17
ATOM     17  C   UNL A   1      34.388  22.247  24.003  1.00  0.00    -0.044 A 
ATOM     18  C   UNL A   1      35.279  23.121  23.362  1.00  0.00     0.004 A 
ATOM     19  C   UNL A   1      34.933  21.293  24.885  1.00  0.00     0.004 A 
ATOM     20  C   UNL A   1      36.656  23.053  23.602  1.00  0.00     0.000 A 
ATOM     21  C   UNL A   1      36.306  21.236  25.136  1.00  0.00     0.000 A 
ATOM     22  C   UNL A   1      37.169  22.115  24.492  1.00  0.00     0.000 A 
ENDBRANCH  15  17
ENDBRANCH  14  15
ENDBRANCH  12  14
ENDBRANCH   9  12
ENDBRANCH   5   9
ENDBRANCH   2   4
ENDBRANCH   1   2
BRANCH   1  23
ATOM     23  C   UNL A   1      32.829  30.826  27.085  1.00  0.00     0.275 C 
BRANCH  23  24
ATOM     24  C   UNL A   1      32.012  32.112  27.271  1.00  0.00     0.275 C 
BRANCH  24  25
ATOM     25  O   UNL A   1      32.806  33.301  27.088  1.00  0.00    -0.458 OA
BRANCH  25  26
ATOM     26  C   UNL A   1      33.120  33.972  28.223  1.00  0.00     0.338 C 
ATOM     27  O   UNL A   1      32.419  34.788  28.801  1.00  0.00    -0.246 OA
BRANCH  26  28
ATOM     28  C   UNL A   1      34.398  33.476  28.770  1.00  0.00     0.060 A 
ATOM     29  C   UNL A   1      35.548  33.668  28.001  1.00  0.00     0.016 A 
ATOM     30  C   UNL A   1      34.479  32.795  29.988  1.00  0.00     0.016 A 
ATOM     31  C   UNL A   1      36.784  33.211  28.446  1.00  0.00     0.010 A 
ATOM     32  C   UNL A   1      35.720  32.317  30.430  1.00  0.00     0.010 A 
ATOM     33  C   UNL A   1      36.879  32.524  29.662  1.00  0.00    -0.014 A 
BRANCH  33  34
ATOM     34  C   UNL A   1      38.194  31.995  30.093  1.00  0.00     0.031 A 
ATOM     35  C   UNL A   1      38.680  30.675  29.572  1.00  0.00     0.074 A 
ATOM     36  C   UNL A   1      38.974  32.725  30.912  1.00  0.00     0.049 A 
ATOM     37  N   UNL A   1      39.789  30.036  29.846  1.00  0.00    -0.248 NA
ATOM     38  C   UNL A   1      37.805  29.986  28.611  1.00  0.00     0.031 C 
ATOM     39  C   UNL A   1      38.646  34.049  31.435  1.00  0.00     0.029 A 
ATOM     40  N   UNL A   1      40.214  32.453  31.435  1.00  0.00    -0.354 N 
ATOM     41  C   UNL A   1      39.743  28.866  29.100  1.00  0.00     0.074 A 
ATOM     42  C   UNL A   1      38.489  28.875  28.376  1.00  0.00     0.031 C 
ATOM     43  C   UNL A   1      39.663  34.483  32.197  1.00  0.00     0.029 A 
ATOM     44  C   UNL A   1      40.698  33.450  32.242  1.00  0.00     0.049 A 
ATOM     45  H   UNL A   1      40.708  31.622  31.249  1.00  0.00     0.167 HD
ATOM     46  C   UNL A   1      40.664  27.876  29.023  1.00  0.00     0.031 A 
ATOM     47  C   UNL A   1      41.838  33.522  32.952  1.00  0.00     0.031 A 
ATOM     48  C   UNL A   1      41.909  27.861  29.742  1.00  0.00     0.049 A 
ATOM     49  C   UNL A   1      42.809  32.374  32.910  1.00  0.00     0.074 A 
ATOM     50  C   UNL A   1      42.902  26.896  29.731  1.00  0.00     0.029 A 
ATOM     51  N   UNL A   1      42.334  28.862  30.601  1.00  0.00    -0.354 N 
ATOM     52  N   UNL A   1      42.744  31.264  32.216  1.00  0.00    -0.248 NA
ATOM     53  C   UNL A   1      44.006  32.488  33.755  1.00  0.00     0.031 C 
ATOM     54  C   UNL A   1      43.912  27.296  30.614  1.00  0.00     0.029 A 
ATOM     55  C   UNL A   1      43.563  28.528  31.144  1.00  0.00     0.049 A 
ATOM     56  H   UNL A   1      41.835  29.688  30.798  1.00  0.00     0.167 HD
ATOM     57  C   UNL A   1      43.896  30.555  32.529  1.00  0.00     0.074 A 
ATOM     58  C   UNL A   1      44.649  31.366  33.464  1.00  0.00     0.031 C 
ATOM     59  C   UNL A   1      44.294  29.341  32.081  1.00  0.00     0.031 A 
BRANCH  46  60
ATOM     60  C   UNL A   1      40.332  26.701  28.151  1.00  0.00    -0.014 A 
ATOM     61  C   UNL A   1      39.487  25.676  28.603  1.00  0.00     0.009 A 
ATOM     62  C   UNL A   1      40.854  26.631  26.851  1.00  0.00     0.009 A 
ATOM     63  C   UNL A   1      39.196  24.588  27.778  1.00  0.00     0.001 A 
ATOM     64  C   UNL A   1      40.545  25.553  26.021  1.00  0.00     0.001 A 
ATOM     65  C   UNL A   1      39.721  24.529  26.487  1.00  0.00     0.000 A 
ENDBRANCH  46  60
BRANCH  47  66
ATOM     66  C   UNL A   1      42.120  34.717  33.786  1.00  0.00    -0.014 A 
ATOM     67  C   UNL A   1      41.703  34.772  35.121  1.00  0.00     0.009 A 
ATOM     68  C   UNL A   1      42.809  35.813  33.240  1.00  0.00     0.009 A 
ATOM     69  C   UNL A   1      41.956  35.909  35.894  1.00  0.00     0.001 A 
ATOM     70  C   UNL A   1      43.079  36.938  34.021  1.00  0.00     0.001 A 
ATOM     71  C   UNL A   1      42.646  36.987  35.346  1.00  0.00     0.000 A 
ENDBRANCH  47  66
BRANCH  59  72
ATOM     72  C   UNL A   1      45.609  28.824  32.586  1.00  0.00    -0.014 A 
ATOM     73  C   UNL A   1      46.807  29.131  31.923  1.00  0.00     0.009 A 
ATOM     74  C   UNL A   1      45.653  28.051  33.755  1.00  0.00     0.009 A 
ATOM     75  C   UNL A   1      48.024  28.650  32.411  1.00  0.00     0.001 A 
ATOM     76  C   UNL A   1      46.873  27.588  34.250  1.00  0.00     0.001 A 
ATOM     77  C   UNL A   1      48.057  27.882  33.575  1.00  0.00     0.000 A 
ENDBRANCH  59  72
ENDBRANCH  33  34
ENDBRANCH  26  28
ENDBRANCH  25  26
ENDBRANCH  24  25
ENDBRANCH  23  24
ENDBRANCH   1  23
TORSDOF 16
ENDMDL
