MODEL 1
REMARK VINA RESULT:     -12.9      0.000      0.000
REMARK SMILES C[C@@H](C(=O)OCCOC(=O)c1ccc(-c2c3nc(c(-c4ccccc4)c4ccc([nH]4)c(-c4ccccc4)c4nc(c(-c5ccccc5)c5ccc2[nH]5)C=C4)C=C3)cc1)c1ccc(-c2cccc(OC(=O)NCCC3CCCCC3)c2)c(F)c1
REMARK SMILES IDX 3 1 4 2 2 3 1 4 59 5 60 6 83 7 61 8 81 9 62 10 82 11 63 12
REMARK SMILES IDX 64 13 80 14 65 15 67 16 66 17 68 18 69 19 70 20 71 21 72 23
REMARK SMILES IDX 73 24 74 25 75 26 79 27 76 28 78 29 77 30 5 31 6 32 7 33
REMARK SMILES IDX 8 34 9 35 10 36 11 37 12 38 58 39 13 40 57 41 14 42 15 43
REMARK SMILES IDX 16 44 51 45 17 46 56 47 50 48 52 49 18 50 55 51 49 52 48 53
REMARK SMILES IDX 19 55 41 56 26 57 40 58 27 59 30 60 39 61 53 62 28 63 29 64
REMARK SMILES IDX 38 66 54 67 31 68 20 69 21 70 25 71 22 72 24 73 23 74 42 75
REMARK SMILES IDX 43 76 47 77 44 78 46 79 45 80 32 81 33 82 37 83 34 84 36 85
REMARK SMILES IDX 35 86
REMARK H PARENT 71 22 52 54 30 65
REMARK Flexibility Score: inf
ROOT
ATOM      1  C   UNL A   1      42.463  21.380  26.562  1.00  0.00     0.313 C 
ATOM      2  O   UNL A   1      42.801  22.088  27.504  1.00  0.00    -0.252 OA
ENDROOT
BRANCH   1   3
ATOM      3  C   UNL A   1      41.445  20.215  26.685  1.00  0.00     0.126 C 
ATOM      4  C   UNL A   1      42.045  18.913  26.123  1.00  0.00     0.025 C 
BRANCH   3   5
ATOM      5  C   UNL A   1      40.012  20.525  26.170  1.00  0.00    -0.031 A 
ATOM      6  C   UNL A   1      39.443  21.812  26.218  1.00  0.00     0.005 A 
ATOM      7  C   UNL A   1      39.213  19.534  25.573  1.00  0.00     0.044 A 
ATOM      8  C   UNL A   1      38.131  22.080  25.750  1.00  0.00     0.012 A 
ATOM      9  C   UNL A   1      37.896  19.804  25.120  1.00  0.00     0.131 A 
ATOM     10  C   UNL A   1      37.309  21.077  25.213  1.00  0.00     0.018 A 
ATOM     11  F   UNL A   1      37.183  18.777  24.633  1.00  0.00    -0.206 F 
BRANCH  10  12
ATOM     12  C   UNL A   1      35.872  21.347  24.904  1.00  0.00    -0.012 A 
ATOM     13  C   UNL A   1      34.877  20.362  24.900  1.00  0.00     0.009 A 
ATOM     14  C   UNL A   1      35.469  22.630  24.487  1.00  0.00     0.056 A 
ATOM     15  C   UNL A   1      33.548  20.659  24.500  1.00  0.00     0.004 A 
ATOM     16  C   UNL A   1      34.145  22.917  24.084  1.00  0.00     0.133 A 
ATOM     17  C   UNL A   1      33.166  21.939  24.072  1.00  0.00     0.047 A 
BRANCH  16  18
ATOM     18  O   UNL A   1      33.844  24.374  23.280  1.00  0.00    -0.410 OA
BRANCH  18  19
ATOM     19  C   UNL A   1      33.567  25.813  22.514  1.00  0.00     0.412 C 
ATOM     20  O   UNL A   1      33.500  25.938  21.295  1.00  0.00    -0.224 OA
ATOM     21  N   UNL A   1      33.435  26.914  23.307  1.00  0.00    -0.321 N 
ATOM     22  H   UNL A   1      33.976  27.024  24.123  1.00  0.00     0.167 HD
BRANCH  21  23
ATOM     23  C   UNL A   1      32.481  27.912  22.911  1.00  0.00     0.119 C 
BRANCH  23  24
ATOM     24  C   UNL A   1      31.072  27.496  23.278  1.00  0.00     0.025 C 
BRANCH  24  25
ATOM     25  C   UNL A   1      30.087  28.673  23.242  1.00  0.00    -0.009 C 
ATOM     26  C   UNL A   1      30.383  29.585  22.036  1.00  0.00     0.003 C 
ATOM     27  C   UNL A   1      28.659  28.111  23.206  1.00  0.00     0.003 C 
ATOM     28  C   UNL A   1      29.300  30.625  21.792  1.00  0.00     0.000 C 
ATOM     29  C   UNL A   1      27.612  29.187  22.954  1.00  0.00     0.000 C 
ATOM     30  C   UNL A   1      27.929  29.976  21.690  1.00  0.00     0.000 C 
ENDBRANCH  24  25
ENDBRANCH  23  24
ENDBRANCH  21  23
ENDBRANCH  18  19
ENDBRANCH  16  18
ENDBRANCH  10  12
ENDBRANCH   3   5
ENDBRANCH   1   3
BRANCH   1  31
ATOM     31  O   UNL A   1      42.967  21.519  25.298  1.00  0.00    -0.462 OA
BRANCH  31  32
ATOM     32  C   UNL A   1      44.378  21.808  25.138  1.00  0.00     0.274 C 
BRANCH  32  33
ATOM     33  C   UNL A   1      44.584  22.973  24.165  1.00  0.00     0.275 C 
BRANCH  33  34
ATOM     34  O   UNL A   1      43.856  24.109  24.654  1.00  0.00    -0.458 OA
BRANCH  34  35
ATOM     35  C   UNL A   1      44.604  25.121  25.145  1.00  0.00     0.338 C 
ATOM     36  O   UNL A   1      45.685  25.526  24.761  1.00  0.00    -0.246 OA
BRANCH  35  37
ATOM     37  C   UNL A   1      43.777  25.810  26.137  1.00  0.00     0.060 A 
ATOM     38  C   UNL A   1      44.069  27.148  26.369  1.00  0.00     0.016 A 
ATOM     39  C   UNL A   1      42.790  25.160  26.871  1.00  0.00     0.016 A 
ATOM     40  C   UNL A   1      43.426  27.835  27.378  1.00  0.00     0.010 A 
ATOM     41  C   UNL A   1      42.099  25.872  27.857  1.00  0.00     0.010 A 
ATOM     42  C   UNL A   1      42.448  27.200  28.145  1.00  0.00    -0.014 A 
BRANCH  42  43
ATOM     43  C   UNL A   1      41.923  27.919  29.332  1.00  0.00     0.031 A 
ATOM     44  C   UNL A   1      40.386  28.388  29.140  1.00  0.00     0.074 A 
ATOM     45  C   UNL A   1      42.732  27.901  30.464  1.00  0.00     0.049 A 
ATOM     46  N   UNL A   1      39.484  28.638  30.047  1.00  0.00    -0.248 NA
ATOM     47  C   UNL A   1      39.735  28.488  27.816  1.00  0.00     0.031 C 
ATOM     48  C   UNL A   1      44.030  27.210  30.674  1.00  0.00     0.029 A 
ATOM     49  N   UNL A   1      42.512  28.320  31.761  1.00  0.00    -0.354 N 
ATOM     50  C   UNL A   1      38.332  29.174  29.526  1.00  0.00     0.074 A 
ATOM     51  C   UNL A   1      38.500  28.937  28.103  1.00  0.00     0.031 C 
ATOM     52  C   UNL A   1      44.352  27.184  31.999  1.00  0.00     0.029 A 
ATOM     53  C   UNL A   1      43.345  27.906  32.772  1.00  0.00     0.049 A 
ATOM     54  H   UNL A   1      41.755  28.917  31.962  1.00  0.00     0.167 HD
ATOM     55  C   UNL A   1      37.350  29.901  30.167  1.00  0.00     0.031 A 
ATOM     56  C   UNL A   1      43.197  28.115  34.119  1.00  0.00     0.031 A 
ATOM     57  C   UNL A   1      37.295  30.373  31.588  1.00  0.00     0.049 A 
ATOM     58  C   UNL A   1      42.003  28.929  34.754  1.00  0.00     0.074 A 
ATOM     59  C   UNL A   1      36.563  31.415  32.151  1.00  0.00     0.029 A 
ATOM     60  N   UNL A   1      38.046  29.909  32.669  1.00  0.00    -0.354 N 
ATOM     61  N   UNL A   1      40.783  29.133  34.317  1.00  0.00    -0.248 NA
ATOM     62  C   UNL A   1      42.208  29.586  36.059  1.00  0.00     0.031 C 
ATOM     63  C   UNL A   1      37.068  31.692  33.448  1.00  0.00     0.029 A 
ATOM     64  C   UNL A   1      38.074  30.782  33.758  1.00  0.00     0.049 A 
ATOM     65  H   UNL A   1      38.514  29.042  32.665  1.00  0.00     0.167 HD
ATOM     66  C   UNL A   1      40.123  30.030  35.148  1.00  0.00     0.074 A 
ATOM     67  C   UNL A   1      41.029  30.173  36.281  1.00  0.00     0.031 C 
ATOM     68  C   UNL A   1      38.965  30.748  34.947  1.00  0.00     0.031 A 
BRANCH  55  69
ATOM     69  C   UNL A   1      36.317  30.503  29.254  1.00  0.00    -0.014 A 
ATOM     70  C   UNL A   1      36.370  31.855  28.899  1.00  0.00     0.009 A 
ATOM     71  C   UNL A   1      35.334  29.680  28.675  1.00  0.00     0.009 A 
ATOM     72  C   UNL A   1      35.461  32.373  27.973  1.00  0.00     0.001 A 
ATOM     73  C   UNL A   1      34.443  30.194  27.732  1.00  0.00     0.001 A 
ATOM     74  C   UNL A   1      34.508  31.542  27.382  1.00  0.00     0.000 A 
ENDBRANCH  55  69
BRANCH  56  75
ATOM     75  C   UNL A   1      44.248  27.653  35.078  1.00  0.00    -0.014 A 
ATOM     76  C   UNL A   1      44.042  26.497  35.854  1.00  0.00     0.009 A 
ATOM     77  C   UNL A   1      45.386  28.432  35.338  1.00  0.00     0.009 A 
ATOM     78  C   UNL A   1      44.929  26.153  36.879  1.00  0.00     0.001 A 
ATOM     79  C   UNL A   1      46.290  28.068  36.341  1.00  0.00     0.001 A 
ATOM     80  C   UNL A   1      46.054  26.938  37.120  1.00  0.00     0.000 A 
ENDBRANCH  56  75
BRANCH  68  81
ATOM     81  C   UNL A   1      38.600  31.724  36.058  1.00  0.00    -0.014 A 
ATOM     82  C   UNL A   1      37.824  31.346  37.171  1.00  0.00     0.009 A 
ATOM     83  C   UNL A   1      39.115  33.029  36.022  1.00  0.00     0.009 A 
ATOM     84  C   UNL A   1      37.534  32.263  38.190  1.00  0.00     0.001 A 
ATOM     85  C   UNL A   1      38.848  33.935  37.055  1.00  0.00     0.001 A 
ATOM     86  C   UNL A   1      38.048  33.556  38.132  1.00  0.00     0.000 A 
ENDBRANCH  68  81
ENDBRANCH  42  43
ENDBRANCH  35  37
ENDBRANCH  34  35
ENDBRANCH  33  34
ENDBRANCH  32  33
ENDBRANCH  31  32
ENDBRANCH   1  31
TORSDOF 18
ENDMDL
MODEL 2
REMARK VINA RESULT:     -12.7      4.777     10.898
REMARK SMILES C[C@@H](C(=O)OCCOC(=O)c1ccc(-c2c3nc(c(-c4ccccc4)c4ccc([nH]4)c(-c4ccccc4)c4nc(c(-c5ccccc5)c5ccc2[nH]5)C=C4)C=C3)cc1)c1ccc(-c2cccc(OC(=O)NCCC3CCCCC3)c2)c(F)c1
REMARK SMILES IDX 3 1 4 2 2 3 1 4 59 5 60 6 83 7 61 8 81 9 62 10 82 11 63 12
REMARK SMILES IDX 64 13 80 14 65 15 67 16 66 17 68 18 69 19 70 20 71 21 72 23
REMARK SMILES IDX 73 24 74 25 75 26 79 27 76 28 78 29 77 30 5 31 6 32 7 33
REMARK SMILES IDX 8 34 9 35 10 36 11 37 12 38 58 39 13 40 57 41 14 42 15 43
REMARK SMILES IDX 16 44 51 45 17 46 56 47 50 48 52 49 18 50 55 51 49 52 48 53
REMARK SMILES IDX 19 55 41 56 26 57 40 58 27 59 30 60 39 61 53 62 28 63 29 64
REMARK SMILES IDX 38 66 54 67 31 68 20 69 21 70 25 71 22 72 24 73 23 74 42 75
REMARK SMILES IDX 43 76 47 77 44 78 46 79 45 80 32 81 33 82 37 83 34 84 36 85
REMARK SMILES IDX 35 86
REMARK H PARENT 71 22 52 54 30 65
REMARK Flexibility Score: inf
ROOT
ATOM      1  C   UNL A   1      34.317  34.352  29.361  1.00  0.00     0.313 C 
ATOM      2  O   UNL A   1      34.115  35.372  28.713  1.00  0.00    -0.252 OA
ENDROOT
BRANCH   1   3
ATOM      3  C   UNL A   1      35.114  33.134  28.820  1.00  0.00     0.126 C 
ATOM      4  C   UNL A   1      36.371  33.604  28.065  1.00  0.00     0.025 C 
BRANCH   3   5
ATOM      5  C   UNL A   1      34.274  32.076  28.053  1.00  0.00    -0.031 A 
ATOM      6  C   UNL A   1      34.741  30.775  27.784  1.00  0.00     0.005 A 
ATOM      7  C   UNL A   1      32.962  32.348  27.622  1.00  0.00     0.044 A 
ATOM      8  C   UNL A   1      33.965  29.822  27.075  1.00  0.00     0.012 A 
ATOM      9  C   UNL A   1      32.196  31.395  26.902  1.00  0.00     0.131 A 
ATOM     10  C   UNL A   1      32.681  30.114  26.589  1.00  0.00     0.018 A 
ATOM     11  F   UNL A   1      30.985  31.772  26.468  1.00  0.00    -0.206 F 
BRANCH  10  12
ATOM     12  C   UNL A   1      31.966  29.159  25.689  1.00  0.00    -0.012 A 
ATOM     13  C   UNL A   1      31.079  29.554  24.681  1.00  0.00     0.009 A 
ATOM     14  C   UNL A   1      32.082  27.772  25.898  1.00  0.00     0.056 A 
ATOM     15  C   UNL A   1      30.352  28.600  23.923  1.00  0.00     0.004 A 
ATOM     16  C   UNL A   1      31.350  26.827  25.143  1.00  0.00     0.133 A 
ATOM     17  C   UNL A   1      30.467  27.220  24.154  1.00  0.00     0.047 A 
BRANCH  16  18
ATOM     18  O   UNL A   1      31.291  25.228  25.691  1.00  0.00    -0.410 OA
BRANCH  18  19
ATOM     19  C   UNL A   1      31.220  23.674  26.252  1.00  0.00     0.412 C 
ATOM     20  O   UNL A   1      30.411  23.284  27.088  1.00  0.00    -0.224 OA
ATOM     21  N   UNL A   1      32.143  22.800  25.758  1.00  0.00    -0.321 N 
ATOM     22  H   UNL A   1      33.067  23.086  25.568  1.00  0.00     0.167 HD
BRANCH  21  23
ATOM     23  C   UNL A   1      31.724  21.446  25.526  1.00  0.00     0.119 C 
BRANCH  23  24
ATOM     24  C   UNL A   1      32.911  20.508  25.476  1.00  0.00     0.025 C 
BRANCH  24  25
ATOM     25  C   UNL A   1      32.583  19.187  24.766  1.00  0.00    -0.009 C 
ATOM     26  C   UNL A   1      32.534  19.394  23.240  1.00  0.00     0.003 C 
ATOM     27  C   UNL A   1      33.629  18.141  25.175  1.00  0.00     0.003 C 
ATOM     28  C   UNL A   1      32.463  18.090  22.461  1.00  0.00     0.000 C 
ATOM     29  C   UNL A   1      33.522  16.857  24.365  1.00  0.00     0.000 C 
ATOM     30  C   UNL A   1      33.581  17.144  22.870  1.00  0.00     0.000 C 
ENDBRANCH  24  25
ENDBRANCH  23  24
ENDBRANCH  21  23
ENDBRANCH  18  19
ENDBRANCH  16  18
ENDBRANCH  10  12
ENDBRANCH   3   5
ENDBRANCH   1   3
BRANCH   1  31
ATOM     31  O   UNL A   1      33.840  34.158  30.628  1.00  0.00    -0.462 OA
BRANCH  31  32
ATOM     32  C   UNL A   1      34.782  34.118  31.729  1.00  0.00     0.274 C 
BRANCH  32  33
ATOM     33  C   UNL A   1      34.423  32.997  32.708  1.00  0.00     0.275 C 
BRANCH  33  34
ATOM     34  O   UNL A   1      35.287  31.879  32.456  1.00  0.00    -0.458 OA
BRANCH  34  35
ATOM     35  C   UNL A   1      36.477  31.898  33.095  1.00  0.00     0.338 C 
ATOM     36  O   UNL A   1      36.717  32.194  34.251  1.00  0.00    -0.246 OA
BRANCH  35  37
ATOM     37  C   UNL A   1      37.450  31.289  32.187  1.00  0.00     0.060 A 
ATOM     38  C   UNL A   1      38.461  30.535  32.773  1.00  0.00     0.016 A 
ATOM     39  C   UNL A   1      37.425  31.498  30.812  1.00  0.00     0.016 A 
ATOM     40  C   UNL A   1      39.490  30.036  32.002  1.00  0.00     0.010 A 
ATOM     41  C   UNL A   1      38.440  30.945  30.024  1.00  0.00     0.010 A 
ATOM     42  C   UNL A   1      39.501  30.251  30.623  1.00  0.00    -0.014 A 
BRANCH  42  43
ATOM     43  C   UNL A   1      40.719  29.859  29.870  1.00  0.00     0.031 A 
ATOM     44  C   UNL A   1      40.541  28.445  29.103  1.00  0.00     0.074 A 
ATOM     45  C   UNL A   1      41.714  30.825  29.774  1.00  0.00     0.049 A 
ATOM     46  N   UNL A   1      41.167  27.997  28.052  1.00  0.00    -0.248 NA
ATOM     47  C   UNL A   1      39.491  27.464  29.455  1.00  0.00     0.031 C 
ATOM     48  C   UNL A   1      41.710  32.226  30.271  1.00  0.00     0.029 A 
ATOM     49  N   UNL A   1      42.886  30.871  29.045  1.00  0.00    -0.354 N 
ATOM     50  C   UNL A   1      40.877  26.684  27.772  1.00  0.00     0.074 A 
ATOM     51  C   UNL A   1      39.718  26.440  28.614  1.00  0.00     0.031 C 
ATOM     52  C   UNL A   1      42.736  32.935  29.718  1.00  0.00     0.029 A 
ATOM     53  C   UNL A   1      43.545  32.065  28.869  1.00  0.00     0.049 A 
ATOM     54  H   UNL A   1      43.251  30.047  28.650  1.00  0.00     0.167 HD
ATOM     55  C   UNL A   1      41.598  25.780  27.019  1.00  0.00     0.031 A 
ATOM     56  C   UNL A   1      44.634  32.312  28.073  1.00  0.00     0.031 A 
ATOM     57  C   UNL A   1      42.931  25.949  26.356  1.00  0.00     0.049 A 
ATOM     58  C   UNL A   1      45.359  31.207  27.213  1.00  0.00     0.074 A 
ATOM     59  C   UNL A   1      43.853  24.986  25.955  1.00  0.00     0.029 A 
ATOM     60  N   UNL A   1      43.590  27.144  26.061  1.00  0.00    -0.354 N 
ATOM     61  N   UNL A   1      44.902  30.091  26.696  1.00  0.00    -0.248 NA
ATOM     62  C   UNL A   1      46.784  31.393  26.876  1.00  0.00     0.031 C 
ATOM     63  C   UNL A   1      45.093  25.616  25.674  1.00  0.00     0.029 A 
ATOM     64  C   UNL A   1      44.957  26.994  25.817  1.00  0.00     0.049 A 
ATOM     65  H   UNL A   1      43.132  28.015  26.028  1.00  0.00     0.167 HD
ATOM     66  C   UNL A   1      45.942  29.365  26.130  1.00  0.00     0.074 A 
ATOM     67  C   UNL A   1      47.065  30.295  26.168  1.00  0.00     0.031 C 
ATOM     68  C   UNL A   1      46.002  28.047  25.737  1.00  0.00     0.031 A 
BRANCH  55  69
ATOM     69  C   UNL A   1      41.089  24.366  27.077  1.00  0.00    -0.014 A 
ATOM     70  C   UNL A   1      41.695  23.416  27.906  1.00  0.00     0.009 A 
ATOM     71  C   UNL A   1      39.933  24.011  26.359  1.00  0.00     0.009 A 
ATOM     72  C   UNL A   1      41.148  22.135  28.021  1.00  0.00     0.001 A 
ATOM     73  C   UNL A   1      39.374  22.739  26.494  1.00  0.00     0.001 A 
ATOM     74  C   UNL A   1      39.984  21.802  27.326  1.00  0.00     0.000 A 
ENDBRANCH  55  69
BRANCH  56  75
ATOM     75  C   UNL A   1      45.270  33.666  28.060  1.00  0.00    -0.014 A 
ATOM     76  C   UNL A   1      46.177  34.035  29.071  1.00  0.00     0.009 A 
ATOM     77  C   UNL A   1      44.869  34.647  27.139  1.00  0.00     0.009 A 
ATOM     78  C   UNL A   1      46.640  35.350  29.175  1.00  0.00     0.001 A 
ATOM     79  C   UNL A   1      45.359  35.954  27.225  1.00  0.00     0.001 A 
ATOM     80  C   UNL A   1      46.233  36.308  28.250  1.00  0.00     0.000 A 
ENDBRANCH  56  75
BRANCH  68  81
ATOM     81  C   UNL A   1      47.364  27.571  25.249  1.00  0.00    -0.014 A 
ATOM     82  C   UNL A   1      47.677  27.454  23.880  1.00  0.00     0.009 A 
ATOM     83  C   UNL A   1      48.378  27.312  26.184  1.00  0.00     0.009 A 
ATOM     84  C   UNL A   1      48.950  27.043  23.466  1.00  0.00     0.001 A 
ATOM     85  C   UNL A   1      49.658  26.930  25.768  1.00  0.00     0.001 A 
ATOM     86  C   UNL A   1      49.941  26.784  24.411  1.00  0.00     0.000 A 
ENDBRANCH  68  81
ENDBRANCH  42  43
ENDBRANCH  35  37
ENDBRANCH  34  35
ENDBRANCH  33  34
ENDBRANCH  32  33
ENDBRANCH  31  32
ENDBRANCH   1  31
TORSDOF 18
ENDMDL
MODEL 3
REMARK VINA RESULT:     -12.5      4.940      7.982
REMARK SMILES C[C@@H](C(=O)OCCOC(=O)c1ccc(-c2c3nc(c(-c4ccccc4)c4ccc([nH]4)c(-c4ccccc4)c4nc(c(-c5ccccc5)c5ccc2[nH]5)C=C4)C=C3)cc1)c1ccc(-c2cccc(OC(=O)NCCC3CCCCC3)c2)c(F)c1
REMARK SMILES IDX 3 1 4 2 2 3 1 4 59 5 60 6 83 7 61 8 81 9 62 10 82 11 63 12
REMARK SMILES IDX 64 13 80 14 65 15 67 16 66 17 68 18 69 19 70 20 71 21 72 23
REMARK SMILES IDX 73 24 74 25 75 26 79 27 76 28 78 29 77 30 5 31 6 32 7 33
REMARK SMILES IDX 8 34 9 35 10 36 11 37 12 38 58 39 13 40 57 41 14 42 15 43
REMARK SMILES IDX 16 44 51 45 17 46 56 47 50 48 52 49 18 50 55 51 49 52 48 53
REMARK SMILES IDX 19 55 41 56 26 57 40 58 27 59 30 60 39 61 53 62 28 63 29 64
REMARK SMILES IDX 38 66 54 67 31 68 20 69 21 70 25 71 22 72 24 73 23 74 42 75
REMARK SMILES IDX 43 76 47 77 44 78 46 79 45 80 32 81 33 82 37 83 34 84 36 85
REMARK SMILES IDX 35 86
REMARK H PARENT 71 22 52 54 30 65
REMARK Flexibility Score: inf
ROOT
ATOM      1  C   UNL A   1      43.020  20.648  26.121  1.00  0.00     0.313 C 
ATOM      2  O   UNL A   1      42.685  19.775  25.329  1.00  0.00    -0.252 OA
ENDROOT
BRANCH   1   3
ATOM      3  C   UNL A   1      42.192  21.032  27.377  1.00  0.00     0.126 C 
ATOM      4  C   UNL A   1      41.059  20.015  27.607  1.00  0.00     0.025 C 
BRANCH   3   5
ATOM      5  C   UNL A   1      41.735  22.515  27.446  1.00  0.00    -0.031 A 
ATOM      6  C   UNL A   1      42.352  23.469  28.279  1.00  0.00     0.005 A 
ATOM      7  C   UNL A   1      40.698  23.006  26.633  1.00  0.00     0.044 A 
ATOM      8  C   UNL A   1      41.919  24.819  28.337  1.00  0.00     0.012 A 
ATOM      9  C   UNL A   1      40.260  24.353  26.705  1.00  0.00     0.131 A 
ATOM     10  C   UNL A   1      40.842  25.293  27.572  1.00  0.00     0.018 A 
ATOM     11  F   UNL A   1      39.214  24.708  25.944  1.00  0.00    -0.206 F 
BRANCH  10  12
ATOM     12  C   UNL A   1      40.291  26.665  27.791  1.00  0.00    -0.012 A 
ATOM     13  C   UNL A   1      40.368  27.696  26.847  1.00  0.00     0.009 A 
ATOM     14  C   UNL A   1      39.748  27.015  29.042  1.00  0.00     0.056 A 
ATOM     15  C   UNL A   1      39.918  29.007  27.149  1.00  0.00     0.004 A 
ATOM     16  C   UNL A   1      39.308  28.326  29.338  1.00  0.00     0.133 A 
ATOM     17  C   UNL A   1      39.394  29.345  28.406  1.00  0.00     0.047 A 
BRANCH  16  18
ATOM     18  O   UNL A   1      39.000  28.728  30.951  1.00  0.00    -0.410 OA
BRANCH  18  19
ATOM     19  C   UNL A   1      38.681  29.143  32.519  1.00  0.00     0.412 C 
ATOM     20  O   UNL A   1      39.396  28.837  33.469  1.00  0.00    -0.224 OA
ATOM     21  N   UNL A   1      37.533  29.845  32.747  1.00  0.00    -0.321 N 
ATOM     22  H   UNL A   1      36.713  29.661  32.235  1.00  0.00     0.167 HD
BRANCH  21  23
ATOM     23  C   UNL A   1      37.563  30.861  33.762  1.00  0.00     0.119 C 
BRANCH  23  24
ATOM     24  C   UNL A   1      37.393  32.239  33.158  1.00  0.00     0.025 C 
BRANCH  24  25
ATOM     25  C   UNL A   1      37.758  32.273  31.668  1.00  0.00    -0.009 C 
ATOM     26  C   UNL A   1      36.787  33.187  30.896  1.00  0.00     0.003 C 
ATOM     27  C   UNL A   1      39.217  32.734  31.535  1.00  0.00     0.003 C 
ATOM     28  C   UNL A   1      37.235  33.468  29.470  1.00  0.00     0.000 C 
ATOM     29  C   UNL A   1      39.616  33.007  30.091  1.00  0.00     0.000 C 
ATOM     30  C   UNL A   1      38.661  33.996  29.436  1.00  0.00     0.000 C 
ENDBRANCH  24  25
ENDBRANCH  23  24
ENDBRANCH  21  23
ENDBRANCH  18  19
ENDBRANCH  16  18
ENDBRANCH  10  12
ENDBRANCH   3   5
ENDBRANCH   1   3
BRANCH   1  31
ATOM     31  O   UNL A   1      44.150  21.404  25.974  1.00  0.00    -0.462 OA
BRANCH  31  32
ATOM     32  C   UNL A   1      44.613  21.715  24.636  1.00  0.00     0.274 C 
BRANCH  32  33
ATOM     33  C   UNL A   1      45.878  22.576  24.688  1.00  0.00     0.275 C 
BRANCH  33  34
ATOM     34  O   UNL A   1      45.609  23.734  25.491  1.00  0.00    -0.458 OA
BRANCH  34  35
ATOM     35  C   UNL A   1      46.288  24.853  25.158  1.00  0.00     0.338 C 
ATOM     36  O   UNL A   1      47.132  25.005  24.295  1.00  0.00    -0.246 OA
BRANCH  35  37
ATOM     37  C   UNL A   1      45.677  25.953  25.907  1.00  0.00     0.060 A 
ATOM     38  C   UNL A   1      46.520  26.688  26.732  1.00  0.00     0.016 A 
ATOM     39  C   UNL A   1      44.312  26.221  25.865  1.00  0.00     0.016 A 
ATOM     40  C   UNL A   1      46.002  27.655  27.568  1.00  0.00     0.010 A 
ATOM     41  C   UNL A   1      43.796  27.239  26.674  1.00  0.00     0.010 A 
ATOM     42  C   UNL A   1      44.634  27.928  27.562  1.00  0.00    -0.014 A 
BRANCH  42  43
ATOM     43  C   UNL A   1      44.104  28.839  28.608  1.00  0.00     0.031 A 
ATOM     44  C   UNL A   1      44.081  28.150  30.073  1.00  0.00     0.074 A 
ATOM     45  C   UNL A   1      43.907  30.161  28.224  1.00  0.00     0.049 A 
ATOM     46  N   UNL A   1      44.105  28.714  31.246  1.00  0.00    -0.248 NA
ATOM     47  C   UNL A   1      44.153  26.686  30.274  1.00  0.00     0.031 C 
ATOM     48  C   UNL A   1      44.209  30.812  26.923  1.00  0.00     0.029 A 
ATOM     49  N   UNL A   1      43.581  31.291  28.946  1.00  0.00    -0.354 N 
ATOM     50  C   UNL A   1      43.906  27.826  32.275  1.00  0.00     0.074 A 
ATOM     51  C   UNL A   1      44.071  26.545  31.609  1.00  0.00     0.031 C 
ATOM     52  C   UNL A   1      44.159  32.169  27.041  1.00  0.00     0.029 A 
ATOM     53  C   UNL A   1      43.756  32.538  28.395  1.00  0.00     0.049 A 
ATOM     54  H   UNL A   1      43.222  31.204  29.859  1.00  0.00     0.167 HD
ATOM     55  C   UNL A   1      43.490  28.077  33.566  1.00  0.00     0.031 A 
ATOM     56  C   UNL A   1      43.612  33.755  29.011  1.00  0.00     0.031 A 
ATOM     57  C   UNL A   1      43.069  29.372  34.191  1.00  0.00     0.049 A 
ATOM     58  C   UNL A   1      43.172  33.928  30.517  1.00  0.00     0.074 A 
ATOM     59  C   UNL A   1      42.280  29.601  35.316  1.00  0.00     0.029 A 
ATOM     60  N   UNL A   1      43.316  30.664  33.724  1.00  0.00    -0.354 N 
ATOM     61  N   UNL A   1      43.313  33.125  31.545  1.00  0.00    -0.248 NA
ATOM     62  C   UNL A   1      42.499  35.178  30.919  1.00  0.00     0.031 C 
ATOM     63  C   UNL A   1      41.887  30.964  35.339  1.00  0.00     0.029 A 
ATOM     64  C   UNL A   1      42.482  31.638  34.277  1.00  0.00     0.049 A 
ATOM     65  H   UNL A   1      44.017  30.870  33.064  1.00  0.00     0.167 HD
ATOM     66  C   UNL A   1      42.646  33.641  32.648  1.00  0.00     0.074 A 
ATOM     67  C   UNL A   1      42.268  34.983  32.220  1.00  0.00     0.031 C 
ATOM     68  C   UNL A   1      42.279  33.041  33.832  1.00  0.00     0.031 A 
BRANCH  55  69
ATOM     69  C   UNL A   1      43.192  26.848  34.380  1.00  0.00    -0.014 A 
ATOM     70  C   UNL A   1      44.219  26.127  34.997  1.00  0.00     0.009 A 
ATOM     71  C   UNL A   1      41.857  26.466  34.602  1.00  0.00     0.009 A 
ATOM     72  C   UNL A   1      43.915  25.047  35.830  1.00  0.00     0.001 A 
ATOM     73  C   UNL A   1      41.554  25.402  35.453  1.00  0.00     0.001 A 
ATOM     74  C   UNL A   1      42.585  24.693  36.067  1.00  0.00     0.000 A 
ENDBRANCH  55  69
BRANCH  56  75
ATOM     75  C   UNL A   1      43.773  35.022  28.233  1.00  0.00    -0.014 A 
ATOM     76  C   UNL A   1      44.975  35.749  28.300  1.00  0.00     0.009 A 
ATOM     77  C   UNL A   1      42.691  35.593  27.545  1.00  0.00     0.009 A 
ATOM     78  C   UNL A   1      45.078  37.021  27.727  1.00  0.00     0.001 A 
ATOM     79  C   UNL A   1      42.806  36.850  26.943  1.00  0.00     0.001 A 
ATOM     80  C   UNL A   1      43.994  37.569  27.046  1.00  0.00     0.000 A 
ENDBRANCH  56  75
BRANCH  68  81
ATOM     81  C   UNL A   1      41.457  33.907  34.777  1.00  0.00    -0.014 A 
ATOM     82  C   UNL A   1      42.043  34.666  35.809  1.00  0.00     0.009 A 
ATOM     83  C   UNL A   1      40.073  34.023  34.574  1.00  0.00     0.009 A 
ATOM     84  C   UNL A   1      41.258  35.476  36.640  1.00  0.00     0.001 A 
ATOM     85  C   UNL A   1      39.295  34.855  35.387  1.00  0.00     0.001 A 
ATOM     86  C   UNL A   1      39.885  35.572  36.426  1.00  0.00     0.000 A 
ENDBRANCH  68  81
ENDBRANCH  42  43
ENDBRANCH  35  37
ENDBRANCH  34  35
ENDBRANCH  33  34
ENDBRANCH  32  33
ENDBRANCH  31  32
ENDBRANCH   1  31
TORSDOF 18
ENDMDL
