MODEL 1
REMARK VINA RESULT:     -13.8      0.000      0.000
REMARK SMILES Cc1ccc(-c2cc(C(=O)OCCOC(=O)c3ccc(-c4c5nc(c(-c6ccccc6)c6ccc([nH]6)c(-c6ccccc6)c6nc(c(-c7ccccc7)c7ccc4[nH]7)C=C6)C=C5)cc3)c3c(-c4cccc([N+](=O)[O-])c4)[nH]nc3n2)cc1
REMARK SMILES IDX 12 1 11 2 9 3 10 4 8 5 6 6 7 7 79 8 78 9 65 10 77 11 66 12
REMARK SMILES IDX 76 13 5 15 1 16 2 17 3 18 81 19 4 20 80 21 67 22 68 23 75 24
REMARK SMILES IDX 69 25 71 26 70 27 72 28 73 29 74 30 13 31 14 32 15 33 16 34
REMARK SMILES IDX 17 35 18 36 64 37 19 38 63 39 20 40 21 41 22 42 57 43 23 44
REMARK SMILES IDX 62 45 56 46 58 47 24 48 61 49 55 50 54 51 25 53 47 54 32 55
REMARK SMILES IDX 46 56 33 57 36 58 45 59 59 60 34 61 35 62 44 64 60 65 37 66
REMARK SMILES IDX 26 67 27 68 31 69 28 70 30 71 29 72 48 73 49 74 53 75 50 76
REMARK SMILES IDX 52 77 51 78 38 79 39 80 43 81 40 82 42 83 41 84
REMARK H PARENT 76 14 58 52 36 63
REMARK Flexibility Score: inf
ROOT
ATOM      1  C   UNL A   1      36.607  23.160  23.845  1.00  0.00     0.275 C 
ENDROOT
BRANCH   1   2
ATOM      2  O   UNL A   1      35.529  22.971  22.881  1.00  0.00    -0.458 OA
BRANCH   2   3
ATOM      3  C   UNL A   1      34.412  23.715  23.118  1.00  0.00     0.339 C 
ATOM      4  O   UNL A   1      34.085  24.697  22.455  1.00  0.00    -0.246 OA
BRANCH   3   5
ATOM      5  C   UNL A   1      33.833  23.574  24.464  1.00  0.00     0.075 A 
ATOM      6  C   UNL A   1      32.907  25.400  25.861  1.00  0.00     0.074 A 
ATOM      7  C   UNL A   1      33.896  24.871  25.023  1.00  0.00     0.045 A 
ATOM      8  N   UNL A   1      31.869  24.723  26.371  1.00  0.00    -0.226 NA
ATOM      9  C   UNL A   1      31.811  23.436  25.966  1.00  0.00     0.182 A 
ATOM     10  C   UNL A   1      32.737  22.809  25.006  1.00  0.00     0.061 A 
ATOM     11  N   UNL A   1      30.863  22.616  26.388  1.00  0.00    -0.154 NA
ATOM     12  C   UNL A   1      32.222  21.493  24.896  1.00  0.00     0.076 A 
ATOM     13  N   UNL A   1      31.165  21.479  25.798  1.00  0.00    -0.275 N 
ATOM     14  H   UNL A   1      30.663  20.653  25.987  1.00  0.00     0.190 HD
BRANCH   6  15
ATOM     15  C   UNL A   1      32.946  26.836  26.119  1.00  0.00     0.000 A 
ATOM     16  C   UNL A   1      33.447  30.806  27.693  1.00  0.00     0.044 C 
ATOM     17  C   UNL A   1      33.254  29.455  27.073  1.00  0.00    -0.051 A 
ATOM     18  C   UNL A   1      32.096  28.724  27.364  1.00  0.00     0.004 A 
ATOM     19  C   UNL A   1      34.230  28.896  26.242  1.00  0.00     0.004 A 
ATOM     20  C   UNL A   1      31.939  27.426  26.885  1.00  0.00     0.010 A 
ATOM     21  C   UNL A   1      34.076  27.594  25.764  1.00  0.00     0.010 A 
ENDBRANCH   6  15
BRANCH  12  22
ATOM     22  C   UNL A   1      32.432  20.164  24.261  1.00  0.00     0.007 A 
ATOM     23  C   UNL A   1      32.230  20.049  22.854  1.00  0.00     0.011 A 
ATOM     24  C   UNL A   1      32.733  18.989  24.944  1.00  0.00     0.096 A 
ATOM     25  C   UNL A   1      32.370  18.840  22.156  1.00  0.00     0.008 A 
ATOM     26  C   UNL A   1      32.991  17.800  24.217  1.00  0.00     0.270 A 
ATOM     27  C   UNL A   1      32.796  17.712  22.835  1.00  0.00     0.085 A 
BRANCH  26  28
ATOM     28  N   UNL A   1      33.607  16.654  24.884  1.00  0.00     0.062 N 
ATOM     29  O   UNL A   1      33.246  16.423  26.052  1.00  0.00    -0.258 OA
ATOM     30  O   UNL A   1      34.462  16.016  24.259  1.00  0.00    -0.258 OA
ENDBRANCH  26  28
ENDBRANCH  12  22
ENDBRANCH   3   5
ENDBRANCH   2   3
ENDBRANCH   1   2
BRANCH   1  31
ATOM     31  C   UNL A   1      37.063  21.853  24.535  1.00  0.00     0.275 C 
BRANCH  31  32
ATOM     32  O   UNL A   1      37.522  21.901  25.901  1.00  0.00    -0.458 OA
BRANCH  32  33
ATOM     33  C   UNL A   1      38.830  21.685  26.094  1.00  0.00     0.338 C 
ATOM     34  O   UNL A   1      39.433  20.719  25.644  1.00  0.00    -0.246 OA
BRANCH  33  35
ATOM     35  C   UNL A   1      39.463  22.834  26.753  1.00  0.00     0.060 A 
ATOM     36  C   UNL A   1      40.416  22.611  27.758  1.00  0.00     0.016 A 
ATOM     37  C   UNL A   1      39.290  24.094  26.193  1.00  0.00     0.016 A 
ATOM     38  C   UNL A   1      41.256  23.623  28.179  1.00  0.00     0.010 A 
ATOM     39  C   UNL A   1      40.152  25.086  26.554  1.00  0.00     0.010 A 
ATOM     40  C   UNL A   1      41.088  24.850  27.569  1.00  0.00    -0.014 A 
BRANCH  40  41
ATOM     41  C   UNL A   1      41.705  26.043  28.076  1.00  0.00     0.031 A 
ATOM     42  C   UNL A   1      40.850  27.218  28.301  1.00  0.00     0.074 A 
ATOM     43  C   UNL A   1      43.001  25.814  28.399  1.00  0.00     0.049 A 
ATOM     44  N   UNL A   1      41.237  28.438  28.167  1.00  0.00    -0.248 NA
ATOM     45  C   UNL A   1      39.410  27.126  28.602  1.00  0.00     0.031 C 
ATOM     46  C   UNL A   1      43.913  26.546  29.244  1.00  0.00     0.029 A 
ATOM     47  N   UNL A   1      43.817  24.792  27.879  1.00  0.00    -0.354 N 
ATOM     48  C   UNL A   1      40.316  29.184  28.876  1.00  0.00     0.074 A 
ATOM     49  C   UNL A   1      39.107  28.402  28.883  1.00  0.00     0.031 C 
ATOM     50  C   UNL A   1      45.176  26.197  28.919  1.00  0.00     0.029 A 
ATOM     51  C   UNL A   1      45.110  25.306  27.771  1.00  0.00     0.049 A 
ATOM     52  H   UNL A   1      43.530  23.881  27.638  1.00  0.00     0.167 HD
ATOM     53  C   UNL A   1      40.780  30.187  29.677  1.00  0.00     0.031 A 
ATOM     54  C   UNL A   1      45.701  25.522  26.555  1.00  0.00     0.031 A 
ATOM     55  C   UNL A   1      42.238  30.260  29.574  1.00  0.00     0.049 A 
ATOM     56  C   UNL A   1      45.772  27.004  26.279  1.00  0.00     0.074 A 
ATOM     57  C   UNL A   1      43.236  29.756  30.391  1.00  0.00     0.029 A 
ATOM     58  N   UNL A   1      42.824  30.512  28.341  1.00  0.00    -0.354 N 
ATOM     59  N   UNL A   1      44.981  27.885  26.828  1.00  0.00    -0.248 NA
ATOM     60  C   UNL A   1      46.758  27.600  25.390  1.00  0.00     0.031 C 
ATOM     61  C   UNL A   1      44.423  29.658  29.619  1.00  0.00     0.029 A 
ATOM     62  C   UNL A   1      44.135  30.076  28.332  1.00  0.00     0.049 A 
ATOM     63  H   UNL A   1      42.370  30.942  27.581  1.00  0.00     0.167 HD
ATOM     64  C   UNL A   1      45.444  29.139  26.539  1.00  0.00     0.074 A 
ATOM     65  C   UNL A   1      46.529  28.908  25.598  1.00  0.00     0.031 C 
ATOM     66  C   UNL A   1      44.953  30.262  27.142  1.00  0.00     0.031 A 
BRANCH  53  67
ATOM     67  C   UNL A   1      40.015  30.810  30.822  1.00  0.00    -0.014 A 
ATOM     68  C   UNL A   1      39.450  32.090  30.645  1.00  0.00     0.009 A 
ATOM     69  C   UNL A   1      39.812  30.218  32.079  1.00  0.00     0.009 A 
ATOM     70  C   UNL A   1      38.772  32.765  31.665  1.00  0.00     0.001 A 
ATOM     71  C   UNL A   1      39.141  30.894  33.115  1.00  0.00     0.001 A 
ATOM     72  C   UNL A   1      38.626  32.169  32.909  1.00  0.00     0.000 A 
ENDBRANCH  53  67
BRANCH  54  73
ATOM     73  C   UNL A   1      45.355  24.500  25.525  1.00  0.00    -0.014 A 
ATOM     74  C   UNL A   1      45.972  23.235  25.660  1.00  0.00     0.009 A 
ATOM     75  C   UNL A   1      44.104  24.587  24.918  1.00  0.00     0.009 A 
ATOM     76  C   UNL A   1      45.224  22.071  25.506  1.00  0.00     0.001 A 
ATOM     77  C   UNL A   1      43.372  23.416  24.779  1.00  0.00     0.001 A 
ATOM     78  C   UNL A   1      43.893  22.176  25.148  1.00  0.00     0.000 A 
ENDBRANCH  54  73
BRANCH  66  79
ATOM     79  C   UNL A   1      45.283  31.683  26.773  1.00  0.00    -0.014 A 
ATOM     80  C   UNL A   1      46.521  32.289  26.993  1.00  0.00     0.009 A 
ATOM     81  C   UNL A   1      44.325  32.438  26.054  1.00  0.00     0.009 A 
ATOM     82  C   UNL A   1      46.759  33.608  26.593  1.00  0.00     0.001 A 
ATOM     83  C   UNL A   1      44.584  33.721  25.586  1.00  0.00     0.001 A 
ATOM     84  C   UNL A   1      45.797  34.318  25.882  1.00  0.00     0.000 A 
ENDBRANCH  66  79
ENDBRANCH  40  41
ENDBRANCH  33  35
ENDBRANCH  32  33
ENDBRANCH  31  32
ENDBRANCH   1  31
TORSDOF 14
ENDMDL
MODEL 2
REMARK VINA RESULT:     -13.7      3.870      9.503
REMARK SMILES Cc1ccc(-c2cc(C(=O)OCCOC(=O)c3ccc(-c4c5nc(c(-c6ccccc6)c6ccc([nH]6)c(-c6ccccc6)c6nc(c(-c7ccccc7)c7ccc4[nH]7)C=C6)C=C5)cc3)c3c(-c4cccc([N+](=O)[O-])c4)[nH]nc3n2)cc1
REMARK SMILES IDX 12 1 11 2 9 3 10 4 8 5 6 6 7 7 79 8 78 9 65 10 77 11 66 12
REMARK SMILES IDX 76 13 5 15 1 16 2 17 3 18 81 19 4 20 80 21 67 22 68 23 75 24
REMARK SMILES IDX 69 25 71 26 70 27 72 28 73 29 74 30 13 31 14 32 15 33 16 34
REMARK SMILES IDX 17 35 18 36 64 37 19 38 63 39 20 40 21 41 22 42 57 43 23 44
REMARK SMILES IDX 62 45 56 46 58 47 24 48 61 49 55 50 54 51 25 53 47 54 32 55
REMARK SMILES IDX 46 56 33 57 36 58 45 59 59 60 34 61 35 62 44 64 60 65 37 66
REMARK SMILES IDX 26 67 27 68 31 69 28 70 30 71 29 72 48 73 49 74 53 75 50 76
REMARK SMILES IDX 52 77 51 78 38 79 39 80 43 81 40 82 42 83 41 84
REMARK H PARENT 76 14 58 52 36 63
REMARK Flexibility Score: inf
ROOT
ATOM      1  C   UNL A   1      31.842  28.170  27.479  1.00  0.00     0.275 C 
ENDROOT
BRANCH   1   2
ATOM      2  O   UNL A   1      30.841  27.278  26.904  1.00  0.00    -0.458 OA
BRANCH   2   3
ATOM      3  C   UNL A   1      31.346  26.170  26.292  1.00  0.00     0.339 C 
ATOM      4  O   UNL A   1      31.482  25.081  26.843  1.00  0.00    -0.246 OA
BRANCH   3   5
ATOM      5  C   UNL A   1      32.133  26.425  25.074  1.00  0.00     0.075 A 
ATOM      6  C   UNL A   1      33.906  24.965  24.143  1.00  0.00     0.074 A 
ATOM      7  C   UNL A   1      33.287  25.620  25.215  1.00  0.00     0.045 A 
ATOM      8  N   UNL A   1      33.607  25.128  22.847  1.00  0.00    -0.226 NA
ATOM      9  C   UNL A   1      32.581  25.979  22.632  1.00  0.00     0.182 A 
ATOM     10  C   UNL A   1      31.792  26.638  23.689  1.00  0.00     0.061 A 
ATOM     11  N   UNL A   1      32.164  26.272  21.412  1.00  0.00    -0.154 NA
ATOM     12  C   UNL A   1      30.834  27.371  22.947  1.00  0.00     0.076 A 
ATOM     13  N   UNL A   1      31.190  27.131  21.625  1.00  0.00    -0.275 N 
ATOM     14  H   UNL A   1      30.732  27.584  20.880  1.00  0.00     0.190 HD
BRANCH   6  15
ATOM     15  C   UNL A   1      34.892  23.938  24.466  1.00  0.00     0.000 A 
ATOM     16  C   UNL A   1      37.171  20.335  25.021  1.00  0.00     0.044 C 
ATOM     17  C   UNL A   1      36.442  21.633  24.849  1.00  0.00    -0.051 A 
ATOM     18  C   UNL A   1      35.504  22.027  25.811  1.00  0.00     0.004 A 
ATOM     19  C   UNL A   1      36.653  22.435  23.724  1.00  0.00     0.004 A 
ATOM     20  C   UNL A   1      34.740  23.175  25.625  1.00  0.00     0.010 A 
ATOM     21  C   UNL A   1      35.885  23.584  23.534  1.00  0.00     0.010 A 
ENDBRANCH   6  15
BRANCH  12  22
ATOM     22  C   UNL A   1      29.691  28.318  23.054  1.00  0.00     0.007 A 
ATOM     23  C   UNL A   1      28.375  27.780  23.150  1.00  0.00     0.011 A 
ATOM     24  C   UNL A   1      29.793  29.705  22.985  1.00  0.00     0.096 A 
ATOM     25  C   UNL A   1      27.224  28.578  23.226  1.00  0.00     0.008 A 
ATOM     26  C   UNL A   1      28.639  30.504  23.183  1.00  0.00     0.270 A 
ATOM     27  C   UNL A   1      27.357  29.954  23.285  1.00  0.00     0.085 A 
BRANCH  26  28
ATOM     28  N   UNL A   1      28.777  31.940  23.426  1.00  0.00     0.062 N 
ATOM     29  O   UNL A   1      28.052  32.695  22.754  1.00  0.00    -0.258 OA
ATOM     30  O   UNL A   1      29.620  32.306  24.253  1.00  0.00    -0.258 OA
ENDBRANCH  26  28
ENDBRANCH  12  22
ENDBRANCH   3   5
ENDBRANCH   2   3
ENDBRANCH   1   2
BRANCH   1  31
ATOM     31  C   UNL A   1      31.839  29.591  26.867  1.00  0.00     0.275 C 
BRANCH  31  32
ATOM     32  O   UNL A   1      33.088  30.189  26.470  1.00  0.00    -0.458 OA
BRANCH  32  33
ATOM     33  C   UNL A   1      33.528  31.201  27.230  1.00  0.00     0.338 C 
ATOM     34  O   UNL A   1      32.824  32.133  27.596  1.00  0.00    -0.246 OA
BRANCH  33  35
ATOM     35  C   UNL A   1      34.895  30.949  27.704  1.00  0.00     0.060 A 
ATOM     36  C   UNL A   1      35.837  31.988  27.666  1.00  0.00     0.016 A 
ATOM     37  C   UNL A   1      35.146  29.776  28.404  1.00  0.00     0.016 A 
ATOM     38  C   UNL A   1      37.019  31.902  28.376  1.00  0.00     0.010 A 
ATOM     39  C   UNL A   1      36.278  29.703  29.159  1.00  0.00     0.010 A 
ATOM     40  C   UNL A   1      37.215  30.742  29.099  1.00  0.00    -0.014 A 
BRANCH  40  41
ATOM     41  C   UNL A   1      38.488  30.408  29.670  1.00  0.00     0.031 A 
ATOM     42  C   UNL A   1      39.077  29.105  29.326  1.00  0.00     0.074 A 
ATOM     43  C   UNL A   1      39.003  31.462  30.347  1.00  0.00     0.049 A 
ATOM     44  N   UNL A   1      39.817  28.408  30.115  1.00  0.00    -0.248 NA
ATOM     45  C   UNL A   1      38.792  28.395  28.066  1.00  0.00     0.031 C 
ATOM     46  C   UNL A   1      40.351  31.751  30.774  1.00  0.00     0.029 A 
ATOM     47  N   UNL A   1      38.274  32.537  30.889  1.00  0.00    -0.354 N 
ATOM     48  C   UNL A   1      40.492  27.531  29.288  1.00  0.00     0.074 A 
ATOM     49  C   UNL A   1      39.656  27.372  28.127  1.00  0.00     0.031 C 
ATOM     50  C   UNL A   1      40.303  32.666  31.765  1.00  0.00     0.029 A 
ATOM     51  C   UNL A   1      38.904  32.910  32.077  1.00  0.00     0.049 A 
ATOM     52  H   UNL A   1      37.468  32.950  30.502  1.00  0.00     0.167 HD
ATOM     53  C   UNL A   1      41.824  27.336  29.508  1.00  0.00     0.031 A 
ATOM     54  C   UNL A   1      38.311  32.723  33.298  1.00  0.00     0.031 A 
ATOM     55  C   UNL A   1      42.252  28.133  30.659  1.00  0.00     0.049 A 
ATOM     56  C   UNL A   1      38.999  31.598  34.031  1.00  0.00     0.074 A 
ATOM     57  C   UNL A   1      42.879  29.366  30.733  1.00  0.00     0.029 A 
ATOM     58  N   UNL A   1      41.666  27.912  31.898  1.00  0.00    -0.354 N 
ATOM     59  N   UNL A   1      39.676  30.651  33.440  1.00  0.00    -0.248 NA
ATOM     60  C   UNL A   1      38.999  31.478  35.481  1.00  0.00     0.031 C 
ATOM     61  C   UNL A   1      42.621  29.910  32.018  1.00  0.00     0.029 A 
ATOM     62  C   UNL A   1      41.817  29.021  32.709  1.00  0.00     0.049 A 
ATOM     63  H   UNL A   1      41.209  27.081  32.163  1.00  0.00     0.167 HD
ATOM     64  C   UNL A   1      40.344  29.926  34.387  1.00  0.00     0.074 A 
ATOM     65  C   UNL A   1      39.850  30.452  35.651  1.00  0.00     0.031 C 
ATOM     66  C   UNL A   1      41.298  29.002  34.069  1.00  0.00     0.031 A 
BRANCH  53  67
ATOM     67  C   UNL A   1      42.802  26.783  28.497  1.00  0.00    -0.014 A 
ATOM     68  C   UNL A   1      42.696  25.429  28.119  1.00  0.00     0.009 A 
ATOM     69  C   UNL A   1      43.835  27.512  27.886  1.00  0.00     0.009 A 
ATOM     70  C   UNL A   1      43.589  24.819  27.231  1.00  0.00     0.001 A 
ATOM     71  C   UNL A   1      44.744  26.904  27.001  1.00  0.00     0.001 A 
ATOM     72  C   UNL A   1      44.623  25.557  26.677  1.00  0.00     0.000 A 
ENDBRANCH  53  67
BRANCH  54  73
ATOM     73  C   UNL A   1      36.834  32.931  33.290  1.00  0.00    -0.014 A 
ATOM     74  C   UNL A   1      36.386  34.271  33.260  1.00  0.00     0.009 A 
ATOM     75  C   UNL A   1      36.040  31.934  32.728  1.00  0.00     0.009 A 
ATOM     76  C   UNL A   1      35.354  34.646  32.403  1.00  0.00     0.001 A 
ATOM     77  C   UNL A   1      35.022  32.327  31.871  1.00  0.00     0.001 A 
ATOM     78  C   UNL A   1      34.733  33.673  31.642  1.00  0.00     0.000 A 
ENDBRANCH  54  73
BRANCH  66  79
ATOM     79  C   UNL A   1      41.963  28.048  35.025  1.00  0.00    -0.014 A 
ATOM     80  C   UNL A   1      41.576  26.721  35.214  1.00  0.00     0.009 A 
ATOM     81  C   UNL A   1      43.129  28.472  35.706  1.00  0.00     0.009 A 
ATOM     82  C   UNL A   1      42.265  25.888  36.101  1.00  0.00     0.001 A 
ATOM     83  C   UNL A   1      43.863  27.626  36.529  1.00  0.00     0.001 A 
ATOM     84  C   UNL A   1      43.412  26.336  36.748  1.00  0.00     0.000 A 
ENDBRANCH  66  79
ENDBRANCH  40  41
ENDBRANCH  33  35
ENDBRANCH  32  33
ENDBRANCH  31  32
ENDBRANCH   1  31
TORSDOF 14
ENDMDL
MODEL 3
REMARK VINA RESULT:     -13.7      3.703      8.818
REMARK SMILES Cc1ccc(-c2cc(C(=O)OCCOC(=O)c3ccc(-c4c5nc(c(-c6ccccc6)c6ccc([nH]6)c(-c6ccccc6)c6nc(c(-c7ccccc7)c7ccc4[nH]7)C=C6)C=C5)cc3)c3c(-c4cccc([N+](=O)[O-])c4)[nH]nc3n2)cc1
REMARK SMILES IDX 12 1 11 2 9 3 10 4 8 5 6 6 7 7 79 8 78 9 65 10 77 11 66 12
REMARK SMILES IDX 76 13 5 15 1 16 2 17 3 18 81 19 4 20 80 21 67 22 68 23 75 24
REMARK SMILES IDX 69 25 71 26 70 27 72 28 73 29 74 30 13 31 14 32 15 33 16 34
REMARK SMILES IDX 17 35 18 36 64 37 19 38 63 39 20 40 21 41 22 42 57 43 23 44
REMARK SMILES IDX 62 45 56 46 58 47 24 48 61 49 55 50 54 51 25 53 47 54 32 55
REMARK SMILES IDX 46 56 33 57 36 58 45 59 59 60 34 61 35 62 44 64 60 65 37 66
REMARK SMILES IDX 26 67 27 68 31 69 28 70 30 71 29 72 48 73 49 74 53 75 50 76
REMARK SMILES IDX 52 77 51 78 38 79 39 80 43 81 40 82 42 83 41 84
REMARK H PARENT 76 14 58 52 36 63
REMARK Flexibility Score: inf
ROOT
ATOM      1  C   UNL A   1      31.984  28.736  26.616  1.00  0.00     0.275 C 
ENDROOT
BRANCH   1   2
ATOM      2  O   UNL A   1      31.418  27.520  27.191  1.00  0.00    -0.458 OA
BRANCH   2   3
ATOM      3  C   UNL A   1      31.495  26.419  26.392  1.00  0.00     0.339 C 
ATOM      4  O   UNL A   1      31.297  25.271  26.781  1.00  0.00    -0.246 OA
BRANCH   3   5
ATOM      5  C   UNL A   1      32.254  26.598  25.143  1.00  0.00     0.075 A 
ATOM      6  C   UNL A   1      34.018  25.091  24.271  1.00  0.00     0.074 A 
ATOM      7  C   UNL A   1      33.417  25.811  25.311  1.00  0.00     0.045 A 
ATOM      8  N   UNL A   1      33.688  25.165  22.974  1.00  0.00    -0.226 NA
ATOM      9  C   UNL A   1      32.652  25.994  22.726  1.00  0.00     0.182 A 
ATOM     10  C   UNL A   1      31.882  26.717  23.755  1.00  0.00     0.061 A 
ATOM     11  N   UNL A   1      32.206  26.203  21.499  1.00  0.00    -0.154 NA
ATOM     12  C   UNL A   1      30.902  27.394  22.987  1.00  0.00     0.076 A 
ATOM     13  N   UNL A   1      31.230  27.069  21.677  1.00  0.00    -0.275 N 
ATOM     14  H   UNL A   1      30.753  27.468  20.914  1.00  0.00     0.190 HD
BRANCH   6  15
ATOM     15  C   UNL A   1      35.018  24.093  24.638  1.00  0.00     0.000 A 
ATOM     16  C   UNL A   1      38.573  21.805  25.422  1.00  0.00     0.044 C 
ATOM     17  C   UNL A   1      37.292  22.547  25.189  1.00  0.00    -0.051 A 
ATOM     18  C   UNL A   1      36.689  22.499  23.927  1.00  0.00     0.004 A 
ATOM     19  C   UNL A   1      36.712  23.320  26.200  1.00  0.00     0.004 A 
ATOM     20  C   UNL A   1      35.555  23.261  23.655  1.00  0.00     0.010 A 
ATOM     21  C   UNL A   1      35.579  24.087  25.928  1.00  0.00     0.010 A 
ENDBRANCH   6  15
BRANCH  12  22
ATOM     22  C   UNL A   1      29.754  28.338  23.057  1.00  0.00     0.007 A 
ATOM     23  C   UNL A   1      28.439  27.798  23.146  1.00  0.00     0.011 A 
ATOM     24  C   UNL A   1      29.852  29.724  22.960  1.00  0.00     0.096 A 
ATOM     25  C   UNL A   1      27.283  28.593  23.188  1.00  0.00     0.008 A 
ATOM     26  C   UNL A   1      28.693  30.523  23.124  1.00  0.00     0.270 A 
ATOM     27  C   UNL A   1      27.412  29.970  23.220  1.00  0.00     0.085 A 
BRANCH  26  28
ATOM     28  N   UNL A   1      28.822  31.964  23.338  1.00  0.00     0.062 N 
ATOM     29  O   UNL A   1      28.183  32.705  22.569  1.00  0.00    -0.258 OA
ATOM     30  O   UNL A   1      29.577  32.347  24.239  1.00  0.00    -0.258 OA
ENDBRANCH  26  28
ENDBRANCH  12  22
ENDBRANCH   3   5
ENDBRANCH   2   3
ENDBRANCH   1   2
BRANCH   1  31
ATOM     31  C   UNL A   1      32.927  29.499  27.575  1.00  0.00     0.275 C 
BRANCH  31  32
ATOM     32  O   UNL A   1      34.338  29.548  27.283  1.00  0.00    -0.458 OA
BRANCH  32  33
ATOM     33  C   UNL A   1      35.034  30.522  27.885  1.00  0.00     0.338 C 
ATOM     34  O   UNL A   1      34.547  31.590  28.233  1.00  0.00    -0.246 OA
BRANCH  33  35
ATOM     35  C   UNL A   1      36.388  30.068  28.226  1.00  0.00     0.060 A 
ATOM     36  C   UNL A   1      36.600  29.380  29.430  1.00  0.00     0.016 A 
ATOM     37  C   UNL A   1      37.366  30.109  27.240  1.00  0.00     0.016 A 
ATOM     38  C   UNL A   1      37.764  28.669  29.648  1.00  0.00     0.010 A 
ATOM     39  C   UNL A   1      38.492  29.362  27.415  1.00  0.00     0.010 A 
ATOM     40  C   UNL A   1      38.694  28.693  28.628  1.00  0.00    -0.014 A 
BRANCH  40  41
ATOM     41  C   UNL A   1      40.036  28.219  28.812  1.00  0.00     0.031 A 
ATOM     42  C   UNL A   1      40.322  26.814  28.481  1.00  0.00     0.074 A 
ATOM     43  C   UNL A   1      40.865  29.238  29.144  1.00  0.00     0.049 A 
ATOM     44  N   UNL A   1      41.193  26.086  29.086  1.00  0.00    -0.248 NA
ATOM     45  C   UNL A   1      39.557  26.047  27.482  1.00  0.00     0.031 C 
ATOM     46  C   UNL A   1      42.302  29.351  29.085  1.00  0.00     0.029 A 
ATOM     47  N   UNL A   1      40.486  30.457  29.736  1.00  0.00    -0.354 N 
ATOM     48  C   UNL A   1      41.451  25.044  28.217  1.00  0.00     0.074 A 
ATOM     49  C   UNL A   1      40.267  24.911  27.408  1.00  0.00     0.031 C 
ATOM     50  C   UNL A   1      42.690  30.349  29.907  1.00  0.00     0.029 A 
ATOM     51  C   UNL A   1      41.510  30.834  30.605  1.00  0.00     0.049 A 
ATOM     52  H   UNL A   1      39.652  30.953  29.568  1.00  0.00     0.167 HD
ATOM     53  C   UNL A   1      42.749  24.666  28.033  1.00  0.00     0.031 A 
ATOM     54  C   UNL A   1      41.335  30.853  31.963  1.00  0.00     0.031 A 
ATOM     55  C   UNL A   1      43.621  25.488  28.873  1.00  0.00     0.049 A 
ATOM     56  C   UNL A   1      42.089  29.706  32.589  1.00  0.00     0.074 A 
ATOM     57  C   UNL A   1      44.378  26.610  28.578  1.00  0.00     0.029 A 
ATOM     58  N   UNL A   1      43.454  25.473  30.251  1.00  0.00    -0.354 N 
ATOM     59  N   UNL A   1      42.418  28.616  31.951  1.00  0.00    -0.248 NA
ATOM     60  C   UNL A   1      42.551  29.719  33.969  1.00  0.00     0.031 C 
ATOM     61  C   UNL A   1      44.622  27.301  29.793  1.00  0.00     0.029 A 
ATOM     62  C   UNL A   1      43.992  26.614  30.815  1.00  0.00     0.049 A 
ATOM     63  H   UNL A   1      43.016  24.751  30.756  1.00  0.00     0.167 HD
ATOM     64  C   UNL A   1      43.271  27.884  32.731  1.00  0.00     0.074 A 
ATOM     65  C   UNL A   1      43.285  28.593  34.002  1.00  0.00     0.031 C 
ATOM     66  C   UNL A   1      43.951  26.799  32.259  1.00  0.00     0.031 A 
BRANCH  53  67
ATOM     67  C   UNL A   1      43.268  23.879  26.852  1.00  0.00    -0.014 A 
ATOM     68  C   UNL A   1      43.842  24.577  25.769  1.00  0.00     0.009 A 
ATOM     69  C   UNL A   1      43.228  22.480  26.729  1.00  0.00     0.009 A 
ATOM     70  C   UNL A   1      44.300  23.935  24.613  1.00  0.00     0.001 A 
ATOM     71  C   UNL A   1      43.675  21.828  25.566  1.00  0.00     0.001 A 
ATOM     72  C   UNL A   1      44.207  22.556  24.506  1.00  0.00     0.000 A 
ENDBRANCH  53  67
BRANCH  54  73
ATOM     73  C   UNL A   1      39.973  31.285  32.390  1.00  0.00    -0.014 A 
ATOM     74  C   UNL A   1      39.044  30.256  32.672  1.00  0.00     0.009 A 
ATOM     75  C   UNL A   1      39.854  32.507  33.047  1.00  0.00     0.009 A 
ATOM     76  C   UNL A   1      38.243  30.327  33.809  1.00  0.00     0.001 A 
ATOM     77  C   UNL A   1      39.057  32.556  34.181  1.00  0.00     0.001 A 
ATOM     78  C   UNL A   1      38.321  31.450  34.610  1.00  0.00     0.000 A 
ENDBRANCH  54  73
BRANCH  66  79
ATOM     79  C   UNL A   1      44.777  25.844  33.079  1.00  0.00    -0.014 A 
ATOM     80  C   UNL A   1      46.151  25.966  33.288  1.00  0.00     0.009 A 
ATOM     81  C   UNL A   1      44.117  24.808  33.783  1.00  0.00     0.009 A 
ATOM     82  C   UNL A   1      46.843  25.053  34.089  1.00  0.00     0.001 A 
ATOM     83  C   UNL A   1      44.787  23.945  34.642  1.00  0.00     0.001 A 
ATOM     84  C   UNL A   1      46.161  24.051  34.773  1.00  0.00     0.000 A 
ENDBRANCH  66  79
ENDBRANCH  40  41
ENDBRANCH  33  35
ENDBRANCH  32  33
ENDBRANCH  31  32
ENDBRANCH   1  31
TORSDOF 14
ENDMDL
