MODEL 1
REMARK VINA RESULT:      -9.7      0.000      0.000
REMARK SMILES CCCCc1cc(S(F)(F)(F)(F)F)cc2c1O[C@@H](C(F)(F)F)C(C(=O)OCCOC(=O)c1ccc(-c3c4nc(c(-c5ccccc5)c5ccc([nH]5)c(-c5ccccc5)c5nc(c(-c6ccccc6)c6ccc3[nH]6)C=C5)C=C4)cc1)=C2
REMARK SMILES IDX 27 1 26 2 24 3 25 4 23 5 5 6 6 7 16 8 7 9 15 10 17 11 14 12
REMARK SMILES IDX 80 13 18 14 4 15 3 16 2 17 1 18 8 19 9 20 10 21 11 22 12 23
REMARK SMILES IDX 13 24 19 25 20 26 21 27 22 28 28 29 29 30 30 31 31 32 32 33
REMARK SMILES IDX 33 34 79 35 34 36 78 37 35 38 36 39 37 40 72 41 38 42 77 43
REMARK SMILES IDX 71 44 73 45 39 46 76 47 70 48 69 49 40 51 62 52 47 53 61 54
REMARK SMILES IDX 48 55 51 56 60 57 74 58 49 59 50 60 59 62 75 63 52 64 41 65
REMARK SMILES IDX 42 66 46 67 43 68 45 69 44 70 63 71 64 72 68 73 65 74 67 75
REMARK SMILES IDX 66 76 53 77 54 78 58 79 55 80 57 81 56 82
REMARK H PARENT 73 50 51 61
REMARK Flexibility Score: inf
ROOT
ATOM      1  C   UNL A   1      34.520  34.928  28.918  1.00  0.00     0.275 C 
ENDROOT
BRANCH   1   2
ATOM      2  O   UNL A   1      34.300  34.810  30.316  1.00  0.00    -0.459 OA
BRANCH   2   3
ATOM      3  C   UNL A   1      34.842  33.708  31.030  1.00  0.00     0.338 C 
ATOM      4  O   UNL A   1      34.208  32.608  31.077  1.00  0.00    -0.246 OA
BRANCH   3   5
ATOM      5  C   UNL A   1      36.181  33.845  31.737  1.00  0.00     0.087 C 
ATOM      6  C   UNL A   1      39.748  34.717  33.727  1.00  0.00    -0.004 A 
ATOM      7  C   UNL A   1      40.954  34.624  33.057  1.00  0.00     0.032 A 
ATOM      8  C   UNL A   1      38.586  34.477  33.034  1.00  0.00     0.131 A 
ATOM      9  C   UNL A   1      40.995  34.302  31.725  1.00  0.00     0.108 A 
ATOM     10  C   UNL A   1      38.591  34.132  31.694  1.00  0.00     0.019 A 
ATOM     11  O   UNL A   1      37.394  34.683  33.684  1.00  0.00    -0.475 OA
ATOM     12  C   UNL A   1      39.820  34.051  31.050  1.00  0.00     0.036 A 
ATOM     13  C   UNL A   1      37.309  33.936  31.042  1.00  0.00     0.027 C 
ATOM     14  C   UNL A   1      36.258  33.880  33.257  1.00  0.00     0.316 C 
BRANCH   6  15
ATOM     15  C   UNL A   1      39.709  35.079  35.203  1.00  0.00     0.039 C 
BRANCH  15  16
ATOM     16  C   UNL A   1      40.720  36.180  35.482  1.00  0.00     0.005 C 
BRANCH  16  17
ATOM     17  C   UNL A   1      40.776  36.448  36.977  1.00  0.00    -0.003 C 
ATOM     18  C   UNL A   1      39.657  35.688  37.671  1.00  0.00     0.004 C 
ENDBRANCH  16  17
ENDBRANCH  15  16
ENDBRANCH   6  15
BRANCH   9  19
ATOM     19  S   UNL A   1      42.583  34.209  30.860  1.00  0.00     0.310 S 
ATOM     20  F   UNL A   1      41.900  33.660  29.538  1.00  0.00    -0.094 F 
ATOM     21  F   UNL A   1      42.728  32.711  31.326  1.00  0.00    -0.094 F 
ATOM     22  F   UNL A   1      43.945  34.138  30.113  1.00  0.00    -0.094 F 
ATOM     23  F   UNL A   1      42.354  35.663  30.287  1.00  0.00    -0.094 F 
ATOM     24  F   UNL A   1      41.146  34.259  31.519  1.00  0.00    -0.094 F 
ENDBRANCH   9  19
BRANCH  14  25
ATOM     25  C   UNL A   1      34.982  34.496  33.804  1.00  0.00     0.430 C 
ATOM     26  F   UNL A   1      34.715  35.622  33.148  1.00  0.00    -0.167 F 
ATOM     27  F   UNL A   1      33.974  33.642  33.648  1.00  0.00    -0.167 F 
ATOM     28  F   UNL A   1      35.137  34.764  35.099  1.00  0.00    -0.167 F 
ENDBRANCH  14  25
ENDBRANCH   3   5
ENDBRANCH   2   3
ENDBRANCH   1   2
BRANCH   1  29
ATOM     29  C   UNL A   1      33.769  33.823  28.192  1.00  0.00     0.275 C 
BRANCH  29  30
ATOM     30  O   UNL A   1      34.700  32.940  27.583  1.00  0.00    -0.458 OA
BRANCH  30  31
ATOM     31  C   UNL A   1      34.696  31.561  27.921  1.00  0.00     0.338 C 
ATOM     32  O   UNL A   1      33.634  30.877  27.783  1.00  0.00    -0.246 OA
BRANCH  31  33
ATOM     33  C   UNL A   1      35.962  30.904  28.446  1.00  0.00     0.060 A 
ATOM     34  C   UNL A   1      35.873  29.693  29.112  1.00  0.00     0.016 A 
ATOM     35  C   UNL A   1      37.133  31.502  28.258  1.00  0.00     0.016 A 
ATOM     36  C   UNL A   1      37.053  29.329  29.800  1.00  0.00     0.010 A 
ATOM     37  C   UNL A   1      38.272  31.012  28.852  1.00  0.00     0.010 A 
ATOM     38  C   UNL A   1      38.244  29.852  29.574  1.00  0.00    -0.014 A 
BRANCH  38  39
ATOM     39  C   UNL A   1      39.517  29.198  30.087  1.00  0.00     0.031 A 
ATOM     40  C   UNL A   1      40.032  28.114  29.374  1.00  0.00     0.074 A 
ATOM     41  C   UNL A   1      40.095  29.714  31.235  1.00  0.00     0.049 A 
ATOM     42  N   UNL A   1      41.144  27.425  29.632  1.00  0.00    -0.248 NA
ATOM     43  C   UNL A   1      39.402  27.544  28.174  1.00  0.00     0.031 C 
ATOM     44  C   UNL A   1      39.587  30.813  31.956  1.00  0.00     0.029 A 
ATOM     45  N   UNL A   1      41.233  29.278  31.878  1.00  0.00    -0.354 N 
ATOM     46  C   UNL A   1      41.318  26.471  28.715  1.00  0.00     0.074 A 
ATOM     47  C   UNL A   1      40.197  26.529  27.769  1.00  0.00     0.031 C 
ATOM     48  C   UNL A   1      40.399  31.028  33.023  1.00  0.00     0.029 A 
ATOM     49  C   UNL A   1      41.429  30.069  32.988  1.00  0.00     0.049 A 
ATOM     50  H   UNL A   1      41.805  28.531  31.594  1.00  0.00     0.167 HD
ATOM     51  C   UNL A   1      42.368  25.555  28.631  1.00  0.00     0.031 A 
ATOM     52  C   UNL A   1      42.441  29.974  33.930  1.00  0.00     0.031 A 
ATOM     53  C   UNL A   1      43.405  25.488  29.549  1.00  0.00     0.049 A 
ATOM     54  C   UNL A   1      43.460  29.021  33.878  1.00  0.00     0.074 A 
ATOM     55  C   UNL A   1      44.475  24.577  29.475  1.00  0.00     0.029 A 
ATOM     56  N   UNL A   1      43.588  26.263  30.673  1.00  0.00    -0.354 N 
ATOM     57  N   UNL A   1      43.655  28.092  32.941  1.00  0.00    -0.248 NA
ATOM     58  C   UNL A   1      44.520  28.890  34.888  1.00  0.00     0.031 C 
ATOM     59  C   UNL A   1      45.287  24.792  30.544  1.00  0.00     0.029 A 
ATOM     60  C   UNL A   1      44.737  25.841  31.304  1.00  0.00     0.049 A 
ATOM     61  H   UNL A   1      42.998  26.993  30.973  1.00  0.00     0.167 HD
ATOM     62  C   UNL A   1      44.745  27.376  33.222  1.00  0.00     0.074 A 
ATOM     63  C   UNL A   1      45.313  27.873  34.483  1.00  0.00     0.031 C 
ATOM     64  C   UNL A   1      45.292  26.330  32.477  1.00  0.00     0.031 A 
BRANCH  51  65
ATOM     65  C   UNL A   1      42.376  24.577  27.468  1.00  0.00    -0.014 A 
ATOM     66  C   UNL A   1      41.644  23.411  27.612  1.00  0.00     0.009 A 
ATOM     67  C   UNL A   1      42.976  24.878  26.322  1.00  0.00     0.009 A 
ATOM     68  C   UNL A   1      41.843  22.476  26.568  1.00  0.00     0.001 A 
ATOM     69  C   UNL A   1      43.016  23.966  25.294  1.00  0.00     0.001 A 
ATOM     70  C   UNL A   1      42.364  22.769  25.390  1.00  0.00     0.000 A 
ENDBRANCH  51  65
BRANCH  52  71
ATOM     71  C   UNL A   1      42.441  30.963  35.085  1.00  0.00    -0.014 A 
ATOM     72  C   UNL A   1      41.664  30.709  36.203  1.00  0.00     0.009 A 
ATOM     73  C   UNL A   1      43.103  32.105  34.951  1.00  0.00     0.009 A 
ATOM     74  C   UNL A   1      41.416  31.851  37.001  1.00  0.00     0.001 A 
ATOM     75  C   UNL A   1      42.915  33.131  35.844  1.00  0.00     0.001 A 
ATOM     76  C   UNL A   1      42.114  32.971  36.941  1.00  0.00     0.000 A 
ENDBRANCH  52  71
BRANCH  64  77
ATOM     77  C   UNL A   1      46.573  25.687  32.982  1.00  0.00    -0.014 A 
ATOM     78  C   UNL A   1      46.496  24.637  33.884  1.00  0.00     0.009 A 
ATOM     79  C   UNL A   1      47.745  26.139  32.550  1.00  0.00     0.009 A 
ATOM     80  C   UNL A   1      47.730  24.318  34.499  1.00  0.00     0.001 A 
ATOM     81  C   UNL A   1      48.917  25.682  33.102  1.00  0.00     0.001 A 
ATOM     82  C   UNL A   1      48.912  24.689  34.041  1.00  0.00     0.000 A 
ENDBRANCH  64  77
ENDBRANCH  38  39
ENDBRANCH  31  33
ENDBRANCH  30  31
ENDBRANCH  29  30
ENDBRANCH   1  29
TORSDOF 16
ENDMDL
MODEL 2
REMARK VINA RESULT:      -9.6      6.435     11.774
REMARK SMILES CCCCc1cc(S(F)(F)(F)(F)F)cc2c1O[C@@H](C(F)(F)F)C(C(=O)OCCOC(=O)c1ccc(-c3c4nc(c(-c5ccccc5)c5ccc([nH]5)c(-c5ccccc5)c5nc(c(-c6ccccc6)c6ccc3[nH]6)C=C5)C=C4)cc1)=C2
REMARK SMILES IDX 27 1 26 2 24 3 25 4 23 5 5 6 6 7 16 8 7 9 15 10 17 11 14 12
REMARK SMILES IDX 80 13 18 14 4 15 3 16 2 17 1 18 8 19 9 20 10 21 11 22 12 23
REMARK SMILES IDX 13 24 19 25 20 26 21 27 22 28 28 29 29 30 30 31 31 32 32 33
REMARK SMILES IDX 33 34 79 35 34 36 78 37 35 38 36 39 37 40 72 41 38 42 77 43
REMARK SMILES IDX 71 44 73 45 39 46 76 47 70 48 69 49 40 51 62 52 47 53 61 54
REMARK SMILES IDX 48 55 51 56 60 57 74 58 49 59 50 60 59 62 75 63 52 64 41 65
REMARK SMILES IDX 42 66 46 67 43 68 45 69 44 70 63 71 64 72 68 73 65 74 67 75
REMARK SMILES IDX 66 76 53 77 54 78 58 79 55 80 57 81 56 82
REMARK H PARENT 73 50 51 61
REMARK Flexibility Score: inf
ROOT
ATOM      1  C   UNL A   1      42.506  21.051  25.784  1.00  0.00     0.275 C 
ENDROOT
BRANCH   1   2
ATOM      2  O   UNL A   1      41.372  21.895  25.654  1.00  0.00    -0.459 OA
BRANCH   2   3
ATOM      3  C   UNL A   1      40.256  21.723  26.516  1.00  0.00     0.338 C 
ATOM      4  O   UNL A   1      40.422  21.246  27.682  1.00  0.00    -0.246 OA
BRANCH   3   5
ATOM      5  C   UNL A   1      38.864  22.109  26.043  1.00  0.00     0.087 C 
ATOM      6  C   UNL A   1      34.934  23.274  25.236  1.00  0.00    -0.004 A 
ATOM      7  C   UNL A   1      34.011  22.339  24.805  1.00  0.00     0.032 A 
ATOM      8  C   UNL A   1      36.206  22.853  25.546  1.00  0.00     0.131 A 
ATOM      9  C   UNL A   1      34.351  21.015  24.690  1.00  0.00     0.108 A 
ATOM     10  C   UNL A   1      36.589  21.530  25.424  1.00  0.00     0.019 A 
ATOM     11  O   UNL A   1      37.076  23.773  26.079  1.00  0.00    -0.475 OA
ATOM     12  C   UNL A   1      35.635  20.615  24.992  1.00  0.00     0.036 A 
ATOM     13  C   UNL A   1      37.943  21.180  25.813  1.00  0.00     0.027 C 
ATOM     14  C   UNL A   1      38.494  23.569  25.824  1.00  0.00     0.316 C 
BRANCH   6  15
ATOM     15  C   UNL A   1      34.550  24.738  25.365  1.00  0.00     0.039 C 
BRANCH  15  16
ATOM     16  C   UNL A   1      33.250  24.854  26.146  1.00  0.00     0.005 C 
BRANCH  16  17
ATOM     17  C   UNL A   1      32.648  26.233  25.924  1.00  0.00    -0.003 C 
ATOM     18  C   UNL A   1      33.748  27.281  25.980  1.00  0.00     0.004 C 
ENDBRANCH  16  17
ENDBRANCH  15  16
ENDBRANCH   6  15
BRANCH   9  19
ATOM     19  S   UNL A   1      33.121  19.804  24.146  1.00  0.00     0.310 S 
ATOM     20  F   UNL A   1      31.977  20.490  25.003  1.00  0.00    -0.094 F 
ATOM     21  F   UNL A   1      33.451  18.928  25.414  1.00  0.00    -0.094 F 
ATOM     22  F   UNL A   1      32.063  18.768  23.673  1.00  0.00    -0.094 F 
ATOM     23  F   UNL A   1      32.706  20.759  22.959  1.00  0.00    -0.094 F 
ATOM     24  F   UNL A   1      34.113  20.916  24.676  1.00  0.00    -0.094 F 
ENDBRANCH   9  19
BRANCH  14  25
ATOM     25  C   UNL A   1      39.299  24.434  26.779  1.00  0.00     0.430 C 
ATOM     26  F   UNL A   1      40.448  24.778  26.206  1.00  0.00    -0.167 F 
ATOM     27  F   UNL A   1      38.606  25.529  27.077  1.00  0.00    -0.167 F 
ATOM     28  F   UNL A   1      39.547  23.751  27.894  1.00  0.00    -0.167 F 
ENDBRANCH  14  25
ENDBRANCH   3   5
ENDBRANCH   2   3
ENDBRANCH   1   2
BRANCH   1  29
ATOM     29  C   UNL A   1      43.660  21.626  24.979  1.00  0.00     0.275 C 
BRANCH  29  30
ATOM     30  O   UNL A   1      43.346  22.954  24.584  1.00  0.00    -0.458 OA
BRANCH  30  31
ATOM     31  C   UNL A   1      44.110  24.042  25.082  1.00  0.00     0.338 C 
ATOM     32  O   UNL A   1      45.260  24.286  24.600  1.00  0.00    -0.246 OA
BRANCH  31  33
ATOM     33  C   UNL A   1      43.550  24.917  26.192  1.00  0.00     0.060 A 
ATOM     34  C   UNL A   1      43.495  26.290  26.013  1.00  0.00     0.016 A 
ATOM     35  C   UNL A   1      43.123  24.352  27.315  1.00  0.00     0.016 A 
ATOM     36  C   UNL A   1      43.236  27.013  27.200  1.00  0.00     0.010 A 
ATOM     37  C   UNL A   1      42.756  25.123  28.392  1.00  0.00     0.010 A 
ATOM     38  C   UNL A   1      42.735  26.487  28.304  1.00  0.00    -0.014 A 
BRANCH  38  39
ATOM     39  C   UNL A   1      42.164  27.352  29.416  1.00  0.00     0.031 A 
ATOM     40  C   UNL A   1      42.851  27.396  30.631  1.00  0.00     0.074 A 
ATOM     41  C   UNL A   1      40.995  28.048  29.163  1.00  0.00     0.049 A 
ATOM     42  N   UNL A   1      42.542  28.109  31.714  1.00  0.00    -0.248 NA
ATOM     43  C   UNL A   1      44.074  26.631  30.914  1.00  0.00     0.031 C 
ATOM     44  C   UNL A   1      40.301  28.018  27.936  1.00  0.00     0.029 A 
ATOM     45  N   UNL A   1      40.302  28.876  30.018  1.00  0.00    -0.354 N 
ATOM     46  C   UNL A   1      43.446  27.904  32.674  1.00  0.00     0.074 A 
ATOM     47  C   UNL A   1      44.440  26.946  32.176  1.00  0.00     0.031 C 
ATOM     48  C   UNL A   1      39.200  28.805  28.055  1.00  0.00     0.029 A 
ATOM     49  C   UNL A   1      39.187  29.342  29.355  1.00  0.00     0.049 A 
ATOM     50  H   UNL A   1      40.558  29.096  30.941  1.00  0.00     0.167 HD
ATOM     51  C   UNL A   1      43.481  28.481  33.945  1.00  0.00     0.031 A 
ATOM     52  C   UNL A   1      38.202  30.187  29.843  1.00  0.00     0.031 A 
ATOM     53  C   UNL A   1      42.519  29.360  34.417  1.00  0.00     0.049 A 
ATOM     54  C   UNL A   1      38.205  30.717  31.134  1.00  0.00     0.074 A 
ATOM     55  C   UNL A   1      42.543  29.956  35.692  1.00  0.00     0.029 A 
ATOM     56  N   UNL A   1      41.391  29.807  33.764  1.00  0.00    -0.354 N 
ATOM     57  N   UNL A   1      39.130  30.544  32.080  1.00  0.00    -0.248 NA
ATOM     58  C   UNL A   1      37.150  31.588  31.672  1.00  0.00     0.031 C 
ATOM     59  C   UNL A   1      41.441  30.743  35.811  1.00  0.00     0.029 A 
ATOM     60  C   UNL A   1      40.709  30.651  34.612  1.00  0.00     0.049 A 
ATOM     61  H   UNL A   1      41.120  29.563  32.849  1.00  0.00     0.167 HD
ATOM     62  C   UNL A   1      38.799  31.225  33.178  1.00  0.00     0.074 A 
ATOM     63  C   UNL A   1      37.516  31.900  32.935  1.00  0.00     0.031 C 
ATOM     64  C   UNL A   1      39.515  31.315  34.373  1.00  0.00     0.031 A 
BRANCH  51  65
ATOM     65  C   UNL A   1      44.639  28.125  34.863  1.00  0.00    -0.014 A 
ATOM     66  C   UNL A   1      45.721  28.989  34.887  1.00  0.00     0.009 A 
ATOM     67  C   UNL A   1      44.570  27.083  35.684  1.00  0.00     0.009 A 
ATOM     68  C   UNL A   1      46.827  28.502  35.623  1.00  0.00     0.001 A 
ATOM     69  C   UNL A   1      45.642  26.745  36.475  1.00  0.00     0.001 A 
ATOM     70  C   UNL A   1      46.767  27.521  36.504  1.00  0.00     0.000 A 
ENDBRANCH  51  65
BRANCH  52  71
ATOM     71  C   UNL A   1      37.052  30.555  28.918  1.00  0.00    -0.014 A 
ATOM     72  C   UNL A   1      36.953  31.849  28.431  1.00  0.00     0.009 A 
ATOM     73  C   UNL A   1      36.105  29.656  28.683  1.00  0.00     0.009 A 
ATOM     74  C   UNL A   1      35.666  32.181  27.945  1.00  0.00     0.001 A 
ATOM     75  C   UNL A   1      34.926  30.023  28.082  1.00  0.00     0.001 A 
ATOM     76  C   UNL A   1      34.735  31.299  27.628  1.00  0.00     0.000 A 
ENDBRANCH  52  71
BRANCH  64  77
ATOM     77  C   UNL A   1      38.953  32.191  35.479  1.00  0.00    -0.014 A 
ATOM     78  C   UNL A   1      39.239  33.547  35.484  1.00  0.00     0.009 A 
ATOM     79  C   UNL A   1      38.194  31.645  36.423  1.00  0.00     0.009 A 
ATOM     80  C   UNL A   1      38.914  34.197  36.698  1.00  0.00     0.001 A 
ATOM     81  C   UNL A   1      37.799  32.378  37.515  1.00  0.00     0.001 A 
ATOM     82  C   UNL A   1      38.098  33.708  37.614  1.00  0.00     0.000 A 
ENDBRANCH  64  77
ENDBRANCH  38  39
ENDBRANCH  31  33
ENDBRANCH  30  31
ENDBRANCH  29  30
ENDBRANCH   1  29
TORSDOF 16
ENDMDL
MODEL 3
REMARK VINA RESULT:      -9.5      6.444     11.401
REMARK SMILES CCCCc1cc(S(F)(F)(F)(F)F)cc2c1O[C@@H](C(F)(F)F)C(C(=O)OCCOC(=O)c1ccc(-c3c4nc(c(-c5ccccc5)c5ccc([nH]5)c(-c5ccccc5)c5nc(c(-c6ccccc6)c6ccc3[nH]6)C=C5)C=C4)cc1)=C2
REMARK SMILES IDX 27 1 26 2 24 3 25 4 23 5 5 6 6 7 16 8 7 9 15 10 17 11 14 12
REMARK SMILES IDX 80 13 18 14 4 15 3 16 2 17 1 18 8 19 9 20 10 21 11 22 12 23
REMARK SMILES IDX 13 24 19 25 20 26 21 27 22 28 28 29 29 30 30 31 31 32 32 33
REMARK SMILES IDX 33 34 79 35 34 36 78 37 35 38 36 39 37 40 72 41 38 42 77 43
REMARK SMILES IDX 71 44 73 45 39 46 76 47 70 48 69 49 40 51 62 52 47 53 61 54
REMARK SMILES IDX 48 55 51 56 60 57 74 58 49 59 50 60 59 62 75 63 52 64 41 65
REMARK SMILES IDX 42 66 46 67 43 68 45 69 44 70 63 71 64 72 68 73 65 74 67 75
REMARK SMILES IDX 66 76 53 77 54 78 58 79 55 80 57 81 56 82
REMARK H PARENT 73 50 51 61
REMARK Flexibility Score: inf
ROOT
ATOM      1  C   UNL A   1      42.563  21.199  25.792  1.00  0.00     0.275 C 
ENDROOT
BRANCH   1   2
ATOM      2  O   UNL A   1      41.353  21.917  25.602  1.00  0.00    -0.459 OA
BRANCH   2   3
ATOM      3  C   UNL A   1      40.255  21.703  26.477  1.00  0.00     0.338 C 
ATOM      4  O   UNL A   1      40.446  21.178  27.619  1.00  0.00    -0.246 OA
BRANCH   3   5
ATOM      5  C   UNL A   1      38.852  22.103  26.050  1.00  0.00     0.087 C 
ATOM      6  C   UNL A   1      34.909  23.301  25.369  1.00  0.00    -0.004 A 
ATOM      7  C   UNL A   1      33.968  22.376  24.955  1.00  0.00     0.032 A 
ATOM      8  C   UNL A   1      36.186  22.869  25.637  1.00  0.00     0.131 A 
ATOM      9  C   UNL A   1      34.295  21.052  24.816  1.00  0.00     0.108 A 
ATOM     10  C   UNL A   1      36.556  21.545  25.491  1.00  0.00     0.019 A 
ATOM     11  O   UNL A   1      37.077  23.777  26.154  1.00  0.00    -0.475 OA
ATOM     12  C   UNL A   1      35.585  20.641  25.076  1.00  0.00     0.036 A 
ATOM     13  C   UNL A   1      37.920  21.182  25.837  1.00  0.00     0.027 C 
ATOM     14  C   UNL A   1      38.486  23.568  25.856  1.00  0.00     0.316 C 
BRANCH   6  15
ATOM     15  C   UNL A   1      34.538  24.766  25.525  1.00  0.00     0.039 C 
BRANCH  15  16
ATOM     16  C   UNL A   1      33.944  25.280  24.223  1.00  0.00     0.005 C 
BRANCH  16  17
ATOM     17  C   UNL A   1      32.825  26.263  24.530  1.00  0.00    -0.003 C 
ATOM     18  C   UNL A   1      32.414  26.124  25.987  1.00  0.00     0.004 C 
ENDBRANCH  16  17
ENDBRANCH  15  16
ENDBRANCH   6  15
BRANCH   9  19
ATOM     19  S   UNL A   1      33.043  19.854  24.296  1.00  0.00     0.310 S 
ATOM     20  F   UNL A   1      31.885  20.654  25.027  1.00  0.00    -0.094 F 
ATOM     21  F   UNL A   1      33.259  19.070  25.645  1.00  0.00    -0.094 F 
ATOM     22  F   UNL A   1      31.965  18.829  23.842  1.00  0.00    -0.094 F 
ATOM     23  F   UNL A   1      32.740  20.728  23.016  1.00  0.00    -0.094 F 
ATOM     24  F   UNL A   1      34.053  20.962  24.796  1.00  0.00    -0.094 F 
ENDBRANCH   9  19
BRANCH  14  25
ATOM     25  C   UNL A   1      39.324  24.417  26.797  1.00  0.00     0.430 C 
ATOM     26  F   UNL A   1      38.584  25.415  27.273  1.00  0.00    -0.167 F 
ATOM     27  F   UNL A   1      39.757  23.666  27.806  1.00  0.00    -0.167 F 
ATOM     28  F   UNL A   1      40.367  24.914  26.136  1.00  0.00    -0.167 F 
ENDBRANCH  14  25
ENDBRANCH   3   5
ENDBRANCH   2   3
ENDBRANCH   1   2
BRANCH   1  29
ATOM     29  C   UNL A   1      43.655  21.808  24.927  1.00  0.00     0.275 C 
BRANCH  29  30
ATOM     30  O   UNL A   1      43.298  23.139  24.582  1.00  0.00    -0.458 OA
BRANCH  30  31
ATOM     31  C   UNL A   1      44.049  24.230  25.094  1.00  0.00     0.338 C 
ATOM     32  O   UNL A   1      45.200  24.487  24.620  1.00  0.00    -0.246 OA
BRANCH  31  33
ATOM     33  C   UNL A   1      43.476  25.091  26.208  1.00  0.00     0.060 A 
ATOM     34  C   UNL A   1      43.467  26.469  26.066  1.00  0.00     0.016 A 
ATOM     35  C   UNL A   1      42.993  24.508  27.299  1.00  0.00     0.016 A 
ATOM     36  C   UNL A   1      43.187  27.166  27.264  1.00  0.00     0.010 A 
ATOM     37  C   UNL A   1      42.610  25.261  28.383  1.00  0.00     0.010 A 
ATOM     38  C   UNL A   1      42.632  26.626  28.334  1.00  0.00    -0.014 A 
BRANCH  38  39
ATOM     39  C   UNL A   1      42.048  27.478  29.449  1.00  0.00     0.031 A 
ATOM     40  C   UNL A   1      40.858  28.163  29.197  1.00  0.00     0.074 A 
ATOM     41  C   UNL A   1      42.728  27.527  30.654  1.00  0.00     0.049 A 
ATOM     42  N   UNL A   1      40.167  28.932  30.041  1.00  0.00    -0.248 NA
ATOM     43  C   UNL A   1      40.151  28.140  27.909  1.00  0.00     0.031 C 
ATOM     44  C   UNL A   1      43.925  26.830  30.919  1.00  0.00     0.029 A 
ATOM     45  N   UNL A   1      42.392  28.233  31.787  1.00  0.00    -0.354 N 
ATOM     46  C   UNL A   1      39.071  29.402  29.443  1.00  0.00     0.074 A 
ATOM     47  C   UNL A   1      39.048  28.905  28.062  1.00  0.00     0.031 C 
ATOM     48  C   UNL A   1      44.309  27.123  32.189  1.00  0.00     0.029 A 
ATOM     49  C   UNL A   1      43.361  28.005  32.740  1.00  0.00     0.049 A 
ATOM     50  H   UNL A   1      41.598  28.803  31.897  1.00  0.00     0.167 HD
ATOM     51  C   UNL A   1      38.088  30.224  29.997  1.00  0.00     0.031 A 
ATOM     52  C   UNL A   1      43.431  28.530  34.021  1.00  0.00     0.031 A 
ATOM     53  C   UNL A   1      38.137  30.714  31.293  1.00  0.00     0.049 A 
ATOM     54  C   UNL A   1      42.479  29.400  34.555  1.00  0.00     0.074 A 
ATOM     55  C   UNL A   1      37.151  31.537  31.869  1.00  0.00     0.029 A 
ATOM     56  N   UNL A   1      39.117  30.506  32.237  1.00  0.00    -0.354 N 
ATOM     57  N   UNL A   1      41.362  29.839  33.971  1.00  0.00    -0.248 NA
ATOM     58  C   UNL A   1      42.560  29.987  35.900  1.00  0.00     0.031 C 
ATOM     59  C   UNL A   1      37.536  31.831  33.139  1.00  0.00     0.029 A 
ATOM     60  C   UNL A   1      38.770  31.196  33.378  1.00  0.00     0.049 A 
ATOM     61  H   UNL A   1      39.928  29.959  32.117  1.00  0.00     0.167 HD
ATOM     62  C   UNL A   1      40.693  30.640  34.801  1.00  0.00     0.074 A 
ATOM     63  C   UNL A   1      41.458  30.754  36.051  1.00  0.00     0.031 C 
ATOM     64  C   UNL A   1      39.474  31.279  34.569  1.00  0.00     0.031 A 
BRANCH  51  65
ATOM     65  C   UNL A   1      36.898  30.604  29.131  1.00  0.00    -0.014 A 
ATOM     66  C   UNL A   1      36.869  31.890  28.618  1.00  0.00     0.009 A 
ATOM     67  C   UNL A   1      35.978  29.707  28.796  1.00  0.00     0.009 A 
ATOM     68  C   UNL A   1      35.653  32.223  27.975  1.00  0.00     0.001 A 
ATOM     69  C   UNL A   1      34.883  30.074  28.051  1.00  0.00     0.001 A 
ATOM     70  C   UNL A   1      34.759  31.344  27.561  1.00  0.00     0.000 A 
ENDBRANCH  51  65
BRANCH  52  71
ATOM     71  C   UNL A   1      44.614  28.137  34.892  1.00  0.00    -0.014 A 
ATOM     72  C   UNL A   1      44.505  27.049  35.743  1.00  0.00     0.009 A 
ATOM     73  C   UNL A   1      45.691  28.912  34.899  1.00  0.00     0.009 A 
ATOM     74  C   UNL A   1      45.472  27.029  36.775  1.00  0.00     0.001 A 
ATOM     75  C   UNL A   1      46.663  28.749  35.856  1.00  0.00     0.001 A 
ATOM     76  C   UNL A   1      46.591  27.731  36.766  1.00  0.00     0.000 A 
ENDBRANCH  52  71
BRANCH  64  77
ATOM     77  C   UNL A   1      38.882  32.118  35.690  1.00  0.00    -0.014 A 
ATOM     78  C   UNL A   1      39.065  33.491  35.679  1.00  0.00     0.009 A 
ATOM     79  C   UNL A   1      38.199  31.522  36.660  1.00  0.00     0.009 A 
ATOM     80  C   UNL A   1      38.731  34.123  36.901  1.00  0.00     0.001 A 
ATOM     81  C   UNL A   1      37.785  32.230  37.762  1.00  0.00     0.001 A 
ATOM     82  C   UNL A   1      37.985  33.580  37.845  1.00  0.00     0.000 A 
ENDBRANCH  64  77
ENDBRANCH  38  39
ENDBRANCH  31  33
ENDBRANCH  30  31
ENDBRANCH  29  30
ENDBRANCH   1  29
TORSDOF 16
ENDMDL
