MODEL 1
REMARK VINA RESULT:     -11.6      0.000      0.000
REMARK SMILES O=C(OCCOC(=O)[C@@H]1CCCC[C@H]1C(=O)Nc1ccc(NC(=O)c2ccco2)cc1)c1ccc(-c2c3nc(c(-c4ccccc4)c4ccc([nH]4)c(-c4ccccc4)c4nc(c(-c5ccccc5)c5ccc2[nH]5)C=C4)C=C3)cc1
REMARK SMILES IDX 5 1 4 2 3 3 2 4 1 5 32 6 33 7 79 8 34 9 78 10 35 11 36 12
REMARK SMILES IDX 37 13 72 14 38 15 77 16 71 17 73 18 39 19 76 20 70 21 69 22
REMARK SMILES IDX 40 24 62 25 47 26 61 27 48 28 51 29 60 30 74 31 49 32 50 33
REMARK SMILES IDX 59 35 75 36 52 37 41 38 42 39 46 40 43 41 45 42 44 43 63 44
REMARK SMILES IDX 64 45 68 46 65 47 67 48 66 49 53 50 54 51 58 52 55 53 57 54
REMARK SMILES IDX 56 55 6 56 7 57 8 58 9 59 10 60 14 61 11 62 13 63 12 64
REMARK SMILES IDX 15 65 16 66 17 67 18 69 19 70 31 71 20 72 30 73 21 74 22 75
REMARK SMILES IDX 23 76 24 78 25 79 26 80 29 81 27 82 28 83
REMARK H PARENT 73 23 51 34 17 68 22 77
REMARK Flexibility Score: inf
ROOT
ATOM      1  C   UNL A   1      31.931  30.953  26.863  1.00  0.00     0.274 C 
ENDROOT
BRANCH   1   2
ATOM      2  C   UNL A   1      31.386  32.379  26.832  1.00  0.00     0.275 C 
BRANCH   2   3
ATOM      3  O   UNL A   1      32.415  33.379  26.845  1.00  0.00    -0.458 OA
BRANCH   3   4
ATOM      4  C   UNL A   1      32.962  33.872  27.986  1.00  0.00     0.338 C 
ATOM      5  O   UNL A   1      32.560  34.919  28.480  1.00  0.00    -0.246 OA
BRANCH   4   6
ATOM      6  C   UNL A   1      34.256  33.299  28.446  1.00  0.00     0.060 A 
ATOM      7  C   UNL A   1      35.512  33.875  28.253  1.00  0.00     0.016 A 
ATOM      8  C   UNL A   1      34.190  32.060  29.085  1.00  0.00     0.016 A 
ATOM      9  C   UNL A   1      36.661  33.274  28.789  1.00  0.00     0.010 A 
ATOM     10  C   UNL A   1      35.319  31.500  29.687  1.00  0.00     0.010 A 
ATOM     11  C   UNL A   1      36.577  32.098  29.545  1.00  0.00    -0.014 A 
BRANCH  11  12
ATOM     12  C   UNL A   1      37.793  31.463  30.125  1.00  0.00     0.031 A 
ATOM     13  C   UNL A   1      38.280  31.876  31.488  1.00  0.00     0.074 A 
ATOM     14  C   UNL A   1      38.497  30.539  29.436  1.00  0.00     0.049 A 
ATOM     15  N   UNL A   1      39.256  31.364  32.197  1.00  0.00    -0.248 NA
ATOM     16  C   UNL A   1      37.588  32.997  32.146  1.00  0.00     0.031 C 
ATOM     17  C   UNL A   1      38.179  30.051  28.096  1.00  0.00     0.029 A 
ATOM     18  N   UNL A   1      39.654  29.870  29.754  1.00  0.00    -0.354 N 
ATOM     19  C   UNL A   1      39.236  32.049  33.402  1.00  0.00     0.074 A 
ATOM     20  C   UNL A   1      38.272  33.116  33.272  1.00  0.00     0.031 C 
ATOM     21  C   UNL A   1      39.160  29.240  27.667  1.00  0.00     0.029 A 
ATOM     22  C   UNL A   1      40.144  29.092  28.732  1.00  0.00     0.049 A 
ATOM     23  H   UNL A   1      40.092  29.942  30.633  1.00  0.00     0.167 HD
ATOM     24  C   UNL A   1      39.880  31.758  34.556  1.00  0.00     0.031 A 
ATOM     25  C   UNL A   1      41.243  28.319  28.665  1.00  0.00     0.031 A 
ATOM     26  C   UNL A   1      40.849  30.710  34.697  1.00  0.00     0.049 A 
ATOM     27  C   UNL A   1      42.039  28.084  29.918  1.00  0.00     0.074 A 
ATOM     28  C   UNL A   1      41.505  30.280  35.835  1.00  0.00     0.029 A 
ATOM     29  N   UNL A   1      41.311  29.935  33.645  1.00  0.00    -0.354 N 
ATOM     30  N   UNL A   1      41.875  28.609  31.107  1.00  0.00    -0.248 NA
ATOM     31  C   UNL A   1      43.112  27.083  29.840  1.00  0.00     0.031 C 
ATOM     32  C   UNL A   1      42.390  29.258  35.464  1.00  0.00     0.029 A 
ATOM     33  C   UNL A   1      42.258  29.037  34.103  1.00  0.00     0.049 A 
ATOM     34  H   UNL A   1      41.010  30.012  32.712  1.00  0.00     0.167 HD
ATOM     35  C   UNL A   1      42.768  27.945  31.937  1.00  0.00     0.074 A 
ATOM     36  C   UNL A   1      43.486  26.997  31.109  1.00  0.00     0.031 C 
ATOM     37  C   UNL A   1      42.950  28.086  33.272  1.00  0.00     0.031 A 
BRANCH  24  38
ATOM     38  C   UNL A   1      39.455  32.547  35.759  1.00  0.00    -0.014 A 
ATOM     39  C   UNL A   1      38.371  32.099  36.538  1.00  0.00     0.009 A 
ATOM     40  C   UNL A   1      40.078  33.757  36.090  1.00  0.00     0.009 A 
ATOM     41  C   UNL A   1      37.881  32.876  37.586  1.00  0.00     0.001 A 
ATOM     42  C   UNL A   1      39.600  34.520  37.158  1.00  0.00     0.001 A 
ATOM     43  C   UNL A   1      38.494  34.088  37.893  1.00  0.00     0.000 A 
ENDBRANCH  24  38
BRANCH  25  44
ATOM     44  C   UNL A   1      41.612  27.633  27.400  1.00  0.00    -0.014 A 
ATOM     45  C   UNL A   1      41.092  26.367  27.088  1.00  0.00     0.009 A 
ATOM     46  C   UNL A   1      42.527  28.226  26.518  1.00  0.00     0.009 A 
ATOM     47  C   UNL A   1      41.515  25.691  25.941  1.00  0.00     0.001 A 
ATOM     48  C   UNL A   1      42.935  27.555  25.361  1.00  0.00     0.001 A 
ATOM     49  C   UNL A   1      42.438  26.283  25.081  1.00  0.00     0.000 A 
ENDBRANCH  25  44
BRANCH  37  50
ATOM     50  C   UNL A   1      43.911  27.145  33.934  1.00  0.00    -0.014 A 
ATOM     51  C   UNL A   1      45.266  27.469  34.085  1.00  0.00     0.009 A 
ATOM     52  C   UNL A   1      43.438  25.925  34.442  1.00  0.00     0.009 A 
ATOM     53  C   UNL A   1      46.138  26.575  34.709  1.00  0.00     0.001 A 
ATOM     54  C   UNL A   1      44.306  25.044  35.089  1.00  0.00     0.001 A 
ATOM     55  C   UNL A   1      45.656  25.366  35.214  1.00  0.00     0.000 A 
ENDBRANCH  37  50
ENDBRANCH  11  12
ENDBRANCH   4   6
ENDBRANCH   3   4
ENDBRANCH   2   3
ENDBRANCH   1   2
BRANCH   1  56
ATOM     56  O   UNL A   1      31.443  30.113  25.804  1.00  0.00    -0.462 OA
BRANCH  56  57
ATOM     57  C   UNL A   1      31.671  28.781  25.989  1.00  0.00     0.309 C 
ATOM     58  O   UNL A   1      31.408  28.170  27.017  1.00  0.00    -0.252 OA
BRANCH  57  59
ATOM     59  C   UNL A   1      32.344  28.120  24.798  1.00  0.00     0.111 C 
ATOM     60  C   UNL A   1      33.627  28.837  24.365  1.00  0.00     0.016 C 
ATOM     61  C   UNL A   1      31.380  27.903  23.632  1.00  0.00     0.093 C 
ATOM     62  C   UNL A   1      34.290  28.143  23.177  1.00  0.00     0.001 C 
ATOM     63  C   UNL A   1      32.055  27.248  22.417  1.00  0.00     0.014 C 
ATOM     64  C   UNL A   1      33.326  27.990  22.006  1.00  0.00     0.001 C 
BRANCH  61  65
ATOM     65  C   UNL A   1      30.007  27.273  23.924  1.00  0.00     0.228 C 
ATOM     66  O   UNL A   1      28.997  27.755  23.398  1.00  0.00    -0.274 OA
ATOM     67  N   UNL A   1      29.805  26.125  24.633  1.00  0.00    -0.326 N 
ATOM     68  H   UNL A   1      29.009  26.066  25.209  1.00  0.00     0.169 HD
BRANCH  67  69
ATOM     69  C   UNL A   1      30.668  25.034  24.587  1.00  0.00     0.041 A 
ATOM     70  C   UNL A   1      31.454  24.776  25.699  1.00  0.00     0.028 A 
ATOM     71  C   UNL A   1      30.711  24.183  23.496  1.00  0.00     0.028 A 
ATOM     72  C   UNL A   1      32.103  23.550  25.803  1.00  0.00     0.028 A 
ATOM     73  C   UNL A   1      31.312  22.932  23.627  1.00  0.00     0.028 A 
ATOM     74  C   UNL A   1      31.948  22.573  24.820  1.00  0.00     0.041 A 
BRANCH  74  75
ATOM     75  N   UNL A   1      32.306  21.219  24.952  1.00  0.00    -0.319 N 
ATOM     76  C   UNL A   1      33.519  20.561  24.969  1.00  0.00     0.291 C 
ATOM     77  H   UNL A   1      31.532  20.618  25.051  1.00  0.00     0.170 HD
ATOM     78  O   UNL A   1      33.510  19.375  25.310  1.00  0.00    -0.265 OA
BRANCH  76  79
ATOM     79  C   UNL A   1      34.729  21.255  24.623  1.00  0.00     0.191 A 
ATOM     80  C   UNL A   1      34.972  22.361  23.827  1.00  0.00     0.056 A 
ATOM     81  O   UNL A   1      35.912  20.773  25.111  1.00  0.00    -0.459 OA
ATOM     82  C   UNL A   1      36.378  22.533  23.798  1.00  0.00     0.043 A 
ATOM     83  C   UNL A   1      36.902  21.554  24.610  1.00  0.00     0.196 A 
ENDBRANCH  76  79
ENDBRANCH  74  75
ENDBRANCH  67  69
ENDBRANCH  61  65
ENDBRANCH  57  59
ENDBRANCH  56  57
ENDBRANCH   1  56
TORSDOF 15
ENDMDL
MODEL 2
REMARK VINA RESULT:     -11.5      3.612      9.108
REMARK SMILES O=C(OCCOC(=O)[C@@H]1CCCC[C@H]1C(=O)Nc1ccc(NC(=O)c2ccco2)cc1)c1ccc(-c2c3nc(c(-c4ccccc4)c4ccc([nH]4)c(-c4ccccc4)c4nc(c(-c5ccccc5)c5ccc2[nH]5)C=C4)C=C3)cc1
REMARK SMILES IDX 5 1 4 2 3 3 2 4 1 5 32 6 33 7 79 8 34 9 78 10 35 11 36 12
REMARK SMILES IDX 37 13 72 14 38 15 77 16 71 17 73 18 39 19 76 20 70 21 69 22
REMARK SMILES IDX 40 24 62 25 47 26 61 27 48 28 51 29 60 30 74 31 49 32 50 33
REMARK SMILES IDX 59 35 75 36 52 37 41 38 42 39 46 40 43 41 45 42 44 43 63 44
REMARK SMILES IDX 64 45 68 46 65 47 67 48 66 49 53 50 54 51 58 52 55 53 57 54
REMARK SMILES IDX 56 55 6 56 7 57 8 58 9 59 10 60 14 61 11 62 13 63 12 64
REMARK SMILES IDX 15 65 16 66 17 67 18 69 19 70 31 71 20 72 30 73 21 74 22 75
REMARK SMILES IDX 23 76 24 78 25 79 26 80 29 81 27 82 28 83
REMARK H PARENT 73 23 51 34 17 68 22 77
REMARK Flexibility Score: inf
ROOT
ATOM      1  C   UNL A   1      37.833  20.877  24.961  1.00  0.00     0.274 C 
ENDROOT
BRANCH   1   2
ATOM      2  C   UNL A   1      38.530  19.518  24.970  1.00  0.00     0.275 C 
BRANCH   2   3
ATOM      3  O   UNL A   1      39.476  19.374  26.037  1.00  0.00    -0.458 OA
BRANCH   3   4
ATOM      4  C   UNL A   1      40.794  19.676  25.913  1.00  0.00     0.338 C 
ATOM      5  O   UNL A   1      41.620  18.814  25.638  1.00  0.00    -0.246 OA
BRANCH   4   6
ATOM      6  C   UNL A   1      41.261  20.994  26.424  1.00  0.00     0.060 A 
ATOM      7  C   UNL A   1      41.990  21.934  25.695  1.00  0.00     0.016 A 
ATOM      8  C   UNL A   1      40.971  21.276  27.760  1.00  0.00     0.016 A 
ATOM      9  C   UNL A   1      42.321  23.174  26.262  1.00  0.00     0.010 A 
ATOM     10  C   UNL A   1      41.228  22.538  28.301  1.00  0.00     0.010 A 
ATOM     11  C   UNL A   1      41.914  23.508  27.560  1.00  0.00    -0.014 A 
BRANCH  11  12
ATOM     12  C   UNL A   1      42.253  24.828  28.162  1.00  0.00     0.031 A 
ATOM     13  C   UNL A   1      43.625  25.064  28.734  1.00  0.00     0.074 A 
ATOM     14  C   UNL A   1      41.338  25.818  28.240  1.00  0.00     0.049 A 
ATOM     15  N   UNL A   1      44.134  26.176  29.204  1.00  0.00    -0.248 NA
ATOM     16  C   UNL A   1      44.548  23.918  28.780  1.00  0.00     0.031 C 
ATOM     17  C   UNL A   1      39.959  25.742  27.763  1.00  0.00     0.029 A 
ATOM     18  N   UNL A   1      41.418  27.076  28.786  1.00  0.00    -0.354 N 
ATOM     19  C   UNL A   1      45.448  25.874  29.525  1.00  0.00     0.074 A 
ATOM     20  C   UNL A   1      45.614  24.449  29.354  1.00  0.00     0.031 C 
ATOM     21  C   UNL A   1      39.297  26.856  28.119  1.00  0.00     0.029 A 
ATOM     22  C   UNL A   1      40.225  27.757  28.789  1.00  0.00     0.049 A 
ATOM     23  H   UNL A   1      42.254  27.453  29.144  1.00  0.00     0.167 HD
ATOM     24  C   UNL A   1      46.464  26.715  29.829  1.00  0.00     0.031 A 
ATOM     25  C   UNL A   1      39.914  28.984  29.246  1.00  0.00     0.031 A 
ATOM     26  C   UNL A   1      46.312  28.129  30.013  1.00  0.00     0.049 A 
ATOM     27  C   UNL A   1      41.025  29.888  29.703  1.00  0.00     0.074 A 
ATOM     28  C   UNL A   1      47.284  29.084  30.250  1.00  0.00     0.029 A 
ATOM     29  N   UNL A   1      45.093  28.787  29.995  1.00  0.00    -0.354 N 
ATOM     30  N   UNL A   1      42.304  29.627  29.815  1.00  0.00    -0.248 NA
ATOM     31  C   UNL A   1      40.660  31.278  30.009  1.00  0.00     0.031 C 
ATOM     32  C   UNL A   1      46.645  30.321  30.403  1.00  0.00     0.029 A 
ATOM     33  C   UNL A   1      45.282  30.136  30.233  1.00  0.00     0.049 A 
ATOM     34  H   UNL A   1      44.222  28.358  29.838  1.00  0.00     0.167 HD
ATOM     35  C   UNL A   1      42.908  30.838  30.124  1.00  0.00     0.074 A 
ATOM     36  C   UNL A   1      41.852  31.827  30.206  1.00  0.00     0.031 C 
ATOM     37  C   UNL A   1      44.224  31.111  30.291  1.00  0.00     0.031 A 
BRANCH  24  38
ATOM     38  C   UNL A   1      47.831  26.099  29.878  1.00  0.00    -0.014 A 
ATOM     39  C   UNL A   1      48.405  25.775  31.122  1.00  0.00     0.009 A 
ATOM     40  C   UNL A   1      48.576  25.895  28.710  1.00  0.00     0.009 A 
ATOM     41  C   UNL A   1      49.719  25.316  31.200  1.00  0.00     0.001 A 
ATOM     42  C   UNL A   1      49.884  25.410  28.790  1.00  0.00     0.001 A 
ATOM     43  C   UNL A   1      50.459  25.137  30.033  1.00  0.00     0.000 A 
ENDBRANCH  24  38
BRANCH  25  44
ATOM     44  C   UNL A   1      38.512  29.473  29.213  1.00  0.00    -0.014 A 
ATOM     45  C   UNL A   1      37.671  29.330  30.328  1.00  0.00     0.009 A 
ATOM     46  C   UNL A   1      37.994  30.047  28.042  1.00  0.00     0.009 A 
ATOM     47  C   UNL A   1      36.329  29.712  30.256  1.00  0.00     0.001 A 
ATOM     48  C   UNL A   1      36.655  30.445  27.979  1.00  0.00     0.001 A 
ATOM     49  C   UNL A   1      35.821  30.265  29.082  1.00  0.00     0.000 A 
ENDBRANCH  25  44
BRANCH  37  50
ATOM     50  C   UNL A   1      44.604  32.546  30.506  1.00  0.00    -0.014 A 
ATOM     51  C   UNL A   1      44.878  33.399  29.430  1.00  0.00     0.009 A 
ATOM     52  C   UNL A   1      44.655  33.054  31.814  1.00  0.00     0.009 A 
ATOM     53  C   UNL A   1      45.226  34.732  29.660  1.00  0.00     0.001 A 
ATOM     54  C   UNL A   1      44.977  34.392  32.040  1.00  0.00     0.001 A 
ATOM     55  C   UNL A   1      45.270  35.228  30.963  1.00  0.00     0.000 A 
ENDBRANCH  37  50
ENDBRANCH  11  12
ENDBRANCH   4   6
ENDBRANCH   3   4
ENDBRANCH   2   3
ENDBRANCH   1   2
BRANCH   1  56
ATOM     56  O   UNL A   1      36.398  20.804  24.941  1.00  0.00    -0.462 OA
BRANCH  56  57
ATOM     57  C   UNL A   1      35.785  21.899  24.409  1.00  0.00     0.309 C 
ATOM     58  O   UNL A   1      36.126  22.448  23.369  1.00  0.00    -0.252 OA
BRANCH  57  59
ATOM     59  C   UNL A   1      34.647  22.423  25.270  1.00  0.00     0.111 C 
ATOM     60  C   UNL A   1      35.055  22.630  26.733  1.00  0.00     0.016 C 
ATOM     61  C   UNL A   1      33.380  21.579  25.136  1.00  0.00     0.093 C 
ATOM     62  C   UNL A   1      33.899  23.171  27.571  1.00  0.00     0.001 C 
ATOM     63  C   UNL A   1      32.229  22.092  26.015  1.00  0.00     0.014 C 
ATOM     64  C   UNL A   1      32.665  22.281  27.468  1.00  0.00     0.001 C 
BRANCH  61  65
ATOM     65  C   UNL A   1      32.893  21.208  23.725  1.00  0.00     0.228 C 
ATOM     66  O   UNL A   1      32.429  20.080  23.522  1.00  0.00    -0.274 OA
ATOM     67  N   UNL A   1      32.810  22.072  22.672  1.00  0.00    -0.326 N 
ATOM     68  H   UNL A   1      33.012  21.730  21.771  1.00  0.00     0.169 HD
BRANCH  67  69
ATOM     69  C   UNL A   1      32.453  23.411  22.805  1.00  0.00     0.041 A 
ATOM     70  C   UNL A   1      33.360  24.371  22.386  1.00  0.00     0.028 A 
ATOM     71  C   UNL A   1      31.211  23.793  23.283  1.00  0.00     0.028 A 
ATOM     72  C   UNL A   1      32.935  25.688  22.234  1.00  0.00     0.028 A 
ATOM     73  C   UNL A   1      30.769  25.097  23.074  1.00  0.00     0.028 A 
ATOM     74  C   UNL A   1      31.606  26.042  22.470  1.00  0.00     0.041 A 
BRANCH  74  75
ATOM     75  N   UNL A   1      31.002  27.250  22.077  1.00  0.00    -0.319 N 
ATOM     76  C   UNL A   1      31.104  28.548  22.534  1.00  0.00     0.291 C 
ATOM     77  H   UNL A   1      30.377  27.147  21.323  1.00  0.00     0.170 HD
ATOM     78  O   UNL A   1      30.593  29.430  21.838  1.00  0.00    -0.265 OA
BRANCH  76  79
ATOM     79  C   UNL A   1      31.801  28.837  23.757  1.00  0.00     0.191 A 
ATOM     80  C   UNL A   1      33.139  29.051  24.037  1.00  0.00     0.056 A 
ATOM     81  O   UNL A   1      31.075  28.900  24.914  1.00  0.00    -0.459 OA
ATOM     82  C   UNL A   1      33.235  29.211  25.442  1.00  0.00     0.043 A 
ATOM     83  C   UNL A   1      31.949  29.130  25.926  1.00  0.00     0.196 A 
ENDBRANCH  76  79
ENDBRANCH  74  75
ENDBRANCH  67  69
ENDBRANCH  61  65
ENDBRANCH  57  59
ENDBRANCH  56  57
ENDBRANCH   1  56
TORSDOF 15
ENDMDL
MODEL 3
REMARK VINA RESULT:     -11.5      2.717      3.864
REMARK SMILES O=C(OCCOC(=O)[C@@H]1CCCC[C@H]1C(=O)Nc1ccc(NC(=O)c2ccco2)cc1)c1ccc(-c2c3nc(c(-c4ccccc4)c4ccc([nH]4)c(-c4ccccc4)c4nc(c(-c5ccccc5)c5ccc2[nH]5)C=C4)C=C3)cc1
REMARK SMILES IDX 5 1 4 2 3 3 2 4 1 5 32 6 33 7 79 8 34 9 78 10 35 11 36 12
REMARK SMILES IDX 37 13 72 14 38 15 77 16 71 17 73 18 39 19 76 20 70 21 69 22
REMARK SMILES IDX 40 24 62 25 47 26 61 27 48 28 51 29 60 30 74 31 49 32 50 33
REMARK SMILES IDX 59 35 75 36 52 37 41 38 42 39 46 40 43 41 45 42 44 43 63 44
REMARK SMILES IDX 64 45 68 46 65 47 67 48 66 49 53 50 54 51 58 52 55 53 57 54
REMARK SMILES IDX 56 55 6 56 7 57 8 58 9 59 10 60 14 61 11 62 13 63 12 64
REMARK SMILES IDX 15 65 16 66 17 67 18 69 19 70 31 71 20 72 30 73 21 74 22 75
REMARK SMILES IDX 23 76 24 78 25 79 26 80 29 81 27 82 28 83
REMARK H PARENT 73 23 51 34 17 68 22 77
REMARK Flexibility Score: inf
ROOT
ATOM      1  C   UNL A   1      31.798  30.047  25.511  1.00  0.00     0.274 C 
ENDROOT
BRANCH   1   2
ATOM      2  C   UNL A   1      33.221  29.592  25.827  1.00  0.00     0.275 C 
BRANCH   2   3
ATOM      3  O   UNL A   1      33.509  29.563  27.232  1.00  0.00    -0.458 OA
BRANCH   3   4
ATOM      4  C   UNL A   1      34.267  30.500  27.858  1.00  0.00     0.338 C 
ATOM      5  O   UNL A   1      33.962  31.686  27.827  1.00  0.00    -0.246 OA
BRANCH   4   6
ATOM      6  C   UNL A   1      35.631  30.110  28.307  1.00  0.00     0.060 A 
ATOM      7  C   UNL A   1      35.979  29.726  29.603  1.00  0.00     0.016 A 
ATOM      8  C   UNL A   1      36.642  30.181  27.347  1.00  0.00     0.016 A 
ATOM      9  C   UNL A   1      37.288  29.316  29.897  1.00  0.00     0.010 A 
ATOM     10  C   UNL A   1      37.925  29.699  27.616  1.00  0.00     0.010 A 
ATOM     11  C   UNL A   1      38.270  29.262  28.900  1.00  0.00    -0.014 A 
BRANCH  11  12
ATOM     12  C   UNL A   1      39.659  28.817  29.206  1.00  0.00     0.031 A 
ATOM     13  C   UNL A   1      40.633  29.772  29.840  1.00  0.00     0.074 A 
ATOM     14  C   UNL A   1      40.080  27.573  28.891  1.00  0.00     0.049 A 
ATOM     15  N   UNL A   1      41.848  29.534  30.272  1.00  0.00    -0.248 NA
ATOM     16  C   UNL A   1      40.196  31.166  30.024  1.00  0.00     0.031 C 
ATOM     17  C   UNL A   1      39.274  26.538  28.247  1.00  0.00     0.029 A 
ATOM     18  N   UNL A   1      41.309  26.976  29.036  1.00  0.00    -0.354 N 
ATOM     19  C   UNL A   1      42.277  30.723  30.840  1.00  0.00     0.074 A 
ATOM     20  C   UNL A   1      41.272  31.721  30.557  1.00  0.00     0.031 C 
ATOM     21  C   UNL A   1      40.046  25.475  27.965  1.00  0.00     0.029 A 
ATOM     22  C   UNL A   1      41.388  25.724  28.474  1.00  0.00     0.049 A 
ATOM     23  H   UNL A   1      42.063  27.407  29.500  1.00  0.00     0.167 HD
ATOM     24  C   UNL A   1      43.357  30.949  31.623  1.00  0.00     0.031 A 
ATOM     25  C   UNL A   1      42.414  24.856  28.403  1.00  0.00     0.031 A 
ATOM     26  C   UNL A   1      44.369  29.973  31.904  1.00  0.00     0.049 A 
ATOM     27  C   UNL A   1      43.669  25.156  29.174  1.00  0.00     0.074 A 
ATOM     28  C   UNL A   1      45.464  30.071  32.742  1.00  0.00     0.029 A 
ATOM     29  N   UNL A   1      44.411  28.713  31.329  1.00  0.00    -0.354 N 
ATOM     30  N   UNL A   1      43.973  26.224  29.869  1.00  0.00    -0.248 NA
ATOM     31  C   UNL A   1      44.682  24.092  29.223  1.00  0.00     0.031 C 
ATOM     32  C   UNL A   1      46.187  28.874  32.652  1.00  0.00     0.029 A 
ATOM     33  C   UNL A   1      45.522  28.026  31.781  1.00  0.00     0.049 A 
ATOM     34  H   UNL A   1      43.748  28.360  30.694  1.00  0.00     0.167 HD
ATOM     35  C   UNL A   1      45.172  25.930  30.503  1.00  0.00     0.074 A 
ATOM     36  C   UNL A   1      45.550  24.594  30.091  1.00  0.00     0.031 C 
ATOM     37  C   UNL A   1      45.876  26.690  31.377  1.00  0.00     0.031 A 
BRANCH  24  38
ATOM     38  C   UNL A   1      43.410  32.291  32.293  1.00  0.00    -0.014 A 
ATOM     39  C   UNL A   1      44.122  33.344  31.687  1.00  0.00     0.009 A 
ATOM     40  C   UNL A   1      42.815  32.502  33.543  1.00  0.00     0.009 A 
ATOM     41  C   UNL A   1      44.287  34.561  32.346  1.00  0.00     0.001 A 
ATOM     42  C   UNL A   1      42.961  33.732  34.189  1.00  0.00     0.001 A 
ATOM     43  C   UNL A   1      43.709  34.753  33.598  1.00  0.00     0.000 A 
ENDBRANCH  24  38
BRANCH  25  44
ATOM     44  C   UNL A   1      42.277  23.580  27.655  1.00  0.00    -0.014 A 
ATOM     45  C   UNL A   1      42.647  23.492  26.305  1.00  0.00     0.009 A 
ATOM     46  C   UNL A   1      41.729  22.451  28.284  1.00  0.00     0.009 A 
ATOM     47  C   UNL A   1      42.430  22.313  25.587  1.00  0.00     0.001 A 
ATOM     48  C   UNL A   1      41.529  21.267  27.568  1.00  0.00     0.001 A 
ATOM     49  C   UNL A   1      41.869  21.203  26.217  1.00  0.00     0.000 A 
ENDBRANCH  25  44
BRANCH  37  50
ATOM     50  C   UNL A   1      47.089  26.066  32.002  1.00  0.00    -0.014 A 
ATOM     51  C   UNL A   1      48.345  26.130  31.384  1.00  0.00     0.009 A 
ATOM     52  C   UNL A   1      46.969  25.430  33.248  1.00  0.00     0.009 A 
ATOM     53  C   UNL A   1      49.457  25.543  31.991  1.00  0.00     0.001 A 
ATOM     54  C   UNL A   1      48.087  24.868  33.864  1.00  0.00     0.001 A 
ATOM     55  C   UNL A   1      49.328  24.917  33.231  1.00  0.00     0.000 A 
ENDBRANCH  37  50
ENDBRANCH  11  12
ENDBRANCH   4   6
ENDBRANCH   3   4
ENDBRANCH   2   3
ENDBRANCH   1   2
BRANCH   1  56
ATOM     56  O   UNL A   1      30.938  29.003  25.028  1.00  0.00    -0.462 OA
BRANCH  56  57
ATOM     57  C   UNL A   1      31.075  28.729  23.700  1.00  0.00     0.309 C 
ATOM     58  O   UNL A   1      30.659  29.445  22.798  1.00  0.00    -0.252 OA
BRANCH  57  59
ATOM     59  C   UNL A   1      31.757  27.397  23.433  1.00  0.00     0.111 C 
ATOM     60  C   UNL A   1      32.829  27.486  22.341  1.00  0.00     0.016 C 
ATOM     61  C   UNL A   1      30.755  26.273  23.171  1.00  0.00     0.093 C 
ATOM     62  C   UNL A   1      33.508  26.138  22.105  1.00  0.00     0.001 C 
ATOM     63  C   UNL A   1      31.436  24.925  22.885  1.00  0.00     0.014 C 
ATOM     64  C   UNL A   1      32.494  25.045  21.788  1.00  0.00     0.001 C 
BRANCH  61  65
ATOM     65  C   UNL A   1      29.566  26.113  24.133  1.00  0.00     0.228 C 
ATOM     66  O   UNL A   1      28.420  26.042  23.672  1.00  0.00    -0.274 OA
ATOM     67  N   UNL A   1      29.666  25.915  25.479  1.00  0.00    -0.326 N 
ATOM     68  H   UNL A   1      28.992  26.329  26.064  1.00  0.00     0.169 HD
BRANCH  67  69
ATOM     69  C   UNL A   1      30.675  25.157  26.069  1.00  0.00     0.041 A 
ATOM     70  C   UNL A   1      30.403  23.832  26.369  1.00  0.00     0.028 A 
ATOM     71  C   UNL A   1      31.937  25.676  26.301  1.00  0.00     0.028 A 
ATOM     72  C   UNL A   1      31.455  22.977  26.685  1.00  0.00     0.028 A 
ATOM     73  C   UNL A   1      32.997  24.808  26.558  1.00  0.00     0.028 A 
ATOM     74  C   UNL A   1      32.774  23.431  26.673  1.00  0.00     0.041 A 
BRANCH  74  75
ATOM     75  N   UNL A   1      33.918  22.613  26.685  1.00  0.00    -0.319 N 
ATOM     76  C   UNL A   1      34.401  21.654  25.818  1.00  0.00     0.291 C 
ATOM     77  H   UNL A   1      34.491  22.754  27.474  1.00  0.00     0.170 HD
ATOM     78  O   UNL A   1      35.553  21.254  26.008  1.00  0.00    -0.265 OA
BRANCH  76  79
ATOM     79  C   UNL A   1      33.587  21.175  24.735  1.00  0.00     0.191 A 
ATOM     80  C   UNL A   1      33.118  21.783  23.584  1.00  0.00     0.056 A 
ATOM     81  O   UNL A   1      33.122  19.890  24.797  1.00  0.00    -0.459 OA
ATOM     82  C   UNL A   1      32.293  20.831  22.934  1.00  0.00     0.043 A 
ATOM     83  C   UNL A   1      32.345  19.691  23.702  1.00  0.00     0.196 A 
ENDBRANCH  76  79
ENDBRANCH  74  75
ENDBRANCH  67  69
ENDBRANCH  61  65
ENDBRANCH  57  59
ENDBRANCH  56  57
ENDBRANCH   1  56
TORSDOF 15
ENDMDL
