MODEL 1
REMARK VINA RESULT:      -9.5      0.000      0.000
REMARK SMILES Cc1cc2c(c(C)c1Br)C=C(C(=O)OCCOC(=O)c1ccc(-c3c4nc(c(-c5ccccc5)c5ccc([nH]5)c(-c5ccccc5)c5nc(c(-c6ccccc6)c6ccc3[nH]6)C=C5)C=C4)cc1)[C@@H](C(F)(F)F)O2
REMARK SMILES IDX 16 1 15 2 14 3 12 4 13 5 11 6 1 7 2 8 3 9 8 10 4 11 6 12
REMARK SMILES IDX 9 13 5 14 73 15 7 16 10 17 68 18 69 19 70 20 71 21 72 22
REMARK SMILES IDX 17 23 18 24 19 25 20 26 21 27 67 28 22 29 66 30 23 31 24 32
REMARK SMILES IDX 25 33 60 34 26 35 65 36 59 37 61 38 27 39 64 40 58 41 57 42
REMARK SMILES IDX 28 44 50 45 35 46 49 47 36 48 39 49 48 50 62 51 37 52 38 53
REMARK SMILES IDX 47 55 63 56 40 57 29 58 30 59 34 60 31 61 33 62 32 63 51 64
REMARK SMILES IDX 52 65 56 66 53 67 55 68 54 69 41 70 42 71 46 72 43 73 45 74
REMARK SMILES IDX 44 75
REMARK H PARENT 61 43 39 54
REMARK Flexibility Score: inf
ROOT
ATOM      1  C   UNL A   1      39.759  19.631  26.029  1.00  0.00     0.275 C 
ENDROOT
BRANCH   1   2
ATOM      2  C   UNL A   1      41.257  19.485  26.299  1.00  0.00     0.275 C 
BRANCH   2   3
ATOM      3  O   UNL A   1      41.981  20.646  25.837  1.00  0.00    -0.459 OA
BRANCH   3   4
ATOM      4  C   UNL A   1      43.257  20.422  25.448  1.00  0.00     0.338 C 
ATOM      5  O   UNL A   1      43.647  19.556  24.680  1.00  0.00    -0.246 OA
BRANCH   4   6
ATOM      6  C   UNL A   1      44.159  21.416  26.061  1.00  0.00     0.087 C 
ATOM      7  C   UNL A   1      47.074  26.241  29.260  1.00  0.00     0.046 C 
ATOM      8  C   UNL A   1      46.212  25.075  28.855  1.00  0.00    -0.033 A 
ATOM      9  C   UNL A   1      46.527  24.442  27.642  1.00  0.00     0.051 A 
ATOM     10  C   UNL A   1      45.084  24.637  29.579  1.00  0.00     0.024 A 
ATOM     11  C   UNL A   1      45.747  23.400  27.147  1.00  0.00     0.128 A 
ATOM     12  C   UNL A   1      44.293  23.561  29.106  1.00  0.00    -0.026 A 
ATOM     13  Br  UNL A   1      44.621  25.540  31.203  1.00  0.00    -0.050 Br
ATOM     14  C   UNL A   1      44.630  22.961  27.861  1.00  0.00     0.021 A 
ATOM     15  O   UNL A   1      46.173  22.865  25.963  1.00  0.00    -0.475 OA
ATOM     16  C   UNL A   1      43.115  23.022  29.887  1.00  0.00     0.046 C 
ATOM     17  C   UNL A   1      43.826  21.899  27.263  1.00  0.00     0.027 C 
ATOM     18  C   UNL A   1      45.324  21.918  25.265  1.00  0.00     0.316 C 
BRANCH  18  19
ATOM     19  C   UNL A   1      44.866  22.543  23.937  1.00  0.00     0.430 C 
ATOM     20  F   UNL A   1      43.654  23.134  24.060  1.00  0.00    -0.167 F 
ATOM     21  F   UNL A   1      45.724  23.505  23.518  1.00  0.00    -0.167 F 
ATOM     22  F   UNL A   1      44.773  21.627  22.946  1.00  0.00    -0.167 F 
ENDBRANCH  18  19
ENDBRANCH   4   6
ENDBRANCH   3   4
ENDBRANCH   2   3
ENDBRANCH   1   2
BRANCH   1  23
ATOM     23  O   UNL A   1      39.504  20.881  25.363  1.00  0.00    -0.458 OA
BRANCH  23  24
ATOM     24  C   UNL A   1      38.542  21.658  25.909  1.00  0.00     0.338 C 
ATOM     25  O   UNL A   1      37.351  21.415  26.003  1.00  0.00    -0.246 OA
BRANCH  24  26
ATOM     26  C   UNL A   1      39.149  22.886  26.450  1.00  0.00     0.060 A 
ATOM     27  C   UNL A   1      38.748  24.117  25.944  1.00  0.00     0.016 A 
ATOM     28  C   UNL A   1      40.207  22.818  27.354  1.00  0.00     0.016 A 
ATOM     29  C   UNL A   1      39.477  25.265  26.238  1.00  0.00     0.010 A 
ATOM     30  C   UNL A   1      40.855  23.997  27.751  1.00  0.00     0.010 A 
ATOM     31  C   UNL A   1      40.529  25.233  27.166  1.00  0.00    -0.014 A 
BRANCH  31  32
ATOM     32  C   UNL A   1      41.282  26.485  27.485  1.00  0.00     0.031 A 
ATOM     33  C   UNL A   1      40.756  27.464  28.508  1.00  0.00     0.074 A 
ATOM     34  C   UNL A   1      42.476  26.728  26.902  1.00  0.00     0.049 A 
ATOM     35  N   UNL A   1      41.214  28.651  28.824  1.00  0.00    -0.248 NA
ATOM     36  C   UNL A   1      39.558  27.069  29.266  1.00  0.00     0.031 C 
ATOM     37  C   UNL A   1      43.143  25.855  25.934  1.00  0.00     0.029 A 
ATOM     38  N   UNL A   1      43.364  27.764  27.070  1.00  0.00    -0.354 N 
ATOM     39  C   UNL A   1      40.331  29.163  29.768  1.00  0.00     0.074 A 
ATOM     40  C   UNL A   1      39.307  28.163  29.973  1.00  0.00     0.031 C 
ATOM     41  C   UNL A   1      44.367  26.335  25.674  1.00  0.00     0.029 A 
ATOM     42  C   UNL A   1      44.533  27.609  26.362  1.00  0.00     0.049 A 
ATOM     43  H   UNL A   1      43.181  28.543  27.644  1.00  0.00     0.167 HD
ATOM     44  C   UNL A   1      40.368  30.358  30.406  1.00  0.00     0.031 A 
ATOM     45  C   UNL A   1      45.611  28.409  26.245  1.00  0.00     0.031 A 
ATOM     46  C   UNL A   1      41.412  31.335  30.246  1.00  0.00     0.049 A 
ATOM     47  C   UNL A   1      45.611  29.743  26.932  1.00  0.00     0.074 A 
ATOM     48  C   UNL A   1      41.524  32.581  30.839  1.00  0.00     0.029 A 
ATOM     49  N   UNL A   1      42.540  31.165  29.459  1.00  0.00    -0.354 N 
ATOM     50  N   UNL A   1      44.717  30.250  27.745  1.00  0.00    -0.248 NA
ATOM     51  C   UNL A   1      46.752  30.628  26.660  1.00  0.00     0.031 C 
ATOM     52  C   UNL A   1      42.704  33.179  30.386  1.00  0.00     0.029 A 
ATOM     53  C   UNL A   1      43.348  32.285  29.548  1.00  0.00     0.049 A 
ATOM     54  H   UNL A   1      42.736  30.367  28.917  1.00  0.00     0.167 HD
ATOM     55  C   UNL A   1      45.187  31.511  28.083  1.00  0.00     0.074 A 
ATOM     56  C   UNL A   1      46.456  31.684  27.408  1.00  0.00     0.031 C 
ATOM     57  C   UNL A   1      44.609  32.445  28.874  1.00  0.00     0.031 A 
BRANCH  44  58
ATOM     58  C   UNL A   1      39.229  30.700  31.325  1.00  0.00    -0.014 A 
ATOM     59  C   UNL A   1      38.050  31.288  30.843  1.00  0.00     0.009 A 
ATOM     60  C   UNL A   1      39.310  30.356  32.685  1.00  0.00     0.009 A 
ATOM     61  C   UNL A   1      36.984  31.544  31.710  1.00  0.00     0.001 A 
ATOM     62  C   UNL A   1      38.234  30.590  33.542  1.00  0.00     0.001 A 
ATOM     63  C   UNL A   1      37.074  31.189  33.056  1.00  0.00     0.000 A 
ENDBRANCH  44  58
BRANCH  45  64
ATOM     64  C   UNL A   1      46.766  27.980  25.414  1.00  0.00    -0.014 A 
ATOM     65  C   UNL A   1      47.897  27.404  26.012  1.00  0.00     0.009 A 
ATOM     66  C   UNL A   1      46.736  28.119  24.016  1.00  0.00     0.009 A 
ATOM     67  C   UNL A   1      48.972  26.979  25.229  1.00  0.00     0.001 A 
ATOM     68  C   UNL A   1      47.799  27.664  23.235  1.00  0.00     0.001 A 
ATOM     69  C   UNL A   1      48.918  27.099  23.841  1.00  0.00     0.000 A 
ENDBRANCH  45  64
BRANCH  57  70
ATOM     70  C   UNL A   1      45.349  33.734  29.078  1.00  0.00    -0.014 A 
ATOM     71  C   UNL A   1      46.301  33.864  30.100  1.00  0.00     0.009 A 
ATOM     72  C   UNL A   1      45.144  34.802  28.191  1.00  0.00     0.009 A 
ATOM     73  C   UNL A   1      47.025  35.050  30.239  1.00  0.00     0.001 A 
ATOM     74  C   UNL A   1      45.884  35.978  28.320  1.00  0.00     0.001 A 
ATOM     75  C   UNL A   1      46.820  36.103  29.346  1.00  0.00     0.000 A 
ENDBRANCH  57  70
ENDBRANCH  31  32
ENDBRANCH  24  26
ENDBRANCH  23  24
ENDBRANCH   1  23
TORSDOF 12
ENDMDL
MODEL 2
REMARK VINA RESULT:      -9.3      4.588      7.152
REMARK SMILES Cc1cc2c(c(C)c1Br)C=C(C(=O)OCCOC(=O)c1ccc(-c3c4nc(c(-c5ccccc5)c5ccc([nH]5)c(-c5ccccc5)c5nc(c(-c6ccccc6)c6ccc3[nH]6)C=C5)C=C4)cc1)[C@@H](C(F)(F)F)O2
REMARK SMILES IDX 16 1 15 2 14 3 12 4 13 5 11 6 1 7 2 8 3 9 8 10 4 11 6 12
REMARK SMILES IDX 9 13 5 14 73 15 7 16 10 17 68 18 69 19 70 20 71 21 72 22
REMARK SMILES IDX 17 23 18 24 19 25 20 26 21 27 67 28 22 29 66 30 23 31 24 32
REMARK SMILES IDX 25 33 60 34 26 35 65 36 59 37 61 38 27 39 64 40 58 41 57 42
REMARK SMILES IDX 28 44 50 45 35 46 49 47 36 48 39 49 48 50 62 51 37 52 38 53
REMARK SMILES IDX 47 55 63 56 40 57 29 58 30 59 34 60 31 61 33 62 32 63 51 64
REMARK SMILES IDX 52 65 56 66 53 67 55 68 54 69 41 70 42 71 46 72 43 73 45 74
REMARK SMILES IDX 44 75
REMARK H PARENT 61 43 39 54
REMARK Flexibility Score: inf
ROOT
ATOM      1  C   UNL A   1      35.979  20.346  24.969  1.00  0.00     0.275 C 
ENDROOT
BRANCH   1   2
ATOM      2  C   UNL A   1      34.664  21.002  25.391  1.00  0.00     0.275 C 
BRANCH   2   3
ATOM      3  O   UNL A   1      34.669  22.413  25.086  1.00  0.00    -0.459 OA
BRANCH   3   4
ATOM      4  C   UNL A   1      34.047  23.208  25.988  1.00  0.00     0.338 C 
ATOM      5  O   UNL A   1      34.039  23.072  27.202  1.00  0.00    -0.246 OA
BRANCH   4   6
ATOM      6  C   UNL A   1      33.379  24.330  25.302  1.00  0.00     0.087 C 
ATOM      7  C   UNL A   1      30.239  29.689  23.446  1.00  0.00     0.046 C 
ATOM      8  C   UNL A   1      31.148  28.692  24.116  1.00  0.00    -0.033 A 
ATOM      9  C   UNL A   1      31.235  27.418  23.532  1.00  0.00     0.051 A 
ATOM     10  C   UNL A   1      31.849  28.942  25.314  1.00  0.00     0.024 A 
ATOM     11  C   UNL A   1      31.992  26.407  24.116  1.00  0.00     0.128 A 
ATOM     12  C   UNL A   1      32.646  27.935  25.909  1.00  0.00    -0.026 A 
ATOM     13  Br  UNL A   1      31.682  30.662  26.140  1.00  0.00    -0.050 Br
ATOM     14  C   UNL A   1      32.690  26.649  25.301  1.00  0.00     0.021 A 
ATOM     15  O   UNL A   1      32.001  25.219  23.437  1.00  0.00    -0.475 OA
ATOM     16  C   UNL A   1      33.463  28.186  27.158  1.00  0.00     0.046 C 
ATOM     17  C   UNL A   1      33.425  25.533  25.888  1.00  0.00     0.027 C 
ATOM     18  C   UNL A   1      32.590  24.049  24.060  1.00  0.00     0.316 C 
BRANCH  18  19
ATOM     19  C   UNL A   1      31.486  23.013  24.323  1.00  0.00     0.430 C 
ATOM     20  F   UNL A   1      31.124  22.995  25.628  1.00  0.00    -0.167 F 
ATOM     21  F   UNL A   1      30.363  23.293  23.616  1.00  0.00    -0.167 F 
ATOM     22  F   UNL A   1      31.869  21.760  23.989  1.00  0.00    -0.167 F 
ENDBRANCH  18  19
ENDBRANCH   4   6
ENDBRANCH   3   4
ENDBRANCH   2   3
ENDBRANCH   1   2
BRANCH   1  23
ATOM     23  O   UNL A   1      37.022  21.336  24.919  1.00  0.00    -0.458 OA
BRANCH  23  24
ATOM     24  C   UNL A   1      38.217  20.964  25.432  1.00  0.00     0.338 C 
ATOM     25  O   UNL A   1      38.730  19.859  25.402  1.00  0.00    -0.246 OA
BRANCH  24  26
ATOM     26  C   UNL A   1      38.884  22.135  26.026  1.00  0.00     0.060 A 
ATOM     27  C   UNL A   1      38.300  23.388  25.886  1.00  0.00     0.016 A 
ATOM     28  C   UNL A   1      40.148  22.017  26.601  1.00  0.00     0.016 A 
ATOM     29  C   UNL A   1      39.022  24.536  26.201  1.00  0.00     0.010 A 
ATOM     30  C   UNL A   1      40.818  23.169  27.041  1.00  0.00     0.010 A 
ATOM     31  C   UNL A   1      40.284  24.449  26.807  1.00  0.00    -0.014 A 
BRANCH  31  32
ATOM     32  C   UNL A   1      41.030  25.695  27.160  1.00  0.00     0.031 A 
ATOM     33  C   UNL A   1      40.495  26.649  28.203  1.00  0.00     0.074 A 
ATOM     34  C   UNL A   1      42.226  25.957  26.590  1.00  0.00     0.049 A 
ATOM     35  N   UNL A   1      40.947  27.829  28.549  1.00  0.00    -0.248 NA
ATOM     36  C   UNL A   1      39.295  26.231  28.944  1.00  0.00     0.031 C 
ATOM     37  C   UNL A   1      42.903  25.110  25.605  1.00  0.00     0.029 A 
ATOM     38  N   UNL A   1      43.109  26.992  26.787  1.00  0.00    -0.354 N 
ATOM     39  C   UNL A   1      40.056  28.316  29.499  1.00  0.00     0.074 A 
ATOM     40  C   UNL A   1      39.035  27.307  29.675  1.00  0.00     0.031 C 
ATOM     41  C   UNL A   1      44.126  25.600  25.364  1.00  0.00     0.029 A 
ATOM     42  C   UNL A   1      44.283  26.858  26.082  1.00  0.00     0.049 A 
ATOM     43  H   UNL A   1      42.920  27.757  27.378  1.00  0.00     0.167 HD
ATOM     44  C   UNL A   1      40.085  29.495  30.166  1.00  0.00     0.031 A 
ATOM     45  C   UNL A   1      45.358  27.665  25.990  1.00  0.00     0.031 A 
ATOM     46  C   UNL A   1      41.126  30.480  30.035  1.00  0.00     0.049 A 
ATOM     47  C   UNL A   1      45.349  28.983  26.708  1.00  0.00     0.074 A 
ATOM     48  C   UNL A   1      41.230  31.712  30.658  1.00  0.00     0.029 A 
ATOM     49  N   UNL A   1      42.259  30.333  29.250  1.00  0.00    -0.354 N 
ATOM     50  N   UNL A   1      44.449  29.467  27.527  1.00  0.00    -0.248 NA
ATOM     51  C   UNL A   1      46.488  29.878  26.463  1.00  0.00     0.031 C 
ATOM     52  C   UNL A   1      42.409  32.325  30.225  1.00  0.00     0.029 A 
ATOM     53  C   UNL A   1      43.062  31.453  29.370  1.00  0.00     0.049 A 
ATOM     54  H   UNL A   1      42.461  29.548  28.691  1.00  0.00     0.167 HD
ATOM     55  C   UNL A   1      44.912  30.721  27.898  1.00  0.00     0.074 A 
ATOM     56  C   UNL A   1      46.184  30.915  27.234  1.00  0.00     0.031 C 
ATOM     57  C   UNL A   1      44.326  31.634  28.707  1.00  0.00     0.031 A 
BRANCH  44  58
ATOM     58  C   UNL A   1      38.939  29.811  31.086  1.00  0.00    -0.014 A 
ATOM     59  C   UNL A   1      39.003  29.530  32.459  1.00  0.00     0.009 A 
ATOM     60  C   UNL A   1      37.807  30.472  30.580  1.00  0.00     0.009 A 
ATOM     61  C   UNL A   1      37.946  29.885  33.301  1.00  0.00     0.001 A 
ATOM     62  C   UNL A   1      36.765  30.848  31.428  1.00  0.00     0.001 A 
ATOM     63  C   UNL A   1      36.832  30.549  32.787  1.00  0.00     0.000 A 
ENDBRANCH  44  58
BRANCH  45  64
ATOM     64  C   UNL A   1      46.520  27.260  25.155  1.00  0.00    -0.014 A 
ATOM     65  C   UNL A   1      46.737  27.856  23.904  1.00  0.00     0.009 A 
ATOM     66  C   UNL A   1      47.434  26.296  25.614  1.00  0.00     0.009 A 
ATOM     67  C   UNL A   1      47.842  27.494  23.130  1.00  0.00     0.001 A 
ATOM     68  C   UNL A   1      48.554  25.961  24.853  1.00  0.00     0.001 A 
ATOM     69  C   UNL A   1      48.754  26.556  23.609  1.00  0.00     0.000 A 
ENDBRANCH  45  64
BRANCH  57  70
ATOM     70  C   UNL A   1      45.060  32.920  28.945  1.00  0.00    -0.014 A 
ATOM     71  C   UNL A   1      46.011  33.028  29.971  1.00  0.00     0.009 A 
ATOM     72  C   UNL A   1      44.851  34.010  28.087  1.00  0.00     0.009 A 
ATOM     73  C   UNL A   1      46.729  34.214  30.141  1.00  0.00     0.001 A 
ATOM     74  C   UNL A   1      45.585  35.186  28.247  1.00  0.00     0.001 A 
ATOM     75  C   UNL A   1      46.520  35.288  29.277  1.00  0.00     0.000 A 
ENDBRANCH  57  70
ENDBRANCH  31  32
ENDBRANCH  24  26
ENDBRANCH  23  24
ENDBRANCH   1  23
TORSDOF 12
ENDMDL
MODEL 3
REMARK VINA RESULT:      -9.3      4.175      6.877
REMARK SMILES Cc1cc2c(c(C)c1Br)C=C(C(=O)OCCOC(=O)c1ccc(-c3c4nc(c(-c5ccccc5)c5ccc([nH]5)c(-c5ccccc5)c5nc(c(-c6ccccc6)c6ccc3[nH]6)C=C5)C=C4)cc1)[C@@H](C(F)(F)F)O2
REMARK SMILES IDX 16 1 15 2 14 3 12 4 13 5 11 6 1 7 2 8 3 9 8 10 4 11 6 12
REMARK SMILES IDX 9 13 5 14 73 15 7 16 10 17 68 18 69 19 70 20 71 21 72 22
REMARK SMILES IDX 17 23 18 24 19 25 20 26 21 27 67 28 22 29 66 30 23 31 24 32
REMARK SMILES IDX 25 33 60 34 26 35 65 36 59 37 61 38 27 39 64 40 58 41 57 42
REMARK SMILES IDX 28 44 50 45 35 46 49 47 36 48 39 49 48 50 62 51 37 52 38 53
REMARK SMILES IDX 47 55 63 56 40 57 29 58 30 59 34 60 31 61 33 62 32 63 51 64
REMARK SMILES IDX 52 65 56 66 53 67 55 68 54 69 41 70 42 71 46 72 43 73 45 74
REMARK SMILES IDX 44 75
REMARK H PARENT 61 43 39 54
REMARK Flexibility Score: inf
ROOT
ATOM      1  C   UNL A   1      36.572  20.723  24.626  1.00  0.00     0.275 C 
ENDROOT
BRANCH   1   2
ATOM      2  C   UNL A   1      35.155  20.259  24.962  1.00  0.00     0.275 C 
BRANCH   2   3
ATOM      3  O   UNL A   1      34.173  21.037  24.245  1.00  0.00    -0.459 OA
BRANCH   3   4
ATOM      4  C   UNL A   1      32.930  21.047  24.781  1.00  0.00     0.338 C 
ATOM      5  O   UNL A   1      32.198  20.084  24.949  1.00  0.00    -0.246 OA
BRANCH   4   6
ATOM      6  C   UNL A   1      32.564  22.415  25.193  1.00  0.00     0.087 C 
ATOM      7  C   UNL A   1      31.797  28.781  26.150  1.00  0.00     0.046 C 
ATOM      8  C   UNL A   1      31.964  27.408  25.555  1.00  0.00    -0.033 A 
ATOM      9  C   UNL A   1      31.836  26.316  26.428  1.00  0.00     0.051 A 
ATOM     10  C   UNL A   1      32.304  27.167  24.207  1.00  0.00     0.024 A 
ATOM     11  C   UNL A   1      32.041  25.011  25.988  1.00  0.00     0.128 A 
ATOM     12  C   UNL A   1      32.491  25.845  23.734  1.00  0.00    -0.026 A 
ATOM     13  Br  UNL A   1      32.537  28.661  23.032  1.00  0.00    -0.050 Br
ATOM     14  C   UNL A   1      32.377  24.766  24.654  1.00  0.00     0.021 A 
ATOM     15  O   UNL A   1      31.872  24.042  26.938  1.00  0.00    -0.475 OA
ATOM     16  C   UNL A   1      32.794  25.545  22.282  1.00  0.00     0.046 C 
ATOM     17  C   UNL A   1      32.627  23.381  24.269  1.00  0.00     0.027 C 
ATOM     18  C   UNL A   1      32.257  22.676  26.636  1.00  0.00     0.316 C 
BRANCH  18  19
ATOM     19  C   UNL A   1      33.436  22.278  27.538  1.00  0.00     0.430 C 
ATOM     20  F   UNL A   1      34.603  22.793  27.083  1.00  0.00    -0.167 F 
ATOM     21  F   UNL A   1      33.275  22.746  28.800  1.00  0.00    -0.167 F 
ATOM     22  F   UNL A   1      33.587  20.937  27.622  1.00  0.00    -0.167 F 
ENDBRANCH  18  19
ENDBRANCH   4   6
ENDBRANCH   3   4
ENDBRANCH   2   3
ENDBRANCH   1   2
BRANCH   1  23
ATOM     23  O   UNL A   1      37.181  21.309  25.791  1.00  0.00    -0.458 OA
BRANCH  23  24
ATOM     24  C   UNL A   1      38.515  21.123  25.919  1.00  0.00     0.338 C 
ATOM     25  O   UNL A   1      39.162  20.136  25.618  1.00  0.00    -0.246 OA
BRANCH  24  26
ATOM     26  C   UNL A   1      39.133  22.347  26.458  1.00  0.00     0.060 A 
ATOM     27  C   UNL A   1      38.566  23.579  26.154  1.00  0.00     0.016 A 
ATOM     28  C   UNL A   1      40.344  22.289  27.144  1.00  0.00     0.016 A 
ATOM     29  C   UNL A   1      39.263  24.754  26.422  1.00  0.00     0.010 A 
ATOM     30  C   UNL A   1      40.978  23.479  27.530  1.00  0.00     0.010 A 
ATOM     31  C   UNL A   1      40.470  24.729  27.137  1.00  0.00    -0.014 A 
BRANCH  31  32
ATOM     32  C   UNL A   1      41.188  26.006  27.434  1.00  0.00     0.031 A 
ATOM     33  C   UNL A   1      40.629  26.994  28.432  1.00  0.00     0.074 A 
ATOM     34  C   UNL A   1      42.379  26.268  26.854  1.00  0.00     0.049 A 
ATOM     35  N   UNL A   1      41.054  28.198  28.726  1.00  0.00    -0.248 NA
ATOM     36  C   UNL A   1      39.436  26.583  29.190  1.00  0.00     0.031 C 
ATOM     37  C   UNL A   1      43.076  25.393  25.909  1.00  0.00     0.029 A 
ATOM     38  N   UNL A   1      43.239  27.331  27.006  1.00  0.00    -0.354 N 
ATOM     39  C   UNL A   1      40.151  28.707  29.653  1.00  0.00     0.074 A 
ATOM     40  C   UNL A   1      39.152  27.685  29.872  1.00  0.00     0.031 C 
ATOM     41  C   UNL A   1      44.289  25.899  25.648  1.00  0.00     0.029 A 
ATOM     42  C   UNL A   1      44.416  27.191  26.310  1.00  0.00     0.049 A 
ATOM     43  H   UNL A   1      43.032  28.117  27.562  1.00  0.00     0.167 HD
ATOM     44  C   UNL A   1      40.153  29.915  30.266  1.00  0.00     0.031 A 
ATOM     45  C   UNL A   1      45.474  28.016  26.184  1.00  0.00     0.031 A 
ATOM     46  C   UNL A   1      41.172  30.916  30.092  1.00  0.00     0.049 A 
ATOM     47  C   UNL A   1      45.435  29.364  26.841  1.00  0.00     0.074 A 
ATOM     48  C   UNL A   1      41.247  32.176  30.660  1.00  0.00     0.029 A 
ATOM     49  N   UNL A   1      42.310  30.758  29.317  1.00  0.00    -0.354 N 
ATOM     50  N   UNL A   1      44.522  29.864  27.637  1.00  0.00    -0.248 NA
ATOM     51  C   UNL A   1      46.554  30.273  26.558  1.00  0.00     0.031 C 
ATOM     52  C   UNL A   1      42.414  32.795  30.202  1.00  0.00     0.029 A 
ATOM     53  C   UNL A   1      43.088  31.901  29.387  1.00  0.00     0.049 A 
ATOM     54  H   UNL A   1      42.530  29.954  28.793  1.00  0.00     0.167 HD
ATOM     55  C   UNL A   1      44.957  31.144  27.952  1.00  0.00     0.074 A 
ATOM     56  C   UNL A   1      46.226  31.336  27.282  1.00  0.00     0.031 C 
ATOM     57  C   UNL A   1      44.349  32.079  28.719  1.00  0.00     0.031 A 
BRANCH  44  58
ATOM     58  C   UNL A   1      38.998  30.247  31.170  1.00  0.00    -0.014 A 
ATOM     59  C   UNL A   1      39.053  30.002  32.550  1.00  0.00     0.009 A 
ATOM     60  C   UNL A   1      37.864  30.885  30.638  1.00  0.00     0.009 A 
ATOM     61  C   UNL A   1      37.988  30.371  33.375  1.00  0.00     0.001 A 
ATOM     62  C   UNL A   1      36.814  31.275  31.468  1.00  0.00     0.001 A 
ATOM     63  C   UNL A   1      36.873  31.013  32.836  1.00  0.00     0.000 A 
ENDBRANCH  44  58
BRANCH  45  64
ATOM     64  C   UNL A   1      46.647  27.600  25.369  1.00  0.00    -0.014 A 
ATOM     65  C   UNL A   1      46.730  27.951  24.013  1.00  0.00     0.009 A 
ATOM     66  C   UNL A   1      47.702  26.875  25.947  1.00  0.00     0.009 A 
ATOM     67  C   UNL A   1      47.842  27.581  23.254  1.00  0.00     0.001 A 
ATOM     68  C   UNL A   1      48.826  26.536  25.194  1.00  0.00     0.001 A 
ATOM     69  C   UNL A   1      48.894  26.884  23.847  1.00  0.00     0.000 A 
ENDBRANCH  45  64
BRANCH  57  70
ATOM     70  C   UNL A   1      45.054  33.391  28.900  1.00  0.00    -0.014 A 
ATOM     71  C   UNL A   1      46.001  33.565  29.920  1.00  0.00     0.009 A 
ATOM     72  C   UNL A   1      44.822  34.437  27.994  1.00  0.00     0.009 A 
ATOM     73  C   UNL A   1      46.692  34.772  30.039  1.00  0.00     0.001 A 
ATOM     74  C   UNL A   1      45.530  35.635  28.103  1.00  0.00     0.001 A 
ATOM     75  C   UNL A   1      46.461  35.803  29.127  1.00  0.00     0.000 A 
ENDBRANCH  57  70
ENDBRANCH  31  32
ENDBRANCH  24  26
ENDBRANCH  23  24
ENDBRANCH   1  23
TORSDOF 12
ENDMDL
