MODEL 1
REMARK VINA RESULT:     -10.5      0.000      0.000
REMARK SMILES CC(C)C[C@H](CNC(=O)Nc1ccccc1Br)C(=O)OCCOC(=O)c1ccc(-c2c3nc(c(-c4ccccc4)c4ccc([nH]4)c(-c4ccccc4)c4nc(c(-c5ccccc5)c5ccc2[nH]5)C=C4)C=C3)cc1
REMARK SMILES IDX 21 1 20 2 18 3 19 4 5 5 4 6 2 7 1 8 3 9 6 10 7 11 8 12 9 14
REMARK SMILES IDX 10 15 11 17 12 18 16 19 13 20 15 21 17 22 14 23 22 24 23 25
REMARK SMILES IDX 24 26 25 27 26 28 27 29 73 30 28 31 72 32 29 33 30 34 31 35
REMARK SMILES IDX 66 36 32 37 71 38 65 39 67 40 33 41 70 42 64 43 63 44 34 46
REMARK SMILES IDX 56 47 41 48 55 49 42 50 45 51 54 52 68 53 43 54 44 55 53 57
REMARK SMILES IDX 69 58 46 59 35 60 36 61 40 62 37 63 39 64 38 65 57 66 58 67
REMARK SMILES IDX 62 68 59 69 61 70 60 71 47 72 48 73 52 74 49 75 51 76 50 77
REMARK H PARENT 7 13 10 16 67 45 45 56
REMARK Flexibility Score: inf
ROOT
ATOM      1  C   UNL A   1      32.364  30.487  27.046  1.00  0.00     0.274 C 
ENDROOT
BRANCH   1   2
ATOM      2  O   UNL A   1      32.818  29.160  27.374  1.00  0.00    -0.462 OA
BRANCH   2   3
ATOM      3  C   UNL A   1      31.919  28.155  27.204  1.00  0.00     0.310 C 
ATOM      4  O   UNL A   1      31.056  27.865  28.024  1.00  0.00    -0.252 OA
BRANCH   3   5
ATOM      5  C   UNL A   1      32.106  27.394  25.894  1.00  0.00     0.119 C 
BRANCH   5   6
ATOM      6  C   UNL A   1      30.951  27.663  24.918  1.00  0.00     0.020 C 
BRANCH   6   7
ATOM      7  C   UNL A   1      31.307  28.553  23.699  1.00  0.00    -0.017 C 
ATOM      8  C   UNL A   1      32.776  28.469  23.273  1.00  0.00     0.007 C 
ATOM      9  C   UNL A   1      30.423  28.181  22.506  1.00  0.00     0.007 C 
ENDBRANCH   6   7
ENDBRANCH   5   6
BRANCH   5  10
ATOM     10  C   UNL A   1      32.420  25.912  26.181  1.00  0.00     0.133 C 
BRANCH  10  11
ATOM     11  N   UNL A   1      31.368  25.136  26.817  1.00  0.00    -0.337 N 
ATOM     12  C   UNL A   1      30.528  24.162  26.433  1.00  0.00     0.319 C 
ATOM     13  H   UNL A   1      31.239  25.386  27.761  1.00  0.00     0.165 HD
ATOM     14  O   UNL A   1      29.660  23.817  27.240  1.00  0.00    -0.249 OA
ATOM     15  N   UNL A   1      30.487  23.643  25.194  1.00  0.00    -0.307 N 
ATOM     16  H   UNL A   1      29.618  23.233  24.978  1.00  0.00     0.171 HD
BRANCH  15  17
ATOM     17  C   UNL A   1      31.410  23.558  24.143  1.00  0.00     0.057 A 
ATOM     18  C   UNL A   1      31.337  24.593  23.199  1.00  0.00     0.027 A 
ATOM     19  C   UNL A   1      32.323  22.513  23.935  1.00  0.00     0.041 A 
ATOM     20  C   UNL A   1      32.241  24.658  22.139  1.00  0.00     0.002 A 
ATOM     21  C   UNL A   1      33.236  22.588  22.876  1.00  0.00     0.018 A 
ATOM     22  Br  UNL A   1      32.302  20.897  24.938  1.00  0.00    -0.049 Br
ATOM     23  C   UNL A   1      33.205  23.667  21.991  1.00  0.00     0.001 A 
ENDBRANCH  15  17
ENDBRANCH  10  11
ENDBRANCH   5  10
ENDBRANCH   3   5
ENDBRANCH   2   3
ENDBRANCH   1   2
BRANCH   1  24
ATOM     24  C   UNL A   1      33.340  31.575  27.516  1.00  0.00     0.275 C 
BRANCH  24  25
ATOM     25  O   UNL A   1      32.845  32.904  27.257  1.00  0.00    -0.458 OA
BRANCH  25  26
ATOM     26  C   UNL A   1      33.217  33.839  28.161  1.00  0.00     0.338 C 
ATOM     27  O   UNL A   1      32.566  34.806  28.521  1.00  0.00    -0.246 OA
BRANCH  26  28
ATOM     28  C   UNL A   1      34.493  33.466  28.798  1.00  0.00     0.060 A 
ATOM     29  C   UNL A   1      35.673  33.729  28.094  1.00  0.00     0.016 A 
ATOM     30  C   UNL A   1      34.538  32.797  30.022  1.00  0.00     0.016 A 
ATOM     31  C   UNL A   1      36.902  33.314  28.600  1.00  0.00     0.010 A 
ATOM     32  C   UNL A   1      35.773  32.372  30.526  1.00  0.00     0.010 A 
ATOM     33  C   UNL A   1      36.959  32.612  29.809  1.00  0.00    -0.014 A 
BRANCH  33  34
ATOM     34  C   UNL A   1      38.256  32.065  30.269  1.00  0.00     0.031 A 
ATOM     35  C   UNL A   1      38.750  30.756  29.722  1.00  0.00     0.074 A 
ATOM     36  C   UNL A   1      39.015  32.761  31.134  1.00  0.00     0.049 A 
ATOM     37  N   UNL A   1      39.852  30.108  29.997  1.00  0.00    -0.248 NA
ATOM     38  C   UNL A   1      37.893  30.096  28.725  1.00  0.00     0.031 C 
ATOM     39  C   UNL A   1      38.681  34.074  31.687  1.00  0.00     0.029 A 
ATOM     40  N   UNL A   1      40.231  32.459  31.694  1.00  0.00    -0.354 N 
ATOM     41  C   UNL A   1      39.820  28.961  29.215  1.00  0.00     0.074 A 
ATOM     42  C   UNL A   1      38.583  28.995  28.464  1.00  0.00     0.031 C 
ATOM     43  C   UNL A   1      39.670  34.465  32.508  1.00  0.00     0.029 A 
ATOM     44  C   UNL A   1      40.684  33.415  32.568  1.00  0.00     0.049 A 
ATOM     45  H   UNL A   1      40.728  31.634  31.489  1.00  0.00     0.167 HD
ATOM     46  C   UNL A   1      40.736  27.967  29.131  1.00  0.00     0.031 A 
ATOM     47  C   UNL A   1      41.781  33.432  33.346  1.00  0.00     0.031 A 
ATOM     48  C   UNL A   1      41.951  27.913  29.898  1.00  0.00     0.049 A 
ATOM     49  C   UNL A   1      42.731  32.268  33.313  1.00  0.00     0.074 A 
ATOM     50  C   UNL A   1      42.937  26.940  29.888  1.00  0.00     0.029 A 
ATOM     51  N   UNL A   1      42.340  28.867  30.825  1.00  0.00    -0.354 N 
ATOM     52  N   UNL A   1      42.690  31.191  32.567  1.00  0.00    -0.248 NA
ATOM     53  C   UNL A   1      43.876  32.322  34.234  1.00  0.00     0.031 C 
ATOM     54  C   UNL A   1      43.897  27.282  30.847  1.00  0.00     0.029 A 
ATOM     55  C   UNL A   1      43.535  28.493  31.415  1.00  0.00     0.049 A 
ATOM     56  H   UNL A   1      41.841  29.690  31.032  1.00  0.00     0.167 HD
ATOM     57  C   UNL A   1      43.813  30.449  32.912  1.00  0.00     0.074 A 
ATOM     58  C   UNL A   1      44.521  31.205  33.925  1.00  0.00     0.031 C 
ATOM     59  C   UNL A   1      44.223  29.251  32.428  1.00  0.00     0.031 A 
BRANCH  46  60
ATOM     60  C   UNL A   1      40.421  26.826  28.206  1.00  0.00    -0.014 A 
ATOM     61  C   UNL A   1      39.660  25.728  28.636  1.00  0.00     0.009 A 
ATOM     62  C   UNL A   1      40.887  26.855  26.883  1.00  0.00     0.009 A 
ATOM     63  C   UNL A   1      39.401  24.666  27.767  1.00  0.00     0.001 A 
ATOM     64  C   UNL A   1      40.609  25.803  26.010  1.00  0.00     0.001 A 
ATOM     65  C   UNL A   1      39.874  24.705  26.455  1.00  0.00     0.000 A 
ENDBRANCH  46  60
BRANCH  47  66
ATOM     66  C   UNL A   1      42.028  34.585  34.250  1.00  0.00    -0.014 A 
ATOM     67  C   UNL A   1      42.747  35.703  33.803  1.00  0.00     0.009 A 
ATOM     68  C   UNL A   1      41.542  34.569  35.567  1.00  0.00     0.009 A 
ATOM     69  C   UNL A   1      42.988  36.776  34.664  1.00  0.00     0.001 A 
ATOM     70  C   UNL A   1      41.763  35.656  36.416  1.00  0.00     0.001 A 
ATOM     71  C   UNL A   1      42.491  36.754  35.966  1.00  0.00     0.000 A 
ENDBRANCH  47  66
BRANCH  59  72
ATOM     72  C   UNL A   1      45.509  28.696  32.971  1.00  0.00    -0.014 A 
ATOM     73  C   UNL A   1      45.520  27.840  34.082  1.00  0.00     0.009 A 
ATOM     74  C   UNL A   1      46.722  29.009  32.338  1.00  0.00     0.009 A 
ATOM     75  C   UNL A   1      46.727  27.330  34.567  1.00  0.00     0.001 A 
ATOM     76  C   UNL A   1      47.924  28.478  32.809  1.00  0.00     0.001 A 
ATOM     77  C   UNL A   1      47.926  27.645  33.928  1.00  0.00     0.000 A 
ENDBRANCH  59  72
ENDBRANCH  33  34
ENDBRANCH  26  28
ENDBRANCH  25  26
ENDBRANCH  24  25
ENDBRANCH   1  24
TORSDOF 16
ENDMDL
MODEL 2
REMARK VINA RESULT:     -10.5      2.083      3.284
REMARK SMILES CC(C)C[C@H](CNC(=O)Nc1ccccc1Br)C(=O)OCCOC(=O)c1ccc(-c2c3nc(c(-c4ccccc4)c4ccc([nH]4)c(-c4ccccc4)c4nc(c(-c5ccccc5)c5ccc2[nH]5)C=C4)C=C3)cc1
REMARK SMILES IDX 21 1 20 2 18 3 19 4 5 5 4 6 2 7 1 8 3 9 6 10 7 11 8 12 9 14
REMARK SMILES IDX 10 15 11 17 12 18 16 19 13 20 15 21 17 22 14 23 22 24 23 25
REMARK SMILES IDX 24 26 25 27 26 28 27 29 73 30 28 31 72 32 29 33 30 34 31 35
REMARK SMILES IDX 66 36 32 37 71 38 65 39 67 40 33 41 70 42 64 43 63 44 34 46
REMARK SMILES IDX 56 47 41 48 55 49 42 50 45 51 54 52 68 53 43 54 44 55 53 57
REMARK SMILES IDX 69 58 46 59 35 60 36 61 40 62 37 63 39 64 38 65 57 66 58 67
REMARK SMILES IDX 62 68 59 69 61 70 60 71 47 72 48 73 52 74 49 75 51 76 50 77
REMARK H PARENT 7 13 10 16 67 45 45 56
REMARK Flexibility Score: inf
ROOT
ATOM      1  C   UNL A   1      33.339  27.828  26.386  1.00  0.00     0.274 C 
ENDROOT
BRANCH   1   2
ATOM      2  O   UNL A   1      32.647  27.240  25.266  1.00  0.00    -0.462 OA
BRANCH   2   3
ATOM      3  C   UNL A   1      31.411  26.734  25.518  1.00  0.00     0.310 C 
ATOM      4  O   UNL A   1      30.872  26.763  26.618  1.00  0.00    -0.252 OA
BRANCH   3   5
ATOM      5  C   UNL A   1      30.763  26.091  24.295  1.00  0.00     0.119 C 
BRANCH   5   6
ATOM      6  C   UNL A   1      29.442  26.784  23.930  1.00  0.00     0.020 C 
BRANCH   6   7
ATOM      7  C   UNL A   1      29.573  28.256  23.461  1.00  0.00    -0.017 C 
ATOM      8  C   UNL A   1      30.636  28.475  22.378  1.00  0.00     0.007 C 
ATOM      9  C   UNL A   1      28.225  28.761  22.940  1.00  0.00     0.007 C 
ENDBRANCH   6   7
ENDBRANCH   5   6
BRANCH   5  10
ATOM     10  C   UNL A   1      30.700  24.560  24.469  1.00  0.00     0.133 C 
BRANCH  10  11
ATOM     11  N   UNL A   1      30.226  24.072  25.755  1.00  0.00    -0.337 N 
ATOM     12  C   UNL A   1      30.687  23.223  26.687  1.00  0.00     0.319 C 
ATOM     13  H   UNL A   1      29.354  24.457  26.002  1.00  0.00     0.165 HD
ATOM     14  O   UNL A   1      29.932  22.953  27.625  1.00  0.00    -0.249 OA
ATOM     15  N   UNL A   1      31.848  22.554  26.594  1.00  0.00    -0.307 N 
ATOM     16  H   UNL A   1      31.864  21.734  27.140  1.00  0.00     0.171 HD
BRANCH  15  17
ATOM     17  C   UNL A   1      33.041  22.766  25.888  1.00  0.00     0.057 A 
ATOM     18  C   UNL A   1      33.741  23.931  26.233  1.00  0.00     0.027 A 
ATOM     19  C   UNL A   1      33.533  21.961  24.849  1.00  0.00     0.041 A 
ATOM     20  C   UNL A   1      34.973  24.223  25.649  1.00  0.00     0.002 A 
ATOM     21  C   UNL A   1      34.776  22.253  24.272  1.00  0.00     0.018 A 
ATOM     22  Br  UNL A   1      32.529  20.553  24.058  1.00  0.00    -0.049 Br
ATOM     23  C   UNL A   1      35.500  23.372  24.685  1.00  0.00     0.001 A 
ENDBRANCH  15  17
ENDBRANCH  10  11
ENDBRANCH   5  10
ENDBRANCH   3   5
ENDBRANCH   2   3
ENDBRANCH   1   2
BRANCH   1  24
ATOM     24  C   UNL A   1      33.356  29.361  26.326  1.00  0.00     0.275 C 
BRANCH  24  25
ATOM     25  O   UNL A   1      33.490  29.959  27.631  1.00  0.00    -0.458 OA
BRANCH  25  26
ATOM     26  C   UNL A   1      34.472  30.884  27.739  1.00  0.00     0.338 C 
ATOM     27  O   UNL A   1      34.342  32.096  27.687  1.00  0.00    -0.246 OA
BRANCH  26  28
ATOM     28  C   UNL A   1      35.753  30.242  28.084  1.00  0.00     0.060 A 
ATOM     29  C   UNL A   1      35.886  29.703  29.368  1.00  0.00     0.016 A 
ATOM     30  C   UNL A   1      36.836  30.236  27.203  1.00  0.00     0.016 A 
ATOM     31  C   UNL A   1      37.102  29.169  29.786  1.00  0.00     0.010 A 
ATOM     32  C   UNL A   1      38.061  29.707  27.627  1.00  0.00     0.010 A 
ATOM     33  C   UNL A   1      38.205  29.188  28.926  1.00  0.00    -0.014 A 
BRANCH  33  34
ATOM     34  C   UNL A   1      39.523  28.736  29.428  1.00  0.00     0.031 A 
ATOM     35  C   UNL A   1      40.088  27.423  28.965  1.00  0.00     0.074 A 
ATOM     36  C   UNL A   1      40.237  29.521  30.254  1.00  0.00     0.049 A 
ATOM     37  N   UNL A   1      41.218  26.850  29.286  1.00  0.00    -0.248 NA
ATOM     38  C   UNL A   1      39.276  26.662  28.004  1.00  0.00     0.031 C 
ATOM     39  C   UNL A   1      39.832  30.846  30.724  1.00  0.00     0.029 A 
ATOM     40  N   UNL A   1      41.461  29.315  30.841  1.00  0.00    -0.354 N 
ATOM     41  C   UNL A   1      41.252  25.658  28.575  1.00  0.00     0.074 A 
ATOM     42  C   UNL A   1      40.023  25.584  27.815  1.00  0.00     0.031 C 
ATOM     43  C   UNL A   1      40.792  31.335  31.527  1.00  0.00     0.029 A 
ATOM     44  C   UNL A   1      41.857  30.343  31.658  1.00  0.00     0.049 A 
ATOM     45  H   UNL A   1      42.002  28.505  30.690  1.00  0.00     0.167 HD
ATOM     46  C   UNL A   1      42.218  24.708  28.558  1.00  0.00     0.031 A 
ATOM     47  C   UNL A   1      42.944  30.463  32.442  1.00  0.00     0.031 A 
ATOM     48  C   UNL A   1      43.426  24.763  29.335  1.00  0.00     0.049 A 
ATOM     49  C   UNL A   1      43.951  29.349  32.486  1.00  0.00     0.074 A 
ATOM     50  C   UNL A   1      44.459  23.842  29.392  1.00  0.00     0.029 A 
ATOM     51  N   UNL A   1      43.757  25.789  30.206  1.00  0.00    -0.354 N 
ATOM     52  N   UNL A   1      43.972  28.228  31.806  1.00  0.00    -0.248 NA
ATOM     53  C   UNL A   1      45.082  29.516  33.410  1.00  0.00     0.031 C 
ATOM     54  C   UNL A   1      45.391  24.289  30.335  1.00  0.00     0.029 A 
ATOM     55  C   UNL A   1      44.963  25.512  30.826  1.00  0.00     0.049 A 
ATOM     56  H   UNL A   1      43.215  26.596  30.359  1.00  0.00     0.167 HD
ATOM     57  C   UNL A   1      45.127  27.566  32.203  1.00  0.00     0.074 A 
ATOM     58  C   UNL A   1      45.786  28.417  33.174  1.00  0.00     0.031 C 
ATOM     59  C   UNL A   1      45.602  26.364  31.796  1.00  0.00     0.031 A 
BRANCH  46  60
ATOM     60  C   UNL A   1      41.970  23.499  27.702  1.00  0.00    -0.014 A 
ATOM     61  C   UNL A   1      42.516  23.394  26.413  1.00  0.00     0.009 A 
ATOM     62  C   UNL A   1      41.183  22.448  28.196  1.00  0.00     0.009 A 
ATOM     63  C   UNL A   1      42.250  22.272  25.624  1.00  0.00     0.001 A 
ATOM     64  C   UNL A   1      40.937  21.319  27.414  1.00  0.00     0.001 A 
ATOM     65  C   UNL A   1      41.462  21.236  26.126  1.00  0.00     0.000 A 
ENDBRANCH  46  60
BRANCH  47  66
ATOM     66  C   UNL A   1      43.123  31.679  33.276  1.00  0.00    -0.014 A 
ATOM     67  C   UNL A   1      43.830  32.786  32.784  1.00  0.00     0.009 A 
ATOM     68  C   UNL A   1      42.585  31.735  34.571  1.00  0.00     0.009 A 
ATOM     69  C   UNL A   1      44.007  33.920  33.580  1.00  0.00     0.001 A 
ATOM     70  C   UNL A   1      42.742  32.881  35.354  1.00  0.00     0.001 A 
ATOM     71  C   UNL A   1      43.459  33.969  34.861  1.00  0.00     0.000 A 
ENDBRANCH  47  66
BRANCH  59  72
ATOM     72  C   UNL A   1      46.908  25.908  32.381  1.00  0.00    -0.014 A 
ATOM     73  C   UNL A   1      46.955  25.181  33.580  1.00  0.00     0.009 A 
ATOM     74  C   UNL A   1      48.106  26.183  31.702  1.00  0.00     0.009 A 
ATOM     75  C   UNL A   1      48.180  24.761  34.103  1.00  0.00     0.001 A 
ATOM     76  C   UNL A   1      49.327  25.740  32.215  1.00  0.00     0.001 A 
ATOM     77  C   UNL A   1      49.363  25.037  33.418  1.00  0.00     0.000 A 
ENDBRANCH  59  72
ENDBRANCH  33  34
ENDBRANCH  26  28
ENDBRANCH  25  26
ENDBRANCH  24  25
ENDBRANCH   1  24
TORSDOF 16
ENDMDL
MODEL 3
REMARK VINA RESULT:     -10.5      2.552      7.079
REMARK SMILES CC(C)C[C@H](CNC(=O)Nc1ccccc1Br)C(=O)OCCOC(=O)c1ccc(-c2c3nc(c(-c4ccccc4)c4ccc([nH]4)c(-c4ccccc4)c4nc(c(-c5ccccc5)c5ccc2[nH]5)C=C4)C=C3)cc1
REMARK SMILES IDX 21 1 20 2 18 3 19 4 5 5 4 6 2 7 1 8 3 9 6 10 7 11 8 12 9 14
REMARK SMILES IDX 10 15 11 17 12 18 16 19 13 20 15 21 17 22 14 23 22 24 23 25
REMARK SMILES IDX 24 26 25 27 26 28 27 29 73 30 28 31 72 32 29 33 30 34 31 35
REMARK SMILES IDX 66 36 32 37 71 38 65 39 67 40 33 41 70 42 64 43 63 44 34 46
REMARK SMILES IDX 56 47 41 48 55 49 42 50 45 51 54 52 68 53 43 54 44 55 53 57
REMARK SMILES IDX 69 58 46 59 35 60 36 61 40 62 37 63 39 64 38 65 57 66 58 67
REMARK SMILES IDX 62 68 59 69 61 70 60 71 47 72 48 73 52 74 49 75 51 76 50 77
REMARK H PARENT 7 13 10 16 67 45 45 56
REMARK Flexibility Score: inf
ROOT
ATOM      1  C   UNL A   1      35.932  22.077  24.267  1.00  0.00     0.274 C 
ENDROOT
BRANCH   1   2
ATOM      2  O   UNL A   1      34.616  22.631  24.465  1.00  0.00    -0.462 OA
BRANCH   2   3
ATOM      3  C   UNL A   1      34.184  23.512  23.526  1.00  0.00     0.310 C 
ATOM      4  O   UNL A   1      34.397  23.390  22.325  1.00  0.00    -0.252 OA
BRANCH   3   5
ATOM      5  C   UNL A   1      33.427  24.699  24.117  1.00  0.00     0.119 C 
BRANCH   5   6
ATOM      6  C   UNL A   1      33.998  26.034  23.619  1.00  0.00     0.020 C 
BRANCH   6   7
ATOM      7  C   UNL A   1      33.555  26.456  22.195  1.00  0.00    -0.017 C 
ATOM      8  C   UNL A   1      32.115  26.062  21.847  1.00  0.00     0.007 C 
ATOM      9  C   UNL A   1      33.708  27.970  22.026  1.00  0.00     0.007 C 
ENDBRANCH   6   7
ENDBRANCH   5   6
BRANCH   5  10
ATOM     10  C   UNL A   1      33.303  24.542  25.646  1.00  0.00     0.133 C 
BRANCH  10  11
ATOM     11  N   UNL A   1      32.107  23.875  26.136  1.00  0.00    -0.337 N 
ATOM     12  C   UNL A   1      30.913  24.270  26.604  1.00  0.00     0.319 C 
ATOM     13  H   UNL A   1      32.195  22.894  26.122  1.00  0.00     0.165 HD
ATOM     14  O   UNL A   1      30.167  23.395  27.054  1.00  0.00    -0.249 OA
ATOM     15  N   UNL A   1      30.538  25.553  26.736  1.00  0.00    -0.307 N 
ATOM     16  H   UNL A   1      29.827  25.679  27.407  1.00  0.00     0.171 HD
BRANCH  15  17
ATOM     17  C   UNL A   1      30.938  26.752  26.131  1.00  0.00     0.057 A 
ATOM     18  C   UNL A   1      31.822  27.538  26.886  1.00  0.00     0.027 A 
ATOM     19  C   UNL A   1      30.482  27.241  24.897  1.00  0.00     0.041 A 
ATOM     20  C   UNL A   1      32.344  28.723  26.370  1.00  0.00     0.002 A 
ATOM     21  C   UNL A   1      31.017  28.426  24.377  1.00  0.00     0.018 A 
ATOM     22  Br  UNL A   1      29.045  26.452  23.933  1.00  0.00    -0.049 Br
ATOM     23  C   UNL A   1      31.957  29.155  25.105  1.00  0.00     0.001 A 
ENDBRANCH  15  17
ENDBRANCH  10  11
ENDBRANCH   5  10
ENDBRANCH   3   5
ENDBRANCH   2   3
ENDBRANCH   1   2
BRANCH   1  24
ATOM     24  C   UNL A   1      37.045  23.107  24.497  1.00  0.00     0.275 C 
BRANCH  24  25
ATOM     25  O   UNL A   1      37.379  23.250  25.892  1.00  0.00    -0.458 OA
BRANCH  25  26
ATOM     26  C   UNL A   1      38.681  23.032  26.194  1.00  0.00     0.338 C 
ATOM     27  O   UNL A   1      39.343  22.049  25.903  1.00  0.00    -0.246 OA
BRANCH  26  28
ATOM     28  C   UNL A   1      39.277  24.228  26.815  1.00  0.00     0.060 A 
ATOM     29  C   UNL A   1      38.988  24.474  28.162  1.00  0.00     0.016 A 
ATOM     30  C   UNL A   1      40.036  25.140  26.080  1.00  0.00     0.016 A 
ATOM     31  C   UNL A   1      39.442  25.637  28.778  1.00  0.00     0.010 A 
ATOM     32  C   UNL A   1      40.485  26.313  26.698  1.00  0.00     0.010 A 
ATOM     33  C   UNL A   1      40.175  26.576  28.044  1.00  0.00    -0.014 A 
BRANCH  33  34
ATOM     34  C   UNL A   1      40.540  27.865  28.676  1.00  0.00     0.031 A 
ATOM     35  C   UNL A   1      41.944  28.087  29.162  1.00  0.00     0.074 A 
ATOM     36  C   UNL A   1      39.633  28.854  28.768  1.00  0.00     0.049 A 
ATOM     37  N   UNL A   1      42.462  29.138  29.743  1.00  0.00    -0.248 NA
ATOM     38  C   UNL A   1      42.892  26.981  28.956  1.00  0.00     0.031 C 
ATOM     39  C   UNL A   1      38.257  28.789  28.274  1.00  0.00     0.029 A 
ATOM     40  N   UNL A   1      39.739  30.112  29.306  1.00  0.00    -0.354 N 
ATOM     41  C   UNL A   1      43.793  28.821  29.978  1.00  0.00     0.074 A 
ATOM     42  C   UNL A   1      44.000  27.474  29.491  1.00  0.00     0.031 C 
ATOM     43  C   UNL A   1      37.647  29.958  28.532  1.00  0.00     0.029 A 
ATOM     44  C   UNL A   1      38.575  30.834  29.243  1.00  0.00     0.049 A 
ATOM     45  H   UNL A   1      40.571  30.460  29.702  1.00  0.00     0.167 HD
ATOM     46  C   UNL A   1      44.756  29.581  30.553  1.00  0.00     0.031 A 
ATOM     47  C   UNL A   1      38.281  32.057  29.723  1.00  0.00     0.031 A 
ATOM     48  C   UNL A   1      44.547  30.907  31.068  1.00  0.00     0.049 A 
ATOM     49  C   UNL A   1      39.339  32.839  30.450  1.00  0.00     0.074 A 
ATOM     50  C   UNL A   1      45.460  31.751  31.677  1.00  0.00     0.029 A 
ATOM     51  N   UNL A   1      43.334  31.578  31.047  1.00  0.00    -0.354 N 
ATOM     52  N   UNL A   1      40.594  32.529  30.664  1.00  0.00    -0.248 NA
ATOM     53  C   UNL A   1      38.935  34.139  31.004  1.00  0.00     0.031 C 
ATOM     54  C   UNL A   1      44.786  32.914  32.070  1.00  0.00     0.029 A 
ATOM     55  C   UNL A   1      43.466  32.813  31.659  1.00  0.00     0.049 A 
ATOM     56  H   UNL A   1      42.502  31.227  30.655  1.00  0.00     0.167 HD
ATOM     57  C   UNL A   1      41.137  33.603  31.359  1.00  0.00     0.074 A 
ATOM     58  C   UNL A   1      40.077  34.578  31.519  1.00  0.00     0.031 C 
ATOM     59  C   UNL A   1      42.401  33.768  31.818  1.00  0.00     0.031 A 
BRANCH  46  60
ATOM     60  C   UNL A   1      46.116  28.961  30.700  1.00  0.00    -0.014 A 
ATOM     61  C   UNL A   1      47.114  29.154  29.732  1.00  0.00     0.009 A 
ATOM     62  C   UNL A   1      46.403  28.177  31.828  1.00  0.00     0.009 A 
ATOM     63  C   UNL A   1      48.363  28.545  29.877  1.00  0.00     0.001 A 
ATOM     64  C   UNL A   1      47.659  27.589  31.980  1.00  0.00     0.001 A 
ATOM     65  C   UNL A   1      48.635  27.765  31.000  1.00  0.00     0.000 A 
ENDBRANCH  46  60
BRANCH  47  66
ATOM     66  C   UNL A   1      36.912  32.607  29.557  1.00  0.00    -0.014 A 
ATOM     67  C   UNL A   1      36.573  33.351  28.416  1.00  0.00     0.009 A 
ATOM     68  C   UNL A   1      35.936  32.390  30.543  1.00  0.00     0.009 A 
ATOM     69  C   UNL A   1      35.288  33.877  28.275  1.00  0.00     0.001 A 
ATOM     70  C   UNL A   1      34.645  32.897  30.385  1.00  0.00     0.001 A 
ATOM     71  C   UNL A   1      34.324  33.646  29.255  1.00  0.00     0.000 A 
ENDBRANCH  47  66
BRANCH  59  72
ATOM     72  C   UNL A   1      42.713  35.062  32.516  1.00  0.00    -0.014 A 
ATOM     73  C   UNL A   1      42.353  35.271  33.855  1.00  0.00     0.009 A 
ATOM     74  C   UNL A   1      43.409  36.069  31.830  1.00  0.00     0.009 A 
ATOM     75  C   UNL A   1      42.660  36.479  34.487  1.00  0.00     0.001 A 
ATOM     76  C   UNL A   1      43.736  37.265  32.471  1.00  0.00     0.001 A 
ATOM     77  C   UNL A   1      43.354  37.472  33.796  1.00  0.00     0.000 A 
ENDBRANCH  59  72
ENDBRANCH  33  34
ENDBRANCH  26  28
ENDBRANCH  25  26
ENDBRANCH  24  25
ENDBRANCH   1  24
TORSDOF 16
ENDMDL
