MODEL 1
REMARK VINA RESULT:      -9.9      0.000      0.000
REMARK SMILES Cc1c(Cl)ccc2c1C=C(C(=O)OCCOC(=O)c1ccc(-c3c4nc(c(-c5ccccc5)c5ccc([nH]5)c(-c5ccccc5)c5nc(c(-c6ccccc6)c6ccc3[nH]6)C=C5)C=C4)cc1)[C@@H](C(F)(F)F)O2
REMARK SMILES IDX 15 1 14 2 13 3 11 4 12 5 10 6 1 7 2 8 3 9 8 10 4 11 5 12
REMARK SMILES IDX 7 13 9 14 6 15 72 16 67 17 68 18 69 19 70 20 71 21 16 22
REMARK SMILES IDX 17 23 18 24 19 25 20 26 66 27 21 28 65 29 22 30 23 31 24 32
REMARK SMILES IDX 59 33 25 34 64 35 58 36 60 37 26 38 63 39 57 40 56 41 27 43
REMARK SMILES IDX 49 44 34 45 48 46 35 47 38 48 47 49 61 50 36 51 37 52 46 54
REMARK SMILES IDX 62 55 39 56 28 57 29 58 33 59 30 60 32 61 31 62 50 63 51 64
REMARK SMILES IDX 55 65 52 66 54 67 53 68 40 69 41 70 45 71 42 72 44 73 43 74
REMARK H PARENT 60 42 38 53
REMARK Flexibility Score: inf
ROOT
ATOM      1  C   UNL A   1      41.038  19.880  26.161  1.00  0.00     0.275 C 
ENDROOT
BRANCH   1   2
ATOM      2  C   UNL A   1      42.405  19.962  26.836  1.00  0.00     0.275 C 
BRANCH   2   3
ATOM      3  O   UNL A   1      43.403  20.474  25.929  1.00  0.00    -0.459 OA
BRANCH   3   4
ATOM      4  C   UNL A   1      43.328  21.802  25.675  1.00  0.00     0.338 C 
ATOM      5  O   UNL A   1      42.461  22.377  25.043  1.00  0.00    -0.246 OA
BRANCH   4   6
ATOM      6  C   UNL A   1      44.462  22.506  26.306  1.00  0.00     0.087 C 
ATOM      7  C   UNL A   1      43.773  24.752  29.958  1.00  0.00     0.047 C 
ATOM      8  C   UNL A   1      45.088  24.753  29.214  1.00  0.00    -0.021 A 
ATOM      9  C   UNL A   1      46.181  25.492  29.713  1.00  0.00     0.044 A 
ATOM     10  C   UNL A   1      45.285  23.969  28.046  1.00  0.00     0.022 A 
ATOM     11  Cl  UNL A   1      46.078  26.432  31.162  1.00  0.00    -0.084 Cl
ATOM     12  C   UNL A   1      47.413  25.488  29.057  1.00  0.00     0.024 A 
ATOM     13  C   UNL A   1      46.536  23.963  27.407  1.00  0.00     0.128 A 
ATOM     14  C   UNL A   1      44.228  23.154  27.453  1.00  0.00     0.027 C 
ATOM     15  C   UNL A   1      47.590  24.723  27.908  1.00  0.00     0.048 A 
ATOM     16  O   UNL A   1      46.838  23.222  26.298  1.00  0.00    -0.475 OA
ATOM     17  C   UNL A   1      45.772  22.551  25.582  1.00  0.00     0.316 C 
BRANCH  17  18
ATOM     18  C   UNL A   1      45.628  23.185  24.188  1.00  0.00     0.430 C 
ATOM     19  F   UNL A   1      44.804  24.260  24.218  1.00  0.00    -0.167 F 
ATOM     20  F   UNL A   1      46.819  23.626  23.716  1.00  0.00    -0.167 F 
ATOM     21  F   UNL A   1      45.130  22.315  23.281  1.00  0.00    -0.167 F 
ENDBRANCH  17  18
ENDBRANCH   4   6
ENDBRANCH   3   4
ENDBRANCH   2   3
ENDBRANCH   1   2
BRANCH   1  22
ATOM     22  O   UNL A   1      40.045  20.553  26.958  1.00  0.00    -0.458 OA
BRANCH  22  23
ATOM     23  C   UNL A   1      39.311  21.482  26.309  1.00  0.00     0.338 C 
ATOM     24  O   UNL A   1      38.494  21.294  25.420  1.00  0.00    -0.246 OA
BRANCH  23  25
ATOM     25  C   UNL A   1      39.596  22.823  26.841  1.00  0.00     0.060 A 
ATOM     26  C   UNL A   1      39.062  23.947  26.217  1.00  0.00     0.016 A 
ATOM     27  C   UNL A   1      40.535  22.970  27.861  1.00  0.00     0.016 A 
ATOM     28  C   UNL A   1      39.566  25.212  26.513  1.00  0.00     0.010 A 
ATOM     29  C   UNL A   1      40.954  24.251  28.238  1.00  0.00     0.010 A 
ATOM     30  C   UNL A   1      40.518  25.384  27.530  1.00  0.00    -0.014 A 
BRANCH  30  31
ATOM     31  C   UNL A   1      41.090  26.730  27.818  1.00  0.00     0.031 A 
ATOM     32  C   UNL A   1      42.442  27.115  27.269  1.00  0.00     0.074 A 
ATOM     33  C   UNL A   1      40.399  27.628  28.550  1.00  0.00     0.049 A 
ATOM     34  N   UNL A   1      43.181  28.158  27.553  1.00  0.00    -0.248 NA
ATOM     35  C   UNL A   1      43.047  26.211  26.276  1.00  0.00     0.031 C 
ATOM     36  C   UNL A   1      39.054  27.429  29.094  1.00  0.00     0.029 A 
ATOM     37  N   UNL A   1      40.729  28.901  28.946  1.00  0.00    -0.354 N 
ATOM     38  C   UNL A   1      44.354  28.006  26.824  1.00  0.00     0.074 A 
ATOM     39  C   UNL A   1      44.234  26.772  26.080  1.00  0.00     0.031 C 
ATOM     40  C   UNL A   1      38.653  28.556  29.699  1.00  0.00     0.029 A 
ATOM     41  C   UNL A   1      39.745  29.522  29.677  1.00  0.00     0.049 A 
ATOM     42  H   UNL A   1      41.589  29.327  28.729  1.00  0.00     0.167 HD
ATOM     43  C   UNL A   1      45.434  28.820  26.780  1.00  0.00     0.031 A 
ATOM     44  C   UNL A   1      39.726  30.716  30.299  1.00  0.00     0.031 A 
ATOM     45  C   UNL A   1      45.535  30.075  27.473  1.00  0.00     0.049 A 
ATOM     46  C   UNL A   1      40.952  31.579  30.278  1.00  0.00     0.074 A 
ATOM     47  C   UNL A   1      46.595  30.966  27.484  1.00  0.00     0.029 A 
ATOM     48  N   UNL A   1      44.534  30.631  28.251  1.00  0.00    -0.354 N 
ATOM     49  N   UNL A   1      42.089  31.374  29.662  1.00  0.00    -0.248 NA
ATOM     50  C   UNL A   1      40.905  32.823  31.062  1.00  0.00     0.031 C 
ATOM     51  C   UNL A   1      46.247  32.048  28.297  1.00  0.00     0.029 A 
ATOM     52  C   UNL A   1      44.955  31.848  28.756  1.00  0.00     0.049 A 
ATOM     53  H   UNL A   1      43.655  30.221  28.421  1.00  0.00     0.167 HD
ATOM     54  C   UNL A   1      42.892  32.460  29.979  1.00  0.00     0.074 A 
ATOM     55  C   UNL A   1      42.108  33.331  30.831  1.00  0.00     0.031 C 
ATOM     56  C   UNL A   1      44.169  32.705  29.602  1.00  0.00     0.031 A 
BRANCH  43  57
ATOM     57  C   UNL A   1      46.621  28.382  25.971  1.00  0.00    -0.014 A 
ATOM     58  C   UNL A   1      47.844  28.072  26.582  1.00  0.00     0.009 A 
ATOM     59  C   UNL A   1      46.475  28.173  24.590  1.00  0.00     0.009 A 
ATOM     60  C   UNL A   1      48.901  27.565  25.822  1.00  0.00     0.001 A 
ATOM     61  C   UNL A   1      47.526  27.646  23.838  1.00  0.00     0.001 A 
ATOM     62  C   UNL A   1      48.738  27.343  24.454  1.00  0.00     0.000 A 
ENDBRANCH  43  57
BRANCH  44  63
ATOM     63  C   UNL A   1      38.504  31.136  31.031  1.00  0.00    -0.014 A 
ATOM     64  C   UNL A   1      37.447  31.757  30.351  1.00  0.00     0.009 A 
ATOM     65  C   UNL A   1      38.365  30.862  32.401  1.00  0.00     0.009 A 
ATOM     66  C   UNL A   1      36.272  32.090  31.028  1.00  0.00     0.001 A 
ATOM     67  C   UNL A   1      37.179  31.173  33.069  1.00  0.00     0.001 A 
ATOM     68  C   UNL A   1      36.134  31.789  32.383  1.00  0.00     0.000 A 
ENDBRANCH  44  63
BRANCH  56  69
ATOM     69  C   UNL A   1      44.811  33.970  30.084  1.00  0.00    -0.014 A 
ATOM     70  C   UNL A   1      45.552  33.988  31.275  1.00  0.00     0.009 A 
ATOM     71  C   UNL A   1      44.769  35.123  29.285  1.00  0.00     0.009 A 
ATOM     72  C   UNL A   1      46.237  35.142  31.658  1.00  0.00     0.001 A 
ATOM     73  C   UNL A   1      45.469  36.269  29.661  1.00  0.00     0.001 A 
ATOM     74  C   UNL A   1      46.200  36.278  30.848  1.00  0.00     0.000 A 
ENDBRANCH  56  69
ENDBRANCH  30  31
ENDBRANCH  23  25
ENDBRANCH  22  23
ENDBRANCH   1  22
TORSDOF 12
ENDMDL
MODEL 2
REMARK VINA RESULT:      -9.7      0.706      6.069
REMARK SMILES Cc1c(Cl)ccc2c1C=C(C(=O)OCCOC(=O)c1ccc(-c3c4nc(c(-c5ccccc5)c5ccc([nH]5)c(-c5ccccc5)c5nc(c(-c6ccccc6)c6ccc3[nH]6)C=C5)C=C4)cc1)[C@@H](C(F)(F)F)O2
REMARK SMILES IDX 15 1 14 2 13 3 11 4 12 5 10 6 1 7 2 8 3 9 8 10 4 11 5 12
REMARK SMILES IDX 7 13 9 14 6 15 72 16 67 17 68 18 69 19 70 20 71 21 16 22
REMARK SMILES IDX 17 23 18 24 19 25 20 26 66 27 21 28 65 29 22 30 23 31 24 32
REMARK SMILES IDX 59 33 25 34 64 35 58 36 60 37 26 38 63 39 57 40 56 41 27 43
REMARK SMILES IDX 49 44 34 45 48 46 35 47 38 48 47 49 61 50 36 51 37 52 46 54
REMARK SMILES IDX 62 55 39 56 28 57 29 58 33 59 30 60 32 61 31 62 50 63 51 64
REMARK SMILES IDX 55 65 52 66 54 67 53 68 40 69 41 70 45 71 42 72 44 73 43 74
REMARK H PARENT 60 42 38 53
REMARK Flexibility Score: inf
ROOT
ATOM      1  C   UNL A   1      40.235  19.625  25.846  1.00  0.00     0.275 C 
ENDROOT
BRANCH   1   2
ATOM      2  C   UNL A   1      41.702  19.568  26.268  1.00  0.00     0.275 C 
BRANCH   2   3
ATOM      3  O   UNL A   1      42.370  20.818  25.993  1.00  0.00    -0.459 OA
BRANCH   3   4
ATOM      4  C   UNL A   1      43.623  20.706  25.491  1.00  0.00     0.338 C 
ATOM      5  O   UNL A   1      43.996  19.936  24.626  1.00  0.00    -0.246 OA
BRANCH   4   6
ATOM      6  C   UNL A   1      44.518  21.692  26.129  1.00  0.00     0.087 C 
ATOM      7  C   UNL A   1      43.465  23.266  30.037  1.00  0.00     0.047 C 
ATOM      8  C   UNL A   1      44.635  23.767  29.223  1.00  0.00    -0.021 A 
ATOM      9  C   UNL A   1      45.468  24.784  29.737  1.00  0.00     0.044 A 
ATOM     10  C   UNL A   1      44.972  23.195  27.968  1.00  0.00     0.022 A 
ATOM     11  Cl  UNL A   1      45.194  25.511  31.283  1.00  0.00    -0.084 Cl
ATOM     12  C   UNL A   1      46.570  25.245  29.015  1.00  0.00     0.024 A 
ATOM     13  C   UNL A   1      46.093  23.660  27.262  1.00  0.00     0.128 A 
ATOM     14  C   UNL A   1      44.189  22.127  27.350  1.00  0.00     0.027 C 
ATOM     15  C   UNL A   1      46.883  24.682  27.782  1.00  0.00     0.048 A 
ATOM     16  O   UNL A   1      46.520  23.157  26.064  1.00  0.00    -0.475 OA
ATOM     17  C   UNL A   1      45.671  22.231  25.340  1.00  0.00     0.316 C 
BRANCH  17  18
ATOM     18  C   UNL A   1      45.203  22.895  24.035  1.00  0.00     0.430 C 
ATOM     19  F   UNL A   1      46.151  23.724  23.535  1.00  0.00    -0.167 F 
ATOM     20  F   UNL A   1      44.949  21.977  23.072  1.00  0.00    -0.167 F 
ATOM     21  F   UNL A   1      44.077  23.622  24.207  1.00  0.00    -0.167 F 
ENDBRANCH  17  18
ENDBRANCH   4   6
ENDBRANCH   3   4
ENDBRANCH   2   3
ENDBRANCH   1   2
BRANCH   1  22
ATOM     22  O   UNL A   1      39.500  20.512  26.710  1.00  0.00    -0.458 OA
BRANCH  22  23
ATOM     23  C   UNL A   1      38.904  21.558  26.098  1.00  0.00     0.338 C 
ATOM     24  O   UNL A   1      38.084  21.520  25.193  1.00  0.00    -0.246 OA
BRANCH  23  25
ATOM     25  C   UNL A   1      39.352  22.825  26.696  1.00  0.00     0.060 A 
ATOM     26  C   UNL A   1      38.850  24.034  26.224  1.00  0.00     0.016 A 
ATOM     27  C   UNL A   1      40.404  22.816  27.612  1.00  0.00     0.016 A 
ATOM     28  C   UNL A   1      39.484  25.228  26.558  1.00  0.00     0.010 A 
ATOM     29  C   UNL A   1      40.964  24.026  28.036  1.00  0.00     0.010 A 
ATOM     30  C   UNL A   1      40.549  25.243  27.471  1.00  0.00    -0.014 A 
BRANCH  30  31
ATOM     31  C   UNL A   1      41.257  26.515  27.795  1.00  0.00     0.031 A 
ATOM     32  C   UNL A   1      40.634  27.513  28.741  1.00  0.00     0.074 A 
ATOM     33  C   UNL A   1      42.470  26.779  27.269  1.00  0.00     0.049 A 
ATOM     34  N   UNL A   1      41.005  28.740  29.005  1.00  0.00    -0.248 NA
ATOM     35  C   UNL A   1      39.438  27.079  29.483  1.00  0.00     0.031 C 
ATOM     36  C   UNL A   1      43.231  25.886  26.392  1.00  0.00     0.029 A 
ATOM     37  N   UNL A   1      43.289  27.873  27.413  1.00  0.00    -0.354 N 
ATOM     38  C   UNL A   1      40.060  29.242  29.892  1.00  0.00     0.074 A 
ATOM     39  C   UNL A   1      39.097  28.188  30.127  1.00  0.00     0.031 C 
ATOM     40  C   UNL A   1      44.423  26.440  26.127  1.00  0.00     0.029 A 
ATOM     41  C   UNL A   1      44.474  27.768  26.727  1.00  0.00     0.049 A 
ATOM     42  H   UNL A   1      43.047  28.658  27.955  1.00  0.00     0.167 HD
ATOM     43  C   UNL A   1      39.999  30.469  30.459  1.00  0.00     0.031 A 
ATOM     44  C   UNL A   1      45.478  28.649  26.557  1.00  0.00     0.031 A 
ATOM     45  C   UNL A   1      40.984  31.500  30.273  1.00  0.00     0.049 A 
ATOM     46  C   UNL A   1      45.367  30.020  27.152  1.00  0.00     0.074 A 
ATOM     47  C   UNL A   1      41.001  32.776  30.810  1.00  0.00     0.029 A 
ATOM     48  N   UNL A   1      42.136  31.366  29.517  1.00  0.00    -0.354 N 
ATOM     49  N   UNL A   1      44.417  30.510  27.911  1.00  0.00    -0.248 NA
ATOM     50  C   UNL A   1      46.446  30.970  26.846  1.00  0.00     0.031 C 
ATOM     51  C   UNL A   1      42.150  33.426  30.352  1.00  0.00     0.029 A 
ATOM     52  C   UNL A   1      42.866  32.539  29.565  1.00  0.00     0.049 A 
ATOM     53  H   UNL A   1      42.395  30.557  29.019  1.00  0.00     0.167 HD
ATOM     54  C   UNL A   1      44.785  31.822  28.174  1.00  0.00     0.074 A 
ATOM     55  C   UNL A   1      46.051  32.049  27.509  1.00  0.00     0.031 C 
ATOM     56  C   UNL A   1      44.123  32.754  28.899  1.00  0.00     0.031 A 
BRANCH  43  57
ATOM     57  C   UNL A   1      38.817  30.794  31.326  1.00  0.00    -0.014 A 
ATOM     58  C   UNL A   1      38.872  30.639  32.718  1.00  0.00     0.009 A 
ATOM     59  C   UNL A   1      37.673  31.367  30.747  1.00  0.00     0.009 A 
ATOM     60  C   UNL A   1      37.799  31.049  33.515  1.00  0.00     0.001 A 
ATOM     61  C   UNL A   1      36.612  31.793  31.547  1.00  0.00     0.001 A 
ATOM     62  C   UNL A   1      36.676  31.634  32.930  1.00  0.00     0.000 A 
ENDBRANCH  43  57
BRANCH  44  63
ATOM     63  C   UNL A   1      46.659  28.258  25.746  1.00  0.00    -0.014 A 
ATOM     64  C   UNL A   1      47.870  27.925  26.369  1.00  0.00     0.009 A 
ATOM     65  C   UNL A   1      46.563  28.158  24.348  1.00  0.00     0.009 A 
ATOM     66  C   UNL A   1      48.959  27.494  25.609  1.00  0.00     0.001 A 
ATOM     67  C   UNL A   1      47.645  27.702  23.594  1.00  0.00     0.001 A 
ATOM     68  C   UNL A   1      48.843  27.372  24.224  1.00  0.00     0.000 A 
ENDBRANCH  44  63
BRANCH  56  69
ATOM     69  C   UNL A   1      44.748  34.109  29.035  1.00  0.00    -0.014 A 
ATOM     70  C   UNL A   1      45.682  34.369  30.049  1.00  0.00     0.009 A 
ATOM     71  C   UNL A   1      44.486  35.098  28.075  1.00  0.00     0.009 A 
ATOM     72  C   UNL A   1      46.339  35.598  30.100  1.00  0.00     0.001 A 
ATOM     73  C   UNL A   1      45.158  36.319  28.118  1.00  0.00     0.001 A 
ATOM     74  C   UNL A   1      46.082  36.569  29.131  1.00  0.00     0.000 A 
ENDBRANCH  56  69
ENDBRANCH  30  31
ENDBRANCH  23  25
ENDBRANCH  22  23
ENDBRANCH   1  22
TORSDOF 12
ENDMDL
MODEL 3
REMARK VINA RESULT:      -9.6      6.001     10.041
REMARK SMILES Cc1c(Cl)ccc2c1C=C(C(=O)OCCOC(=O)c1ccc(-c3c4nc(c(-c5ccccc5)c5ccc([nH]5)c(-c5ccccc5)c5nc(c(-c6ccccc6)c6ccc3[nH]6)C=C5)C=C4)cc1)[C@@H](C(F)(F)F)O2
REMARK SMILES IDX 15 1 14 2 13 3 11 4 12 5 10 6 1 7 2 8 3 9 8 10 4 11 5 12
REMARK SMILES IDX 7 13 9 14 6 15 72 16 67 17 68 18 69 19 70 20 71 21 16 22
REMARK SMILES IDX 17 23 18 24 19 25 20 26 66 27 21 28 65 29 22 30 23 31 24 32
REMARK SMILES IDX 59 33 25 34 64 35 58 36 60 37 26 38 63 39 57 40 56 41 27 43
REMARK SMILES IDX 49 44 34 45 48 46 35 47 38 48 47 49 61 50 36 51 37 52 46 54
REMARK SMILES IDX 62 55 39 56 28 57 29 58 33 59 30 60 32 61 31 62 50 63 51 64
REMARK SMILES IDX 55 65 52 66 54 67 53 68 40 69 41 70 45 71 42 72 44 73 43 74
REMARK H PARENT 60 42 38 53
REMARK Flexibility Score: inf
ROOT
ATOM      1  C   UNL A   1      33.240  33.937  28.218  1.00  0.00     0.275 C 
ENDROOT
BRANCH   1   2
ATOM      2  C   UNL A   1      34.209  34.961  28.807  1.00  0.00     0.275 C 
BRANCH   2   3
ATOM      3  O   UNL A   1      34.161  34.953  30.249  1.00  0.00    -0.459 OA
BRANCH   3   4
ATOM      4  C   UNL A   1      34.683  33.852  30.840  1.00  0.00     0.338 C 
ATOM      5  O   UNL A   1      34.282  32.709  30.738  1.00  0.00    -0.246 OA
BRANCH   4   6
ATOM      6  C   UNL A   1      35.868  34.219  31.641  1.00  0.00     0.087 C 
ATOM      7  C   UNL A   1      39.817  33.725  29.904  1.00  0.00     0.047 C 
ATOM      8  C   UNL A   1      39.582  34.131  31.340  1.00  0.00    -0.021 A 
ATOM      9  C   UNL A   1      40.680  34.395  32.187  1.00  0.00     0.044 A 
ATOM     10  C   UNL A   1      38.274  34.325  31.857  1.00  0.00     0.022 A 
ATOM     11  Cl  UNL A   1      42.319  34.256  31.649  1.00  0.00    -0.084 Cl
ATOM     12  C   UNL A   1      40.488  34.797  33.510  1.00  0.00     0.024 A 
ATOM     13  C   UNL A   1      38.099  34.745  33.186  1.00  0.00     0.128 A 
ATOM     14  C   UNL A   1      37.069  34.096  31.064  1.00  0.00     0.027 C 
ATOM     15  C   UNL A   1      39.201  34.973  34.006  1.00  0.00     0.048 A 
ATOM     16  O   UNL A   1      36.887  34.988  33.769  1.00  0.00    -0.475 OA
ATOM     17  C   UNL A   1      35.675  34.599  33.077  1.00  0.00     0.316 C 
BRANCH  17  18
ATOM     18  C   UNL A   1      34.981  33.480  33.871  1.00  0.00     0.430 C 
ATOM     19  F   UNL A   1      35.446  32.259  33.512  1.00  0.00    -0.167 F 
ATOM     20  F   UNL A   1      35.203  33.602  35.202  1.00  0.00    -0.167 F 
ATOM     21  F   UNL A   1      33.642  33.477  33.684  1.00  0.00    -0.167 F 
ENDBRANCH  17  18
ENDBRANCH   4   6
ENDBRANCH   3   4
ENDBRANCH   2   3
ENDBRANCH   1   2
BRANCH   1  22
ATOM     22  O   UNL A   1      33.901  33.141  27.217  1.00  0.00    -0.458 OA
BRANCH  22  23
ATOM     23  C   UNL A   1      33.798  31.804  27.377  1.00  0.00     0.338 C 
ATOM     24  O   UNL A   1      32.810  31.108  27.197  1.00  0.00    -0.246 OA
BRANCH  23  25
ATOM     25  C   UNL A   1      35.092  31.236  27.788  1.00  0.00     0.060 A 
ATOM     26  C   UNL A   1      35.167  29.914  28.217  1.00  0.00     0.016 A 
ATOM     27  C   UNL A   1      36.200  32.074  27.908  1.00  0.00     0.016 A 
ATOM     28  C   UNL A   1      36.301  29.466  28.891  1.00  0.00     0.010 A 
ATOM     29  C   UNL A   1      37.379  31.585  28.482  1.00  0.00     0.010 A 
ATOM     30  C   UNL A   1      37.425  30.293  29.032  1.00  0.00    -0.014 A 
BRANCH  30  31
ATOM     31  C   UNL A   1      38.621  29.830  29.792  1.00  0.00     0.031 A 
ATOM     32  C   UNL A   1      39.679  28.995  29.111  1.00  0.00     0.074 A 
ATOM     33  C   UNL A   1      38.787  30.170  31.086  1.00  0.00     0.049 A 
ATOM     34  N   UNL A   1      40.690  28.354  29.641  1.00  0.00    -0.248 NA
ATOM     35  C   UNL A   1      39.588  28.859  27.647  1.00  0.00     0.031 C 
ATOM     36  C   UNL A   1      37.887  31.025  31.864  1.00  0.00     0.029 A 
ATOM     37  N   UNL A   1      39.786  29.851  31.974  1.00  0.00    -0.354 N 
ATOM     38  C   UNL A   1      41.316  27.694  28.590  1.00  0.00     0.074 A 
ATOM     39  C   UNL A   1      40.577  28.012  27.389  1.00  0.00     0.031 C 
ATOM     40  C   UNL A   1      38.404  31.209  33.088  1.00  0.00     0.029 A 
ATOM     41  C   UNL A   1      39.615  30.408  33.218  1.00  0.00     0.049 A 
ATOM     42  H   UNL A   1      40.551  29.277  31.741  1.00  0.00     0.167 HD
ATOM     43  C   UNL A   1      42.407  26.895  28.623  1.00  0.00     0.031 A 
ATOM     44  C   UNL A   1      40.322  30.265  34.355  1.00  0.00     0.031 A 
ATOM     45  C   UNL A   1      43.179  26.621  29.806  1.00  0.00     0.049 A 
ATOM     46  C   UNL A   1      41.498  29.335  34.382  1.00  0.00     0.074 A 
ATOM     47  C   UNL A   1      44.302  25.822  29.930  1.00  0.00     0.029 A 
ATOM     48  N   UNL A   1      42.927  27.160  31.056  1.00  0.00    -0.354 N 
ATOM     49  N   UNL A   1      42.019  28.643  33.400  1.00  0.00    -0.248 NA
ATOM     50  C   UNL A   1      42.165  29.142  35.678  1.00  0.00     0.031 C 
ATOM     51  C   UNL A   1      44.712  25.850  31.266  1.00  0.00     0.029 A 
ATOM     52  C   UNL A   1      43.868  26.702  31.960  1.00  0.00     0.049 A 
ATOM     53  H   UNL A   1      42.189  27.776  31.269  1.00  0.00     0.167 HD
ATOM     54  C   UNL A   1      43.075  27.935  33.955  1.00  0.00     0.074 A 
ATOM     55  C   UNL A   1      43.132  28.291  35.358  1.00  0.00     0.031 C 
ATOM     56  C   UNL A   1      43.915  27.062  33.352  1.00  0.00     0.031 A 
BRANCH  43  57
ATOM     57  C   UNL A   1      42.839  26.227  27.350  1.00  0.00    -0.014 A 
ATOM     58  C   UNL A   1      43.810  26.803  26.519  1.00  0.00     0.009 A 
ATOM     59  C   UNL A   1      42.343  24.951  27.037  1.00  0.00     0.009 A 
ATOM     60  C   UNL A   1      44.274  26.114  25.396  1.00  0.00     0.001 A 
ATOM     61  C   UNL A   1      42.823  24.257  25.926  1.00  0.00     0.001 A 
ATOM     62  C   UNL A   1      43.788  24.839  25.106  1.00  0.00     0.000 A 
ENDBRANCH  43  57
BRANCH  44  63
ATOM     63  C   UNL A   1      39.896  30.999  35.574  1.00  0.00    -0.014 A 
ATOM     64  C   UNL A   1      40.715  31.993  36.127  1.00  0.00     0.009 A 
ATOM     65  C   UNL A   1      38.641  30.750  36.154  1.00  0.00     0.009 A 
ATOM     66  C   UNL A   1      40.283  32.728  37.233  1.00  0.00     0.001 A 
ATOM     67  C   UNL A   1      38.202  31.504  37.243  1.00  0.00     0.001 A 
ATOM     68  C   UNL A   1      39.024  32.491  37.784  1.00  0.00     0.000 A 
ENDBRANCH  44  63
BRANCH  56  69
ATOM     69  C   UNL A   1      44.987  26.431  34.188  1.00  0.00    -0.014 A 
ATOM     70  C   UNL A   1      46.221  27.073  34.374  1.00  0.00     0.009 A 
ATOM     71  C   UNL A   1      44.721  25.243  34.884  1.00  0.00     0.009 A 
ATOM     72  C   UNL A   1      47.170  26.531  35.241  1.00  0.00     0.001 A 
ATOM     73  C   UNL A   1      45.664  24.713  35.764  1.00  0.00     0.001 A 
ATOM     74  C   UNL A   1      46.889  25.357  35.940  1.00  0.00     0.000 A 
ENDBRANCH  56  69
ENDBRANCH  30  31
ENDBRANCH  23  25
ENDBRANCH  22  23
ENDBRANCH   1  22
TORSDOF 12
ENDMDL
