MODEL 1
REMARK VINA RESULT:     -10.7      0.000      0.000
REMARK SMILES C[C@](C(=O)OCCOC(=O)c1ccc(-c2c3nc(c(-c4ccccc4)c4ccc([nH]4)c(-c4ccccc4)c4nc(c(-c5ccccc5)c5ccc2[nH]5)C=C4)C=C3)cc1)(c1cc(F)cc(F)c1)[NH+]1CCCC1
REMARK SMILES IDX 7 1 6 2 5 3 3 4 4 5 2 6 1 7 59 8 60 9 66 10 61 11 64 12
REMARK SMILES IDX 62 13 63 14 65 15 67 16 68 17 71 18 69 20 70 21 8 22 9 23
REMARK SMILES IDX 10 24 11 25 12 26 58 27 13 28 57 29 14 30 15 31 16 32 51 33
REMARK SMILES IDX 17 34 56 35 50 36 52 37 18 38 55 39 49 40 48 41 19 43 41 44
REMARK SMILES IDX 26 45 40 46 27 47 30 48 39 49 53 50 28 51 29 52 38 54 54 55
REMARK SMILES IDX 31 56 20 57 21 58 25 59 22 60 24 61 23 62 42 63 43 64 47 65
REMARK SMILES IDX 44 66 46 67 45 68 32 69 33 70 37 71 34 72 36 73 35 74
REMARK H PARENT 67 19 52 42 30 53
REMARK Flexibility Score: inf
ROOT
ATOM      1  C   UNL A   1      31.637  29.390  25.685  1.00  0.00     0.275 C 
ENDROOT
BRANCH   1   2
ATOM      2  C   UNL A   1      31.656  28.257  26.711  1.00  0.00     0.274 C 
BRANCH   2   3
ATOM      3  O   UNL A   1      32.532  27.207  26.248  1.00  0.00    -0.457 OA
BRANCH   3   4
ATOM      4  C   UNL A   1      31.966  25.991  25.981  1.00  0.00     0.372 C 
ATOM      5  O   UNL A   1      31.321  25.353  26.810  1.00  0.00    -0.244 OA
BRANCH   4   6
ATOM      6  C   UNL A   1      32.246  25.503  24.494  1.00  0.00     0.218 C 
ATOM      7  C   UNL A   1      33.530  26.212  23.987  1.00  0.00     0.098 C 
BRANCH   6   8
ATOM      8  C   UNL A   1      32.458  23.967  24.408  1.00  0.00     0.029 A 
ATOM      9  C   UNL A   1      33.425  23.342  25.225  1.00  0.00     0.050 A 
ATOM     10  C   UNL A   1      31.836  23.171  23.430  1.00  0.00     0.050 A 
ATOM     11  C   UNL A   1      33.805  22.020  25.008  1.00  0.00     0.126 A 
ATOM     12  C   UNL A   1      32.227  21.844  23.238  1.00  0.00     0.126 A 
ATOM     13  F   UNL A   1      34.783  21.490  25.754  1.00  0.00    -0.207 F 
ATOM     14  C   UNL A   1      33.221  21.264  24.008  1.00  0.00     0.078 A 
ATOM     15  F   UNL A   1      31.654  21.130  22.260  1.00  0.00    -0.207 F 
ENDBRANCH   6   8
BRANCH   6  16
ATOM     16  N   UNL A   1      31.040  25.913  23.708  1.00  0.00    -0.317 N 
ATOM     17  C   UNL A   1      31.242  26.840  22.590  1.00  0.00     0.263 C 
ATOM     18  C   UNL A   1      29.775  26.196  24.376  1.00  0.00     0.263 C 
ATOM     19  H   UNL A   1      30.910  24.974  23.333  1.00  0.00     0.349 HD
ATOM     20  C   UNL A   1      30.185  27.915  22.765  1.00  0.00     0.067 C 
ATOM     21  C   UNL A   1      29.064  27.214  23.500  1.00  0.00     0.067 C 
ENDBRANCH   6  16
ENDBRANCH   4   6
ENDBRANCH   3   4
ENDBRANCH   2   3
ENDBRANCH   1   2
BRANCH   1  22
ATOM     22  O   UNL A   1      32.901  30.073  25.741  1.00  0.00    -0.458 OA
BRANCH  22  23
ATOM     23  C   UNL A   1      33.085  30.942  26.763  1.00  0.00     0.338 C 
ATOM     24  O   UNL A   1      32.291  31.776  27.167  1.00  0.00    -0.246 OA
BRANCH  23  25
ATOM     25  C   UNL A   1      34.418  30.718  27.375  1.00  0.00     0.060 A 
ATOM     26  C   UNL A   1      34.874  29.429  27.635  1.00  0.00     0.016 A 
ATOM     27  C   UNL A   1      35.190  31.809  27.784  1.00  0.00     0.016 A 
ATOM     28  C   UNL A   1      36.044  29.233  28.367  1.00  0.00     0.010 A 
ATOM     29  C   UNL A   1      36.413  31.601  28.443  1.00  0.00     0.010 A 
ATOM     30  C   UNL A   1      36.844  30.305  28.777  1.00  0.00    -0.014 A 
BRANCH  30  31
ATOM     31  C   UNL A   1      38.080  30.070  29.589  1.00  0.00     0.031 A 
ATOM     32  C   UNL A   1      39.260  29.343  28.992  1.00  0.00     0.074 A 
ATOM     33  C   UNL A   1      38.193  30.532  30.853  1.00  0.00     0.049 A 
ATOM     34  N   UNL A   1      40.296  28.813  29.593  1.00  0.00    -0.248 NA
ATOM     35  C   UNL A   1      39.273  29.183  27.528  1.00  0.00     0.031 C 
ATOM     36  C   UNL A   1      37.198  31.337  31.567  1.00  0.00     0.029 A 
ATOM     37  N   UNL A   1      39.218  30.403  31.763  1.00  0.00    -0.354 N 
ATOM     38  C   UNL A   1      41.032  28.179  28.598  1.00  0.00     0.074 A 
ATOM     39  C   UNL A   1      40.340  28.416  27.349  1.00  0.00     0.031 C 
ATOM     40  C   UNL A   1      37.686  31.683  32.766  1.00  0.00     0.029 A 
ATOM     41  C   UNL A   1      38.967  31.018  32.966  1.00  0.00     0.049 A 
ATOM     42  H   UNL A   1      40.051  29.915  31.570  1.00  0.00     0.167 HD
ATOM     43  C   UNL A   1      42.168  27.450  28.718  1.00  0.00     0.031 A 
ATOM     44  C   UNL A   1      39.646  31.003  34.129  1.00  0.00     0.031 A 
ATOM     45  C   UNL A   1      42.899  27.272  29.946  1.00  0.00     0.049 A 
ATOM     46  C   UNL A   1      40.876  30.154  34.256  1.00  0.00     0.074 A 
ATOM     47  C   UNL A   1      44.054  26.540  30.164  1.00  0.00     0.029 A 
ATOM     48  N   UNL A   1      42.565  27.859  31.154  1.00  0.00    -0.354 N 
ATOM     49  N   UNL A   1      41.481  29.437  33.342  1.00  0.00    -0.248 NA
ATOM     50  C   UNL A   1      41.492  30.080  35.589  1.00  0.00     0.031 C 
ATOM     51  C   UNL A   1      44.403  26.661  31.514  1.00  0.00     0.029 A 
ATOM     52  C   UNL A   1      43.487  27.502  32.124  1.00  0.00     0.049 A 
ATOM     53  H   UNL A   1      41.787  28.443  31.303  1.00  0.00     0.167 HD
ATOM     54  C   UNL A   1      42.543  28.820  33.990  1.00  0.00     0.074 A 
ATOM     55  C   UNL A   1      42.518  29.272  35.366  1.00  0.00     0.031 C 
ATOM     56  C   UNL A   1      43.449  27.947  33.490  1.00  0.00     0.031 A 
BRANCH  43  57
ATOM     57  C   UNL A   1      42.664  26.728  27.498  1.00  0.00    -0.014 A 
ATOM     58  C   UNL A   1      42.196  25.454  27.148  1.00  0.00     0.009 A 
ATOM     59  C   UNL A   1      43.583  27.372  26.652  1.00  0.00     0.009 A 
ATOM     60  C   UNL A   1      42.659  24.829  25.986  1.00  0.00     0.001 A 
ATOM     61  C   UNL A   1      44.025  26.756  25.481  1.00  0.00     0.001 A 
ATOM     62  C   UNL A   1      43.569  25.482  25.153  1.00  0.00     0.000 A 
ENDBRANCH  43  57
BRANCH  44  63
ATOM     63  C   UNL A   1      39.117  31.744  35.304  1.00  0.00    -0.014 A 
ATOM     64  C   UNL A   1      39.436  33.096  35.500  1.00  0.00     0.009 A 
ATOM     65  C   UNL A   1      38.280  31.102  36.232  1.00  0.00     0.009 A 
ATOM     66  C   UNL A   1      38.931  33.787  36.604  1.00  0.00     0.001 A 
ATOM     67  C   UNL A   1      37.751  31.804  37.315  1.00  0.00     0.001 A 
ATOM     68  C   UNL A   1      38.081  33.143  37.504  1.00  0.00     0.000 A 
ENDBRANCH  44  63
BRANCH  56  69
ATOM     69  C   UNL A   1      44.498  27.440  34.435  1.00  0.00    -0.014 A 
ATOM     70  C   UNL A   1      45.703  28.136  34.617  1.00  0.00     0.009 A 
ATOM     71  C   UNL A   1      44.272  26.262  35.162  1.00  0.00     0.009 A 
ATOM     72  C   UNL A   1      46.676  27.643  35.489  1.00  0.00     0.001 A 
ATOM     73  C   UNL A   1      45.237  25.783  36.049  1.00  0.00     0.001 A 
ATOM     74  C   UNL A   1      46.441  26.469  36.205  1.00  0.00     0.000 A 
ENDBRANCH  56  69
ENDBRANCH  30  31
ENDBRANCH  23  25
ENDBRANCH  22  23
ENDBRANCH   1  22
TORSDOF 13
ENDMDL
MODEL 2
REMARK VINA RESULT:     -10.6      3.940      8.585
REMARK SMILES C[C@](C(=O)OCCOC(=O)c1ccc(-c2c3nc(c(-c4ccccc4)c4ccc([nH]4)c(-c4ccccc4)c4nc(c(-c5ccccc5)c5ccc2[nH]5)C=C4)C=C3)cc1)(c1cc(F)cc(F)c1)[NH+]1CCCC1
REMARK SMILES IDX 7 1 6 2 5 3 3 4 4 5 2 6 1 7 59 8 60 9 66 10 61 11 64 12
REMARK SMILES IDX 62 13 63 14 65 15 67 16 68 17 71 18 69 20 70 21 8 22 9 23
REMARK SMILES IDX 10 24 11 25 12 26 58 27 13 28 57 29 14 30 15 31 16 32 51 33
REMARK SMILES IDX 17 34 56 35 50 36 52 37 18 38 55 39 49 40 48 41 19 43 41 44
REMARK SMILES IDX 26 45 40 46 27 47 30 48 39 49 53 50 28 51 29 52 38 54 54 55
REMARK SMILES IDX 31 56 20 57 21 58 25 59 22 60 24 61 23 62 42 63 43 64 47 65
REMARK SMILES IDX 44 66 46 67 45 68 32 69 33 70 37 71 34 72 36 73 35 74
REMARK H PARENT 67 19 52 42 30 53
REMARK Flexibility Score: inf
ROOT
ATOM      1  C   UNL A   1      35.947  21.396  24.614  1.00  0.00     0.275 C 
ENDROOT
BRANCH   1   2
ATOM      2  C   UNL A   1      35.986  22.607  23.683  1.00  0.00     0.274 C 
BRANCH   2   3
ATOM      3  O   UNL A   1      35.342  23.727  24.328  1.00  0.00    -0.457 OA
BRANCH   3   4
ATOM      4  C   UNL A   1      34.195  24.204  23.756  1.00  0.00     0.372 C 
ATOM      5  O   UNL A   1      34.158  24.694  22.629  1.00  0.00    -0.244 OA
BRANCH   4   6
ATOM      6  C   UNL A   1      32.934  24.061  24.713  1.00  0.00     0.218 C 
ATOM      7  C   UNL A   1      33.448  23.873  26.165  1.00  0.00     0.098 C 
BRANCH   6   8
ATOM      8  C   UNL A   1      32.015  25.312  24.668  1.00  0.00     0.029 A 
ATOM      9  C   UNL A   1      30.654  25.176  24.317  1.00  0.00     0.050 A 
ATOM     10  C   UNL A   1      32.512  26.621  24.808  1.00  0.00     0.050 A 
ATOM     11  C   UNL A   1      29.868  26.291  24.038  1.00  0.00     0.126 A 
ATOM     12  C   UNL A   1      31.699  27.723  24.533  1.00  0.00     0.126 A 
ATOM     13  F   UNL A   1      28.604  26.113  23.631  1.00  0.00    -0.207 F 
ATOM     14  C   UNL A   1      30.383  27.570  24.130  1.00  0.00     0.078 A 
ATOM     15  F   UNL A   1      32.220  28.955  24.621  1.00  0.00    -0.207 F 
ENDBRANCH   6   8
BRANCH   6  16
ATOM     16  N   UNL A   1      32.200  22.851  24.224  1.00  0.00    -0.317 N 
ATOM     17  C   UNL A   1      32.043  21.731  25.157  1.00  0.00     0.263 C 
ATOM     18  C   UNL A   1      32.400  22.355  22.868  1.00  0.00     0.263 C 
ATOM     19  H   UNL A   1      31.316  23.355  24.169  1.00  0.00     0.349 HD
ATOM     20  C   UNL A   1      32.450  20.496  24.373  1.00  0.00     0.067 C 
ATOM     21  C   UNL A   1      32.149  20.858  22.934  1.00  0.00     0.067 C 
ENDBRANCH   6  16
ENDBRANCH   4   6
ENDBRANCH   3   4
ENDBRANCH   2   3
ENDBRANCH   1   2
BRANCH   1  22
ATOM     22  O   UNL A   1      36.699  21.711  25.799  1.00  0.00    -0.458 OA
BRANCH  22  23
ATOM     23  C   UNL A   1      38.031  21.467  25.765  1.00  0.00     0.338 C 
ATOM     24  O   UNL A   1      38.582  20.477  25.314  1.00  0.00    -0.246 OA
BRANCH  23  25
ATOM     25  C   UNL A   1      38.764  22.621  26.340  1.00  0.00     0.060 A 
ATOM     26  C   UNL A   1      38.298  23.921  26.161  1.00  0.00     0.016 A 
ATOM     27  C   UNL A   1      39.986  22.420  26.988  1.00  0.00     0.016 A 
ATOM     28  C   UNL A   1      39.081  25.007  26.551  1.00  0.00     0.010 A 
ATOM     29  C   UNL A   1      40.726  23.517  27.457  1.00  0.00     0.010 A 
ATOM     30  C   UNL A   1      40.301  24.835  27.214  1.00  0.00    -0.014 A 
BRANCH  30  31
ATOM     31  C   UNL A   1      41.138  26.017  27.594  1.00  0.00     0.031 A 
ATOM     32  C   UNL A   1      40.623  27.031  28.587  1.00  0.00     0.074 A 
ATOM     33  C   UNL A   1      42.383  26.188  27.099  1.00  0.00     0.049 A 
ATOM     34  N   UNL A   1      41.066  28.237  28.842  1.00  0.00    -0.248 NA
ATOM     35  C   UNL A   1      39.451  26.643  29.389  1.00  0.00     0.031 C 
ATOM     36  C   UNL A   1      43.087  25.267  26.204  1.00  0.00     0.029 A 
ATOM     37  N   UNL A   1      43.291  27.204  27.299  1.00  0.00    -0.354 N 
ATOM     38  C   UNL A   1      40.177  28.783  29.761  1.00  0.00     0.074 A 
ATOM     39  C   UNL A   1      39.185  27.766  30.042  1.00  0.00     0.031 C 
ATOM     40  C   UNL A   1      44.330  25.722  25.990  1.00  0.00     0.029 A 
ATOM     41  C   UNL A   1      44.471  27.029  26.617  1.00  0.00     0.049 A 
ATOM     42  H   UNL A   1      43.110  27.981  27.875  1.00  0.00     0.167 HD
ATOM     43  C   UNL A   1      40.176  30.024  30.305  1.00  0.00     0.031 A 
ATOM     44  C   UNL A   1      45.528  27.846  26.449  1.00  0.00     0.031 A 
ATOM     45  C   UNL A   1      41.199  31.014  30.086  1.00  0.00     0.049 A 
ATOM     46  C   UNL A   1      45.489  29.233  27.020  1.00  0.00     0.074 A 
ATOM     47  C   UNL A   1      41.274  32.302  30.587  1.00  0.00     0.029 A 
ATOM     48  N   UNL A   1      42.340  30.812  29.329  1.00  0.00    -0.354 N 
ATOM     49  N   UNL A   1      44.570  29.791  27.768  1.00  0.00    -0.248 NA
ATOM     50  C   UNL A   1      46.617  30.116  26.687  1.00  0.00     0.031 C 
ATOM     51  C   UNL A   1      42.449  32.892  30.107  1.00  0.00     0.029 A 
ATOM     52  C   UNL A   1      43.124  31.955  29.343  1.00  0.00     0.049 A 
ATOM     53  H   UNL A   1      42.562  29.982  28.850  1.00  0.00     0.167 HD
ATOM     54  C   UNL A   1      45.003  31.091  27.987  1.00  0.00     0.074 A 
ATOM     55  C   UNL A   1      46.282  31.229  27.322  1.00  0.00     0.031 C 
ATOM     56  C   UNL A   1      44.388  32.086  28.671  1.00  0.00     0.031 A 
BRANCH  43  57
ATOM     57  C   UNL A   1      38.994  30.415  31.146  1.00  0.00    -0.014 A 
ATOM     58  C   UNL A   1      37.837  30.974  30.587  1.00  0.00     0.009 A 
ATOM     59  C   UNL A   1      39.028  30.160  32.528  1.00  0.00     0.009 A 
ATOM     60  C   UNL A   1      36.746  31.294  31.400  1.00  0.00     0.001 A 
ATOM     61  C   UNL A   1      37.928  30.459  33.334  1.00  0.00     0.001 A 
ATOM     62  C   UNL A   1      36.791  31.032  32.770  1.00  0.00     0.000 A 
ENDBRANCH  43  57
BRANCH  44  63
ATOM     63  C   UNL A   1      46.678  27.407  25.615  1.00  0.00    -0.014 A 
ATOM     64  C   UNL A   1      46.784  27.811  24.277  1.00  0.00     0.009 A 
ATOM     65  C   UNL A   1      47.680  26.586  26.160  1.00  0.00     0.009 A 
ATOM     66  C   UNL A   1      47.871  27.397  23.499  1.00  0.00     0.001 A 
ATOM     67  C   UNL A   1      48.779  26.203  25.391  1.00  0.00     0.001 A 
ATOM     68  C   UNL A   1      48.871  26.603  24.060  1.00  0.00     0.000 A 
ENDBRANCH  44  63
BRANCH  56  69
ATOM     69  C   UNL A   1      45.102  33.403  28.746  1.00  0.00    -0.014 A 
ATOM     70  C   UNL A   1      44.843  34.419  27.813  1.00  0.00     0.009 A 
ATOM     71  C   UNL A   1      46.031  33.635  29.770  1.00  0.00     0.009 A 
ATOM     72  C   UNL A   1      45.527  35.634  27.888  1.00  0.00     0.001 A 
ATOM     73  C   UNL A   1      46.698  34.858  29.855  1.00  0.00     0.001 A 
ATOM     74  C   UNL A   1      46.451  35.853  28.909  1.00  0.00     0.000 A 
ENDBRANCH  56  69
ENDBRANCH  30  31
ENDBRANCH  23  25
ENDBRANCH  22  23
ENDBRANCH   1  22
TORSDOF 13
ENDMDL
MODEL 3
REMARK VINA RESULT:     -10.5      3.911      8.612
REMARK SMILES C[C@](C(=O)OCCOC(=O)c1ccc(-c2c3nc(c(-c4ccccc4)c4ccc([nH]4)c(-c4ccccc4)c4nc(c(-c5ccccc5)c5ccc2[nH]5)C=C4)C=C3)cc1)(c1cc(F)cc(F)c1)[NH+]1CCCC1
REMARK SMILES IDX 7 1 6 2 5 3 3 4 4 5 2 6 1 7 59 8 60 9 66 10 61 11 64 12
REMARK SMILES IDX 62 13 63 14 65 15 67 16 68 17 71 18 69 20 70 21 8 22 9 23
REMARK SMILES IDX 10 24 11 25 12 26 58 27 13 28 57 29 14 30 15 31 16 32 51 33
REMARK SMILES IDX 17 34 56 35 50 36 52 37 18 38 55 39 49 40 48 41 19 43 41 44
REMARK SMILES IDX 26 45 40 46 27 47 30 48 39 49 53 50 28 51 29 52 38 54 54 55
REMARK SMILES IDX 31 56 20 57 21 58 25 59 22 60 24 61 23 62 42 63 43 64 47 65
REMARK SMILES IDX 44 66 46 67 45 68 32 69 33 70 37 71 34 72 36 73 35 74
REMARK H PARENT 67 19 52 42 30 53
REMARK Flexibility Score: inf
ROOT
ATOM      1  C   UNL A   1      35.487  20.808  25.047  1.00  0.00     0.275 C 
ENDROOT
BRANCH   1   2
ATOM      2  C   UNL A   1      34.901  21.457  26.301  1.00  0.00     0.274 C 
BRANCH   2   3
ATOM      3  O   UNL A   1      34.428  22.781  25.977  1.00  0.00    -0.457 OA
BRANCH   3   4
ATOM      4  C   UNL A   1      33.178  23.125  26.415  1.00  0.00     0.372 C 
ATOM      5  O   UNL A   1      32.782  22.906  27.558  1.00  0.00    -0.244 OA
BRANCH   4   6
ATOM      6  C   UNL A   1      32.308  23.823  25.283  1.00  0.00     0.218 C 
ATOM      7  C   UNL A   1      30.922  23.125  25.241  1.00  0.00     0.098 C 
BRANCH   6   8
ATOM      8  C   UNL A   1      32.094  25.337  25.554  1.00  0.00     0.029 A 
ATOM      9  C   UNL A   1      31.054  26.031  24.899  1.00  0.00     0.050 A 
ATOM     10  C   UNL A   1      32.997  26.105  26.312  1.00  0.00     0.050 A 
ATOM     11  C   UNL A   1      30.982  27.421  24.934  1.00  0.00     0.126 A 
ATOM     12  C   UNL A   1      32.897  27.498  26.341  1.00  0.00     0.126 A 
ATOM     13  F   UNL A   1      30.026  28.044  24.233  1.00  0.00    -0.207 F 
ATOM     14  C   UNL A   1      31.907  28.167  25.642  1.00  0.00     0.078 A 
ATOM     15  F   UNL A   1      33.807  28.203  27.026  1.00  0.00    -0.207 F 
ENDBRANCH   6   8
BRANCH   6  16
ATOM     16  N   UNL A   1      33.071  23.618  24.012  1.00  0.00    -0.317 N 
ATOM     17  C   UNL A   1      33.522  24.813  23.292  1.00  0.00     0.263 C 
ATOM     18  C   UNL A   1      32.682  22.577  23.069  1.00  0.00     0.263 C 
ATOM     19  H   UNL A   1      33.867  23.215  24.503  1.00  0.00     0.349 HD
ATOM     20  C   UNL A   1      33.120  24.586  21.846  1.00  0.00     0.067 C 
ATOM     21  C   UNL A   1      33.109  23.079  21.699  1.00  0.00     0.067 C 
ENDBRANCH   6  16
ENDBRANCH   4   6
ENDBRANCH   3   4
ENDBRANCH   2   3
ENDBRANCH   1   2
BRANCH   1  22
ATOM     22  O   UNL A   1      36.682  21.521  24.684  1.00  0.00    -0.458 OA
BRANCH  22  23
ATOM     23  C   UNL A   1      37.848  21.071  25.207  1.00  0.00     0.338 C 
ATOM     24  O   UNL A   1      38.271  19.928  25.174  1.00  0.00    -0.246 OA
BRANCH  23  25
ATOM     25  C   UNL A   1      38.589  22.202  25.819  1.00  0.00     0.060 A 
ATOM     26  C   UNL A   1      38.095  23.501  25.741  1.00  0.00     0.016 A 
ATOM     27  C   UNL A   1      39.842  21.983  26.397  1.00  0.00     0.016 A 
ATOM     28  C   UNL A   1      38.878  24.576  26.162  1.00  0.00     0.010 A 
ATOM     29  C   UNL A   1      40.586  23.063  26.899  1.00  0.00     0.010 A 
ATOM     30  C   UNL A   1      40.130  24.385  26.758  1.00  0.00    -0.014 A 
BRANCH  30  31
ATOM     31  C   UNL A   1      40.965  25.557  27.172  1.00  0.00     0.031 A 
ATOM     32  C   UNL A   1      40.466  26.518  28.224  1.00  0.00     0.074 A 
ATOM     33  C   UNL A   1      42.195  25.765  26.654  1.00  0.00     0.049 A 
ATOM     34  N   UNL A   1      40.904  27.715  28.525  1.00  0.00    -0.248 NA
ATOM     35  C   UNL A   1      39.319  26.080  29.036  1.00  0.00     0.031 C 
ATOM     36  C   UNL A   1      42.885  24.895  25.699  1.00  0.00     0.029 A 
ATOM     37  N   UNL A   1      43.098  26.780  26.879  1.00  0.00    -0.354 N 
ATOM     38  C   UNL A   1      40.034  28.207  29.491  1.00  0.00     0.074 A 
ATOM     39  C   UNL A   1      39.059  27.168  29.748  1.00  0.00     0.031 C 
ATOM     40  C   UNL A   1      44.118  25.372  25.476  1.00  0.00     0.029 A 
ATOM     41  C   UNL A   1      44.262  26.650  26.160  1.00  0.00     0.049 A 
ATOM     42  H   UNL A   1      42.925  27.527  27.496  1.00  0.00     0.167 HD
ATOM     43  C   UNL A   1      40.035  29.422  30.093  1.00  0.00     0.031 A 
ATOM     44  C   UNL A   1      45.307  27.485  26.005  1.00  0.00     0.031 A 
ATOM     45  C   UNL A   1      41.042  30.431  29.895  1.00  0.00     0.049 A 
ATOM     46  C   UNL A   1      45.269  28.843  26.641  1.00  0.00     0.074 A 
ATOM     47  C   UNL A   1      41.118  31.696  30.454  1.00  0.00     0.029 A 
ATOM     48  N   UNL A   1      42.166  30.278  29.101  1.00  0.00    -0.354 N 
ATOM     49  N   UNL A   1      44.364  29.355  27.437  1.00  0.00    -0.248 NA
ATOM     50  C   UNL A   1      46.379  29.753  26.322  1.00  0.00     0.031 C 
ATOM     51  C   UNL A   1      42.275  32.320  29.974  1.00  0.00     0.029 A 
ATOM     52  C   UNL A   1      42.938  31.427  29.149  1.00  0.00     0.049 A 
ATOM     53  H   UNL A   1      42.383  29.473  28.578  1.00  0.00     0.167 HD
ATOM     54  C   UNL A   1      44.790  30.649  27.707  1.00  0.00     0.074 A 
ATOM     55  C   UNL A   1      46.050  30.831  27.017  1.00  0.00     0.031 C 
ATOM     56  C   UNL A   1      44.183  31.603  28.452  1.00  0.00     0.031 A 
BRANCH  43  57
ATOM     57  C   UNL A   1      38.871  29.760  30.981  1.00  0.00    -0.014 A 
ATOM     58  C   UNL A   1      37.680  30.295  30.473  1.00  0.00     0.009 A 
ATOM     59  C   UNL A   1      38.960  29.478  32.355  1.00  0.00     0.009 A 
ATOM     60  C   UNL A   1      36.609  30.566  31.329  1.00  0.00     0.001 A 
ATOM     61  C   UNL A   1      37.879  29.727  33.203  1.00  0.00     0.001 A 
ATOM     62  C   UNL A   1      36.708  30.278  32.690  1.00  0.00     0.000 A 
ENDBRANCH  43  57
BRANCH  44  63
ATOM     63  C   UNL A   1      46.439  27.098  25.122  1.00  0.00    -0.014 A 
ATOM     64  C   UNL A   1      46.721  27.830  23.960  1.00  0.00     0.009 A 
ATOM     65  C   UNL A   1      47.248  25.996  25.445  1.00  0.00     0.009 A 
ATOM     66  C   UNL A   1      47.790  27.463  23.137  1.00  0.00     0.001 A 
ATOM     67  C   UNL A   1      48.334  25.653  24.639  1.00  0.00     0.001 A 
ATOM     68  C   UNL A   1      48.600  26.382  23.483  1.00  0.00     0.000 A 
ENDBRANCH  44  63
BRANCH  56  69
ATOM     69  C   UNL A   1      44.886  32.923  28.571  1.00  0.00    -0.014 A 
ATOM     70  C   UNL A   1      44.608  33.972  27.683  1.00  0.00     0.009 A 
ATOM     71  C   UNL A   1      45.825  33.123  29.594  1.00  0.00     0.009 A 
ATOM     72  C   UNL A   1      45.282  35.190  27.798  1.00  0.00     0.001 A 
ATOM     73  C   UNL A   1      46.482  34.348  29.720  1.00  0.00     0.001 A 
ATOM     74  C   UNL A   1      46.216  35.377  28.817  1.00  0.00     0.000 A 
ENDBRANCH  56  69
ENDBRANCH  30  31
ENDBRANCH  23  25
ENDBRANCH  22  23
ENDBRANCH   1  22
TORSDOF 13
ENDMDL
