MODEL 1
REMARK VINA RESULT:     -11.1      0.000      0.000
REMARK SMILES C[C@@H](C(=O)OCCOC(=O)c1ccc(-c2c3nc(c(-c4ccccc4)c4ccc([nH]4)c(-c4ccccc4)c4nc(c(-c5ccccc5)c5ccc2[nH]5)C=C4)C=C3)cc1)c1ccc(C[C@H]2CCC[C@H]2O)cc1
REMARK SMILES IDX 6 1 5 2 3 3 4 4 2 5 1 6 59 7 60 8 71 9 61 10 70 11 62 12
REMARK SMILES IDX 63 13 64 14 65 15 68 16 66 17 67 18 69 19 7 21 8 22 9 23
REMARK SMILES IDX 10 24 11 25 12 26 58 27 13 28 57 29 14 30 15 31 16 32 51 33
REMARK SMILES IDX 17 34 56 35 50 36 52 37 18 38 55 39 49 40 48 41 19 43 41 44
REMARK SMILES IDX 26 45 40 46 27 47 30 48 39 49 53 50 28 51 29 52 38 54 54 55
REMARK SMILES IDX 31 56 20 57 21 58 25 59 22 60 24 61 23 62 42 63 43 64 47 65
REMARK SMILES IDX 44 66 46 67 45 68 32 69 33 70 37 71 34 72 36 73 35 74
REMARK H PARENT 69 20 52 42 30 53
REMARK Flexibility Score: inf
ROOT
ATOM      1  C   UNL A   1      35.834  22.690  23.760  1.00  0.00     0.274 C 
ENDROOT
BRANCH   1   2
ATOM      2  O   UNL A   1      34.428  22.895  23.507  1.00  0.00    -0.462 OA
BRANCH   2   3
ATOM      3  C   UNL A   1      34.026  24.177  23.285  1.00  0.00     0.313 C 
ATOM      4  O   UNL A   1      33.710  24.616  22.184  1.00  0.00    -0.252 OA
BRANCH   3   5
ATOM      5  C   UNL A   1      34.056  25.029  24.559  1.00  0.00     0.126 C 
ATOM      6  C   UNL A   1      33.714  24.247  25.833  1.00  0.00     0.025 C 
BRANCH   5   7
ATOM      7  C   UNL A   1      33.217  26.293  24.400  1.00  0.00    -0.034 A 
ATOM      8  C   UNL A   1      31.853  26.261  24.724  1.00  0.00     0.005 A 
ATOM      9  C   UNL A   1      33.770  27.518  24.003  1.00  0.00     0.005 A 
ATOM     10  C   UNL A   1      31.069  27.418  24.654  1.00  0.00     0.004 A 
ATOM     11  C   UNL A   1      32.982  28.674  23.933  1.00  0.00     0.004 A 
ATOM     12  C   UNL A   1      31.621  28.641  24.257  1.00  0.00    -0.048 A 
BRANCH  12  13
ATOM     13  C   UNL A   1      30.774  29.894  24.275  1.00  0.00     0.041 C 
BRANCH  13  14
ATOM     14  C   UNL A   1      29.453  29.927  23.493  1.00  0.00     0.022 C 
ATOM     15  C   UNL A   1      28.605  31.204  23.651  1.00  0.00     0.007 C 
ATOM     16  C   UNL A   1      29.493  29.627  21.981  1.00  0.00     0.117 C 
ATOM     17  C   UNL A   1      28.249  31.651  22.241  1.00  0.00     0.003 C 
ATOM     18  C   UNL A   1      28.283  30.368  21.423  1.00  0.00     0.032 C 
BRANCH  16  19
ATOM     19  O   UNL A   1      30.662  30.078  21.320  1.00  0.00    -0.393 OA
ATOM     20  H   UNL A   1      31.150  29.317  20.968  1.00  0.00     0.210 HD
ENDBRANCH  16  19
ENDBRANCH  13  14
ENDBRANCH  12  13
ENDBRANCH   5   7
ENDBRANCH   3   5
ENDBRANCH   2   3
ENDBRANCH   1   2
BRANCH   1  21
ATOM     21  C   UNL A   1      36.040  21.378  24.511  1.00  0.00     0.275 C 
BRANCH  21  22
ATOM     22  O   UNL A   1      36.712  21.647  25.753  1.00  0.00    -0.458 OA
BRANCH  22  23
ATOM     23  C   UNL A   1      38.055  21.493  25.752  1.00  0.00     0.338 C 
ATOM     24  O   UNL A   1      38.692  20.550  25.312  1.00  0.00    -0.246 OA
BRANCH  23  25
ATOM     25  C   UNL A   1      38.694  22.664  26.384  1.00  0.00     0.060 A 
ATOM     26  C   UNL A   1      38.142  23.935  26.245  1.00  0.00     0.016 A 
ATOM     27  C   UNL A   1      39.925  22.510  27.026  1.00  0.00     0.016 A 
ATOM     28  C   UNL A   1      38.871  25.055  26.651  1.00  0.00     0.010 A 
ATOM     29  C   UNL A   1      40.610  23.633  27.509  1.00  0.00     0.010 A 
ATOM     30  C   UNL A   1      40.120  24.929  27.280  1.00  0.00    -0.014 A 
BRANCH  30  31
ATOM     31  C   UNL A   1      40.939  26.136  27.616  1.00  0.00     0.031 A 
ATOM     32  C   UNL A   1      40.444  27.143  28.632  1.00  0.00     0.074 A 
ATOM     33  C   UNL A   1      42.160  26.332  27.074  1.00  0.00     0.049 A 
ATOM     34  N   UNL A   1      40.909  28.338  28.907  1.00  0.00    -0.248 NA
ATOM     35  C   UNL A   1      39.274  26.761  29.438  1.00  0.00     0.031 C 
ATOM     36  C   UNL A   1      42.834  25.432  26.140  1.00  0.00     0.029 A 
ATOM     37  N   UNL A   1      43.065  27.351  27.261  1.00  0.00    -0.354 N 
ATOM     38  C   UNL A   1      40.037  28.881  29.845  1.00  0.00     0.074 A 
ATOM     39  C   UNL A   1      39.032  27.876  30.115  1.00  0.00     0.031 C 
ATOM     40  C   UNL A   1      44.071  25.893  25.898  1.00  0.00     0.029 A 
ATOM     41  C   UNL A   1      44.238  27.178  26.567  1.00  0.00     0.049 A 
ATOM     42  H   UNL A   1      42.889  28.129  27.837  1.00  0.00     0.167 HD
ATOM     43  C   UNL A   1      40.060  30.108  30.419  1.00  0.00     0.031 A 
ATOM     44  C   UNL A   1      45.316  27.975  26.437  1.00  0.00     0.031 A 
ATOM     45  C   UNL A   1      41.093  31.091  30.217  1.00  0.00     0.049 A 
ATOM     46  C   UNL A   1      45.321  29.333  27.074  1.00  0.00     0.074 A 
ATOM     47  C   UNL A   1      41.185  32.368  30.748  1.00  0.00     0.029 A 
ATOM     48  N   UNL A   1      42.229  30.894  29.452  1.00  0.00    -0.354 N 
ATOM     49  N   UNL A   1      44.419  29.887  27.844  1.00  0.00    -0.248 NA
ATOM     50  C   UNL A   1      46.481  30.192  26.787  1.00  0.00     0.031 C 
ATOM     51  C   UNL A   1      42.370  32.951  30.286  1.00  0.00     0.029 A 
ATOM     52  C   UNL A   1      43.030  32.023  29.499  1.00  0.00     0.049 A 
ATOM     53  H   UNL A   1      42.437  30.074  28.950  1.00  0.00     0.167 HD
ATOM     54  C   UNL A   1      44.890  31.164  28.118  1.00  0.00     0.074 A 
ATOM     55  C   UNL A   1      46.177  31.289  27.466  1.00  0.00     0.031 C 
ATOM     56  C   UNL A   1      44.298  32.149  28.834  1.00  0.00     0.031 A 
BRANCH  43  57
ATOM     57  C   UNL A   1      38.898  30.490  31.292  1.00  0.00    -0.014 A 
ATOM     58  C   UNL A   1      38.990  30.476  32.690  1.00  0.00     0.009 A 
ATOM     59  C   UNL A   1      37.706  30.927  30.690  1.00  0.00     0.009 A 
ATOM     60  C   UNL A   1      37.900  30.872  33.470  1.00  0.00     0.001 A 
ATOM     61  C   UNL A   1      36.628  31.344  31.472  1.00  0.00     0.001 A 
ATOM     62  C   UNL A   1      36.724  31.310  32.861  1.00  0.00     0.000 A 
ENDBRANCH  43  57
BRANCH  44  63
ATOM     63  C   UNL A   1      46.463  27.530  25.606  1.00  0.00    -0.014 A 
ATOM     64  C   UNL A   1      46.542  27.888  24.253  1.00  0.00     0.009 A 
ATOM     65  C   UNL A   1      47.492  26.757  26.168  1.00  0.00     0.009 A 
ATOM     66  C   UNL A   1      47.628  27.477  23.477  1.00  0.00     0.001 A 
ATOM     67  C   UNL A   1      48.590  26.372  25.398  1.00  0.00     0.001 A 
ATOM     68  C   UNL A   1      48.654  26.728  24.052  1.00  0.00     0.000 A 
ENDBRANCH  44  63
BRANCH  56  69
ATOM     69  C   UNL A   1      45.037  33.449  28.945  1.00  0.00    -0.014 A 
ATOM     70  C   UNL A   1      44.821  34.479  28.016  1.00  0.00     0.009 A 
ATOM     71  C   UNL A   1      45.941  33.657  29.997  1.00  0.00     0.009 A 
ATOM     72  C   UNL A   1      45.519  35.683  28.123  1.00  0.00     0.001 A 
ATOM     73  C   UNL A   1      46.623  34.869  30.112  1.00  0.00     0.001 A 
ATOM     74  C   UNL A   1      46.418  35.878  29.171  1.00  0.00     0.000 A 
ENDBRANCH  56  69
ENDBRANCH  30  31
ENDBRANCH  23  25
ENDBRANCH  22  23
ENDBRANCH  21  22
ENDBRANCH   1  21
TORSDOF 15
ENDMDL
MODEL 2
REMARK VINA RESULT:     -11.0      2.526      7.481
REMARK SMILES C[C@@H](C(=O)OCCOC(=O)c1ccc(-c2c3nc(c(-c4ccccc4)c4ccc([nH]4)c(-c4ccccc4)c4nc(c(-c5ccccc5)c5ccc2[nH]5)C=C4)C=C3)cc1)c1ccc(C[C@H]2CCC[C@H]2O)cc1
REMARK SMILES IDX 6 1 5 2 3 3 4 4 2 5 1 6 59 7 60 8 71 9 61 10 70 11 62 12
REMARK SMILES IDX 63 13 64 14 65 15 68 16 66 17 67 18 69 19 7 21 8 22 9 23
REMARK SMILES IDX 10 24 11 25 12 26 58 27 13 28 57 29 14 30 15 31 16 32 51 33
REMARK SMILES IDX 17 34 56 35 50 36 52 37 18 38 55 39 49 40 48 41 19 43 41 44
REMARK SMILES IDX 26 45 40 46 27 47 30 48 39 49 53 50 28 51 29 52 38 54 54 55
REMARK SMILES IDX 31 56 20 57 21 58 25 59 22 60 24 61 23 62 42 63 43 64 47 65
REMARK SMILES IDX 44 66 46 67 45 68 32 69 33 70 37 71 34 72 36 73 35 74
REMARK H PARENT 69 20 52 42 30 53
REMARK Flexibility Score: inf
ROOT
ATOM      1  C   UNL A   1      32.411  29.717  26.888  1.00  0.00     0.274 C 
ENDROOT
BRANCH   1   2
ATOM      2  O   UNL A   1      31.556  29.825  25.730  1.00  0.00    -0.462 OA
BRANCH   2   3
ATOM      3  C   UNL A   1      31.599  28.796  24.838  1.00  0.00     0.313 C 
ATOM      4  O   UNL A   1      30.654  28.049  24.606  1.00  0.00    -0.252 OA
BRANCH   3   5
ATOM      5  C   UNL A   1      32.979  28.645  24.187  1.00  0.00     0.126 C 
ATOM      6  C   UNL A   1      33.049  29.188  22.754  1.00  0.00     0.025 C 
BRANCH   5   7
ATOM      7  C   UNL A   1      33.491  27.213  24.301  1.00  0.00    -0.034 A 
ATOM      8  C   UNL A   1      33.752  26.673  25.568  1.00  0.00     0.005 A 
ATOM      9  C   UNL A   1      33.652  26.380  23.185  1.00  0.00     0.005 A 
ATOM     10  C   UNL A   1      34.159  25.342  25.714  1.00  0.00     0.004 A 
ATOM     11  C   UNL A   1      34.059  25.048  23.335  1.00  0.00     0.004 A 
ATOM     12  C   UNL A   1      34.319  24.510  24.600  1.00  0.00    -0.048 A 
BRANCH  12  13
ATOM     13  C   UNL A   1      34.674  23.052  24.790  1.00  0.00     0.041 C 
BRANCH  13  14
ATOM     14  C   UNL A   1      36.108  22.578  24.514  1.00  0.00     0.022 C 
ATOM     15  C   UNL A   1      37.229  23.375  25.209  1.00  0.00     0.007 C 
ATOM     16  C   UNL A   1      36.439  21.090  24.740  1.00  0.00     0.117 C 
ATOM     17  C   UNL A   1      38.125  22.344  25.880  1.00  0.00     0.003 C 
ATOM     18  C   UNL A   1      37.933  21.085  25.048  1.00  0.00     0.032 C 
BRANCH  16  19
ATOM     19  O   UNL A   1      35.740  20.484  25.813  1.00  0.00    -0.393 OA
ATOM     20  H   UNL A   1      34.997  19.967  25.466  1.00  0.00     0.210 HD
ENDBRANCH  16  19
ENDBRANCH  13  14
ENDBRANCH  12  13
ENDBRANCH   5   7
ENDBRANCH   3   5
ENDBRANCH   2   3
ENDBRANCH   1   2
BRANCH   1  21
ATOM     21  C   UNL A   1      32.874  31.104  27.321  1.00  0.00     0.275 C 
BRANCH  21  22
ATOM     22  O   UNL A   1      34.311  31.131  27.355  1.00  0.00    -0.458 OA
BRANCH  22  23
ATOM     23  C   UNL A   1      34.881  31.131  28.581  1.00  0.00     0.338 C 
ATOM     24  O   UNL A   1      34.478  31.696  29.585  1.00  0.00    -0.246 OA
BRANCH  23  25
ATOM     25  C   UNL A   1      36.117  30.324  28.559  1.00  0.00     0.060 A 
ATOM     26  C   UNL A   1      36.579  29.703  29.717  1.00  0.00     0.016 A 
ATOM     27  C   UNL A   1      36.889  30.284  27.396  1.00  0.00     0.016 A 
ATOM     28  C   UNL A   1      37.855  29.137  29.736  1.00  0.00     0.010 A 
ATOM     29  C   UNL A   1      38.132  29.637  27.400  1.00  0.00     0.010 A 
ATOM     30  C   UNL A   1      38.661  29.101  28.586  1.00  0.00    -0.014 A 
BRANCH  30  31
ATOM     31  C   UNL A   1      40.065  28.589  28.644  1.00  0.00     0.031 A 
ATOM     32  C   UNL A   1      41.187  29.475  29.140  1.00  0.00     0.074 A 
ATOM     33  C   UNL A   1      40.364  27.314  28.316  1.00  0.00     0.049 A 
ATOM     34  N   UNL A   1      42.484  29.283  29.078  1.00  0.00    -0.248 NA
ATOM     35  C   UNL A   1      40.806  30.742  29.784  1.00  0.00     0.031 C 
ATOM     36  C   UNL A   1      39.406  26.293  27.893  1.00  0.00     0.029 A 
ATOM     37  N   UNL A   1      41.570  26.652  28.318  1.00  0.00    -0.354 N 
ATOM     38  C   UNL A   1      43.067  30.439  29.587  1.00  0.00     0.074 A 
ATOM     39  C   UNL A   1      41.985  31.316  29.981  1.00  0.00     0.031 C 
ATOM     40  C   UNL A   1      40.043  25.121  27.755  1.00  0.00     0.029 A 
ATOM     41  C   UNL A   1      41.471  25.327  27.966  1.00  0.00     0.049 A 
ATOM     42  H   UNL A   1      42.423  27.086  28.549  1.00  0.00     0.167 HD
ATOM     43  C   UNL A   1      44.380  30.750  29.702  1.00  0.00     0.031 A 
ATOM     44  C   UNL A   1      42.417  24.386  27.786  1.00  0.00     0.031 A 
ATOM     45  C   UNL A   1      45.467  29.861  29.384  1.00  0.00     0.049 A 
ATOM     46  C   UNL A   1      43.866  24.750  27.911  1.00  0.00     0.074 A 
ATOM     47  C   UNL A   1      46.830  30.102  29.456  1.00  0.00     0.029 A 
ATOM     48  N   UNL A   1      45.316  28.550  28.968  1.00  0.00    -0.354 N 
ATOM     49  N   UNL A   1      44.403  25.893  28.256  1.00  0.00    -0.248 NA
ATOM     50  C   UNL A   1      44.842  23.700  27.581  1.00  0.00     0.031 C 
ATOM     51  C   UNL A   1      47.503  28.941  29.063  1.00  0.00     0.029 A 
ATOM     52  C   UNL A   1      46.559  27.968  28.783  1.00  0.00     0.049 A 
ATOM     53  H   UNL A   1      44.453  28.098  28.825  1.00  0.00     0.167 HD
ATOM     54  C   UNL A   1      45.776  25.707  28.166  1.00  0.00     0.074 A 
ATOM     55  C   UNL A   1      45.992  24.330  27.773  1.00  0.00     0.031 C 
ATOM     56  C   UNL A   1      46.767  26.605  28.375  1.00  0.00     0.031 A 
BRANCH  43  57
ATOM     57  C   UNL A   1      44.728  32.142  30.150  1.00  0.00    -0.014 A 
ATOM     58  C   UNL A   1      45.210  32.403  31.440  1.00  0.00     0.009 A 
ATOM     59  C   UNL A   1      44.624  33.201  29.233  1.00  0.00     0.009 A 
ATOM     60  C   UNL A   1      45.557  33.705  31.810  1.00  0.00     0.001 A 
ATOM     61  C   UNL A   1      44.994  34.495  29.598  1.00  0.00     0.001 A 
ATOM     62  C   UNL A   1      45.455  34.747  30.889  1.00  0.00     0.000 A 
ENDBRANCH  43  57
BRANCH  44  63
ATOM     63  C   UNL A   1      42.019  23.010  27.394  1.00  0.00    -0.014 A 
ATOM     64  C   UNL A   1      41.563  22.100  28.359  1.00  0.00     0.009 A 
ATOM     65  C   UNL A   1      42.080  22.606  26.051  1.00  0.00     0.009 A 
ATOM     66  C   UNL A   1      41.177  20.811  27.985  1.00  0.00     0.001 A 
ATOM     67  C   UNL A   1      41.667  21.327  25.676  1.00  0.00     0.001 A 
ATOM     68  C   UNL A   1      41.221  20.429  26.645  1.00  0.00     0.000 A 
ENDBRANCH  44  63
BRANCH  56  69
ATOM     69  C   UNL A   1      48.175  26.126  28.179  1.00  0.00    -0.014 A 
ATOM     70  C   UNL A   1      48.916  25.618  29.257  1.00  0.00     0.009 A 
ATOM     71  C   UNL A   1      48.759  26.162  26.905  1.00  0.00     0.009 A 
ATOM     72  C   UNL A   1      50.228  25.180  29.066  1.00  0.00     0.001 A 
ATOM     73  C   UNL A   1      50.065  25.707  26.713  1.00  0.00     0.001 A 
ATOM     74  C   UNL A   1      50.801  25.224  27.795  1.00  0.00     0.000 A 
ENDBRANCH  56  69
ENDBRANCH  30  31
ENDBRANCH  23  25
ENDBRANCH  22  23
ENDBRANCH  21  22
ENDBRANCH   1  21
TORSDOF 15
ENDMDL
MODEL 3
REMARK VINA RESULT:     -10.9      5.375      9.596
REMARK SMILES C[C@@H](C(=O)OCCOC(=O)c1ccc(-c2c3nc(c(-c4ccccc4)c4ccc([nH]4)c(-c4ccccc4)c4nc(c(-c5ccccc5)c5ccc2[nH]5)C=C4)C=C3)cc1)c1ccc(C[C@H]2CCC[C@H]2O)cc1
REMARK SMILES IDX 6 1 5 2 3 3 4 4 2 5 1 6 59 7 60 8 71 9 61 10 70 11 62 12
REMARK SMILES IDX 63 13 64 14 65 15 68 16 66 17 67 18 69 19 7 21 8 22 9 23
REMARK SMILES IDX 10 24 11 25 12 26 58 27 13 28 57 29 14 30 15 31 16 32 51 33
REMARK SMILES IDX 17 34 56 35 50 36 52 37 18 38 55 39 49 40 48 41 19 43 41 44
REMARK SMILES IDX 26 45 40 46 27 47 30 48 39 49 53 50 28 51 29 52 38 54 54 55
REMARK SMILES IDX 31 56 20 57 21 58 25 59 22 60 24 61 23 62 42 63 43 64 47 65
REMARK SMILES IDX 44 66 46 67 45 68 32 69 33 70 37 71 34 72 36 73 35 74
REMARK H PARENT 69 20 52 42 30 53
REMARK Flexibility Score: inf
ROOT
ATOM      1  C   UNL A   1      33.387  35.043  28.877  1.00  0.00     0.274 C 
ENDROOT
BRANCH   1   2
ATOM      2  O   UNL A   1      34.681  34.535  29.265  1.00  0.00    -0.462 OA
BRANCH   2   3
ATOM      3  C   UNL A   1      34.744  33.220  29.617  1.00  0.00     0.313 C 
ATOM      4  O   UNL A   1      34.028  32.703  30.468  1.00  0.00    -0.252 OA
BRANCH   3   5
ATOM      5  C   UNL A   1      35.844  32.465  28.862  1.00  0.00     0.126 C 
ATOM      6  C   UNL A   1      36.735  33.369  28.000  1.00  0.00     0.025 C 
BRANCH   5   7
ATOM      7  C   UNL A   1      35.271  31.286  28.082  1.00  0.00    -0.034 A 
ATOM      8  C   UNL A   1      36.050  30.133  27.904  1.00  0.00     0.005 A 
ATOM      9  C   UNL A   1      33.961  31.277  27.585  1.00  0.00     0.005 A 
ATOM     10  C   UNL A   1      35.533  29.008  27.253  1.00  0.00     0.004 A 
ATOM     11  C   UNL A   1      33.446  30.149  26.933  1.00  0.00     0.004 A 
ATOM     12  C   UNL A   1      34.224  28.999  26.757  1.00  0.00    -0.048 A 
BRANCH  12  13
ATOM     13  C   UNL A   1      33.659  27.741  26.136  1.00  0.00     0.041 C 
BRANCH  13  14
ATOM     14  C   UNL A   1      32.142  27.502  26.151  1.00  0.00     0.022 C 
ATOM     15  C   UNL A   1      31.373  27.959  24.896  1.00  0.00     0.007 C 
ATOM     16  C   UNL A   1      31.632  26.084  26.471  1.00  0.00     0.117 C 
ATOM     17  C   UNL A   1      30.508  26.779  24.479  1.00  0.00     0.003 C 
ATOM     18  C   UNL A   1      30.279  26.010  25.771  1.00  0.00     0.032 C 
BRANCH  16  19
ATOM     19  O   UNL A   1      32.459  25.036  25.996  1.00  0.00    -0.393 OA
ATOM     20  H   UNL A   1      31.947  24.460  25.407  1.00  0.00     0.210 HD
ENDBRANCH  16  19
ENDBRANCH  13  14
ENDBRANCH  12  13
ENDBRANCH   5   7
ENDBRANCH   3   5
ENDBRANCH   2   3
ENDBRANCH   1   2
BRANCH   1  21
ATOM     21  C   UNL A   1      32.903  36.065  29.901  1.00  0.00     0.275 C 
BRANCH  21  22
ATOM     22  O   UNL A   1      32.375  35.371  31.044  1.00  0.00    -0.458 OA
BRANCH  22  23
ATOM     23  C   UNL A   1      32.657  35.908  32.252  1.00  0.00     0.338 C 
ATOM     24  O   UNL A   1      32.078  36.828  32.807  1.00  0.00    -0.246 OA
BRANCH  23  25
ATOM     25  C   UNL A   1      33.813  35.213  32.852  1.00  0.00     0.060 A 
ATOM     26  C   UNL A   1      35.079  35.791  32.828  1.00  0.00     0.016 A 
ATOM     27  C   UNL A   1      33.653  33.914  33.340  1.00  0.00     0.016 A 
ATOM     28  C   UNL A   1      36.193  35.033  33.191  1.00  0.00     0.010 A 
ATOM     29  C   UNL A   1      34.767  33.189  33.785  1.00  0.00     0.010 A 
ATOM     30  C   UNL A   1      36.063  33.717  33.666  1.00  0.00    -0.014 A 
BRANCH  30  31
ATOM     31  C   UNL A   1      37.269  32.878  33.952  1.00  0.00     0.031 A 
ATOM     32  C   UNL A   1      38.004  33.012  35.268  1.00  0.00     0.074 A 
ATOM     33  C   UNL A   1      37.700  31.942  33.080  1.00  0.00     0.049 A 
ATOM     34  N   UNL A   1      39.171  32.524  35.619  1.00  0.00    -0.248 NA
ATOM     35  C   UNL A   1      37.349  33.799  36.325  1.00  0.00     0.031 C 
ATOM     36  C   UNL A   1      37.073  31.616  31.799  1.00  0.00     0.029 A 
ATOM     37  N   UNL A   1      38.759  31.069  33.159  1.00  0.00    -0.354 N 
ATOM     38  C   UNL A   1      39.426  33.019  36.893  1.00  0.00     0.074 A 
ATOM     39  C   UNL A   1      38.282  33.823  37.267  1.00  0.00     0.031 C 
ATOM     40  C   UNL A   1      37.706  30.567  31.253  1.00  0.00     0.029 A 
ATOM     41  C   UNL A   1      38.853  30.218  32.084  1.00  0.00     0.049 A 
ATOM     42  H   UNL A   1      39.390  31.055  33.914  1.00  0.00     0.167 HD
ATOM     43  C   UNL A   1      40.517  32.838  37.674  1.00  0.00     0.031 A 
ATOM     44  C   UNL A   1      39.776  29.289  31.768  1.00  0.00     0.031 A 
ATOM     45  C   UNL A   1      41.629  31.984  37.347  1.00  0.00     0.049 A 
ATOM     46  C   UNL A   1      40.981  29.106  32.641  1.00  0.00     0.074 A 
ATOM     47  C   UNL A   1      42.786  31.754  38.077  1.00  0.00     0.029 A 
ATOM     48  N   UNL A   1      41.709  31.192  36.215  1.00  0.00    -0.354 N 
ATOM     49  N   UNL A   1      41.275  29.691  33.775  1.00  0.00    -0.248 NA
ATOM     50  C   UNL A   1      42.002  28.161  32.166  1.00  0.00     0.031 C 
ATOM     51  C   UNL A   1      43.574  30.838  37.373  1.00  0.00     0.029 A 
ATOM     52  C   UNL A   1      42.891  30.471  36.226  1.00  0.00     0.049 A 
ATOM     53  H   UNL A   1      41.026  31.149  35.507  1.00  0.00     0.167 HD
ATOM     54  C   UNL A   1      42.522  29.201  34.139  1.00  0.00     0.074 A 
ATOM     55  C   UNL A   1      42.911  28.241  33.128  1.00  0.00     0.031 C 
ATOM     56  C   UNL A   1      43.281  29.532  35.210  1.00  0.00     0.031 A 
BRANCH  43  57
ATOM     57  C   UNL A   1      40.595  33.622  38.954  1.00  0.00    -0.014 A 
ATOM     58  C   UNL A   1      40.193  33.074  40.180  1.00  0.00     0.009 A 
ATOM     59  C   UNL A   1      41.139  34.917  38.930  1.00  0.00     0.009 A 
ATOM     60  C   UNL A   1      40.313  33.819  41.356  1.00  0.00     0.001 A 
ATOM     61  C   UNL A   1      41.279  35.649  40.110  1.00  0.00     0.001 A 
ATOM     62  C   UNL A   1      40.860  35.102  41.320  1.00  0.00     0.000 A 
ENDBRANCH  43  57
BRANCH  44  63
ATOM     63  C   UNL A   1      39.626  28.503  30.517  1.00  0.00    -0.014 A 
ATOM     64  C   UNL A   1      40.114  29.001  29.301  1.00  0.00     0.009 A 
ATOM     65  C   UNL A   1      39.008  27.242  30.539  1.00  0.00     0.009 A 
ATOM     66  C   UNL A   1      39.982  28.252  28.129  1.00  0.00     0.001 A 
ATOM     67  C   UNL A   1      38.903  26.484  29.372  1.00  0.00     0.001 A 
ATOM     68  C   UNL A   1      39.386  26.992  28.167  1.00  0.00     0.000 A 
ENDBRANCH  44  63
BRANCH  56  69
ATOM     69  C   UNL A   1      44.612  28.852  35.339  1.00  0.00    -0.014 A 
ATOM     70  C   UNL A   1      45.768  29.427  34.788  1.00  0.00     0.009 A 
ATOM     71  C   UNL A   1      44.716  27.638  36.032  1.00  0.00     0.009 A 
ATOM     72  C   UNL A   1      47.000  28.783  34.907  1.00  0.00     0.001 A 
ATOM     73  C   UNL A   1      45.954  27.005  36.164  1.00  0.00     0.001 A 
ATOM     74  C   UNL A   1      47.093  27.574  35.595  1.00  0.00     0.000 A 
ENDBRANCH  56  69
ENDBRANCH  30  31
ENDBRANCH  23  25
ENDBRANCH  22  23
ENDBRANCH  21  22
ENDBRANCH   1  21
TORSDOF 15
ENDMDL
