MODEL 1
REMARK VINA RESULT:      -9.7      0.000      0.000
REMARK SMILES O=C(OCCOC(=O)c1ccc(COc2cccc(Cl)c2Cl)o1)c1ccc(-c2c3nc(c(-c4ccccc4)c4ccc([nH]4)c(-c4ccccc4)c4nc(c(-c5ccccc5)c5ccc2[nH]5)C=C4)C=C3)cc1
REMARK SMILES IDX 5 1 4 2 3 3 2 4 1 5 24 6 25 7 71 8 26 9 70 10 27 11 28 12
REMARK SMILES IDX 29 13 64 14 30 15 69 16 63 17 65 18 31 19 68 20 62 21 61 22
REMARK SMILES IDX 32 24 54 25 39 26 53 27 40 28 43 29 52 30 66 31 41 32 42 33
REMARK SMILES IDX 51 35 67 36 44 37 33 38 34 39 38 40 35 41 37 42 36 43 55 44
REMARK SMILES IDX 56 45 60 46 57 47 59 48 58 49 45 50 46 51 50 52 47 53 49 54
REMARK SMILES IDX 48 55 6 56 7 57 8 58 9 59 10 60 23 61 11 62 12 63 13 64
REMARK SMILES IDX 14 65 15 66 16 67 21 68 17 69 19 70 22 71 18 72 20 73
REMARK H PARENT 65 23 43 34
REMARK Flexibility Score: inf
ROOT
ATOM      1  C   UNL A   1      33.030  37.204  30.686  1.00  0.00     0.275 C 
ENDROOT
BRANCH   1   2
ATOM      2  C   UNL A   1      33.404  36.535  29.362  1.00  0.00     0.275 C 
BRANCH   2   3
ATOM      3  O   UNL A   1      32.681  35.316  29.114  1.00  0.00    -0.458 OA
BRANCH   3   4
ATOM      4  C   UNL A   1      33.116  34.226  28.438  1.00  0.00     0.338 C 
ATOM      5  O   UNL A   1      32.399  33.702  27.589  1.00  0.00    -0.246 OA
BRANCH   4   6
ATOM      6  C   UNL A   1      34.356  33.500  28.843  1.00  0.00     0.060 A 
ATOM      7  C   UNL A   1      34.444  32.572  29.884  1.00  0.00     0.016 A 
ATOM      8  C   UNL A   1      35.539  33.860  28.171  1.00  0.00     0.016 A 
ATOM      9  C   UNL A   1      35.671  31.993  30.226  1.00  0.00     0.010 A 
ATOM     10  C   UNL A   1      36.768  33.285  28.511  1.00  0.00     0.010 A 
ATOM     11  C   UNL A   1      36.842  32.357  29.555  1.00  0.00    -0.014 A 
BRANCH  11  12
ATOM     12  C   UNL A   1      38.150  31.882  30.062  1.00  0.00     0.031 A 
ATOM     13  C   UNL A   1      38.642  30.534  29.629  1.00  0.00     0.074 A 
ATOM     14  C   UNL A   1      38.915  32.656  30.853  1.00  0.00     0.049 A 
ATOM     15  N   UNL A   1      39.802  29.972  29.850  1.00  0.00    -0.248 NA
ATOM     16  C   UNL A   1      37.720  29.727  28.813  1.00  0.00     0.031 C 
ATOM     17  C   UNL A   1      38.580  34.009  31.281  1.00  0.00     0.029 A 
ATOM     18  N   UNL A   1      40.131  32.416  31.439  1.00  0.00    -0.354 N 
ATOM     19  C   UNL A   1      39.764  28.765  29.166  1.00  0.00     0.074 A 
ATOM     20  C   UNL A   1      38.446  28.645  28.582  1.00  0.00     0.031 C 
ATOM     21  C   UNL A   1      39.536  34.466  32.107  1.00  0.00     0.029 A 
ATOM     22  C   UNL A   1      40.571  33.445  32.235  1.00  0.00     0.049 A 
ATOM     23  H   UNL A   1      40.641  31.585  31.301  1.00  0.00     0.167 HD
ATOM     24  C   UNL A   1      40.751  27.854  29.008  1.00  0.00     0.031 A 
ATOM     25  C   UNL A   1      41.691  33.560  32.970  1.00  0.00     0.031 A 
ATOM     26  C   UNL A   1      42.041  27.950  29.629  1.00  0.00     0.049 A 
ATOM     27  C   UNL A   1      42.723  32.472  32.891  1.00  0.00     0.074 A 
ATOM     28  C   UNL A   1      43.113  27.081  29.541  1.00  0.00     0.029 A 
ATOM     29  N   UNL A   1      42.424  28.978  30.479  1.00  0.00    -0.354 N 
ATOM     30  N   UNL A   1      42.704  31.372  32.179  1.00  0.00    -0.248 NA
ATOM     31  C   UNL A   1      43.947  32.661  33.681  1.00  0.00     0.031 C 
ATOM     32  C   UNL A   1      44.130  27.562  30.376  1.00  0.00     0.029 A 
ATOM     33  C   UNL A   1      43.705  28.752  30.947  1.00  0.00     0.049 A 
ATOM     34  H   UNL A   1      41.865  29.754  30.714  1.00  0.00     0.167 HD
ATOM     35  C   UNL A   1      43.932  30.761  32.392  1.00  0.00     0.074 A 
ATOM     36  C   UNL A   1      44.666  31.610  33.310  1.00  0.00     0.031 C 
ATOM     37  C   UNL A   1      44.416  29.614  31.858  1.00  0.00     0.031 A 
BRANCH  24  38
ATOM     38  C   UNL A   1      40.430  26.674  28.140  1.00  0.00    -0.014 A 
ATOM     39  C   UNL A   1      40.896  26.608  26.816  1.00  0.00     0.009 A 
ATOM     40  C   UNL A   1      39.604  25.650  28.624  1.00  0.00     0.009 A 
ATOM     41  C   UNL A   1      40.498  25.564  25.977  1.00  0.00     0.001 A 
ATOM     42  C   UNL A   1      39.226  24.596  27.789  1.00  0.00     0.001 A 
ATOM     43  C   UNL A   1      39.661  24.561  26.465  1.00  0.00     0.000 A 
ENDBRANCH  24  38
BRANCH  25  44
ATOM     44  C   UNL A   1      41.916  34.772  33.799  1.00  0.00    -0.014 A 
ATOM     45  C   UNL A   1      41.333  34.891  35.069  1.00  0.00     0.009 A 
ATOM     46  C   UNL A   1      42.724  35.818  33.322  1.00  0.00     0.009 A 
ATOM     47  C   UNL A   1      41.538  36.040  35.838  1.00  0.00     0.001 A 
ATOM     48  C   UNL A   1      42.941  36.957  34.101  1.00  0.00     0.001 A 
ATOM     49  C   UNL A   1      42.344  37.070  35.355  1.00  0.00     0.000 A 
ENDBRANCH  25  44
BRANCH  37  50
ATOM     50  C   UNL A   1      45.824  29.237  32.217  1.00  0.00    -0.014 A 
ATOM     51  C   UNL A   1      46.913  29.666  31.445  1.00  0.00     0.009 A 
ATOM     52  C   UNL A   1      46.059  28.474  33.371  1.00  0.00     0.009 A 
ATOM     53  C   UNL A   1      48.214  29.315  31.811  1.00  0.00     0.001 A 
ATOM     54  C   UNL A   1      47.361  28.145  33.747  1.00  0.00     0.001 A 
ATOM     55  C   UNL A   1      48.436  28.559  32.963  1.00  0.00     0.000 A 
ENDBRANCH  37  50
ENDBRANCH  11  12
ENDBRANCH   4   6
ENDBRANCH   3   4
ENDBRANCH   2   3
ENDBRANCH   1   2
BRANCH   1  56
ATOM     56  O   UNL A   1      32.949  36.273  31.774  1.00  0.00    -0.456 OA
BRANCH  56  57
ATOM     57  C   UNL A   1      33.870  36.486  32.764  1.00  0.00     0.374 C 
ATOM     58  O   UNL A   1      34.121  37.576  33.261  1.00  0.00    -0.242 OA
BRANCH  57  59
ATOM     59  C   UNL A   1      34.439  35.230  33.172  1.00  0.00     0.211 A 
ATOM     60  C   UNL A   1      34.035  33.917  33.034  1.00  0.00     0.058 A 
ATOM     61  O   UNL A   1      35.620  35.266  33.858  1.00  0.00    -0.450 OA
ATOM     62  C   UNL A   1      35.022  33.114  33.666  1.00  0.00     0.050 A 
ATOM     63  C   UNL A   1      35.973  33.984  34.152  1.00  0.00     0.142 A 
BRANCH  63  64
ATOM     64  C   UNL A   1      37.280  33.800  34.838  1.00  0.00     0.304 C 
BRANCH  64  65
ATOM     65  O   UNL A   1      37.291  32.528  35.512  1.00  0.00    -0.484 OA
BRANCH  65  66
ATOM     66  C   UNL A   1      38.494  31.876  35.385  1.00  0.00     0.140 A 
ATOM     67  C   UNL A   1      39.507  32.138  36.314  1.00  0.00     0.048 A 
ATOM     68  C   UNL A   1      38.672  30.894  34.405  1.00  0.00     0.101 A 
ATOM     69  C   UNL A   1      40.733  31.492  36.222  1.00  0.00     0.005 A 
ATOM     70  C   UNL A   1      39.899  30.220  34.336  1.00  0.00     0.063 A 
ATOM     71  Cl  UNL A   1      37.380  30.539  33.306  1.00  0.00    -0.079 Cl
ATOM     72  C   UNL A   1      40.930  30.533  35.232  1.00  0.00     0.022 A 
ATOM     73  Cl  UNL A   1      40.215  28.981  33.173  1.00  0.00    -0.083 Cl
ENDBRANCH  65  66
ENDBRANCH  64  65
ENDBRANCH  63  64
ENDBRANCH  57  59
ENDBRANCH  56  57
ENDBRANCH   1  56
TORSDOF 14
ENDMDL
MODEL 2
REMARK VINA RESULT:      -9.3      1.142      6.214
REMARK SMILES O=C(OCCOC(=O)c1ccc(COc2cccc(Cl)c2Cl)o1)c1ccc(-c2c3nc(c(-c4ccccc4)c4ccc([nH]4)c(-c4ccccc4)c4nc(c(-c5ccccc5)c5ccc2[nH]5)C=C4)C=C3)cc1
REMARK SMILES IDX 5 1 4 2 3 3 2 4 1 5 24 6 25 7 71 8 26 9 70 10 27 11 28 12
REMARK SMILES IDX 29 13 64 14 30 15 69 16 63 17 65 18 31 19 68 20 62 21 61 22
REMARK SMILES IDX 32 24 54 25 39 26 53 27 40 28 43 29 52 30 66 31 41 32 42 33
REMARK SMILES IDX 51 35 67 36 44 37 33 38 34 39 38 40 35 41 37 42 36 43 55 44
REMARK SMILES IDX 56 45 60 46 57 47 59 48 58 49 45 50 46 51 50 52 47 53 49 54
REMARK SMILES IDX 48 55 6 56 7 57 8 58 9 59 10 60 23 61 11 62 12 63 13 64
REMARK SMILES IDX 14 65 15 66 16 67 21 68 17 69 19 70 22 71 18 72 20 73
REMARK H PARENT 65 23 43 34
REMARK Flexibility Score: inf
ROOT
ATOM      1  C   UNL A   1      33.016  36.439  31.302  1.00  0.00     0.275 C 
ENDROOT
BRANCH   1   2
ATOM      2  C   UNL A   1      32.982  36.242  29.786  1.00  0.00     0.275 C 
BRANCH   2   3
ATOM      3  O   UNL A   1      32.540  34.931  29.391  1.00  0.00    -0.458 OA
BRANCH   3   4
ATOM      4  C   UNL A   1      33.114  34.111  28.479  1.00  0.00     0.338 C 
ATOM      5  O   UNL A   1      32.501  33.793  27.464  1.00  0.00    -0.246 OA
BRANCH   4   6
ATOM      6  C   UNL A   1      34.393  33.396  28.770  1.00  0.00     0.060 A 
ATOM      7  C   UNL A   1      34.550  32.375  29.711  1.00  0.00     0.016 A 
ATOM      8  C   UNL A   1      35.537  33.863  28.098  1.00  0.00     0.016 A 
ATOM      9  C   UNL A   1      35.808  31.812  29.953  1.00  0.00     0.010 A 
ATOM     10  C   UNL A   1      36.797  33.304  28.339  1.00  0.00     0.010 A 
ATOM     11  C   UNL A   1      36.940  32.282  29.283  1.00  0.00    -0.014 A 
BRANCH  11  12
ATOM     12  C   UNL A   1      38.281  31.810  29.697  1.00  0.00     0.031 A 
ATOM     13  C   UNL A   1      39.023  32.582  30.745  1.00  0.00     0.074 A 
ATOM     14  C   UNL A   1      38.812  30.683  29.188  1.00  0.00     0.049 A 
ATOM     15  N   UNL A   1      40.150  32.287  31.341  1.00  0.00    -0.248 NA
ATOM     16  C   UNL A   1      38.400  33.833  31.206  1.00  0.00     0.031 C 
ATOM     17  C   UNL A   1      38.159  29.810  28.221  1.00  0.00     0.029 A 
ATOM     18  N   UNL A   1      40.023  30.080  29.413  1.00  0.00    -0.354 N 
ATOM     19  C   UNL A   1      40.347  33.293  32.276  1.00  0.00     0.074 A 
ATOM     20  C   UNL A   1      39.265  34.241  32.121  1.00  0.00     0.031 C 
ATOM     21  C   UNL A   1      38.993  28.809  27.888  1.00  0.00     0.029 A 
ATOM     22  C   UNL A   1      40.228  28.956  28.650  1.00  0.00     0.049 A 
ATOM     23  H   UNL A   1      40.683  30.420  30.060  1.00  0.00     0.167 HD
ATOM     24  C   UNL A   1      41.324  33.401  33.205  1.00  0.00     0.031 A 
ATOM     25  C   UNL A   1      41.284  28.126  28.588  1.00  0.00     0.031 A 
ATOM     26  C   UNL A   1      42.424  32.487  33.326  1.00  0.00     0.049 A 
ATOM     27  C   UNL A   1      42.429  28.340  29.537  1.00  0.00     0.074 A 
ATOM     28  C   UNL A   1      43.471  32.504  34.228  1.00  0.00     0.029 A 
ATOM     29  N   UNL A   1      42.628  31.396  32.492  1.00  0.00    -0.354 N 
ATOM     30  N   UNL A   1      42.565  29.253  30.467  1.00  0.00    -0.248 NA
ATOM     31  C   UNL A   1      43.542  27.385  29.457  1.00  0.00     0.031 C 
ATOM     32  C   UNL A   1      44.335  31.448  33.910  1.00  0.00     0.029 A 
ATOM     33  C   UNL A   1      43.799  30.749  32.838  1.00  0.00     0.049 A 
ATOM     34  H   UNL A   1      42.026  31.124  31.762  1.00  0.00     0.167 HD
ATOM     35  C   UNL A   1      43.752  28.954  31.121  1.00  0.00     0.074 A 
ATOM     36  C   UNL A   1      44.302  27.780  30.470  1.00  0.00     0.031 C 
ATOM     37  C   UNL A   1      44.323  29.580  32.178  1.00  0.00     0.031 A 
BRANCH  24  38
ATOM     38  C   UNL A   1      41.226  34.573  34.136  1.00  0.00    -0.014 A 
ATOM     39  C   UNL A   1      40.250  34.610  35.146  1.00  0.00     0.009 A 
ATOM     40  C   UNL A   1      42.073  35.677  33.965  1.00  0.00     0.009 A 
ATOM     41  C   UNL A   1      40.089  35.752  35.933  1.00  0.00     0.001 A 
ATOM     42  C   UNL A   1      41.924  36.809  34.769  1.00  0.00     0.001 A 
ATOM     43  C   UNL A   1      40.925  36.851  35.742  1.00  0.00     0.000 A 
ENDBRANCH  24  38
BRANCH  25  44
ATOM     44  C   UNL A   1      41.284  26.991  27.629  1.00  0.00    -0.014 A 
ATOM     45  C   UNL A   1      40.727  25.754  27.983  1.00  0.00     0.009 A 
ATOM     46  C   UNL A   1      41.839  27.145  26.348  1.00  0.00     0.009 A 
ATOM     47  C   UNL A   1      40.742  24.687  27.080  1.00  0.00     0.001 A 
ATOM     48  C   UNL A   1      41.837  26.082  25.442  1.00  0.00     0.001 A 
ATOM     49  C   UNL A   1      41.294  24.852  25.811  1.00  0.00     0.000 A 
ENDBRANCH  25  44
BRANCH  37  50
ATOM     50  C   UNL A   1      45.584  28.978  32.725  1.00  0.00    -0.014 A 
ATOM     51  C   UNL A   1      46.847  29.433  32.318  1.00  0.00     0.009 A 
ATOM     52  C   UNL A   1      45.501  27.965  33.694  1.00  0.00     0.009 A 
ATOM     53  C   UNL A   1      48.004  28.866  32.854  1.00  0.00     0.001 A 
ATOM     54  C   UNL A   1      46.659  27.419  34.245  1.00  0.00     0.001 A 
ATOM     55  C   UNL A   1      47.909  27.864  33.820  1.00  0.00     0.000 A 
ENDBRANCH  37  50
ENDBRANCH  11  12
ENDBRANCH   4   6
ENDBRANCH   3   4
ENDBRANCH   2   3
ENDBRANCH   1   2
BRANCH   1  56
ATOM     56  O   UNL A   1      33.928  35.546  31.956  1.00  0.00    -0.456 OA
BRANCH  56  57
ATOM     57  C   UNL A   1      34.365  35.984  33.178  1.00  0.00     0.374 C 
ATOM     58  O   UNL A   1      34.134  37.091  33.645  1.00  0.00    -0.242 OA
BRANCH  57  59
ATOM     59  C   UNL A   1      35.071  34.925  33.846  1.00  0.00     0.211 A 
ATOM     60  C   UNL A   1      35.483  34.736  35.150  1.00  0.00     0.058 A 
ATOM     61  O   UNL A   1      35.459  33.854  33.093  1.00  0.00    -0.450 OA
ATOM     62  C   UNL A   1      36.154  33.485  35.192  1.00  0.00     0.050 A 
ATOM     63  C   UNL A   1      36.112  32.981  33.910  1.00  0.00     0.142 A 
BRANCH  63  64
ATOM     64  C   UNL A   1      36.553  31.702  33.292  1.00  0.00     0.304 C 
BRANCH  64  65
ATOM     65  O   UNL A   1      37.685  31.188  34.017  1.00  0.00    -0.484 OA
BRANCH  65  66
ATOM     66  C   UNL A   1      38.219  30.064  33.432  1.00  0.00     0.140 A 
ATOM     67  C   UNL A   1      37.518  29.447  32.390  1.00  0.00     0.048 A 
ATOM     68  C   UNL A   1      39.487  29.603  33.801  1.00  0.00     0.101 A 
ATOM     69  C   UNL A   1      38.030  28.314  31.769  1.00  0.00     0.005 A 
ATOM     70  C   UNL A   1      40.014  28.479  33.150  1.00  0.00     0.063 A 
ATOM     71  Cl  UNL A   1      40.365  30.424  35.049  1.00  0.00    -0.079 Cl
ATOM     72  C   UNL A   1      39.278  27.829  32.150  1.00  0.00     0.022 A 
ATOM     73  Cl  UNL A   1      41.576  27.838  33.522  1.00  0.00    -0.083 Cl
ENDBRANCH  65  66
ENDBRANCH  64  65
ENDBRANCH  63  64
ENDBRANCH  57  59
ENDBRANCH  56  57
ENDBRANCH   1  56
TORSDOF 14
ENDMDL
MODEL 3
REMARK VINA RESULT:      -9.1      5.960     11.741
REMARK SMILES O=C(OCCOC(=O)c1ccc(COc2cccc(Cl)c2Cl)o1)c1ccc(-c2c3nc(c(-c4ccccc4)c4ccc([nH]4)c(-c4ccccc4)c4nc(c(-c5ccccc5)c5ccc2[nH]5)C=C4)C=C3)cc1
REMARK SMILES IDX 5 1 4 2 3 3 2 4 1 5 24 6 25 7 71 8 26 9 70 10 27 11 28 12
REMARK SMILES IDX 29 13 64 14 30 15 69 16 63 17 65 18 31 19 68 20 62 21 61 22
REMARK SMILES IDX 32 24 54 25 39 26 53 27 40 28 43 29 52 30 66 31 41 32 42 33
REMARK SMILES IDX 51 35 67 36 44 37 33 38 34 39 38 40 35 41 37 42 36 43 55 44
REMARK SMILES IDX 56 45 60 46 57 47 59 48 58 49 45 50 46 51 50 52 47 53 49 54
REMARK SMILES IDX 48 55 6 56 7 57 8 58 9 59 10 60 23 61 11 62 12 63 13 64
REMARK SMILES IDX 14 65 15 66 16 67 21 68 17 69 19 70 22 71 18 72 20 73
REMARK H PARENT 65 23 43 34
REMARK Flexibility Score: inf
ROOT
ATOM      1  C   UNL A   1      45.130  21.112  24.591  1.00  0.00     0.275 C 
ENDROOT
BRANCH   1   2
ATOM      2  C   UNL A   1      45.093  22.469  23.886  1.00  0.00     0.275 C 
BRANCH   2   3
ATOM      3  O   UNL A   1      44.368  23.472  24.620  1.00  0.00    -0.458 OA
BRANCH   3   4
ATOM      4  C   UNL A   1      44.804  24.704  24.977  1.00  0.00     0.338 C 
ATOM      5  O   UNL A   1      45.926  25.080  24.646  1.00  0.00    -0.246 OA
BRANCH   4   6
ATOM      6  C   UNL A   1      44.051  25.545  25.954  1.00  0.00     0.060 A 
ATOM      7  C   UNL A   1      44.343  26.875  26.268  1.00  0.00     0.016 A 
ATOM      8  C   UNL A   1      43.024  24.903  26.670  1.00  0.00     0.016 A 
ATOM      9  C   UNL A   1      43.612  27.557  27.246  1.00  0.00     0.010 A 
ATOM     10  C   UNL A   1      42.292  25.581  27.651  1.00  0.00     0.010 A 
ATOM     11  C   UNL A   1      42.595  26.912  27.955  1.00  0.00    -0.014 A 
BRANCH  11  12
ATOM     12  C   UNL A   1      41.972  27.589  29.116  1.00  0.00     0.031 A 
ATOM     13  C   UNL A   1      42.623  27.457  30.459  1.00  0.00     0.074 A 
ATOM     14  C   UNL A   1      40.873  28.353  28.971  1.00  0.00     0.049 A 
ATOM     15  N   UNL A   1      42.321  28.057  31.582  1.00  0.00    -0.248 NA
ATOM     16  C   UNL A   1      43.784  26.557  30.543  1.00  0.00     0.031 C 
ATOM     17  C   UNL A   1      40.194  28.616  27.708  1.00  0.00     0.029 A 
ATOM     18  N   UNL A   1      40.134  29.046  29.894  1.00  0.00    -0.354 N 
ATOM     19  C   UNL A   1      43.281  27.641  32.493  1.00  0.00     0.074 A 
ATOM     20  C   UNL A   1      44.130  26.686  31.814  1.00  0.00     0.031 C 
ATOM     21  C   UNL A   1      39.104  29.369  27.935  1.00  0.00     0.029 A 
ATOM     22  C   UNL A   1      39.032  29.669  29.361  1.00  0.00     0.049 A 
ATOM     23  H   UNL A   1      40.371  29.094  30.849  1.00  0.00     0.167 HD
ATOM     24  C   UNL A   1      43.461  28.043  33.771  1.00  0.00     0.031 A 
ATOM     25  C   UNL A   1      38.081  30.414  29.953  1.00  0.00     0.031 A 
ATOM     26  C   UNL A   1      42.590  28.952  34.459  1.00  0.00     0.049 A 
ATOM     27  C   UNL A   1      38.223  30.742  31.412  1.00  0.00     0.074 A 
ATOM     28  C   UNL A   1      42.676  29.424  35.755  1.00  0.00     0.029 A 
ATOM     29  N   UNL A   1      41.448  29.512  33.902  1.00  0.00    -0.354 N 
ATOM     30  N   UNL A   1      39.179  30.401  32.241  1.00  0.00    -0.248 NA
ATOM     31  C   UNL A   1      37.180  31.591  32.003  1.00  0.00     0.031 C 
ATOM     32  C   UNL A   1      41.559  30.235  35.998  1.00  0.00     0.029 A 
ATOM     33  C   UNL A   1      40.804  30.301  34.836  1.00  0.00     0.049 A 
ATOM     34  H   UNL A   1      41.143  29.367  32.977  1.00  0.00     0.167 HD
ATOM     35  C   UNL A   1      38.884  31.035  33.440  1.00  0.00     0.074 A 
ATOM     36  C   UNL A   1      37.653  31.772  33.230  1.00  0.00     0.031 C 
ATOM     37  C   UNL A   1      39.581  31.028  34.602  1.00  0.00     0.031 A 
BRANCH  24  38
ATOM     38  C   UNL A   1      44.646  27.465  34.487  1.00  0.00    -0.014 A 
ATOM     39  C   UNL A   1      44.538  26.258  35.199  1.00  0.00     0.009 A 
ATOM     40  C   UNL A   1      45.863  28.160  34.504  1.00  0.00     0.009 A 
ATOM     41  C   UNL A   1      45.611  25.785  35.957  1.00  0.00     0.001 A 
ATOM     42  C   UNL A   1      46.941  27.672  35.246  1.00  0.00     0.001 A 
ATOM     43  C   UNL A   1      46.811  26.495  35.981  1.00  0.00     0.000 A 
ENDBRANCH  24  38
BRANCH  25  44
ATOM     44  C   UNL A   1      36.945  30.942  29.154  1.00  0.00    -0.014 A 
ATOM     45  C   UNL A   1      35.881  30.108  28.783  1.00  0.00     0.009 A 
ATOM     46  C   UNL A   1      36.920  32.291  28.763  1.00  0.00     0.009 A 
ATOM     47  C   UNL A   1      34.822  30.608  28.021  1.00  0.00     0.001 A 
ATOM     48  C   UNL A   1      35.851  32.792  28.017  1.00  0.00     0.001 A 
ATOM     49  C   UNL A   1      34.806  31.950  27.640  1.00  0.00     0.000 A 
ENDBRANCH  25  44
BRANCH  37  50
ATOM     50  C   UNL A   1      39.052  31.878  35.719  1.00  0.00    -0.014 A 
ATOM     51  C   UNL A   1      39.392  33.235  35.826  1.00  0.00     0.009 A 
ATOM     52  C   UNL A   1      38.168  31.317  36.654  1.00  0.00     0.009 A 
ATOM     53  C   UNL A   1      38.873  34.008  36.866  1.00  0.00     0.001 A 
ATOM     54  C   UNL A   1      37.633  32.099  37.677  1.00  0.00     0.001 A 
ATOM     55  C   UNL A   1      37.991  33.440  37.787  1.00  0.00     0.000 A 
ENDBRANCH  37  50
ENDBRANCH  11  12
ENDBRANCH   4   6
ENDBRANCH   3   4
ENDBRANCH   2   3
ENDBRANCH   1   2
BRANCH   1  56
ATOM     56  O   UNL A   1      44.009  20.283  24.255  1.00  0.00    -0.456 OA
BRANCH  56  57
ATOM     57  C   UNL A   1      43.826  19.217  25.095  1.00  0.00     0.374 C 
ATOM     58  O   UNL A   1      44.487  18.188  25.072  1.00  0.00    -0.242 OA
BRANCH  57  59
ATOM     59  C   UNL A   1      42.792  19.525  26.046  1.00  0.00     0.211 A 
ATOM     60  C   UNL A   1      42.374  18.928  27.218  1.00  0.00     0.058 A 
ATOM     61  O   UNL A   1      42.009  20.616  25.793  1.00  0.00    -0.450 OA
ATOM     62  C   UNL A   1      41.283  19.697  27.705  1.00  0.00     0.050 A 
ATOM     63  C   UNL A   1      41.098  20.720  26.801  1.00  0.00     0.142 A 
BRANCH  63  64
ATOM     64  C   UNL A   1      40.192  21.898  26.752  1.00  0.00     0.304 C 
BRANCH  64  65
ATOM     65  O   UNL A   1      39.528  21.937  25.476  1.00  0.00    -0.484 OA
BRANCH  65  66
ATOM     66  C   UNL A   1      38.184  22.199  25.589  1.00  0.00     0.140 A 
ATOM     67  C   UNL A   1      37.772  23.497  25.910  1.00  0.00     0.048 A 
ATOM     68  C   UNL A   1      37.238  21.212  25.292  1.00  0.00     0.101 A 
ATOM     69  C   UNL A   1      36.422  23.801  26.025  1.00  0.00     0.005 A 
ATOM     70  C   UNL A   1      35.876  21.532  25.378  1.00  0.00     0.063 A 
ATOM     71  Cl  UNL A   1      37.770  19.628  24.833  1.00  0.00    -0.079 Cl
ATOM     72  C   UNL A   1      35.473  22.818  25.761  1.00  0.00     0.022 A 
ATOM     73  Cl  UNL A   1      34.629  20.389  25.018  1.00  0.00    -0.083 Cl
ENDBRANCH  65  66
ENDBRANCH  64  65
ENDBRANCH  63  64
ENDBRANCH  57  59
ENDBRANCH  56  57
ENDBRANCH   1  56
TORSDOF 14
ENDMDL
