MODEL 1
REMARK VINA RESULT:     -11.4      0.000      0.000
REMARK SMILES O=C(OCCOC(=O)[C@H]1C=C[C@@H](NC(=O)c2cn3ccccc3n2)C1)c1ccc(-c2c3nc(c(-c4ccccc4)c4ccc([nH]4)c(-c4ccccc4)c4nc(c(-c5ccccc5)c5ccc2[nH]5)C=C4)C=C3)cc1
REMARK SMILES IDX 4 1 3 2 2 3 1 4 26 5 27 6 73 7 28 8 72 9 29 10 30 11 31 12
REMARK SMILES IDX 66 13 32 14 71 15 65 16 67 17 33 18 70 19 64 20 63 21 34 23
REMARK SMILES IDX 56 24 41 25 55 26 42 27 45 28 54 29 68 30 43 31 44 32 53 34
REMARK SMILES IDX 69 35 46 36 35 37 36 38 40 39 37 40 39 41 38 42 57 43 58 44
REMARK SMILES IDX 62 45 59 46 61 47 60 48 47 49 48 50 52 51 49 52 51 53 50 54
REMARK SMILES IDX 5 55 6 56 7 57 8 58 9 59 10 60 25 61 11 62 12 63 13 64 14 65
REMARK SMILES IDX 15 67 16 68 17 69 24 70 18 71 23 72 19 73 22 74 20 75 21 76
REMARK H PARENT 67 22 45 33 13 66
REMARK Flexibility Score: inf
ROOT
ATOM      1  C   UNL A   1      38.789  19.797  25.002  1.00  0.00     0.275 C 
ENDROOT
BRANCH   1   2
ATOM      2  O   UNL A   1      39.753  19.132  25.832  1.00  0.00    -0.458 OA
BRANCH   2   3
ATOM      3  C   UNL A   1      41.070  19.420  25.949  1.00  0.00     0.338 C 
ATOM      4  O   UNL A   1      41.915  18.560  25.711  1.00  0.00    -0.246 OA
BRANCH   3   5
ATOM      5  C   UNL A   1      41.529  20.694  26.564  1.00  0.00     0.060 A 
ATOM      6  C   UNL A   1      41.477  21.006  27.928  1.00  0.00     0.016 A 
ATOM      7  C   UNL A   1      41.979  21.674  25.670  1.00  0.00     0.016 A 
ATOM      8  C   UNL A   1      41.970  22.229  28.404  1.00  0.00     0.010 A 
ATOM      9  C   UNL A   1      42.444  22.902  26.139  1.00  0.00     0.010 A 
ATOM     10  C   UNL A   1      42.473  23.181  27.516  1.00  0.00    -0.014 A 
BRANCH  10  11
ATOM     11  C   UNL A   1      42.976  24.499  27.979  1.00  0.00     0.031 A 
ATOM     12  C   UNL A   1      41.997  25.623  28.170  1.00  0.00     0.074 A 
ATOM     13  C   UNL A   1      44.300  24.732  28.091  1.00  0.00     0.049 A 
ATOM     14  N   UNL A   1      42.222  26.879  28.453  1.00  0.00    -0.248 NA
ATOM     15  C   UNL A   1      40.572  25.283  28.021  1.00  0.00     0.031 C 
ATOM     16  C   UNL A   1      45.367  23.750  27.886  1.00  0.00     0.029 A 
ATOM     17  N   UNL A   1      44.975  25.911  28.295  1.00  0.00    -0.354 N 
ATOM     18  C   UNL A   1      40.972  27.472  28.537  1.00  0.00     0.074 A 
ATOM     19  C   UNL A   1      39.996  26.462  28.191  1.00  0.00     0.031 C 
ATOM     20  C   UNL A   1      46.550  24.388  27.836  1.00  0.00     0.029 A 
ATOM     21  C   UNL A   1      46.327  25.814  28.049  1.00  0.00     0.049 A 
ATOM     22  H   UNL A   1      44.537  26.742  28.587  1.00  0.00     0.167 HD
ATOM     23  C   UNL A   1      40.656  28.728  28.929  1.00  0.00     0.031 A 
ATOM     24  C   UNL A   1      47.269  26.773  27.975  1.00  0.00     0.031 A 
ATOM     25  C   UNL A   1      41.624  29.737  29.251  1.00  0.00     0.049 A 
ATOM     26  C   UNL A   1      46.901  28.192  28.313  1.00  0.00     0.074 A 
ATOM     27  C   UNL A   1      41.420  31.003  29.772  1.00  0.00     0.029 A 
ATOM     28  N   UNL A   1      42.989  29.597  29.053  1.00  0.00    -0.354 N 
ATOM     29  N   UNL A   1      45.725  28.699  28.590  1.00  0.00    -0.248 NA
ATOM     30  C   UNL A   1      48.007  29.157  28.401  1.00  0.00     0.031 C 
ATOM     31  C   UNL A   1      42.665  31.635  29.873  1.00  0.00     0.029 A 
ATOM     32  C   UNL A   1      43.642  30.752  29.442  1.00  0.00     0.049 A 
ATOM     33  H   UNL A   1      43.427  28.794  28.689  1.00  0.00     0.167 HD
ATOM     34  C   UNL A   1      45.956  30.018  28.951  1.00  0.00     0.074 A 
ATOM     35  C   UNL A   1      47.383  30.241  28.842  1.00  0.00     0.031 C 
ATOM     36  C   UNL A   1      45.066  30.950  29.367  1.00  0.00     0.031 A 
BRANCH  23  37
ATOM     37  C   UNL A   1      39.194  29.033  29.087  1.00  0.00    -0.014 A 
ATOM     38  C   UNL A   1      38.475  29.604  28.021  1.00  0.00     0.009 A 
ATOM     39  C   UNL A   1      38.530  28.773  30.293  1.00  0.00     0.009 A 
ATOM     40  C   UNL A   1      37.137  29.960  28.177  1.00  0.00     0.001 A 
ATOM     41  C   UNL A   1      37.181  29.106  30.437  1.00  0.00     0.001 A 
ATOM     42  C   UNL A   1      36.490  29.710  29.386  1.00  0.00     0.000 A 
ENDBRANCH  23  37
BRANCH  24  43
ATOM     43  C   UNL A   1      48.667  26.437  27.601  1.00  0.00    -0.014 A 
ATOM     44  C   UNL A   1      49.081  26.475  26.261  1.00  0.00     0.009 A 
ATOM     45  C   UNL A   1      49.577  26.019  28.583  1.00  0.00     0.009 A 
ATOM     46  C   UNL A   1      50.367  26.063  25.907  1.00  0.00     0.001 A 
ATOM     47  C   UNL A   1      50.870  25.625  28.228  1.00  0.00     0.001 A 
ATOM     48  C   UNL A   1      51.261  25.638  26.890  1.00  0.00     0.000 A 
ENDBRANCH  24  43
BRANCH  36  49
ATOM     49  C   UNL A   1      45.620  32.258  29.850  1.00  0.00    -0.014 A 
ATOM     50  C   UNL A   1      45.766  33.359  28.995  1.00  0.00     0.009 A 
ATOM     51  C   UNL A   1      45.973  32.389  31.204  1.00  0.00     0.009 A 
ATOM     52  C   UNL A   1      46.281  34.562  29.483  1.00  0.00     0.001 A 
ATOM     53  C   UNL A   1      46.463  33.599  31.693  1.00  0.00     0.001 A 
ATOM     54  C   UNL A   1      46.625  34.682  30.831  1.00  0.00     0.000 A 
ENDBRANCH  36  49
ENDBRANCH  10  11
ENDBRANCH   3   5
ENDBRANCH   2   3
ENDBRANCH   1   2
BRANCH   1  55
ATOM     55  C   UNL A   1      38.284  21.144  25.524  1.00  0.00     0.274 C 
BRANCH  55  56
ATOM     56  O   UNL A   1      37.528  21.924  24.584  1.00  0.00    -0.462 OA
BRANCH  56  57
ATOM     57  C   UNL A   1      37.052  23.099  25.083  1.00  0.00     0.312 C 
ATOM     58  O   UNL A   1      37.656  23.794  25.895  1.00  0.00    -0.252 OA
BRANCH  57  59
ATOM     59  C   UNL A   1      35.663  23.469  24.578  1.00  0.00     0.124 C 
ATOM     60  C   UNL A   1      34.936  22.279  24.019  1.00  0.00    -0.014 C 
ATOM     61  C   UNL A   1      34.638  24.008  25.580  1.00  0.00     0.048 C 
ATOM     62  C   UNL A   1      33.619  22.367  24.247  1.00  0.00    -0.006 C 
ATOM     63  C   UNL A   1      33.274  23.625  24.982  1.00  0.00     0.106 C 
BRANCH  63  64
ATOM     64  N   UNL A   1      32.280  23.327  25.979  1.00  0.00    -0.344 N 
ATOM     65  C   UNL A   1      31.291  24.123  26.491  1.00  0.00     0.271 C 
ATOM     66  H   UNL A   1      32.314  22.415  26.346  1.00  0.00     0.164 HD
ATOM     67  O   UNL A   1      30.472  23.648  27.279  1.00  0.00    -0.267 OA
BRANCH  65  68
ATOM     68  C   UNL A   1      31.239  25.508  26.061  1.00  0.00     0.147 A 
ATOM     69  C   UNL A   1      30.659  25.982  24.900  1.00  0.00     0.127 A 
ATOM     70  N   UNL A   1      31.779  26.548  26.794  1.00  0.00    -0.223 NA
ATOM     71  N   UNL A   1      30.849  27.336  24.921  1.00  0.00    -0.306 N 
ATOM     72  C   UNL A   1      31.518  27.635  26.103  1.00  0.00     0.137 A 
ATOM     73  C   UNL A   1      30.484  28.293  23.979  1.00  0.00     0.093 A 
ATOM     74  C   UNL A   1      31.807  29.004  26.357  1.00  0.00     0.048 A 
ATOM     75  C   UNL A   1      30.779  29.583  24.212  1.00  0.00     0.018 A 
ATOM     76  C   UNL A   1      31.457  29.939  25.451  1.00  0.00     0.005 A 
ENDBRANCH  65  68
ENDBRANCH  63  64
ENDBRANCH  57  59
ENDBRANCH  56  57
ENDBRANCH  55  56
ENDBRANCH   1  55
TORSDOF 13
ENDMDL
MODEL 2
REMARK VINA RESULT:     -11.4      4.546      9.563
REMARK SMILES O=C(OCCOC(=O)[C@H]1C=C[C@@H](NC(=O)c2cn3ccccc3n2)C1)c1ccc(-c2c3nc(c(-c4ccccc4)c4ccc([nH]4)c(-c4ccccc4)c4nc(c(-c5ccccc5)c5ccc2[nH]5)C=C4)C=C3)cc1
REMARK SMILES IDX 4 1 3 2 2 3 1 4 26 5 27 6 73 7 28 8 72 9 29 10 30 11 31 12
REMARK SMILES IDX 66 13 32 14 71 15 65 16 67 17 33 18 70 19 64 20 63 21 34 23
REMARK SMILES IDX 56 24 41 25 55 26 42 27 45 28 54 29 68 30 43 31 44 32 53 34
REMARK SMILES IDX 69 35 46 36 35 37 36 38 40 39 37 40 39 41 38 42 57 43 58 44
REMARK SMILES IDX 62 45 59 46 61 47 60 48 47 49 48 50 52 51 49 52 51 53 50 54
REMARK SMILES IDX 5 55 6 56 7 57 8 58 9 59 10 60 25 61 11 62 12 63 13 64 14 65
REMARK SMILES IDX 15 67 16 68 17 69 24 70 18 71 23 72 19 73 22 74 20 75 21 76
REMARK H PARENT 67 22 45 33 13 66
REMARK Flexibility Score: inf
ROOT
ATOM      1  C   UNL A   1      31.694  32.301  27.197  1.00  0.00     0.275 C 
ENDROOT
BRANCH   1   2
ATOM      2  O   UNL A   1      32.277  33.612  27.228  1.00  0.00    -0.458 OA
BRANCH   2   3
ATOM      3  C   UNL A   1      32.913  34.203  28.267  1.00  0.00     0.338 C 
ATOM      4  O   UNL A   1      32.467  35.235  28.760  1.00  0.00    -0.246 OA
BRANCH   3   5
ATOM      5  C   UNL A   1      34.263  33.751  28.700  1.00  0.00     0.060 A 
ATOM      6  C   UNL A   1      35.447  33.905  27.970  1.00  0.00     0.016 A 
ATOM      7  C   UNL A   1      34.310  33.051  29.913  1.00  0.00     0.016 A 
ATOM      8  C   UNL A   1      36.673  33.470  28.492  1.00  0.00     0.010 A 
ATOM      9  C   UNL A   1      35.525  32.593  30.420  1.00  0.00     0.010 A 
ATOM     10  C   UNL A   1      36.725  32.825  29.729  1.00  0.00    -0.014 A 
BRANCH  10  11
ATOM     11  C   UNL A   1      38.001  32.324  30.301  1.00  0.00     0.031 A 
ATOM     12  C   UNL A   1      38.508  30.976  29.871  1.00  0.00     0.074 A 
ATOM     13  C   UNL A   1      38.624  32.995  31.291  1.00  0.00     0.049 A 
ATOM     14  N   UNL A   1      39.527  30.292  30.320  1.00  0.00    -0.248 NA
ATOM     15  C   UNL A   1      37.764  30.310  28.789  1.00  0.00     0.031 C 
ATOM     16  C   UNL A   1      38.216  34.289  31.843  1.00  0.00     0.029 A 
ATOM     17  N   UNL A   1      39.676  32.615  32.089  1.00  0.00    -0.354 N 
ATOM     18  C   UNL A   1      39.559  29.131  29.565  1.00  0.00     0.074 A 
ATOM     19  C   UNL A   1      38.409  29.160  28.687  1.00  0.00     0.031 C 
ATOM     20  C   UNL A   1      38.914  34.526  32.968  1.00  0.00     0.029 A 
ATOM     21  C   UNL A   1      39.845  33.426  33.190  1.00  0.00     0.049 A 
ATOM     22  H   UNL A   1      40.250  31.840  31.895  1.00  0.00     0.167 HD
ATOM     23  C   UNL A   1      40.496  28.154  29.553  1.00  0.00     0.031 A 
ATOM     24  C   UNL A   1      40.641  33.277  34.266  1.00  0.00     0.031 A 
ATOM     25  C   UNL A   1      41.626  28.114  30.438  1.00  0.00     0.049 A 
ATOM     26  C   UNL A   1      41.617  32.133  34.306  1.00  0.00     0.074 A 
ATOM     27  C   UNL A   1      42.699  27.240  30.438  1.00  0.00     0.029 A 
ATOM     28  N   UNL A   1      41.810  28.979  31.505  1.00  0.00    -0.354 N 
ATOM     29  N   UNL A   1      41.765  31.142  33.462  1.00  0.00    -0.248 NA
ATOM     30  C   UNL A   1      42.587  32.133  35.411  1.00  0.00     0.031 C 
ATOM     31  C   UNL A   1      43.525  27.569  31.519  1.00  0.00     0.029 A 
ATOM     32  C   UNL A   1      42.980  28.663  32.171  1.00  0.00     0.049 A 
ATOM     33  H   UNL A   1      41.198  29.710  31.751  1.00  0.00     0.167 HD
ATOM     34  C   UNL A   1      42.883  30.441  33.893  1.00  0.00     0.074 A 
ATOM     35  C   UNL A   1      43.366  31.110  35.084  1.00  0.00     0.031 C 
ATOM     36  C   UNL A   1      43.472  29.360  33.331  1.00  0.00     0.031 A 
BRANCH  23  37
ATOM     37  C   UNL A   1      40.350  27.098  28.497  1.00  0.00    -0.014 A 
ATOM     38  C   UNL A   1      40.943  27.277  27.235  1.00  0.00     0.009 A 
ATOM     39  C   UNL A   1      39.610  25.933  28.741  1.00  0.00     0.009 A 
ATOM     40  C   UNL A   1      40.755  26.340  26.221  1.00  0.00     0.001 A 
ATOM     41  C   UNL A   1      39.444  24.983  27.730  1.00  0.00     0.001 A 
ATOM     42  C   UNL A   1      40.005  25.192  26.470  1.00  0.00     0.000 A 
ENDBRANCH  23  37
BRANCH  24  43
ATOM     43  C   UNL A   1      40.587  34.248  35.389  1.00  0.00    -0.014 A 
ATOM     44  C   UNL A   1      39.753  34.022  36.494  1.00  0.00     0.009 A 
ATOM     45  C   UNL A   1      41.331  35.436  35.328  1.00  0.00     0.009 A 
ATOM     46  C   UNL A   1      39.635  34.986  37.498  1.00  0.00     0.001 A 
ATOM     47  C   UNL A   1      41.224  36.390  36.344  1.00  0.00     0.001 A 
ATOM     48  C   UNL A   1      40.370  36.169  37.422  1.00  0.00     0.000 A 
ENDBRANCH  24  43
BRANCH  36  49
ATOM     49  C   UNL A   1      44.772  28.903  33.925  1.00  0.00    -0.014 A 
ATOM     50  C   UNL A   1      44.824  27.918  34.920  1.00  0.00     0.009 A 
ATOM     51  C   UNL A   1      45.971  29.458  33.447  1.00  0.00     0.009 A 
ATOM     52  C   UNL A   1      46.054  27.515  35.445  1.00  0.00     0.001 A 
ATOM     53  C   UNL A   1      47.198  29.036  33.955  1.00  0.00     0.001 A 
ATOM     54  C   UNL A   1      47.239  28.071  34.960  1.00  0.00     0.000 A 
ENDBRANCH  36  49
ENDBRANCH  10  11
ENDBRANCH   3   5
ENDBRANCH   2   3
ENDBRANCH   1   2
BRANCH   1  55
ATOM     55  C   UNL A   1      32.660  31.155  26.891  1.00  0.00     0.274 C 
BRANCH  55  56
ATOM     56  O   UNL A   1      32.248  29.861  27.357  1.00  0.00    -0.462 OA
BRANCH  56  57
ATOM     57  C   UNL A   1      33.212  28.901  27.279  1.00  0.00     0.312 C 
ATOM     58  O   UNL A   1      34.363  29.051  27.677  1.00  0.00    -0.252 OA
BRANCH  57  59
ATOM     59  C   UNL A   1      32.753  27.617  26.601  1.00  0.00     0.124 C 
ATOM     60  C   UNL A   1      31.420  27.784  25.929  1.00  0.00    -0.014 C 
ATOM     61  C   UNL A   1      33.599  27.046  25.459  1.00  0.00     0.048 C 
ATOM     62  C   UNL A   1      31.342  27.037  24.819  1.00  0.00    -0.006 C 
ATOM     63  C   UNL A   1      32.601  26.261  24.592  1.00  0.00     0.106 C 
BRANCH  63  64
ATOM     64  N   UNL A   1      32.922  26.288  23.190  1.00  0.00    -0.344 N 
ATOM     65  C   UNL A   1      33.289  25.265  22.358  1.00  0.00     0.271 C 
ATOM     66  H   UNL A   1      32.868  27.174  22.765  1.00  0.00     0.164 HD
ATOM     67  O   UNL A   1      33.431  25.479  21.154  1.00  0.00    -0.267 OA
BRANCH  65  68
ATOM     68  C   UNL A   1      33.475  23.948  22.938  1.00  0.00     0.147 A 
ATOM     69  C   UNL A   1      34.607  23.495  23.588  1.00  0.00     0.127 A 
ATOM     70  N   UNL A   1      32.504  22.965  22.912  1.00  0.00    -0.223 NA
ATOM     71  N   UNL A   1      34.326  22.210  23.964  1.00  0.00    -0.306 N 
ATOM     72  C   UNL A   1      33.026  21.940  23.548  1.00  0.00     0.137 A 
ATOM     73  C   UNL A   1      35.129  21.288  24.626  1.00  0.00     0.093 A 
ATOM     74  C   UNL A   1      32.500  20.655  23.853  1.00  0.00     0.048 A 
ATOM     75  C   UNL A   1      34.637  20.067  24.894  1.00  0.00     0.018 A 
ATOM     76  C   UNL A   1      33.271  19.755  24.496  1.00  0.00     0.005 A 
ENDBRANCH  65  68
ENDBRANCH  63  64
ENDBRANCH  57  59
ENDBRANCH  56  57
ENDBRANCH  55  56
ENDBRANCH   1  55
TORSDOF 13
ENDMDL
MODEL 3
REMARK VINA RESULT:     -11.2      3.980      7.651
REMARK SMILES O=C(OCCOC(=O)[C@H]1C=C[C@@H](NC(=O)c2cn3ccccc3n2)C1)c1ccc(-c2c3nc(c(-c4ccccc4)c4ccc([nH]4)c(-c4ccccc4)c4nc(c(-c5ccccc5)c5ccc2[nH]5)C=C4)C=C3)cc1
REMARK SMILES IDX 4 1 3 2 2 3 1 4 26 5 27 6 73 7 28 8 72 9 29 10 30 11 31 12
REMARK SMILES IDX 66 13 32 14 71 15 65 16 67 17 33 18 70 19 64 20 63 21 34 23
REMARK SMILES IDX 56 24 41 25 55 26 42 27 45 28 54 29 68 30 43 31 44 32 53 34
REMARK SMILES IDX 69 35 46 36 35 37 36 38 40 39 37 40 39 41 38 42 57 43 58 44
REMARK SMILES IDX 62 45 59 46 61 47 60 48 47 49 48 50 52 51 49 52 51 53 50 54
REMARK SMILES IDX 5 55 6 56 7 57 8 58 9 59 10 60 25 61 11 62 12 63 13 64 14 65
REMARK SMILES IDX 15 67 16 68 17 69 24 70 18 71 23 72 19 73 22 74 20 75 21 76
REMARK H PARENT 67 22 45 33 13 66
REMARK Flexibility Score: inf
ROOT
ATOM      1  C   UNL A   1      43.360  21.377  25.550  1.00  0.00     0.275 C 
ENDROOT
BRANCH   1   2
ATOM      2  O   UNL A   1      43.088  22.584  24.824  1.00  0.00    -0.458 OA
BRANCH   2   3
ATOM      3  C   UNL A   1      43.758  23.758  24.903  1.00  0.00     0.338 C 
ATOM      4  O   UNL A   1      44.791  23.925  24.261  1.00  0.00    -0.246 OA
BRANCH   3   5
ATOM      5  C   UNL A   1      43.392  24.787  25.913  1.00  0.00     0.060 A 
ATOM      6  C   UNL A   1      43.970  26.056  26.029  1.00  0.00     0.016 A 
ATOM      7  C   UNL A   1      42.435  24.398  26.860  1.00  0.00     0.016 A 
ATOM      8  C   UNL A   1      43.522  26.963  27.000  1.00  0.00     0.010 A 
ATOM      9  C   UNL A   1      42.009  25.288  27.844  1.00  0.00     0.010 A 
ATOM     10  C   UNL A   1      42.527  26.592  27.905  1.00  0.00    -0.014 A 
BRANCH  10  11
ATOM     11  C   UNL A   1      42.048  27.514  28.967  1.00  0.00     0.031 A 
ATOM     12  C   UNL A   1      42.622  27.388  30.350  1.00  0.00     0.074 A 
ATOM     13  C   UNL A   1      41.018  28.354  28.738  1.00  0.00     0.049 A 
ATOM     14  N   UNL A   1      42.275  28.001  31.451  1.00  0.00    -0.248 NA
ATOM     15  C   UNL A   1      43.739  26.442  30.512  1.00  0.00     0.031 C 
ATOM     16  C   UNL A   1      40.330  28.545  27.460  1.00  0.00     0.029 A 
ATOM     17  N   UNL A   1      40.295  29.124  29.617  1.00  0.00    -0.354 N 
ATOM     18  C   UNL A   1      43.140  27.533  32.427  1.00  0.00     0.074 A 
ATOM     19  C   UNL A   1      43.973  26.523  31.812  1.00  0.00     0.031 C 
ATOM     20  C   UNL A   1      39.211  29.262  27.665  1.00  0.00     0.029 A 
ATOM     21  C   UNL A   1      39.127  29.616  29.077  1.00  0.00     0.049 A 
ATOM     22  H   UNL A   1      40.582  29.306  30.540  1.00  0.00     0.167 HD
ATOM     23  C   UNL A   1      43.276  27.950  33.708  1.00  0.00     0.031 A 
ATOM     24  C   UNL A   1      38.097  30.253  29.665  1.00  0.00     0.031 A 
ATOM     25  C   UNL A   1      42.437  28.937  34.325  1.00  0.00     0.049 A 
ATOM     26  C   UNL A   1      38.200  30.632  31.118  1.00  0.00     0.074 A 
ATOM     27  C   UNL A   1      42.557  29.522  35.573  1.00  0.00     0.029 A 
ATOM     28  N   UNL A   1      41.298  29.466  33.739  1.00  0.00    -0.354 N 
ATOM     29  N   UNL A   1      39.140  30.344  31.983  1.00  0.00    -0.248 NA
ATOM     30  C   UNL A   1      37.132  31.490  31.652  1.00  0.00     0.031 C 
ATOM     31  C   UNL A   1      41.476  30.395  35.748  1.00  0.00     0.029 A 
ATOM     32  C   UNL A   1      40.703  30.373  34.598  1.00  0.00     0.049 A 
ATOM     33  H   UNL A   1      40.962  29.231  32.844  1.00  0.00     0.167 HD
ATOM     34  C   UNL A   1      38.815  31.038  33.140  1.00  0.00     0.074 A 
ATOM     35  C   UNL A   1      37.581  31.749  32.872  1.00  0.00     0.031 C 
ATOM     36  C   UNL A   1      39.498  31.104  34.307  1.00  0.00     0.031 A 
BRANCH  23  37
ATOM     37  C   UNL A   1      44.425  27.372  34.482  1.00  0.00    -0.014 A 
ATOM     38  C   UNL A   1      45.694  27.974  34.414  1.00  0.00     0.009 A 
ATOM     39  C   UNL A   1      44.259  26.220  35.263  1.00  0.00     0.009 A 
ATOM     40  C   UNL A   1      46.786  27.406  35.069  1.00  0.00     0.001 A 
ATOM     41  C   UNL A   1      45.350  25.669  35.940  1.00  0.00     0.001 A 
ATOM     42  C   UNL A   1      46.613  26.253  35.832  1.00  0.00     0.000 A 
ENDBRANCH  23  37
BRANCH  24  43
ATOM     43  C   UNL A   1      36.884  30.614  28.887  1.00  0.00    -0.014 A 
ATOM     44  C   UNL A   1      36.649  31.940  28.496  1.00  0.00     0.009 A 
ATOM     45  C   UNL A   1      35.925  29.635  28.585  1.00  0.00     0.009 A 
ATOM     46  C   UNL A   1      35.460  32.287  27.851  1.00  0.00     0.001 A 
ATOM     47  C   UNL A   1      34.744  29.982  27.923  1.00  0.00     0.001 A 
ATOM     48  C   UNL A   1      34.508  31.309  27.565  1.00  0.00     0.000 A 
ENDBRANCH  24  43
BRANCH  36  49
ATOM     49  C   UNL A   1      38.994  32.067  35.342  1.00  0.00    -0.014 A 
ATOM     50  C   UNL A   1      38.185  31.649  36.407  1.00  0.00     0.009 A 
ATOM     51  C   UNL A   1      39.369  33.418  35.254  1.00  0.00     0.009 A 
ATOM     52  C   UNL A   1      37.739  32.574  37.354  1.00  0.00     0.001 A 
ATOM     53  C   UNL A   1      38.943  34.334  36.214  1.00  0.00     0.001 A 
ATOM     54  C   UNL A   1      38.121  33.914  37.259  1.00  0.00     0.000 A 
ENDBRANCH  36  49
ENDBRANCH  10  11
ENDBRANCH   3   5
ENDBRANCH   2   3
ENDBRANCH   1   2
BRANCH   1  55
ATOM     55  C   UNL A   1      42.149  20.712  26.206  1.00  0.00     0.274 C 
BRANCH  55  56
ATOM     56  O   UNL A   1      40.884  20.987  25.586  1.00  0.00    -0.462 OA
BRANCH  56  57
ATOM     57  C   UNL A   1      39.998  21.646  26.384  1.00  0.00     0.312 C 
ATOM     58  O   UNL A   1      40.170  21.843  27.583  1.00  0.00    -0.252 OA
BRANCH  57  59
ATOM     59  C   UNL A   1      38.728  22.088  25.667  1.00  0.00     0.124 C 
ATOM     60  C   UNL A   1      37.908  20.916  25.208  1.00  0.00    -0.014 C 
ATOM     61  C   UNL A   1      37.689  22.899  26.447  1.00  0.00     0.048 C 
ATOM     62  C   UNL A   1      36.598  21.193  25.261  1.00  0.00    -0.006 C 
ATOM     63  C   UNL A   1      36.353  22.585  25.754  1.00  0.00     0.106 C 
BRANCH  63  64
ATOM     64  N   UNL A   1      35.233  22.571  26.657  1.00  0.00    -0.344 N 
ATOM     65  C   UNL A   1      34.012  23.181  26.544  1.00  0.00     0.271 C 
ATOM     66  H   UNL A   1      35.363  22.045  27.478  1.00  0.00     0.164 HD
ATOM     67  O   UNL A   1      33.144  22.968  27.391  1.00  0.00    -0.267 OA
BRANCH  65  68
ATOM     68  C   UNL A   1      33.786  24.047  25.402  1.00  0.00     0.147 A 
ATOM     69  C   UNL A   1      33.254  23.671  24.184  1.00  0.00     0.127 A 
ATOM     70  N   UNL A   1      34.083  25.397  25.407  1.00  0.00    -0.223 NA
ATOM     71  N   UNL A   1      33.226  24.810  23.427  1.00  0.00    -0.306 N 
ATOM     72  C   UNL A   1      33.722  25.838  24.222  1.00  0.00     0.137 A 
ATOM     73  C   UNL A   1      32.809  24.987  22.112  1.00  0.00     0.093 A 
ATOM     74  C   UNL A   1      33.768  27.138  23.649  1.00  0.00     0.048 A 
ATOM     75  C   UNL A   1      32.873  26.213  21.566  1.00  0.00     0.018 A 
ATOM     76  C   UNL A   1      33.364  27.320  22.375  1.00  0.00     0.005 A 
ENDBRANCH  65  68
ENDBRANCH  63  64
ENDBRANCH  57  59
ENDBRANCH  56  57
ENDBRANCH  55  56
ENDBRANCH   1  55
TORSDOF 13
ENDMDL
