MODEL 1
REMARK VINA RESULT:     -12.3      0.000      0.000
REMARK SMILES Cc1ccccc1NC(=O)CSc1nc(C(=O)OCCOC(=O)c2ccc(-c3c4nc(c(-c5ccccc5)c5ccc([nH]5)c(-c5ccccc5)c5nc(c(-c6ccccc6)c6ccc3[nH]6)C=C5)C=C4)cc2)c2ccccc2n1
REMARK SMILES IDX 19 1 18 2 16 3 17 4 15 5 13 6 14 7 78 8 77 9 72 10 76 11
REMARK SMILES IDX 73 12 75 13 74 14 12 15 11 16 9 17 8 18 10 20 7 21 1 22 2 23
REMARK SMILES IDX 3 24 4 25 6 26 5 27 20 28 21 29 22 30 23 31 24 32 25 33
REMARK SMILES IDX 71 34 26 35 70 36 27 37 28 38 29 39 64 40 30 41 69 42 63 43
REMARK SMILES IDX 65 44 31 45 68 46 62 47 61 48 32 50 54 51 39 52 53 53 40 54
REMARK SMILES IDX 43 55 52 56 66 57 41 58 42 59 51 61 67 62 44 63 33 64 34 65
REMARK SMILES IDX 38 66 35 67 37 68 36 69 55 70 56 71 60 72 57 73 59 74 58 75
REMARK SMILES IDX 45 76 46 77 50 78 47 79 49 80 48 81
REMARK H PARENT 8 19 65 49 43 60
REMARK Flexibility Score: inf
ROOT
ATOM      1  C   UNL A   1      36.951  23.355  26.100  1.00  0.00     0.275 C 
ENDROOT
BRANCH   1   2
ATOM      2  O   UNL A   1      36.608  24.061  24.896  1.00  0.00    -0.457 OA
BRANCH   2   3
ATOM      3  C   UNL A   1      36.257  23.227  23.882  1.00  0.00     0.357 C 
ATOM      4  O   UNL A   1      37.046  22.573  23.211  1.00  0.00    -0.244 OA
BRANCH   3   5
ATOM      5  C   UNL A   1      34.814  23.272  23.539  1.00  0.00     0.160 A 
ATOM      6  C   UNL A   1      33.003  24.461  22.845  1.00  0.00     0.189 A 
ATOM      7  N   UNL A   1      34.337  24.383  22.922  1.00  0.00    -0.215 NA
ATOM      8  N   UNL A   1      32.156  23.521  23.293  1.00  0.00    -0.222 NA
ATOM      9  C   UNL A   1      32.664  22.426  23.873  1.00  0.00     0.076 A 
ATOM     10  C   UNL A   1      34.031  22.226  24.030  1.00  0.00     0.034 A 
ATOM     11  C   UNL A   1      31.806  21.441  24.347  1.00  0.00     0.029 A 
ATOM     12  C   UNL A   1      34.515  21.044  24.657  1.00  0.00     0.013 A 
ATOM     13  C   UNL A   1      32.277  20.284  24.981  1.00  0.00     0.002 A 
ATOM     14  C   UNL A   1      33.639  20.085  25.139  1.00  0.00     0.001 A 
BRANCH   6  15
ATOM     15  S   UNL A   1      32.264  25.736  21.856  1.00  0.00    -0.076 SA
BRANCH  15  16
ATOM     16  C   UNL A   1      30.990  26.422  22.949  1.00  0.00     0.178 C 
BRANCH  16  17
ATOM     17  C   UNL A   1      30.757  27.913  22.840  1.00  0.00     0.234 C 
ATOM     18  N   UNL A   1      31.234  28.860  23.696  1.00  0.00    -0.325 N 
ATOM     19  H   UNL A   1      30.928  29.767  23.466  1.00  0.00     0.169 HD
ATOM     20  O   UNL A   1      30.032  28.330  21.923  1.00  0.00    -0.274 OA
BRANCH  18  21
ATOM     21  C   UNL A   1      32.065  28.843  24.834  1.00  0.00     0.044 A 
ATOM     22  C   UNL A   1      34.178  28.631  23.342  1.00  0.00     0.046 C 
ATOM     23  C   UNL A   1      33.460  28.668  24.667  1.00  0.00    -0.027 A 
ATOM     24  C   UNL A   1      34.267  28.455  25.804  1.00  0.00     0.005 A 
ATOM     25  C   UNL A   1      33.731  28.488  27.086  1.00  0.00     0.000 A 
ATOM     26  C   UNL A   1      31.569  28.978  26.134  1.00  0.00     0.026 A 
ATOM     27  C   UNL A   1      32.387  28.787  27.251  1.00  0.00     0.002 A 
ENDBRANCH  18  21
ENDBRANCH  16  17
ENDBRANCH  15  16
ENDBRANCH   6  15
ENDBRANCH   3   5
ENDBRANCH   2   3
ENDBRANCH   1   2
BRANCH   1  28
ATOM     28  C   UNL A   1      38.424  22.937  26.155  1.00  0.00     0.275 C 
BRANCH  28  29
ATOM     29  O   UNL A   1      39.252  23.477  27.225  1.00  0.00    -0.458 OA
BRANCH  29  30
ATOM     30  C   UNL A   1      40.327  24.304  27.153  1.00  0.00     0.338 C 
ATOM     31  O   UNL A   1      41.392  23.943  26.661  1.00  0.00    -0.246 OA
BRANCH  30  32
ATOM     32  C   UNL A   1      40.175  25.674  27.663  1.00  0.00     0.060 A 
ATOM     33  C   UNL A   1      40.424  26.766  26.817  1.00  0.00     0.016 A 
ATOM     34  C   UNL A   1      39.696  25.872  28.948  1.00  0.00     0.016 A 
ATOM     35  C   UNL A   1      40.090  28.057  27.222  1.00  0.00     0.010 A 
ATOM     36  C   UNL A   1      39.190  27.103  29.277  1.00  0.00     0.010 A 
ATOM     37  C   UNL A   1      39.446  28.206  28.449  1.00  0.00    -0.014 A 
BRANCH  37  38
ATOM     38  C   UNL A   1      39.303  29.478  29.143  1.00  0.00     0.031 A 
ATOM     39  C   UNL A   1      38.302  30.485  28.768  1.00  0.00     0.074 A 
ATOM     40  C   UNL A   1      40.168  29.596  30.174  1.00  0.00     0.049 A 
ATOM     41  N   UNL A   1      38.480  31.755  28.888  1.00  0.00    -0.248 NA
ATOM     42  C   UNL A   1      37.001  30.151  28.196  1.00  0.00     0.031 C 
ATOM     43  C   UNL A   1      40.299  30.578  31.231  1.00  0.00     0.029 A 
ATOM     44  N   UNL A   1      41.293  28.798  30.347  1.00  0.00    -0.354 N 
ATOM     45  C   UNL A   1      37.242  32.352  28.752  1.00  0.00     0.074 A 
ATOM     46  C   UNL A   1      36.394  31.343  28.169  1.00  0.00     0.031 C 
ATOM     47  C   UNL A   1      41.555  30.497  31.727  1.00  0.00     0.029 A 
ATOM     48  C   UNL A   1      42.307  29.541  30.912  1.00  0.00     0.049 A 
ATOM     49  H   UNL A   1      41.356  27.846  30.105  1.00  0.00     0.167 HD
ATOM     50  C   UNL A   1      37.019  33.555  29.355  1.00  0.00     0.031 A 
ATOM     51  C   UNL A   1      43.375  29.820  30.105  1.00  0.00     0.031 A 
ATOM     52  C   UNL A   1      38.236  34.009  30.026  1.00  0.00     0.049 A 
ATOM     53  C   UNL A   1      43.387  31.287  29.739  1.00  0.00     0.074 A 
ATOM     54  C   UNL A   1      38.659  33.865  31.338  1.00  0.00     0.029 A 
ATOM     55  N   UNL A   1      39.368  34.295  29.271  1.00  0.00    -0.354 N 
ATOM     56  N   UNL A   1      42.325  32.046  29.697  1.00  0.00    -0.248 NA
ATOM     57  C   UNL A   1      44.614  32.015  29.439  1.00  0.00     0.031 C 
ATOM     58  C   UNL A   1      40.078  33.942  31.344  1.00  0.00     0.029 A 
ATOM     59  C   UNL A   1      40.507  34.165  30.046  1.00  0.00     0.049 A 
ATOM     60  H   UNL A   1      39.360  34.553  28.322  1.00  0.00     0.167 HD
ATOM     61  C   UNL A   1      42.702  33.339  29.463  1.00  0.00     0.074 A 
ATOM     62  C   UNL A   1      44.144  33.265  29.292  1.00  0.00     0.031 C 
ATOM     63  C   UNL A   1      41.822  34.382  29.456  1.00  0.00     0.031 A 
BRANCH  50  64
ATOM     64  C   UNL A   1      35.648  34.121  29.651  1.00  0.00    -0.014 A 
ATOM     65  C   UNL A   1      34.878  34.641  28.591  1.00  0.00     0.009 A 
ATOM     66  C   UNL A   1      35.070  34.213  30.930  1.00  0.00     0.009 A 
ATOM     67  C   UNL A   1      33.649  35.282  28.797  1.00  0.00     0.001 A 
ATOM     68  C   UNL A   1      33.849  34.875  31.147  1.00  0.00     0.001 A 
ATOM     69  C   UNL A   1      33.143  35.417  30.081  1.00  0.00     0.000 A 
ENDBRANCH  50  64
BRANCH  51  70
ATOM     70  C   UNL A   1      43.775  28.697  29.176  1.00  0.00    -0.014 A 
ATOM     71  C   UNL A   1      43.880  27.386  29.704  1.00  0.00     0.009 A 
ATOM     72  C   UNL A   1      43.795  28.830  27.780  1.00  0.00     0.009 A 
ATOM     73  C   UNL A   1      43.886  26.255  28.878  1.00  0.00     0.001 A 
ATOM     74  C   UNL A   1      43.840  27.692  26.951  1.00  0.00     0.001 A 
ATOM     75  C   UNL A   1      43.850  26.408  27.498  1.00  0.00     0.000 A 
ENDBRANCH  51  70
BRANCH  63  76
ATOM     76  C   UNL A   1      42.147  35.767  28.971  1.00  0.00    -0.014 A 
ATOM     77  C   UNL A   1      42.947  36.670  29.682  1.00  0.00     0.009 A 
ATOM     78  C   UNL A   1      41.750  36.150  27.670  1.00  0.00     0.009 A 
ATOM     79  C   UNL A   1      43.263  37.925  29.154  1.00  0.00     0.001 A 
ATOM     80  C   UNL A   1      42.120  37.374  27.115  1.00  0.00     0.001 A 
ATOM     81  C   UNL A   1      42.858  38.272  27.869  1.00  0.00     0.000 A 
ENDBRANCH  63  76
ENDBRANCH  37  38
ENDBRANCH  30  32
ENDBRANCH  29  30
ENDBRANCH  28  29
ENDBRANCH   1  28
TORSDOF 15
ENDMDL
MODEL 2
REMARK VINA RESULT:     -12.3      3.469      9.014
REMARK SMILES Cc1ccccc1NC(=O)CSc1nc(C(=O)OCCOC(=O)c2ccc(-c3c4nc(c(-c5ccccc5)c5ccc([nH]5)c(-c5ccccc5)c5nc(c(-c6ccccc6)c6ccc3[nH]6)C=C5)C=C4)cc2)c2ccccc2n1
REMARK SMILES IDX 19 1 18 2 16 3 17 4 15 5 13 6 14 7 78 8 77 9 72 10 76 11
REMARK SMILES IDX 73 12 75 13 74 14 12 15 11 16 9 17 8 18 10 20 7 21 1 22 2 23
REMARK SMILES IDX 3 24 4 25 6 26 5 27 20 28 21 29 22 30 23 31 24 32 25 33
REMARK SMILES IDX 71 34 26 35 70 36 27 37 28 38 29 39 64 40 30 41 69 42 63 43
REMARK SMILES IDX 65 44 31 45 68 46 62 47 61 48 32 50 54 51 39 52 53 53 40 54
REMARK SMILES IDX 43 55 52 56 66 57 41 58 42 59 51 61 67 62 44 63 33 64 34 65
REMARK SMILES IDX 38 66 35 67 37 68 36 69 55 70 56 71 60 72 57 73 59 74 58 75
REMARK SMILES IDX 45 76 46 77 50 78 47 79 49 80 48 81
REMARK H PARENT 8 19 65 49 43 60
REMARK Flexibility Score: inf
ROOT
ATOM      1  C   UNL A   1      33.072  30.451  26.840  1.00  0.00     0.275 C 
ENDROOT
BRANCH   1   2
ATOM      2  O   UNL A   1      33.083  29.043  27.130  1.00  0.00    -0.457 OA
BRANCH   2   3
ATOM      3  C   UNL A   1      33.245  28.282  26.017  1.00  0.00     0.357 C 
ATOM      4  O   UNL A   1      34.081  28.487  25.145  1.00  0.00    -0.244 OA
BRANCH   3   5
ATOM      5  C   UNL A   1      32.210  27.231  25.852  1.00  0.00     0.160 A 
ATOM      6  C   UNL A   1      31.575  25.057  26.072  1.00  0.00     0.189 A 
ATOM      7  N   UNL A   1      32.422  26.026  26.441  1.00  0.00    -0.215 NA
ATOM      8  N   UNL A   1      30.553  25.221  25.218  1.00  0.00    -0.222 NA
ATOM      9  C   UNL A   1      30.358  26.431  24.677  1.00  0.00     0.076 A 
ATOM     10  C   UNL A   1      31.174  27.520  24.963  1.00  0.00     0.034 A 
ATOM     11  C   UNL A   1      29.308  26.624  23.788  1.00  0.00     0.029 A 
ATOM     12  C   UNL A   1      30.923  28.783  24.356  1.00  0.00     0.013 A 
ATOM     13  C   UNL A   1      29.068  27.860  23.174  1.00  0.00     0.002 A 
ATOM     14  C   UNL A   1      29.881  28.945  23.458  1.00  0.00     0.001 A 
BRANCH   6  15
ATOM     15  S   UNL A   1      31.593  23.511  26.942  1.00  0.00    -0.076 SA
BRANCH  15  16
ATOM     16  C   UNL A   1      30.946  22.339  25.719  1.00  0.00     0.178 C 
BRANCH  16  17
ATOM     17  C   UNL A   1      31.977  21.514  24.981  1.00  0.00     0.234 C 
ATOM     18  N   UNL A   1      32.829  21.974  24.021  1.00  0.00    -0.325 N 
ATOM     19  H   UNL A   1      33.388  21.260  23.639  1.00  0.00     0.169 HD
ATOM     20  O   UNL A   1      32.040  20.298  25.222  1.00  0.00    -0.274 OA
BRANCH  18  21
ATOM     21  C   UNL A   1      33.094  23.235  23.449  1.00  0.00     0.044 A 
ATOM     22  C   UNL A   1      35.210  23.507  24.926  1.00  0.00     0.046 C 
ATOM     23  C   UNL A   1      34.190  23.991  23.927  1.00  0.00    -0.027 A 
ATOM     24  C   UNL A   1      34.343  25.326  23.498  1.00  0.00     0.005 A 
ATOM     25  C   UNL A   1      33.482  25.886  22.561  1.00  0.00     0.000 A 
ATOM     26  C   UNL A   1      32.308  23.782  22.431  1.00  0.00     0.026 A 
ATOM     27  C   UNL A   1      32.487  25.100  22.000  1.00  0.00     0.002 A 
ENDBRANCH  18  21
ENDBRANCH  16  17
ENDBRANCH  15  16
ENDBRANCH   6  15
ENDBRANCH   3   5
ENDBRANCH   2   3
ENDBRANCH   1   2
BRANCH   1  28
ATOM     28  C   UNL A   1      34.280  31.196  27.419  1.00  0.00     0.275 C 
BRANCH  28  29
ATOM     29  O   UNL A   1      35.364  30.408  27.988  1.00  0.00    -0.458 OA
BRANCH  29  30
ATOM     30  C   UNL A   1      36.405  30.803  28.766  1.00  0.00     0.338 C 
ATOM     31  O   UNL A   1      36.387  31.863  29.386  1.00  0.00    -0.246 OA
BRANCH  30  32
ATOM     32  C   UNL A   1      37.563  29.904  28.874  1.00  0.00     0.060 A 
ATOM     33  C   UNL A   1      37.666  29.024  29.962  1.00  0.00     0.016 A 
ATOM     34  C   UNL A   1      38.494  29.871  27.848  1.00  0.00     0.016 A 
ATOM     35  C   UNL A   1      38.645  28.032  29.970  1.00  0.00     0.010 A 
ATOM     36  C   UNL A   1      39.330  28.788  27.756  1.00  0.00     0.010 A 
ATOM     37  C   UNL A   1      39.455  27.910  28.842  1.00  0.00    -0.014 A 
BRANCH  37  38
ATOM     38  C   UNL A   1      40.693  27.144  28.810  1.00  0.00     0.031 A 
ATOM     39  C   UNL A   1      40.735  25.702  28.539  1.00  0.00     0.074 A 
ATOM     40  C   UNL A   1      41.778  27.922  29.025  1.00  0.00     0.049 A 
ATOM     41  N   UNL A   1      41.604  24.899  29.050  1.00  0.00    -0.248 NA
ATOM     42  C   UNL A   1      39.777  25.019  27.676  1.00  0.00     0.031 C 
ATOM     43  C   UNL A   1      43.200  27.660  28.931  1.00  0.00     0.029 A 
ATOM     44  N   UNL A   1      41.730  29.202  29.565  1.00  0.00    -0.354 N 
ATOM     45  C   UNL A   1      41.536  23.721  28.332  1.00  0.00     0.074 A 
ATOM     46  C   UNL A   1      40.293  23.786  27.606  1.00  0.00     0.031 C 
ATOM     47  C   UNL A   1      43.849  28.599  29.657  1.00  0.00     0.029 A 
ATOM     48  C   UNL A   1      42.847  29.418  30.342  1.00  0.00     0.049 A 
ATOM     49  H   UNL A   1      41.009  29.853  29.416  1.00  0.00     0.167 HD
ATOM     50  C   UNL A   1      42.645  22.930  28.258  1.00  0.00     0.031 A 
ATOM     51  C   UNL A   1      42.642  29.496  31.692  1.00  0.00     0.031 A 
ATOM     52  C   UNL A   1      43.729  23.515  29.046  1.00  0.00     0.049 A 
ATOM     53  C   UNL A   1      43.203  28.272  32.379  1.00  0.00     0.074 A 
ATOM     54  C   UNL A   1      44.773  24.348  28.678  1.00  0.00     0.029 A 
ATOM     55  N   UNL A   1      43.583  23.641  30.423  1.00  0.00    -0.354 N 
ATOM     56  N   UNL A   1      43.347  27.106  31.809  1.00  0.00    -0.248 NA
ATOM     57  C   UNL A   1      43.691  28.294  33.753  1.00  0.00     0.031 C 
ATOM     58  C   UNL A   1      45.170  25.075  29.833  1.00  0.00     0.029 A 
ATOM     59  C   UNL A   1      44.393  24.657  30.900  1.00  0.00     0.049 A 
ATOM     60  H   UNL A   1      42.990  23.087  30.978  1.00  0.00     0.167 HD
ATOM     61  C   UNL A   1      44.002  26.263  32.663  1.00  0.00     0.074 A 
ATOM     62  C   UNL A   1      44.180  27.049  33.874  1.00  0.00     0.031 C 
ATOM     63  C   UNL A   1      44.380  24.998  32.316  1.00  0.00     0.031 A 
BRANCH  50  64
ATOM     64  C   UNL A   1      42.865  21.864  27.207  1.00  0.00    -0.014 A 
ATOM     65  C   UNL A   1      42.109  20.675  27.269  1.00  0.00     0.009 A 
ATOM     66  C   UNL A   1      43.808  21.936  26.167  1.00  0.00     0.009 A 
ATOM     67  C   UNL A   1      42.331  19.596  26.402  1.00  0.00     0.001 A 
ATOM     68  C   UNL A   1      44.052  20.849  25.309  1.00  0.00     0.001 A 
ATOM     69  C   UNL A   1      43.319  19.676  25.432  1.00  0.00     0.000 A 
ENDBRANCH  50  64
BRANCH  51  70
ATOM     70  C   UNL A   1      41.369  30.203  32.097  1.00  0.00    -0.014 A 
ATOM     71  C   UNL A   1      40.360  29.458  32.756  1.00  0.00     0.009 A 
ATOM     72  C   UNL A   1      41.235  31.599  32.093  1.00  0.00     0.009 A 
ATOM     73  C   UNL A   1      39.332  30.080  33.477  1.00  0.00     0.001 A 
ATOM     74  C   UNL A   1      40.179  32.222  32.786  1.00  0.00     0.001 A 
ATOM     75  C   UNL A   1      39.251  31.467  33.505  1.00  0.00     0.000 A 
ENDBRANCH  51  70
BRANCH  63  76
ATOM     76  C   UNL A   1      44.880  23.963  33.286  1.00  0.00    -0.014 A 
ATOM     77  C   UNL A   1      44.125  22.860  33.700  1.00  0.00     0.009 A 
ATOM     78  C   UNL A   1      46.227  24.013  33.709  1.00  0.00     0.009 A 
ATOM     79  C   UNL A   1      44.664  21.898  34.560  1.00  0.00     0.001 A 
ATOM     80  C   UNL A   1      46.786  23.020  34.511  1.00  0.00     0.001 A 
ATOM     81  C   UNL A   1      45.995  21.974  34.957  1.00  0.00     0.000 A 
ENDBRANCH  63  76
ENDBRANCH  37  38
ENDBRANCH  30  32
ENDBRANCH  29  30
ENDBRANCH  28  29
ENDBRANCH   1  28
TORSDOF 15
ENDMDL
MODEL 3
REMARK VINA RESULT:     -12.2      3.392      9.266
REMARK SMILES Cc1ccccc1NC(=O)CSc1nc(C(=O)OCCOC(=O)c2ccc(-c3c4nc(c(-c5ccccc5)c5ccc([nH]5)c(-c5ccccc5)c5nc(c(-c6ccccc6)c6ccc3[nH]6)C=C5)C=C4)cc2)c2ccccc2n1
REMARK SMILES IDX 19 1 18 2 16 3 17 4 15 5 13 6 14 7 78 8 77 9 72 10 76 11
REMARK SMILES IDX 73 12 75 13 74 14 12 15 11 16 9 17 8 18 10 20 7 21 1 22 2 23
REMARK SMILES IDX 3 24 4 25 6 26 5 27 20 28 21 29 22 30 23 31 24 32 25 33
REMARK SMILES IDX 71 34 26 35 70 36 27 37 28 38 29 39 64 40 30 41 69 42 63 43
REMARK SMILES IDX 65 44 31 45 68 46 62 47 61 48 32 50 54 51 39 52 53 53 40 54
REMARK SMILES IDX 43 55 52 56 66 57 41 58 42 59 51 61 67 62 44 63 33 64 34 65
REMARK SMILES IDX 38 66 35 67 37 68 36 69 55 70 56 71 60 72 57 73 59 74 58 75
REMARK SMILES IDX 45 76 46 77 50 78 47 79 49 80 48 81
REMARK H PARENT 8 19 65 49 43 60
REMARK Flexibility Score: inf
ROOT
ATOM      1  C   UNL A   1      33.175  30.668  26.991  1.00  0.00     0.275 C 
ENDROOT
BRANCH   1   2
ATOM      2  O   UNL A   1      32.832  30.078  25.726  1.00  0.00    -0.457 OA
BRANCH   2   3
ATOM      3  C   UNL A   1      31.779  29.225  25.816  1.00  0.00     0.357 C 
ATOM      4  O   UNL A   1      31.375  28.721  26.857  1.00  0.00    -0.244 OA
BRANCH   3   5
ATOM      5  C   UNL A   1      31.220  28.818  24.502  1.00  0.00     0.160 A 
ATOM      6  C   UNL A   1      31.323  27.490  22.658  1.00  0.00     0.189 A 
ATOM      7  N   UNL A   1      31.693  27.681  23.930  1.00  0.00    -0.215 NA
ATOM      8  N   UNL A   1      30.516  28.310  21.966  1.00  0.00    -0.222 NA
ATOM      9  C   UNL A   1      30.048  29.409  22.572  1.00  0.00     0.076 A 
ATOM     10  C   UNL A   1      30.367  29.734  23.886  1.00  0.00     0.034 A 
ATOM     11  C   UNL A   1      29.214  30.274  21.875  1.00  0.00     0.029 A 
ATOM     12  C   UNL A   1      29.843  30.917  24.479  1.00  0.00     0.013 A 
ATOM     13  C   UNL A   1      28.711  31.449  22.448  1.00  0.00     0.002 A 
ATOM     14  C   UNL A   1      29.028  31.774  23.757  1.00  0.00     0.001 A 
BRANCH   6  15
ATOM     15  S   UNL A   1      31.672  25.936  21.877  1.00  0.00    -0.076 SA
BRANCH  15  16
ATOM     16  C   UNL A   1      33.150  25.355  22.753  1.00  0.00     0.178 C 
BRANCH  16  17
ATOM     17  C   UNL A   1      33.516  23.902  22.544  1.00  0.00     0.234 C 
ATOM     18  N   UNL A   1      33.666  22.967  23.525  1.00  0.00    -0.325 N 
ATOM     19  H   UNL A   1      33.949  22.093  23.174  1.00  0.00     0.169 HD
ATOM     20  O   UNL A   1      33.750  23.513  21.388  1.00  0.00    -0.274 OA
BRANCH  18  21
ATOM     21  C   UNL A   1      33.509  22.964  24.926  1.00  0.00     0.044 A 
ATOM     22  C   UNL A   1      36.052  23.369  25.254  1.00  0.00     0.046 C 
ATOM     23  C   UNL A   1      34.655  23.090  25.748  1.00  0.00    -0.027 A 
ATOM     24  C   UNL A   1      34.528  22.892  27.139  1.00  0.00     0.005 A 
ATOM     25  C   UNL A   1      33.290  22.650  27.723  1.00  0.00     0.000 A 
ATOM     26  C   UNL A   1      32.264  22.827  25.546  1.00  0.00     0.026 A 
ATOM     27  C   UNL A   1      32.154  22.655  26.929  1.00  0.00     0.002 A 
ENDBRANCH  18  21
ENDBRANCH  16  17
ENDBRANCH  15  16
ENDBRANCH   6  15
ENDBRANCH   3   5
ENDBRANCH   2   3
ENDBRANCH   1   2
BRANCH   1  28
ATOM     28  C   UNL A   1      34.349  29.969  27.685  1.00  0.00     0.275 C 
BRANCH  28  29
ATOM     29  O   UNL A   1      35.700  30.382  27.331  1.00  0.00    -0.458 OA
BRANCH  29  30
ATOM     30  C   UNL A   1      36.737  30.729  28.136  1.00  0.00     0.338 C 
ATOM     31  O   UNL A   1      36.759  31.797  28.742  1.00  0.00    -0.246 OA
BRANCH  30  32
ATOM     32  C   UNL A   1      37.840  29.770  28.289  1.00  0.00     0.060 A 
ATOM     33  C   UNL A   1      37.822  28.848  29.348  1.00  0.00     0.016 A 
ATOM     34  C   UNL A   1      38.839  29.724  27.331  1.00  0.00     0.016 A 
ATOM     35  C   UNL A   1      38.749  27.808  29.386  1.00  0.00     0.010 A 
ATOM     36  C   UNL A   1      39.626  28.604  27.256  1.00  0.00     0.010 A 
ATOM     37  C   UNL A   1      39.631  27.684  28.314  1.00  0.00    -0.014 A 
BRANCH  37  38
ATOM     38  C   UNL A   1      40.829  26.858  28.339  1.00  0.00     0.031 A 
ATOM     39  C   UNL A   1      40.798  25.397  28.191  1.00  0.00     0.074 A 
ATOM     40  C   UNL A   1      41.953  27.595  28.481  1.00  0.00     0.049 A 
ATOM     41  N   UNL A   1      41.632  24.598  28.761  1.00  0.00    -0.248 NA
ATOM     42  C   UNL A   1      39.798  24.692  27.394  1.00  0.00     0.031 C 
ATOM     43  C   UNL A   1      43.359  27.257  28.401  1.00  0.00     0.029 A 
ATOM     44  N   UNL A   1      41.973  28.917  28.912  1.00  0.00    -0.354 N 
ATOM     45  C   UNL A   1      41.499  23.369  28.146  1.00  0.00     0.074 A 
ATOM     46  C   UNL A   1      40.253  23.434  27.425  1.00  0.00     0.031 C 
ATOM     47  C   UNL A   1      44.061  28.220  29.041  1.00  0.00     0.029 A 
ATOM     48  C   UNL A   1      43.107  29.143  29.661  1.00  0.00     0.049 A 
ATOM     49  H   UNL A   1      41.283  29.589  28.713  1.00  0.00     0.167 HD
ATOM     50  C   UNL A   1      42.567  22.520  28.132  1.00  0.00     0.031 A 
ATOM     51  C   UNL A   1      42.920  29.343  31.000  1.00  0.00     0.031 A 
ATOM     52  C   UNL A   1      43.686  23.115  28.861  1.00  0.00     0.049 A 
ATOM     53  C   UNL A   1      43.428  28.155  31.785  1.00  0.00     0.074 A 
ATOM     54  C   UNL A   1      44.766  23.861  28.419  1.00  0.00     0.029 A 
ATOM     55  N   UNL A   1      43.561  23.363  30.224  1.00  0.00    -0.354 N 
ATOM     56  N   UNL A   1      43.508  26.940  31.315  1.00  0.00    -0.248 NA
ATOM     57  C   UNL A   1      43.929  28.268  33.149  1.00  0.00     0.031 C 
ATOM     58  C   UNL A   1      45.210  24.662  29.505  1.00  0.00     0.029 A 
ATOM     59  C   UNL A   1      44.424  24.374  30.608  1.00  0.00     0.049 A 
ATOM     60  H   UNL A   1      42.946  22.888  30.827  1.00  0.00     0.167 HD
ATOM     61  C   UNL A   1      44.130  26.140  32.232  1.00  0.00     0.074 A 
ATOM     62  C   UNL A   1      44.358  27.014  33.372  1.00  0.00     0.031 C 
ATOM     63  C   UNL A   1      44.442  24.833  31.991  1.00  0.00     0.031 A 
BRANCH  50  64
ATOM     64  C   UNL A   1      42.724  21.360  27.174  1.00  0.00    -0.014 A 
ATOM     65  C   UNL A   1      41.991  20.177  27.404  1.00  0.00     0.009 A 
ATOM     66  C   UNL A   1      43.586  21.339  26.064  1.00  0.00     0.009 A 
ATOM     67  C   UNL A   1      42.164  19.022  26.629  1.00  0.00     0.001 A 
ATOM     68  C   UNL A   1      43.782  20.177  25.296  1.00  0.00     0.001 A 
ATOM     69  C   UNL A   1      43.076  19.016  25.585  1.00  0.00     0.000 A 
ENDBRANCH  50  64
BRANCH  51  70
ATOM     70  C   UNL A   1      41.687  30.144  31.352  1.00  0.00    -0.014 A 
ATOM     71  C   UNL A   1      41.416  31.327  30.619  1.00  0.00     0.009 A 
ATOM     72  C   UNL A   1      40.666  29.653  32.178  1.00  0.00     0.009 A 
ATOM     73  C   UNL A   1      40.148  31.923  30.621  1.00  0.00     0.001 A 
ATOM     74  C   UNL A   1      39.403  30.277  32.207  1.00  0.00     0.001 A 
ATOM     75  C   UNL A   1      39.134  31.387  31.404  1.00  0.00     0.000 A 
ENDBRANCH  51  70
BRANCH  63  76
ATOM     76  C   UNL A   1      44.901  23.860  33.041  1.00  0.00    -0.014 A 
ATOM     77  C   UNL A   1      46.193  23.850  33.579  1.00  0.00     0.009 A 
ATOM     78  C   UNL A   1      43.956  22.989  33.630  1.00  0.00     0.009 A 
ATOM     79  C   UNL A   1      46.546  22.958  34.596  1.00  0.00     0.001 A 
ATOM     80  C   UNL A   1      44.287  22.147  34.689  1.00  0.00     0.001 A 
ATOM     81  C   UNL A   1      45.591  22.114  35.156  1.00  0.00     0.000 A 
ENDBRANCH  63  76
ENDBRANCH  37  38
ENDBRANCH  30  32
ENDBRANCH  29  30
ENDBRANCH  28  29
ENDBRANCH   1  28
TORSDOF 15
ENDMDL
