MODEL 1
REMARK VINA RESULT:     -12.4      0.000      0.000
REMARK SMILES Cc1c(-c2nn(-c3ccccc3)cc2/C=N/O)nnn1-c1ccc(C(=O)OCCOC(=O)c2ccc(-c3c4nc(c(-c5ccccc5)c5ccc([nH]5)c(-c5ccccc5)c5nc(c(-c6ccccc6)c6ccc3[nH]6)C=C5)C=C4)cc2)cc1
REMARK SMILES IDX 28 1 27 2 25 3 26 4 24 5 21 6 22 7 82 8 23 9 81 10 20 11
REMARK SMILES IDX 1 12 2 13 3 14 18 15 19 16 4 17 5 18 14 19 6 20 13 21 15 22
REMARK SMILES IDX 16 23 17 24 7 26 8 27 12 28 9 29 11 30 10 31 29 32 30 33
REMARK SMILES IDX 31 34 32 35 33 36 34 37 80 38 35 39 79 40 36 41 37 42 38 43
REMARK SMILES IDX 73 44 39 45 78 46 72 47 74 48 40 49 77 50 71 51 70 52 41 54
REMARK SMILES IDX 63 55 48 56 62 57 49 58 52 59 61 60 75 61 50 62 51 63 60 65
REMARK SMILES IDX 76 66 53 67 42 68 43 69 47 70 44 71 46 72 45 73 64 74 65 75
REMARK SMILES IDX 69 76 66 77 68 78 67 79 54 80 55 81 59 82 56 83 58 84 57 85
REMARK H PARENT 17 25 74 53 52 64
REMARK Flexibility Score: inf
ROOT
ATOM      1  C   UNL A   1      42.911  23.470  25.843  1.00  0.00     0.275 C 
ENDROOT
BRANCH   1   2
ATOM      2  O   UNL A   1      42.340  22.246  26.333  1.00  0.00    -0.458 OA
BRANCH   2   3
ATOM      3  C   UNL A   1      41.438  22.373  27.340  1.00  0.00     0.338 C 
ATOM      4  O   UNL A   1      41.690  22.415  28.536  1.00  0.00    -0.246 OA
BRANCH   3   5
ATOM      5  C   UNL A   1      40.068  22.539  26.796  1.00  0.00     0.060 A 
ATOM      6  C   UNL A   1      37.620  22.854  25.514  1.00  0.00     0.067 A 
ATOM      7  C   UNL A   1      38.220  21.594  25.529  1.00  0.00     0.029 A 
ATOM      8  C   UNL A   1      38.175  23.923  26.232  1.00  0.00     0.029 A 
ATOM      9  C   UNL A   1      39.464  21.449  26.149  1.00  0.00     0.018 A 
ATOM     10  C   UNL A   1      39.393  23.760  26.888  1.00  0.00     0.018 A 
BRANCH   6  11
ATOM     11  N   UNL A   1      36.515  23.085  24.669  1.00  0.00    -0.217 N 
ATOM     12  C   UNL A   1      34.797  23.669  26.446  1.00  0.00     0.069 C 
ATOM     13  C   UNL A   1      35.221  23.378  25.055  1.00  0.00     0.071 A 
ATOM     14  C   UNL A   1      34.548  23.475  23.855  1.00  0.00     0.137 A 
ATOM     15  N   UNL A   1      35.423  23.347  22.814  1.00  0.00    -0.128 NA
ATOM     16  N   UNL A   1      36.640  23.189  23.325  1.00  0.00    -0.061 NA
BRANCH  14  17
ATOM     17  C   UNL A   1      33.140  23.794  23.654  1.00  0.00     0.124 A 
ATOM     18  N   UNL A   1      32.738  25.031  23.338  1.00  0.00    -0.165 NA
ATOM     19  C   UNL A   1      32.057  22.911  23.866  1.00  0.00     0.044 A 
ATOM     20  N   UNL A   1      31.393  24.988  23.443  1.00  0.00    -0.240 N 
ATOM     21  C   UNL A   1      30.946  23.728  23.769  1.00  0.00     0.125 A 
BRANCH  19  22
ATOM     22  C   UNL A   1      32.013  21.497  24.145  1.00  0.00     0.166 C 
ATOM     23  N   UNL A   1      31.990  21.077  25.365  1.00  0.00    -0.097 NA
BRANCH  23  24
ATOM     24  O   UNL A   1      31.989  19.677  25.372  1.00  0.00    -0.411 OA
ATOM     25  H   UNL A   1      31.469  19.212  25.997  1.00  0.00     0.330 HD
ENDBRANCH  23  24
ENDBRANCH  19  22
BRANCH  20  26
ATOM     26  C   UNL A   1      30.614  26.153  23.252  1.00  0.00     0.065 A 
ATOM     27  C   UNL A   1      31.178  27.253  22.594  1.00  0.00     0.028 A 
ATOM     28  C   UNL A   1      29.295  26.214  23.723  1.00  0.00     0.028 A 
ATOM     29  C   UNL A   1      30.412  28.398  22.376  1.00  0.00     0.002 A 
ATOM     30  C   UNL A   1      28.554  27.384  23.545  1.00  0.00     0.002 A 
ATOM     31  C   UNL A   1      29.106  28.469  22.860  1.00  0.00     0.000 A 
ENDBRANCH  20  26
ENDBRANCH  14  17
ENDBRANCH   6  11
ENDBRANCH   3   5
ENDBRANCH   2   3
ENDBRANCH   1   2
BRANCH   1  32
ATOM     32  C   UNL A   1      44.259  23.754  26.491  1.00  0.00     0.275 C 
BRANCH  32  33
ATOM     33  O   UNL A   1      44.235  24.966  27.241  1.00  0.00    -0.458 OA
BRANCH  33  34
ATOM     34  C   UNL A   1      44.173  24.807  28.583  1.00  0.00     0.338 C 
ATOM     35  O   UNL A   1      44.704  23.938  29.253  1.00  0.00    -0.246 OA
BRANCH  34  36
ATOM     36  C   UNL A   1      43.163  25.717  29.126  1.00  0.00     0.060 A 
ATOM     37  C   UNL A   1      42.024  25.956  28.350  1.00  0.00     0.016 A 
ATOM     38  C   UNL A   1      43.502  26.529  30.217  1.00  0.00     0.016 A 
ATOM     39  C   UNL A   1      41.311  27.118  28.564  1.00  0.00     0.010 A 
ATOM     40  C   UNL A   1      42.803  27.693  30.417  1.00  0.00     0.010 A 
ATOM     41  C   UNL A   1      41.763  28.007  29.542  1.00  0.00    -0.014 A 
BRANCH  41  42
ATOM     42  C   UNL A   1      41.090  29.280  29.690  1.00  0.00     0.031 A 
ATOM     43  C   UNL A   1      41.944  30.460  29.431  1.00  0.00     0.074 A 
ATOM     44  C   UNL A   1      39.756  29.347  29.852  1.00  0.00     0.049 A 
ATOM     45  N   UNL A   1      42.145  31.475  30.204  1.00  0.00    -0.248 NA
ATOM     46  C   UNL A   1      42.752  30.467  28.200  1.00  0.00     0.031 C 
ATOM     47  C   UNL A   1      38.791  28.244  29.823  1.00  0.00     0.029 A 
ATOM     48  N   UNL A   1      38.965  30.451  29.916  1.00  0.00    -0.354 N 
ATOM     49  C   UNL A   1      42.987  32.327  29.498  1.00  0.00     0.074 A 
ATOM     50  C   UNL A   1      43.435  31.601  28.338  1.00  0.00     0.031 C 
ATOM     51  C   UNL A   1      37.555  28.750  29.609  1.00  0.00     0.029 A 
ATOM     52  C   UNL A   1      37.638  30.202  29.596  1.00  0.00     0.049 A 
ATOM     53  H   UNL A   1      39.301  31.342  30.165  1.00  0.00     0.167 HD
ATOM     54  C   UNL A   1      43.087  33.647  29.801  1.00  0.00     0.031 A 
ATOM     55  C   UNL A   1      36.706  31.122  29.245  1.00  0.00     0.031 A 
ATOM     56  C   UNL A   1      42.577  33.944  31.112  1.00  0.00     0.049 A 
ATOM     57  C   UNL A   1      37.199  32.452  29.677  1.00  0.00     0.074 A 
ATOM     58  C   UNL A   1      42.900  33.527  32.388  1.00  0.00     0.029 A 
ATOM     59  N   UNL A   1      41.323  34.500  31.197  1.00  0.00    -0.354 N 
ATOM     60  N   UNL A   1      37.292  32.812  30.926  1.00  0.00    -0.248 NA
ATOM     61  C   UNL A   1      38.008  33.229  28.749  1.00  0.00     0.031 C 
ATOM     62  C   UNL A   1      41.651  33.415  33.063  1.00  0.00     0.029 A 
ATOM     63  C   UNL A   1      40.648  33.819  32.179  1.00  0.00     0.049 A 
ATOM     64  H   UNL A   1      40.975  35.244  30.657  1.00  0.00     0.167 HD
ATOM     65  C   UNL A   1      38.478  33.529  31.000  1.00  0.00     0.074 A 
ATOM     66  C   UNL A   1      38.810  33.857  29.615  1.00  0.00     0.031 C 
ATOM     67  C   UNL A   1      39.232  33.532  32.139  1.00  0.00     0.031 A 
BRANCH  54  68
ATOM     68  C   UNL A   1      43.289  34.712  28.758  1.00  0.00    -0.014 A 
ATOM     69  C   UNL A   1      44.567  35.272  28.601  1.00  0.00     0.009 A 
ATOM     70  C   UNL A   1      42.219  35.380  28.131  1.00  0.00     0.009 A 
ATOM     71  C   UNL A   1      44.750  36.476  27.912  1.00  0.00     0.001 A 
ATOM     72  C   UNL A   1      42.404  36.557  27.406  1.00  0.00     0.001 A 
ATOM     73  C   UNL A   1      43.668  37.121  27.321  1.00  0.00     0.000 A 
ENDBRANCH  54  68
BRANCH  55  74
ATOM     74  C   UNL A   1      35.545  30.951  28.346  1.00  0.00    -0.014 A 
ATOM     75  C   UNL A   1      35.306  29.728  27.701  1.00  0.00     0.009 A 
ATOM     76  C   UNL A   1      34.529  31.924  28.291  1.00  0.00     0.009 A 
ATOM     77  C   UNL A   1      34.088  29.482  27.052  1.00  0.00     0.001 A 
ATOM     78  C   UNL A   1      33.318  31.684  27.634  1.00  0.00     0.001 A 
ATOM     79  C   UNL A   1      33.092  30.456  27.026  1.00  0.00     0.000 A 
ENDBRANCH  55  74
BRANCH  67  80
ATOM     80  C   UNL A   1      38.643  32.908  33.381  1.00  0.00    -0.014 A 
ATOM     81  C   UNL A   1      38.850  31.558  33.723  1.00  0.00     0.009 A 
ATOM     82  C   UNL A   1      38.015  33.740  34.319  1.00  0.00     0.009 A 
ATOM     83  C   UNL A   1      38.409  31.051  34.949  1.00  0.00     0.001 A 
ATOM     84  C   UNL A   1      37.597  33.238  35.554  1.00  0.00     0.001 A 
ATOM     85  C   UNL A   1      37.788  31.893  35.866  1.00  0.00     0.000 A 
ENDBRANCH  67  80
ENDBRANCH  41  42
ENDBRANCH  34  36
ENDBRANCH  33  34
ENDBRANCH  32  33
ENDBRANCH   1  32
TORSDOF 16
ENDMDL
MODEL 2
REMARK VINA RESULT:     -12.3      4.058      9.067
REMARK SMILES Cc1c(-c2nn(-c3ccccc3)cc2/C=N/O)nnn1-c1ccc(C(=O)OCCOC(=O)c2ccc(-c3c4nc(c(-c5ccccc5)c5ccc([nH]5)c(-c5ccccc5)c5nc(c(-c6ccccc6)c6ccc3[nH]6)C=C5)C=C4)cc2)cc1
REMARK SMILES IDX 28 1 27 2 25 3 26 4 24 5 21 6 22 7 82 8 23 9 81 10 20 11
REMARK SMILES IDX 1 12 2 13 3 14 18 15 19 16 4 17 5 18 14 19 6 20 13 21 15 22
REMARK SMILES IDX 16 23 17 24 7 26 8 27 12 28 9 29 11 30 10 31 29 32 30 33
REMARK SMILES IDX 31 34 32 35 33 36 34 37 80 38 35 39 79 40 36 41 37 42 38 43
REMARK SMILES IDX 73 44 39 45 78 46 72 47 74 48 40 49 77 50 71 51 70 52 41 54
REMARK SMILES IDX 63 55 48 56 62 57 49 58 52 59 61 60 75 61 50 62 51 63 60 65
REMARK SMILES IDX 76 66 53 67 42 68 43 69 47 70 44 71 46 72 45 73 64 74 65 75
REMARK SMILES IDX 69 76 66 77 68 78 67 79 54 80 55 81 59 82 56 83 58 84 57 85
REMARK H PARENT 17 25 74 53 52 64
REMARK Flexibility Score: inf
ROOT
ATOM      1  C   UNL A   1      34.872  32.374  30.204  1.00  0.00     0.275 C 
ENDROOT
BRANCH   1   2
ATOM      2  O   UNL A   1      34.146  32.524  28.974  1.00  0.00    -0.458 OA
BRANCH   2   3
ATOM      3  C   UNL A   1      34.671  31.890  27.894  1.00  0.00     0.338 C 
ATOM      4  O   UNL A   1      35.650  32.245  27.252  1.00  0.00    -0.246 OA
BRANCH   3   5
ATOM      5  C   UNL A   1      33.940  30.628  27.623  1.00  0.00     0.060 A 
ATOM      6  C   UNL A   1      32.710  28.252  26.863  1.00  0.00     0.067 A 
ATOM      7  C   UNL A   1      34.022  28.214  27.339  1.00  0.00     0.029 A 
ATOM      8  C   UNL A   1      31.975  29.446  26.878  1.00  0.00     0.029 A 
ATOM      9  C   UNL A   1      34.644  29.414  27.691  1.00  0.00     0.018 A 
ATOM     10  C   UNL A   1      32.586  30.632  27.274  1.00  0.00     0.018 A 
BRANCH   6  11
ATOM     11  N   UNL A   1      32.162  27.107  26.249  1.00  0.00    -0.217 N 
ATOM     12  C   UNL A   1      34.295  26.162  25.243  1.00  0.00     0.069 C 
ATOM     13  C   UNL A   1      32.827  26.192  25.456  1.00  0.00     0.071 A 
ATOM     14  C   UNL A   1      31.834  25.305  25.097  1.00  0.00     0.137 A 
ATOM     15  N   UNL A   1      30.667  25.625  25.729  1.00  0.00    -0.128 NA
ATOM     16  N   UNL A   1      30.901  26.685  26.497  1.00  0.00    -0.061 NA
BRANCH  14  17
ATOM     17  C   UNL A   1      31.970  24.110  24.273  1.00  0.00     0.124 A 
ATOM     18  N   UNL A   1      31.925  22.882  24.806  1.00  0.00    -0.165 NA
ATOM     19  C   UNL A   1      32.266  24.090  22.891  1.00  0.00     0.044 A 
ATOM     20  N   UNL A   1      32.292  22.062  23.798  1.00  0.00    -0.240 N 
ATOM     21  C   UNL A   1      32.516  22.755  22.630  1.00  0.00     0.125 A 
BRANCH  19  22
ATOM     22  C   UNL A   1      32.340  25.145  21.912  1.00  0.00     0.166 C 
ATOM     23  N   UNL A   1      33.476  25.684  21.622  1.00  0.00    -0.097 NA
BRANCH  23  24
ATOM     24  O   UNL A   1      33.280  26.701  20.682  1.00  0.00    -0.411 OA
ATOM     25  H   UNL A   1      32.784  26.532  19.906  1.00  0.00     0.330 HD
ENDBRANCH  23  24
ENDBRANCH  19  22
BRANCH  20  26
ATOM     26  C   UNL A   1      32.435  20.671  24.011  1.00  0.00     0.065 A 
ATOM     27  C   UNL A   1      32.782  20.207  25.286  1.00  0.00     0.028 A 
ATOM     28  C   UNL A   1      32.241  19.764  22.960  1.00  0.00     0.028 A 
ATOM     29  C   UNL A   1      32.899  18.836  25.517  1.00  0.00     0.002 A 
ATOM     30  C   UNL A   1      32.412  18.398  23.189  1.00  0.00     0.002 A 
ATOM     31  C   UNL A   1      32.726  17.933  24.468  1.00  0.00     0.000 A 
ENDBRANCH  20  26
ENDBRANCH  14  17
ENDBRANCH   6  11
ENDBRANCH   3   5
ENDBRANCH   2   3
ENDBRANCH   1   2
BRANCH   1  32
ATOM     32  C   UNL A   1      35.830  33.535  30.430  1.00  0.00     0.275 C 
BRANCH  32  33
ATOM     33  O   UNL A   1      37.068  33.094  30.984  1.00  0.00    -0.458 OA
BRANCH  33  34
ATOM     34  C   UNL A   1      38.087  32.999  30.101  1.00  0.00     0.338 C 
ATOM     35  O   UNL A   1      38.221  33.606  29.051  1.00  0.00    -0.246 OA
BRANCH  34  36
ATOM     36  C   UNL A   1      38.935  31.863  30.469  1.00  0.00     0.060 A 
ATOM     37  C   UNL A   1      40.311  31.985  30.246  1.00  0.00     0.016 A 
ATOM     38  C   UNL A   1      38.331  30.626  30.729  1.00  0.00     0.016 A 
ATOM     39  C   UNL A   1      41.063  30.835  30.113  1.00  0.00     0.010 A 
ATOM     40  C   UNL A   1      39.077  29.483  30.579  1.00  0.00     0.010 A 
ATOM     41  C   UNL A   1      40.414  29.601  30.202  1.00  0.00    -0.014 A 
BRANCH  41  42
ATOM     42  C   UNL A   1      41.173  28.396  29.946  1.00  0.00     0.031 A 
ATOM     43  C   UNL A   1      42.002  27.937  31.083  1.00  0.00     0.074 A 
ATOM     44  C   UNL A   1      40.971  27.668  28.832  1.00  0.00     0.049 A 
ATOM     45  N   UNL A   1      43.266  27.680  31.087  1.00  0.00    -0.248 NA
ATOM     46  C   UNL A   1      41.361  27.847  32.406  1.00  0.00     0.031 C 
ATOM     47  C   UNL A   1      39.962  27.884  27.790  1.00  0.00     0.029 A 
ATOM     48  N   UNL A   1      41.528  26.479  28.484  1.00  0.00    -0.354 N 
ATOM     49  C   UNL A   1      43.561  27.248  32.375  1.00  0.00     0.074 A 
ATOM     50  C   UNL A   1      42.390  27.498  33.175  1.00  0.00     0.031 C 
ATOM     51  C   UNL A   1      39.810  26.740  27.086  1.00  0.00     0.029 A 
ATOM     52  C   UNL A   1      40.780  25.765  27.559  1.00  0.00     0.049 A 
ATOM     53  H   UNL A   1      42.381  26.154  28.852  1.00  0.00     0.167 HD
ATOM     54  C   UNL A   1      44.671  26.514  32.648  1.00  0.00     0.031 A 
ATOM     55  C   UNL A   1      40.887  24.442  27.282  1.00  0.00     0.031 A 
ATOM     56  C   UNL A   1      45.648  26.596  31.597  1.00  0.00     0.049 A 
ATOM     57  C   UNL A   1      42.201  23.979  27.792  1.00  0.00     0.074 A 
ATOM     58  C   UNL A   1      46.356  27.629  31.018  1.00  0.00     0.029 A 
ATOM     59  N   UNL A   1      45.734  25.538  30.723  1.00  0.00    -0.354 N 
ATOM     60  N   UNL A   1      43.339  24.328  27.263  1.00  0.00    -0.248 NA
ATOM     61  C   UNL A   1      42.280  23.483  29.158  1.00  0.00     0.031 C 
ATOM     62  C   UNL A   1      46.417  27.301  29.633  1.00  0.00     0.029 A 
ATOM     63  C   UNL A   1      45.792  26.065  29.458  1.00  0.00     0.049 A 
ATOM     64  H   UNL A   1      45.751  24.583  30.960  1.00  0.00     0.167 HD
ATOM     65  C   UNL A   1      44.185  24.527  28.345  1.00  0.00     0.074 A 
ATOM     66  C   UNL A   1      43.519  23.876  29.472  1.00  0.00     0.031 C 
ATOM     67  C   UNL A   1      45.190  25.451  28.296  1.00  0.00     0.031 A 
BRANCH  54  68
ATOM     68  C   UNL A   1      44.696  25.425  33.684  1.00  0.00    -0.014 A 
ATOM     69  C   UNL A   1      44.105  24.188  33.380  1.00  0.00     0.009 A 
ATOM     70  C   UNL A   1      45.019  25.661  35.035  1.00  0.00     0.009 A 
ATOM     71  C   UNL A   1      43.790  23.268  34.386  1.00  0.00     0.001 A 
ATOM     72  C   UNL A   1      44.747  24.728  36.035  1.00  0.00     0.001 A 
ATOM     73  C   UNL A   1      44.105  23.542  35.714  1.00  0.00     0.000 A 
ENDBRANCH  54  68
BRANCH  55  74
ATOM     74  C   UNL A   1      39.829  23.512  26.833  1.00  0.00    -0.014 A 
ATOM     75  C   UNL A   1      38.548  23.981  26.504  1.00  0.00     0.009 A 
ATOM     76  C   UNL A   1      40.137  22.178  26.504  1.00  0.00     0.009 A 
ATOM     77  C   UNL A   1      37.624  23.155  25.849  1.00  0.00     0.001 A 
ATOM     78  C   UNL A   1      39.212  21.350  25.861  1.00  0.00     0.001 A 
ATOM     79  C   UNL A   1      37.959  21.844  25.520  1.00  0.00     0.000 A 
ENDBRANCH  55  74
BRANCH  67  80
ATOM     80  C   UNL A   1      45.491  26.102  26.967  1.00  0.00    -0.014 A 
ATOM     81  C   UNL A   1      44.844  27.274  26.533  1.00  0.00     0.009 A 
ATOM     82  C   UNL A   1      46.574  25.626  26.214  1.00  0.00     0.009 A 
ATOM     83  C   UNL A   1      45.247  27.927  25.364  1.00  0.00     0.001 A 
ATOM     84  C   UNL A   1      46.992  26.292  25.060  1.00  0.00     0.001 A 
ATOM     85  C   UNL A   1      46.324  27.439  24.631  1.00  0.00     0.000 A 
ENDBRANCH  67  80
ENDBRANCH  41  42
ENDBRANCH  34  36
ENDBRANCH  33  34
ENDBRANCH  32  33
ENDBRANCH   1  32
TORSDOF 16
ENDMDL
MODEL 3
REMARK VINA RESULT:     -12.3      3.767      9.394
REMARK SMILES Cc1c(-c2nn(-c3ccccc3)cc2/C=N/O)nnn1-c1ccc(C(=O)OCCOC(=O)c2ccc(-c3c4nc(c(-c5ccccc5)c5ccc([nH]5)c(-c5ccccc5)c5nc(c(-c6ccccc6)c6ccc3[nH]6)C=C5)C=C4)cc2)cc1
REMARK SMILES IDX 28 1 27 2 25 3 26 4 24 5 21 6 22 7 82 8 23 9 81 10 20 11
REMARK SMILES IDX 1 12 2 13 3 14 18 15 19 16 4 17 5 18 14 19 6 20 13 21 15 22
REMARK SMILES IDX 16 23 17 24 7 26 8 27 12 28 9 29 11 30 10 31 29 32 30 33
REMARK SMILES IDX 31 34 32 35 33 36 34 37 80 38 35 39 79 40 36 41 37 42 38 43
REMARK SMILES IDX 73 44 39 45 78 46 72 47 74 48 40 49 77 50 71 51 70 52 41 54
REMARK SMILES IDX 63 55 48 56 62 57 49 58 52 59 61 60 75 61 50 62 51 63 60 65
REMARK SMILES IDX 76 66 53 67 42 68 43 69 47 70 44 71 46 72 45 73 64 74 65 75
REMARK SMILES IDX 69 76 66 77 68 78 67 79 54 80 55 81 59 82 56 83 58 84 57 85
REMARK H PARENT 17 25 74 53 52 64
REMARK Flexibility Score: inf
ROOT
ATOM      1  C   UNL A   1      33.571  31.367  27.585  1.00  0.00     0.275 C 
ENDROOT
BRANCH   1   2
ATOM      2  O   UNL A   1      32.662  30.274  27.373  1.00  0.00    -0.458 OA
BRANCH   2   3
ATOM      3  C   UNL A   1      31.994  30.280  26.191  1.00  0.00     0.338 C 
ATOM      4  O   UNL A   1      31.306  31.192  25.752  1.00  0.00    -0.246 OA
BRANCH   3   5
ATOM      5  C   UNL A   1      32.270  29.037  25.429  1.00  0.00     0.060 A 
ATOM      6  C   UNL A   1      32.889  26.596  24.248  1.00  0.00     0.067 A 
ATOM      7  C   UNL A   1      31.739  26.697  25.034  1.00  0.00     0.029 A 
ATOM      8  C   UNL A   1      33.660  27.730  23.954  1.00  0.00     0.029 A 
ATOM      9  C   UNL A   1      31.450  27.918  25.648  1.00  0.00     0.018 A 
ATOM     10  C   UNL A   1      33.340  28.955  24.533  1.00  0.00     0.018 A 
BRANCH   6  11
ATOM     11  N   UNL A   1      33.345  25.324  23.849  1.00  0.00    -0.217 N 
ATOM     12  C   UNL A   1      33.664  24.298  26.150  1.00  0.00     0.069 C 
ATOM     13  C   UNL A   1      33.771  24.298  24.671  1.00  0.00     0.071 A 
ATOM     14  C   UNL A   1      34.131  23.308  23.781  1.00  0.00     0.137 A 
ATOM     15  N   UNL A   1      33.837  23.694  22.504  1.00  0.00    -0.128 NA
ATOM     16  N   UNL A   1      33.280  24.900  22.565  1.00  0.00    -0.061 NA
BRANCH  14  17
ATOM     17  C   UNL A   1      34.636  21.977  24.095  1.00  0.00     0.124 A 
ATOM     18  N   UNL A   1      33.855  20.893  24.012  1.00  0.00    -0.165 NA
ATOM     19  C   UNL A   1      35.918  21.682  24.611  1.00  0.00     0.044 A 
ATOM     20  N   UNL A   1      34.587  19.905  24.569  1.00  0.00    -0.240 N 
ATOM     21  C   UNL A   1      35.834  20.345  24.951  1.00  0.00     0.125 A 
BRANCH  19  22
ATOM     22  C   UNL A   1      37.087  22.504  24.801  1.00  0.00     0.166 C 
ATOM     23  N   UNL A   1      37.138  23.345  25.779  1.00  0.00    -0.097 NA
BRANCH  23  24
ATOM     24  O   UNL A   1      38.348  24.045  25.726  1.00  0.00    -0.411 OA
ATOM     25  H   UNL A   1      38.551  24.573  24.979  1.00  0.00     0.330 HD
ENDBRANCH  23  24
ENDBRANCH  19  22
BRANCH  20  26
ATOM     26  C   UNL A   1      34.049  18.606  24.729  1.00  0.00     0.065 A 
ATOM     27  C   UNL A   1      32.909  18.433  25.524  1.00  0.00     0.028 A 
ATOM     28  C   UNL A   1      34.650  17.503  24.109  1.00  0.00     0.028 A 
ATOM     29  C   UNL A   1      32.352  17.162  25.668  1.00  0.00     0.002 A 
ATOM     30  C   UNL A   1      34.115  16.228  24.302  1.00  0.00     0.002 A 
ATOM     31  C   UNL A   1      32.959  16.060  25.068  1.00  0.00     0.000 A 
ENDBRANCH  20  26
ENDBRANCH  14  17
ENDBRANCH   6  11
ENDBRANCH   3   5
ENDBRANCH   2   3
ENDBRANCH   1   2
BRANCH   1  32
ATOM     32  C   UNL A   1      35.018  30.927  27.418  1.00  0.00     0.275 C 
BRANCH  32  33
ATOM     33  O   UNL A   1      35.381  29.938  28.380  1.00  0.00    -0.458 OA
BRANCH  33  34
ATOM     34  C   UNL A   1      36.454  30.248  29.141  1.00  0.00     0.338 C 
ATOM     35  O   UNL A   1      36.601  31.224  29.858  1.00  0.00    -0.246 OA
BRANCH  34  36
ATOM     36  C   UNL A   1      37.555  29.341  28.809  1.00  0.00     0.060 A 
ATOM     37  C   UNL A   1      38.001  28.473  29.811  1.00  0.00     0.016 A 
ATOM     38  C   UNL A   1      38.301  29.582  27.648  1.00  0.00     0.016 A 
ATOM     39  C   UNL A   1      39.284  27.972  29.727  1.00  0.00     0.010 A 
ATOM     40  C   UNL A   1      39.583  29.097  27.575  1.00  0.00     0.010 A 
ATOM     41  C   UNL A   1      40.082  28.360  28.648  1.00  0.00    -0.014 A 
BRANCH  41  42
ATOM     42  C   UNL A   1      41.465  27.935  28.617  1.00  0.00     0.031 A 
ATOM     43  C   UNL A   1      41.696  26.640  27.938  1.00  0.00     0.074 A 
ATOM     44  C   UNL A   1      42.457  28.760  29.003  1.00  0.00     0.049 A 
ATOM     45  N   UNL A   1      42.304  25.602  28.403  1.00  0.00    -0.248 NA
ATOM     46  C   UNL A   1      41.087  26.443  26.612  1.00  0.00     0.031 C 
ATOM     47  C   UNL A   1      42.349  30.164  29.410  1.00  0.00     0.029 A 
ATOM     48  N   UNL A   1      43.799  28.552  28.954  1.00  0.00    -0.354 N 
ATOM     49  C   UNL A   1      42.293  24.665  27.376  1.00  0.00     0.074 A 
ATOM     50  C   UNL A   1      41.420  25.180  26.353  1.00  0.00     0.031 C 
ATOM     51  C   UNL A   1      43.568  30.741  29.317  1.00  0.00     0.029 A 
ATOM     52  C   UNL A   1      44.542  29.724  28.951  1.00  0.00     0.049 A 
ATOM     53  H   UNL A   1      44.206  27.657  28.923  1.00  0.00     0.167 HD
ATOM     54  C   UNL A   1      43.173  23.630  27.339  1.00  0.00     0.031 A 
ATOM     55  C   UNL A   1      45.837  29.858  28.575  1.00  0.00     0.031 A 
ATOM     56  C   UNL A   1      43.790  23.398  28.617  1.00  0.00     0.049 A 
ATOM     57  C   UNL A   1      46.453  28.509  28.587  1.00  0.00     0.074 A 
ATOM     58  C   UNL A   1      43.315  23.077  29.872  1.00  0.00     0.029 A 
ATOM     59  N   UNL A   1      45.069  23.867  28.801  1.00  0.00    -0.354 N 
ATOM     60  N   UNL A   1      46.690  27.839  29.679  1.00  0.00    -0.248 NA
ATOM     61  C   UNL A   1      46.403  27.711  27.371  1.00  0.00     0.031 C 
ATOM     62  C   UNL A   1      44.137  23.812  30.774  1.00  0.00     0.029 A 
ATOM     63  C   UNL A   1      45.095  24.493  30.021  1.00  0.00     0.049 A 
ATOM     64  H   UNL A   1      45.823  23.771  28.176  1.00  0.00     0.167 HD
ATOM     65  C   UNL A   1      46.370  26.525  29.364  1.00  0.00     0.074 A 
ATOM     66  C   UNL A   1      46.318  26.487  27.903  1.00  0.00     0.031 C 
ATOM     67  C   UNL A   1      45.885  25.669  30.312  1.00  0.00     0.031 A 
BRANCH  54  68
ATOM     68  C   UNL A   1      43.749  23.093  26.059  1.00  0.00    -0.014 A 
ATOM     69  C   UNL A   1      43.651  21.716  25.798  1.00  0.00     0.009 A 
ATOM     70  C   UNL A   1      44.629  23.834  25.246  1.00  0.00     0.009 A 
ATOM     71  C   UNL A   1      44.445  21.106  24.821  1.00  0.00     0.001 A 
ATOM     72  C   UNL A   1      45.390  23.236  24.242  1.00  0.00     0.001 A 
ATOM     73  C   UNL A   1      45.320  21.865  24.049  1.00  0.00     0.000 A 
ENDBRANCH  54  68
BRANCH  55  74
ATOM     74  C   UNL A   1      46.497  31.035  27.971  1.00  0.00    -0.014 A 
ATOM     75  C   UNL A   1      45.889  31.746  26.926  1.00  0.00     0.009 A 
ATOM     76  C   UNL A   1      47.634  31.608  28.572  1.00  0.00     0.009 A 
ATOM     77  C   UNL A   1      46.384  32.993  26.519  1.00  0.00     0.001 A 
ATOM     78  C   UNL A   1      48.136  32.846  28.159  1.00  0.00     0.001 A 
ATOM     79  C   UNL A   1      47.501  33.546  27.141  1.00  0.00     0.000 A 
ENDBRANCH  55  74
BRANCH  67  80
ATOM     80  C   UNL A   1      45.900  26.122  31.752  1.00  0.00    -0.014 A 
ATOM     81  C   UNL A   1      44.845  26.854  32.328  1.00  0.00     0.009 A 
ATOM     82  C   UNL A   1      46.916  25.650  32.595  1.00  0.00     0.009 A 
ATOM     83  C   UNL A   1      44.828  27.135  33.697  1.00  0.00     0.001 A 
ATOM     84  C   UNL A   1      46.886  25.910  33.967  1.00  0.00     0.001 A 
ATOM     85  C   UNL A   1      45.846  26.657  34.517  1.00  0.00     0.000 A 
ENDBRANCH  67  80
ENDBRANCH  41  42
ENDBRANCH  34  36
ENDBRANCH  33  34
ENDBRANCH  32  33
ENDBRANCH   1  32
TORSDOF 16
ENDMDL
