MODEL 1
REMARK VINA RESULT:      -9.4      0.000      0.000
REMARK SMILES C[N@@H+](CC(C)(C)C(=O)OCCOC(=O)c1ccc(-c2c3nc(c(-c4ccccc4)c4ccc([nH]4)c(-c4ccccc4)c4nc(c(-c5ccccc5)c5ccc2[nH]5)C=C4)C=C3)cc1)[C@@H]1CCCC[C@@H]1C[NH3+]
REMARK SMILES IDX 9 1 7 2 8 3 4 4 5 5 6 6 3 7 2 8 1 9 63 11 64 12 68 13 65 14
REMARK SMILES IDX 67 15 66 16 69 17 70 18 10 22 11 23 12 24 13 25 14 26 15 27
REMARK SMILES IDX 16 28 62 29 17 30 61 31 18 32 19 33 20 34 55 35 21 36 60 37
REMARK SMILES IDX 54 38 56 39 22 40 59 41 53 42 52 43 23 45 45 46 30 47 44 48
REMARK SMILES IDX 31 49 34 50 43 51 57 52 32 53 33 54 42 56 58 57 35 58 24 59
REMARK SMILES IDX 25 60 29 61 26 62 28 63 27 64 46 65 47 66 51 67 48 68 50 69
REMARK SMILES IDX 49 70 36 71 37 72 41 73 38 74 40 75 39 76
REMARK H PARENT 2 10 70 19 70 20 70 21 56 44 34 55
REMARK Flexibility Score: inf
ROOT
ATOM      1  O   UNL A   1      37.718  21.562  24.619  1.00  0.00    -0.461 OA
ENDROOT
BRANCH   1   2
ATOM      2  C   UNL A   1      36.376  21.527  24.865  1.00  0.00     0.317 C 
ATOM      3  O   UNL A   1      35.853  20.672  25.548  1.00  0.00    -0.251 OA
BRANCH   2   4
ATOM      4  C   UNL A   1      35.626  22.626  24.099  1.00  0.00     0.111 C 
ATOM      5  C   UNL A   1      36.524  23.149  22.965  1.00  0.00     0.029 C 
ATOM      6  C   UNL A   1      35.385  23.846  25.041  1.00  0.00     0.029 C 
BRANCH   4   7
ATOM      7  C   UNL A   1      34.201  22.167  23.624  1.00  0.00     0.280 C 
BRANCH   7   8
ATOM      8  N   UNL A   1      33.098  21.501  24.338  1.00  0.00    -0.334 N 
ATOM      9  C   UNL A   1      32.688  20.183  23.854  1.00  0.00     0.333 C 
ATOM     10  H   UNL A   1      33.646  21.362  25.187  1.00  0.00     0.348 HD
BRANCH   8  11
ATOM     11  C   UNL A   1      31.948  22.280  24.820  1.00  0.00     0.192 C 
ATOM     12  C   UNL A   1      31.533  23.395  23.829  1.00  0.00     0.065 C 
ATOM     13  C   UNL A   1      31.780  22.494  26.368  1.00  0.00     0.102 C 
ATOM     14  C   UNL A   1      30.814  24.608  24.387  1.00  0.00     0.006 C 
ATOM     15  C   UNL A   1      30.865  23.680  26.697  1.00  0.00     0.015 C 
ATOM     16  C   UNL A   1      31.142  24.901  25.837  1.00  0.00     0.001 C 
BRANCH  13  17
ATOM     17  C   UNL A   1      32.987  22.413  27.336  1.00  0.00     0.268 C 
BRANCH  17  18
ATOM     18  N   UNL A   1      33.606  21.107  27.545  1.00  0.00    -0.357 N 
ATOM     19  H   UNL A   1      34.049  21.083  28.464  1.00  0.00     0.344 HD
ATOM     20  H   UNL A   1      34.311  20.946  26.825  1.00  0.00     0.344 HD
ATOM     21  H   UNL A   1      32.893  20.379  27.492  1.00  0.00     0.344 HD
ENDBRANCH  17  18
ENDBRANCH  13  17
ENDBRANCH   8  11
ENDBRANCH   7   8
ENDBRANCH   4   7
ENDBRANCH   2   4
ENDBRANCH   1   2
BRANCH   1  22
ATOM     22  C   UNL A   1      38.566  21.346  25.761  1.00  0.00     0.274 C 
BRANCH  22  23
ATOM     23  C   UNL A   1      39.282  20.001  25.646  1.00  0.00     0.275 C 
BRANCH  23  24
ATOM     24  O   UNL A   1      40.334  19.848  26.626  1.00  0.00    -0.458 OA
BRANCH  24  25
ATOM     25  C   UNL A   1      41.595  19.936  26.139  1.00  0.00     0.338 C 
ATOM     26  O   UNL A   1      42.167  19.128  25.421  1.00  0.00    -0.246 OA
BRANCH  25  27
ATOM     27  C   UNL A   1      42.215  21.233  26.471  1.00  0.00     0.060 A 
ATOM     28  C   UNL A   1      42.292  21.545  27.819  1.00  0.00     0.016 A 
ATOM     29  C   UNL A   1      42.498  22.216  25.532  1.00  0.00     0.016 A 
ATOM     30  C   UNL A   1      42.639  22.815  28.272  1.00  0.00     0.010 A 
ATOM     31  C   UNL A   1      42.856  23.507  25.973  1.00  0.00     0.010 A 
ATOM     32  C   UNL A   1      42.902  23.825  27.348  1.00  0.00    -0.014 A 
BRANCH  32  33
ATOM     33  C   UNL A   1      43.033  25.229  27.832  1.00  0.00     0.031 A 
ATOM     34  C   UNL A   1      44.413  25.794  28.052  1.00  0.00     0.074 A 
ATOM     35  C   UNL A   1      41.966  26.041  27.962  1.00  0.00     0.049 A 
ATOM     36  N   UNL A   1      44.774  26.936  28.582  1.00  0.00    -0.248 NA
ATOM     37  C   UNL A   1      45.538  24.959  27.599  1.00  0.00     0.031 C 
ATOM     38  C   UNL A   1      40.585  25.690  27.627  1.00  0.00     0.029 A 
ATOM     39  N   UNL A   1      41.880  27.344  28.392  1.00  0.00    -0.354 N 
ATOM     40  C   UNL A   1      46.164  26.937  28.565  1.00  0.00     0.074 A 
ATOM     41  C   UNL A   1      46.581  25.683  27.975  1.00  0.00     0.031 C 
ATOM     42  C   UNL A   1      39.794  26.753  27.854  1.00  0.00     0.029 A 
ATOM     43  C   UNL A   1      40.596  27.834  28.420  1.00  0.00     0.049 A 
ATOM     44  H   UNL A   1      42.666  27.876  28.656  1.00  0.00     0.167 HD
ATOM     45  C   UNL A   1      47.018  27.891  29.009  1.00  0.00     0.031 A 
ATOM     46  C   UNL A   1      40.116  29.005  28.887  1.00  0.00     0.031 A 
ATOM     47  C   UNL A   1      46.602  29.143  29.584  1.00  0.00     0.049 A 
ATOM     48  C   UNL A   1      41.074  29.998  29.494  1.00  0.00     0.074 A 
ATOM     49  C   UNL A   1      47.384  30.153  30.120  1.00  0.00     0.029 A 
ATOM     50  N   UNL A   1      45.285  29.561  29.684  1.00  0.00    -0.354 N 
ATOM     51  N   UNL A   1      42.381  29.947  29.573  1.00  0.00    -0.248 NA
ATOM     52  C   UNL A   1      40.483  31.207  30.086  1.00  0.00     0.031 C 
ATOM     53  C   UNL A   1      46.533  31.158  30.592  1.00  0.00     0.029 A 
ATOM     54  C   UNL A   1      45.227  30.804  30.291  1.00  0.00     0.049 A 
ATOM     55  H   UNL A   1      44.504  29.050  29.370  1.00  0.00     0.167 HD
ATOM     56  C   UNL A   1      42.770  31.125  30.201  1.00  0.00     0.074 A 
ATOM     57  C   UNL A   1      41.562  31.881  30.458  1.00  0.00     0.031 C 
ATOM     58  C   UNL A   1      44.015  31.543  30.538  1.00  0.00     0.031 A 
BRANCH  45  59
ATOM     59  C   UNL A   1      48.487  27.568  28.963  1.00  0.00    -0.014 A 
ATOM     60  C   UNL A   1      49.130  26.882  30.005  1.00  0.00     0.009 A 
ATOM     61  C   UNL A   1      49.244  27.979  27.854  1.00  0.00     0.009 A 
ATOM     62  C   UNL A   1      50.509  26.655  29.956  1.00  0.00     0.001 A 
ATOM     63  C   UNL A   1      50.614  27.724  27.793  1.00  0.00     0.001 A 
ATOM     64  C   UNL A   1      51.249  27.075  28.851  1.00  0.00     0.000 A 
ENDBRANCH  45  59
BRANCH  46  65
ATOM     65  C   UNL A   1      38.651  29.282  28.879  1.00  0.00    -0.014 A 
ATOM     66  C   UNL A   1      38.017  29.794  27.735  1.00  0.00     0.009 A 
ATOM     67  C   UNL A   1      37.888  29.090  30.042  1.00  0.00     0.009 A 
ATOM     68  C   UNL A   1      36.660  30.133  27.768  1.00  0.00     0.001 A 
ATOM     69  C   UNL A   1      36.524  29.396  30.061  1.00  0.00     0.001 A 
ATOM     70  C   UNL A   1      35.915  29.929  28.928  1.00  0.00     0.000 A 
ENDBRANCH  46  65
BRANCH  58  71
ATOM     71  C   UNL A   1      44.133  32.900  31.178  1.00  0.00    -0.014 A 
ATOM     72  C   UNL A   1      44.308  34.061  30.409  1.00  0.00     0.009 A 
ATOM     73  C   UNL A   1      44.047  33.017  32.574  1.00  0.00     0.009 A 
ATOM     74  C   UNL A   1      44.439  35.306  31.029  1.00  0.00     0.001 A 
ATOM     75  C   UNL A   1      44.145  34.266  33.189  1.00  0.00     0.001 A 
ATOM     76  C   UNL A   1      44.353  35.407  32.417  1.00  0.00     0.000 A 
ENDBRANCH  58  71
ENDBRANCH  32  33
ENDBRANCH  25  27
ENDBRANCH  24  25
ENDBRANCH  23  24
ENDBRANCH  22  23
ENDBRANCH   1  22
TORSDOF 16
ENDMDL
MODEL 2
REMARK VINA RESULT:      -9.3      2.570      6.533
REMARK SMILES C[N@@H+](CC(C)(C)C(=O)OCCOC(=O)c1ccc(-c2c3nc(c(-c4ccccc4)c4ccc([nH]4)c(-c4ccccc4)c4nc(c(-c5ccccc5)c5ccc2[nH]5)C=C4)C=C3)cc1)[C@@H]1CCCC[C@@H]1C[NH3+]
REMARK SMILES IDX 9 1 7 2 8 3 4 4 5 5 6 6 3 7 2 8 1 9 63 11 64 12 68 13 65 14
REMARK SMILES IDX 67 15 66 16 69 17 70 18 10 22 11 23 12 24 13 25 14 26 15 27
REMARK SMILES IDX 16 28 62 29 17 30 61 31 18 32 19 33 20 34 55 35 21 36 60 37
REMARK SMILES IDX 54 38 56 39 22 40 59 41 53 42 52 43 23 45 45 46 30 47 44 48
REMARK SMILES IDX 31 49 34 50 43 51 57 52 32 53 33 54 42 56 58 57 35 58 24 59
REMARK SMILES IDX 25 60 29 61 26 62 28 63 27 64 46 65 47 66 51 67 48 68 50 69
REMARK SMILES IDX 49 70 36 71 37 72 41 73 38 74 40 75 39 76
REMARK H PARENT 2 10 70 19 70 20 70 21 56 44 34 55
REMARK Flexibility Score: inf
ROOT
ATOM      1  O   UNL A   1      34.874  21.749  25.389  1.00  0.00    -0.461 OA
ENDROOT
BRANCH   1   2
ATOM      2  C   UNL A   1      33.909  22.348  24.632  1.00  0.00     0.317 C 
ATOM      3  O   UNL A   1      33.126  21.722  23.949  1.00  0.00    -0.251 OA
BRANCH   2   4
ATOM      4  C   UNL A   1      34.011  23.879  24.680  1.00  0.00     0.111 C 
ATOM      5  C   UNL A   1      35.470  24.292  24.421  1.00  0.00     0.029 C 
ATOM      6  C   UNL A   1      33.682  24.377  26.121  1.00  0.00     0.029 C 
BRANCH   4   7
ATOM      7  C   UNL A   1      32.971  24.584  23.738  1.00  0.00     0.280 C 
BRANCH   7   8
ATOM      8  N   UNL A   1      31.761  25.371  24.031  1.00  0.00    -0.334 N 
ATOM      9  C   UNL A   1      30.494  24.872  23.497  1.00  0.00     0.333 C 
ATOM     10  H   UNL A   1      31.784  25.156  25.028  1.00  0.00     0.348 HD
BRANCH   8  11
ATOM     11  C   UNL A   1      31.810  26.841  24.017  1.00  0.00     0.192 C 
ATOM     12  C   UNL A   1      32.995  27.384  23.180  1.00  0.00     0.065 C 
ATOM     13  C   UNL A   1      31.314  27.622  25.287  1.00  0.00     0.102 C 
ATOM     14  C   UNL A   1      33.535  28.758  23.527  1.00  0.00     0.006 C 
ATOM     15  C   UNL A   1      31.853  29.057  25.337  1.00  0.00     0.015 C 
ATOM     16  C   UNL A   1      33.324  29.153  24.974  1.00  0.00     0.001 C 
BRANCH  13  17
ATOM     17  C   UNL A   1      31.297  26.965  26.691  1.00  0.00     0.268 C 
BRANCH  17  18
ATOM     18  N   UNL A   1      31.170  27.843  27.851  1.00  0.00    -0.357 N 
ATOM     19  H   UNL A   1      32.089  27.987  28.271  1.00  0.00     0.344 HD
ATOM     20  H   UNL A   1      30.549  27.412  28.536  1.00  0.00     0.344 HD
ATOM     21  H   UNL A   1      30.784  28.741  27.559  1.00  0.00     0.344 HD
ENDBRANCH  17  18
ENDBRANCH  13  17
ENDBRANCH   8  11
ENDBRANCH   7   8
ENDBRANCH   4   7
ENDBRANCH   2   4
ENDBRANCH   1   2
BRANCH   1  22
ATOM     22  C   UNL A   1      35.221  20.407  25.010  1.00  0.00     0.274 C 
BRANCH  22  23
ATOM     23  C   UNL A   1      36.734  20.275  24.840  1.00  0.00     0.275 C 
BRANCH  23  24
ATOM     24  O   UNL A   1      37.450  21.428  25.338  1.00  0.00    -0.458 OA
BRANCH  24  25
ATOM     25  C   UNL A   1      38.702  21.181  25.792  1.00  0.00     0.338 C 
ATOM     26  O   UNL A   1      39.378  20.182  25.586  1.00  0.00    -0.246 OA
BRANCH  25  27
ATOM     27  C   UNL A   1      39.261  22.346  26.501  1.00  0.00     0.060 A 
ATOM     28  C   UNL A   1      38.772  23.586  26.119  1.00  0.00     0.016 A 
ATOM     29  C   UNL A   1      40.374  22.286  27.330  1.00  0.00     0.016 A 
ATOM     30  C   UNL A   1      39.360  24.779  26.531  1.00  0.00     0.010 A 
ATOM     31  C   UNL A   1      40.980  23.484  27.761  1.00  0.00     0.010 A 
ATOM     32  C   UNL A   1      40.494  24.741  27.341  1.00  0.00    -0.014 A 
BRANCH  32  33
ATOM     33  C   UNL A   1      41.253  26.003  27.576  1.00  0.00     0.031 A 
ATOM     34  C   UNL A   1      40.656  27.051  28.480  1.00  0.00     0.074 A 
ATOM     35  C   UNL A   1      42.503  26.180  27.106  1.00  0.00     0.049 A 
ATOM     36  N   UNL A   1      41.068  28.268  28.734  1.00  0.00    -0.248 NA
ATOM     37  C   UNL A   1      39.434  26.666  29.205  1.00  0.00     0.031 C 
ATOM     38  C   UNL A   1      43.278  25.190  26.356  1.00  0.00     0.029 A 
ATOM     39  N   UNL A   1      43.353  27.256  27.208  1.00  0.00    -0.354 N 
ATOM     40  C   UNL A   1      40.134  28.806  29.612  1.00  0.00     0.074 A 
ATOM     41  C   UNL A   1      39.134  27.786  29.845  1.00  0.00     0.031 C 
ATOM     42  C   UNL A   1      44.490  25.700  26.078  1.00  0.00     0.029 A 
ATOM     43  C   UNL A   1      44.552  27.077  26.561  1.00  0.00     0.049 A 
ATOM     44  H   UNL A   1      43.124  28.078  27.699  1.00  0.00     0.167 HD
ATOM     45  C   UNL A   1      40.104  30.042  30.168  1.00  0.00     0.031 A 
ATOM     46  C   UNL A   1      45.568  27.938  26.346  1.00  0.00     0.031 A 
ATOM     47  C   UNL A   1      41.105  31.051  29.946  1.00  0.00     0.049 A 
ATOM     48  C   UNL A   1      45.454  29.348  26.866  1.00  0.00     0.074 A 
ATOM     49  C   UNL A   1      41.139  32.355  30.412  1.00  0.00     0.029 A 
ATOM     50  N   UNL A   1      42.259  30.862  29.202  1.00  0.00    -0.354 N 
ATOM     51  N   UNL A   1      44.516  29.885  27.607  1.00  0.00    -0.248 NA
ATOM     52  C   UNL A   1      46.540  30.273  26.508  1.00  0.00     0.031 C 
ATOM     53  C   UNL A   1      42.290  32.969  29.904  1.00  0.00     0.029 A 
ATOM     54  C   UNL A   1      43.004  32.029  29.178  1.00  0.00     0.049 A 
ATOM     55  H   UNL A   1      42.513  30.021  28.756  1.00  0.00     0.167 HD
ATOM     56  C   UNL A   1      44.908  31.201  27.823  1.00  0.00     0.074 A 
ATOM     57  C   UNL A   1      46.182  31.373  27.156  1.00  0.00     0.031 C 
ATOM     58  C   UNL A   1      44.271  32.182  28.509  1.00  0.00     0.031 A 
BRANCH  45  59
ATOM     59  C   UNL A   1      38.900  30.388  31.001  1.00  0.00    -0.014 A 
ATOM     60  C   UNL A   1      37.733  30.923  30.435  1.00  0.00     0.009 A 
ATOM     61  C   UNL A   1      38.948  30.185  32.390  1.00  0.00     0.009 A 
ATOM     62  C   UNL A   1      36.657  31.291  31.249  1.00  0.00     0.001 A 
ATOM     63  C   UNL A   1      37.861  30.524  33.198  1.00  0.00     0.001 A 
ATOM     64  C   UNL A   1      36.722  31.090  32.628  1.00  0.00     0.000 A 
ENDBRANCH  45  59
BRANCH  46  65
ATOM     65  C   UNL A   1      46.752  27.529  25.536  1.00  0.00    -0.014 A 
ATOM     66  C   UNL A   1      47.876  26.942  26.141  1.00  0.00     0.009 A 
ATOM     67  C   UNL A   1      46.786  27.780  24.155  1.00  0.00     0.009 A 
ATOM     68  C   UNL A   1      49.014  26.645  25.385  1.00  0.00     0.001 A 
ATOM     69  C   UNL A   1      47.911  27.448  23.395  1.00  0.00     0.001 A 
ATOM     70  C   UNL A   1      49.029  26.893  24.013  1.00  0.00     0.000 A 
ENDBRANCH  46  65
BRANCH  58  71
ATOM     71  C   UNL A   1      44.967  33.512  28.610  1.00  0.00    -0.014 A 
ATOM     72  C   UNL A   1      44.737  34.534  27.676  1.00  0.00     0.009 A 
ATOM     73  C   UNL A   1      45.855  33.750  29.671  1.00  0.00     0.009 A 
ATOM     74  C   UNL A   1      45.415  35.750  27.778  1.00  0.00     0.001 A 
ATOM     75  C   UNL A   1      46.505  34.979  29.790  1.00  0.00     0.001 A 
ATOM     76  C   UNL A   1      46.295  35.973  28.837  1.00  0.00     0.000 A 
ENDBRANCH  58  71
ENDBRANCH  32  33
ENDBRANCH  25  27
ENDBRANCH  24  25
ENDBRANCH  23  24
ENDBRANCH  22  23
ENDBRANCH   1  22
TORSDOF 16
ENDMDL
MODEL 3
REMARK VINA RESULT:      -9.0      3.454      7.976
REMARK SMILES C[N@@H+](CC(C)(C)C(=O)OCCOC(=O)c1ccc(-c2c3nc(c(-c4ccccc4)c4ccc([nH]4)c(-c4ccccc4)c4nc(c(-c5ccccc5)c5ccc2[nH]5)C=C4)C=C3)cc1)[C@@H]1CCCC[C@@H]1C[NH3+]
REMARK SMILES IDX 9 1 7 2 8 3 4 4 5 5 6 6 3 7 2 8 1 9 63 11 64 12 68 13 65 14
REMARK SMILES IDX 67 15 66 16 69 17 70 18 10 22 11 23 12 24 13 25 14 26 15 27
REMARK SMILES IDX 16 28 62 29 17 30 61 31 18 32 19 33 20 34 55 35 21 36 60 37
REMARK SMILES IDX 54 38 56 39 22 40 59 41 53 42 52 43 23 45 45 46 30 47 44 48
REMARK SMILES IDX 31 49 34 50 43 51 57 52 32 53 33 54 42 56 58 57 35 58 24 59
REMARK SMILES IDX 25 60 29 61 26 62 28 63 27 64 46 65 47 66 51 67 48 68 50 69
REMARK SMILES IDX 49 70 36 71 37 72 41 73 38 74 40 75 39 76
REMARK H PARENT 2 10 70 19 70 20 70 21 56 44 34 55
REMARK Flexibility Score: inf
ROOT
ATOM      1  O   UNL A   1      31.926  30.337  26.969  1.00  0.00    -0.461 OA
ENDROOT
BRANCH   1   2
ATOM      2  C   UNL A   1      31.821  29.625  25.808  1.00  0.00     0.317 C 
ATOM      3  O   UNL A   1      31.194  30.019  24.848  1.00  0.00    -0.251 OA
BRANCH   2   4
ATOM      4  C   UNL A   1      32.502  28.253  25.916  1.00  0.00     0.111 C 
ATOM      5  C   UNL A   1      31.819  27.441  27.029  1.00  0.00     0.029 C 
ATOM      6  C   UNL A   1      33.980  28.440  26.378  1.00  0.00     0.029 C 
BRANCH   4   7
ATOM      7  C   UNL A   1      32.579  27.507  24.536  1.00  0.00     0.280 C 
BRANCH   7   8
ATOM      8  N   UNL A   1      31.696  26.507  23.913  1.00  0.00    -0.334 N 
ATOM      9  C   UNL A   1      30.270  26.585  24.227  1.00  0.00     0.333 C 
ATOM     10  H   UNL A   1      31.827  26.882  22.973  1.00  0.00     0.348 HD
BRANCH   8  11
ATOM     11  C   UNL A   1      32.140  25.112  23.768  1.00  0.00     0.192 C 
ATOM     12  C   UNL A   1      32.942  24.617  24.996  1.00  0.00     0.065 C 
ATOM     13  C   UNL A   1      32.484  24.578  22.330  1.00  0.00     0.102 C 
ATOM     14  C   UNL A   1      33.937  23.492  24.786  1.00  0.00     0.006 C 
ATOM     15  C   UNL A   1      33.365  23.323  22.369  1.00  0.00     0.015 C 
ATOM     16  C   UNL A   1      34.494  23.421  23.379  1.00  0.00     0.001 C 
BRANCH  13  17
ATOM     17  C   UNL A   1      32.897  25.535  21.184  1.00  0.00     0.268 C 
BRANCH  17  18
ATOM     18  N   UNL A   1      32.053  25.575  19.992  1.00  0.00    -0.357 N 
ATOM     19  H   UNL A   1      32.390  24.891  19.314  1.00  0.00     0.344 HD
ATOM     20  H   UNL A   1      32.091  26.508  19.580  1.00  0.00     0.344 HD
ATOM     21  H   UNL A   1      31.091  25.356  20.249  1.00  0.00     0.344 HD
ENDBRANCH  17  18
ENDBRANCH  13  17
ENDBRANCH   8  11
ENDBRANCH   7   8
ENDBRANCH   4   7
ENDBRANCH   2   4
ENDBRANCH   1   2
BRANCH   1  22
ATOM     22  C   UNL A   1      32.140  31.750  26.815  1.00  0.00     0.274 C 
BRANCH  22  23
ATOM     23  C   UNL A   1      33.341  32.201  27.645  1.00  0.00     0.275 C 
BRANCH  23  24
ATOM     24  O   UNL A   1      33.960  31.109  28.362  1.00  0.00    -0.458 OA
BRANCH  24  25
ATOM     25  C   UNL A   1      35.042  31.443  29.105  1.00  0.00     0.338 C 
ATOM     26  O   UNL A   1      35.107  32.312  29.964  1.00  0.00    -0.246 OA
BRANCH  25  27
ATOM     27  C   UNL A   1      36.172  30.529  28.860  1.00  0.00     0.060 A 
ATOM     28  C   UNL A   1      36.738  29.943  29.982  1.00  0.00     0.016 A 
ATOM     29  C   UNL A   1      36.821  30.412  27.637  1.00  0.00     0.016 A 
ATOM     30  C   UNL A   1      37.941  29.244  29.932  1.00  0.00     0.010 A 
ATOM     31  C   UNL A   1      38.038  29.704  27.567  1.00  0.00     0.010 A 
ATOM     32  C   UNL A   1      38.623  29.138  28.721  1.00  0.00    -0.014 A 
BRANCH  32  33
ATOM     33  C   UNL A   1      40.014  28.603  28.722  1.00  0.00     0.031 A 
ATOM     34  C   UNL A   1      41.140  29.510  29.147  1.00  0.00     0.074 A 
ATOM     35  C   UNL A   1      40.279  27.305  28.474  1.00  0.00     0.049 A 
ATOM     36  N   UNL A   1      42.434  29.310  29.113  1.00  0.00    -0.248 NA
ATOM     37  C   UNL A   1      40.749  30.817  29.701  1.00  0.00     0.031 C 
ATOM     38  C   UNL A   1      39.280  26.269  28.210  1.00  0.00     0.029 A 
ATOM     39  N   UNL A   1      41.476  26.630  28.422  1.00  0.00    -0.354 N 
ATOM     40  C   UNL A   1      43.010  30.479  29.596  1.00  0.00     0.074 A 
ATOM     41  C   UNL A   1      41.927  31.384  29.916  1.00  0.00     0.031 C 
ATOM     42  C   UNL A   1      39.904  25.091  28.038  1.00  0.00     0.029 A 
ATOM     43  C   UNL A   1      41.348  25.300  28.102  1.00  0.00     0.049 A 
ATOM     44  H   UNL A   1      42.344  27.060  28.599  1.00  0.00     0.167 HD
ATOM     45  C   UNL A   1      44.323  30.778  29.752  1.00  0.00     0.031 A 
ATOM     46  C   UNL A   1      42.287  24.365  27.848  1.00  0.00     0.031 A 
ATOM     47  C   UNL A   1      45.398  29.874  29.446  1.00  0.00     0.049 A 
ATOM     48  C   UNL A   1      43.741  24.757  27.903  1.00  0.00     0.074 A 
ATOM     49  C   UNL A   1      46.764  30.098  29.510  1.00  0.00     0.029 A 
ATOM     50  N   UNL A   1      45.228  28.563  29.029  1.00  0.00    -0.354 N 
ATOM     51  N   UNL A   1      44.280  25.898  28.258  1.00  0.00    -0.248 NA
ATOM     52  C   UNL A   1      44.717  23.730  27.510  1.00  0.00     0.031 C 
ATOM     53  C   UNL A   1      47.416  28.936  29.079  1.00  0.00     0.029 A 
ATOM     54  C   UNL A   1      46.459  27.971  28.812  1.00  0.00     0.049 A 
ATOM     55  H   UNL A   1      44.358  28.119  28.905  1.00  0.00     0.167 HD
ATOM     56  C   UNL A   1      45.654  25.720  28.155  1.00  0.00     0.074 A 
ATOM     57  C   UNL A   1      45.867  24.352  27.727  1.00  0.00     0.031 C 
ATOM     58  C   UNL A   1      46.653  26.607  28.388  1.00  0.00     0.031 A 
BRANCH  45  59
ATOM     59  C   UNL A   1      44.657  32.176  30.198  1.00  0.00    -0.014 A 
ATOM     60  C   UNL A   1      44.803  33.233  29.285  1.00  0.00     0.009 A 
ATOM     61  C   UNL A   1      44.845  32.432  31.566  1.00  0.00     0.009 A 
ATOM     62  C   UNL A   1      45.176  34.504  29.731  1.00  0.00     0.001 A 
ATOM     63  C   UNL A   1      45.187  33.709  32.011  1.00  0.00     0.001 A 
ATOM     64  C   UNL A   1      45.366  34.741  31.092  1.00  0.00     0.000 A 
ENDBRANCH  45  59
BRANCH  46  65
ATOM     65  C   UNL A   1      41.896  22.986  27.439  1.00  0.00    -0.014 A 
ATOM     66  C   UNL A   1      41.603  22.683  26.099  1.00  0.00     0.009 A 
ATOM     67  C   UNL A   1      41.756  21.974  28.402  1.00  0.00     0.009 A 
ATOM     68  C   UNL A   1      41.152  21.409  25.742  1.00  0.00     0.001 A 
ATOM     69  C   UNL A   1      41.340  20.691  28.037  1.00  0.00     0.001 A 
ATOM     70  C   UNL A   1      41.026  20.413  26.709  1.00  0.00     0.000 A 
ENDBRANCH  46  65
BRANCH  58  71
ATOM     71  C   UNL A   1      48.064  26.109  28.232  1.00  0.00    -0.014 A 
ATOM     72  C   UNL A   1      48.802  25.638  29.330  1.00  0.00     0.009 A 
ATOM     73  C   UNL A   1      48.656  26.092  26.959  1.00  0.00     0.009 A 
ATOM     74  C   UNL A   1      50.119  25.204  29.162  1.00  0.00     0.001 A 
ATOM     75  C   UNL A   1      49.960  25.626  26.789  1.00  0.00     0.001 A 
ATOM     76  C   UNL A   1      50.694  25.195  27.892  1.00  0.00     0.000 A 
ENDBRANCH  58  71
ENDBRANCH  32  33
ENDBRANCH  25  27
ENDBRANCH  24  25
ENDBRANCH  23  24
ENDBRANCH  22  23
ENDBRANCH   1  22
TORSDOF 16
ENDMDL
