MODEL 1
REMARK VINA RESULT:     -10.7      0.000      0.000
REMARK SMILES CC(=O)N1CC[NH2+]C[C@@H]1c1ccc(C(=O)OCCOC(=O)c2ccc(-c3c4nc(c(-c5ccccc5)c5ccc([nH]5)c(-c5ccccc5)c5nc(c(-c6ccccc6)c6ccc3[nH]6)C=C5)C=C4)cc2)cc1
REMARK SMILES IDX 17 1 16 2 14 3 15 4 13 5 10 6 11 7 71 8 12 9 70 10 9 11 4 12
REMARK SMILES IDX 5 13 6 14 8 15 7 16 2 19 1 20 3 21 18 22 19 23 20 24 21 25
REMARK SMILES IDX 22 26 23 27 69 28 24 29 68 30 25 31 26 32 27 33 62 34 28 35
REMARK SMILES IDX 67 36 61 37 63 38 29 39 66 40 60 41 59 42 30 44 52 45 37 46
REMARK SMILES IDX 51 47 38 48 41 49 50 50 64 51 39 52 40 53 49 55 65 56 42 57
REMARK SMILES IDX 31 58 32 59 36 60 33 61 35 62 34 63 53 64 54 65 58 66 55 67
REMARK SMILES IDX 57 68 56 69 43 70 44 71 48 72 45 73 47 74 46 75
REMARK H PARENT 7 17 7 18 63 43 41 54
REMARK Flexibility Score: inf
ROOT
ATOM      1  C   UNL A   1      42.551  20.725  26.817  1.00  0.00     0.275 C 
ENDROOT
BRANCH   1   2
ATOM      2  O   UNL A   1      41.123  20.917  26.710  1.00  0.00    -0.458 OA
BRANCH   2   3
ATOM      3  C   UNL A   1      40.466  19.989  25.969  1.00  0.00     0.338 C 
ATOM      4  O   UNL A   1      40.890  18.904  25.618  1.00  0.00    -0.246 OA
BRANCH   3   5
ATOM      5  C   UNL A   1      39.079  20.420  25.690  1.00  0.00     0.060 A 
ATOM      6  C   UNL A   1      36.443  21.162  24.971  1.00  0.00    -0.020 A 
ATOM      7  C   UNL A   1      36.870  19.838  24.855  1.00  0.00     0.007 A 
ATOM      8  C   UNL A   1      37.394  22.117  25.396  1.00  0.00     0.007 A 
ATOM      9  C   UNL A   1      38.168  19.482  25.204  1.00  0.00     0.016 A 
ATOM     10  C   UNL A   1      38.693  21.750  25.780  1.00  0.00     0.016 A 
BRANCH   6  11
ATOM     11  C   UNL A   1      34.994  21.517  24.602  1.00  0.00     0.170 C 
ATOM     12  N   UNL A   1      34.633  22.876  25.041  1.00  0.00    -0.325 N 
ATOM     13  C   UNL A   1      34.409  23.032  26.487  1.00  0.00     0.181 C 
ATOM     14  C   UNL A   1      33.484  21.938  27.062  1.00  0.00     0.282 C 
ATOM     15  C   UNL A   1      33.936  20.520  25.178  1.00  0.00     0.290 C 
ATOM     16  N   UNL A   1      33.833  20.564  26.651  1.00  0.00    -0.343 N 
ATOM     17  H   UNL A   1      33.107  19.917  26.963  1.00  0.00     0.346 HD
ATOM     18  H   UNL A   1      34.722  20.291  27.070  1.00  0.00     0.346 HD
BRANCH  12  19
ATOM     19  C   UNL A   1      34.649  23.994  24.227  1.00  0.00     0.220 C 
ATOM     20  C   UNL A   1      34.301  25.319  24.860  1.00  0.00     0.114 C 
ATOM     21  O   UNL A   1      34.984  23.941  23.044  1.00  0.00    -0.275 OA
ENDBRANCH  12  19
ENDBRANCH   6  11
ENDBRANCH   3   5
ENDBRANCH   2   3
ENDBRANCH   1   2
BRANCH   1  22
ATOM     22  C   UNL A   1      43.321  21.546  25.779  1.00  0.00     0.275 C 
BRANCH  22  23
ATOM     23  O   UNL A   1      42.540  22.666  25.322  1.00  0.00    -0.458 OA
BRANCH  23  24
ATOM     24  C   UNL A   1      43.199  23.845  25.295  1.00  0.00     0.338 C 
ATOM     25  O   UNL A   1      44.159  24.148  24.606  1.00  0.00    -0.246 OA
BRANCH  24  26
ATOM     26  C   UNL A   1      42.544  24.825  26.171  1.00  0.00     0.060 A 
ATOM     27  C   UNL A   1      43.007  26.130  26.133  1.00  0.00     0.016 A 
ATOM     28  C   UNL A   1      41.680  24.427  27.187  1.00  0.00     0.016 A 
ATOM     29  C   UNL A   1      42.792  26.978  27.212  1.00  0.00     0.010 A 
ATOM     30  C   UNL A   1      41.300  25.353  28.169  1.00  0.00     0.010 A 
ATOM     31  C   UNL A   1      41.895  26.628  28.228  1.00  0.00    -0.014 A 
BRANCH  31  32
ATOM     32  C   UNL A   1      41.583  27.598  29.322  1.00  0.00     0.031 A 
ATOM     33  C   UNL A   1      42.408  27.636  30.586  1.00  0.00     0.074 A 
ATOM     34  C   UNL A   1      40.555  28.463  29.186  1.00  0.00     0.049 A 
ATOM     35  N   UNL A   1      42.173  28.267  31.710  1.00  0.00    -0.248 NA
ATOM     36  C   UNL A   1      43.653  26.849  30.596  1.00  0.00     0.031 C 
ATOM     37  C   UNL A   1      39.695  28.591  28.004  1.00  0.00     0.029 A 
ATOM     38  N   UNL A   1      40.058  29.414  30.046  1.00  0.00    -0.354 N 
ATOM     39  C   UNL A   1      43.199  27.904  32.577  1.00  0.00     0.074 A 
ATOM     40  C   UNL A   1      44.054  26.989  31.852  1.00  0.00     0.031 C 
ATOM     41  C   UNL A   1      38.831  29.597  28.186  1.00  0.00     0.029 A 
ATOM     42  C   UNL A   1      38.975  30.096  29.545  1.00  0.00     0.049 A 
ATOM     43  H   UNL A   1      40.442  29.588  30.937  1.00  0.00     0.167 HD
ATOM     44  C   UNL A   1      43.404  28.292  33.861  1.00  0.00     0.031 A 
ATOM     45  C   UNL A   1      38.139  30.978  30.119  1.00  0.00     0.031 A 
ATOM     46  C   UNL A   1      42.564  29.224  34.568  1.00  0.00     0.049 A 
ATOM     47  C   UNL A   1      38.337  31.328  31.563  1.00  0.00     0.074 A 
ATOM     48  C   UNL A   1      42.693  29.691  35.866  1.00  0.00     0.029 A 
ATOM     49  N   UNL A   1      41.441  29.840  34.035  1.00  0.00    -0.354 N 
ATOM     50  N   UNL A   1      39.280  30.936  32.385  1.00  0.00    -0.248 NA
ATOM     51  C   UNL A   1      37.342  32.225  32.164  1.00  0.00     0.031 C 
ATOM     52  C   UNL A   1      41.613  30.540  36.135  1.00  0.00     0.029 A 
ATOM     53  C   UNL A   1      40.852  30.658  34.985  1.00  0.00     0.049 A 
ATOM     54  H   UNL A   1      41.112  29.715  33.115  1.00  0.00     0.167 HD
ATOM     55  C   UNL A   1      39.004  31.553  33.596  1.00  0.00     0.074 A 
ATOM     56  C   UNL A   1      37.819  32.363  33.392  1.00  0.00     0.031 C 
ATOM     57  C   UNL A   1      39.669  31.453  34.771  1.00  0.00     0.031 A 
BRANCH  44  58
ATOM     58  C   UNL A   1      44.554  27.662  34.604  1.00  0.00    -0.014 A 
ATOM     59  C   UNL A   1      44.414  26.458  35.311  1.00  0.00     0.009 A 
ATOM     60  C   UNL A   1      45.816  28.282  34.572  1.00  0.00     0.009 A 
ATOM     61  C   UNL A   1      45.498  25.912  36.005  1.00  0.00     0.001 A 
ATOM     62  C   UNL A   1      46.906  27.717  35.239  1.00  0.00     0.001 A 
ATOM     63  C   UNL A   1      46.743  26.539  35.965  1.00  0.00     0.000 A 
ENDBRANCH  44  58
BRANCH  45  64
ATOM     64  C   UNL A   1      36.999  31.536  29.344  1.00  0.00    -0.014 A 
ATOM     65  C   UNL A   1      37.105  32.783  28.714  1.00  0.00     0.009 A 
ATOM     66  C   UNL A   1      35.800  30.813  29.215  1.00  0.00     0.009 A 
ATOM     67  C   UNL A   1      36.032  33.301  27.984  1.00  0.00     0.001 A 
ATOM     68  C   UNL A   1      34.743  31.316  28.455  1.00  0.00     0.001 A 
ATOM     69  C   UNL A   1      34.856  32.564  27.848  1.00  0.00     0.000 A 
ENDBRANCH  45  64
BRANCH  57  70
ATOM     70  C   UNL A   1      39.149  32.275  35.917  1.00  0.00    -0.014 A 
ATOM     71  C   UNL A   1      39.601  33.585  36.141  1.00  0.00     0.009 A 
ATOM     72  C   UNL A   1      38.179  31.734  36.773  1.00  0.00     0.009 A 
ATOM     73  C   UNL A   1      39.118  34.322  37.224  1.00  0.00     0.001 A 
ATOM     74  C   UNL A   1      37.674  32.485  37.836  1.00  0.00     0.001 A 
ATOM     75  C   UNL A   1      38.152  33.773  38.067  1.00  0.00     0.000 A 
ENDBRANCH  57  70
ENDBRANCH  31  32
ENDBRANCH  24  26
ENDBRANCH  23  24
ENDBRANCH  22  23
ENDBRANCH   1  22
TORSDOF 13
ENDMDL
MODEL 2
REMARK VINA RESULT:     -10.6      2.209      7.884
REMARK SMILES CC(=O)N1CC[NH2+]C[C@@H]1c1ccc(C(=O)OCCOC(=O)c2ccc(-c3c4nc(c(-c5ccccc5)c5ccc([nH]5)c(-c5ccccc5)c5nc(c(-c6ccccc6)c6ccc3[nH]6)C=C5)C=C4)cc2)cc1
REMARK SMILES IDX 17 1 16 2 14 3 15 4 13 5 10 6 11 7 71 8 12 9 70 10 9 11 4 12
REMARK SMILES IDX 5 13 6 14 8 15 7 16 2 19 1 20 3 21 18 22 19 23 20 24 21 25
REMARK SMILES IDX 22 26 23 27 69 28 24 29 68 30 25 31 26 32 27 33 62 34 28 35
REMARK SMILES IDX 67 36 61 37 63 38 29 39 66 40 60 41 59 42 30 44 52 45 37 46
REMARK SMILES IDX 51 47 38 48 41 49 50 50 64 51 39 52 40 53 49 55 65 56 42 57
REMARK SMILES IDX 31 58 32 59 36 60 33 61 35 62 34 63 53 64 54 65 58 66 55 67
REMARK SMILES IDX 57 68 56 69 43 70 44 71 48 72 45 73 47 74 46 75
REMARK H PARENT 7 17 7 18 63 43 41 54
REMARK Flexibility Score: inf
ROOT
ATOM      1  C   UNL A   1      31.998  29.628  24.780  1.00  0.00     0.275 C 
ENDROOT
BRANCH   1   2
ATOM      2  O   UNL A   1      32.528  28.432  25.392  1.00  0.00    -0.458 OA
BRANCH   2   3
ATOM      3  C   UNL A   1      31.758  27.322  25.260  1.00  0.00     0.338 C 
ATOM      4  O   UNL A   1      30.616  27.273  24.843  1.00  0.00    -0.246 OA
BRANCH   3   5
ATOM      5  C   UNL A   1      32.520  26.105  25.614  1.00  0.00     0.060 A 
ATOM      6  C   UNL A   1      34.022  23.753  26.095  1.00  0.00    -0.020 A 
ATOM      7  C   UNL A   1      34.577  24.825  25.395  1.00  0.00     0.007 A 
ATOM      8  C   UNL A   1      32.670  23.866  26.492  1.00  0.00     0.007 A 
ATOM      9  C   UNL A   1      33.832  25.975  25.157  1.00  0.00     0.016 A 
ATOM     10  C   UNL A   1      31.930  25.040  26.281  1.00  0.00     0.016 A 
BRANCH   6  11
ATOM     11  C   UNL A   1      34.882  22.508  26.363  1.00  0.00     0.170 C 
ATOM     12  N   UNL A   1      35.285  21.840  25.113  1.00  0.00    -0.325 N 
ATOM     13  C   UNL A   1      34.224  21.083  24.432  1.00  0.00     0.181 C 
ATOM     14  C   UNL A   1      33.447  20.160  25.395  1.00  0.00     0.282 C 
ATOM     15  C   UNL A   1      34.187  21.450  27.280  1.00  0.00     0.290 C 
ATOM     16  N   UNL A   1      33.016  20.808  26.650  1.00  0.00    -0.343 N 
ATOM     17  H   UNL A   1      32.626  20.107  27.281  1.00  0.00     0.346 HD
ATOM     18  H   UNL A   1      32.301  21.508  26.451  1.00  0.00     0.346 HD
BRANCH  12  19
ATOM     19  C   UNL A   1      36.509  22.012  24.492  1.00  0.00     0.220 C 
ATOM     20  C   UNL A   1      37.667  21.189  25.001  1.00  0.00     0.114 C 
ATOM     21  O   UNL A   1      36.658  22.761  23.527  1.00  0.00    -0.275 OA
ENDBRANCH  12  19
ENDBRANCH   6  11
ENDBRANCH   3   5
ENDBRANCH   2   3
ENDBRANCH   1   2
BRANCH   1  22
ATOM     22  C   UNL A   1      31.517  30.643  25.820  1.00  0.00     0.275 C 
BRANCH  22  23
ATOM     23  O   UNL A   1      32.341  30.604  27.001  1.00  0.00    -0.458 OA
BRANCH  23  24
ATOM     24  C   UNL A   1      33.031  31.737  27.250  1.00  0.00     0.338 C 
ATOM     25  O   UNL A   1      32.610  32.883  27.253  1.00  0.00    -0.246 OA
BRANCH  24  26
ATOM     26  C   UNL A   1      34.415  31.428  27.635  1.00  0.00     0.060 A 
ATOM     27  C   UNL A   1      34.731  30.102  27.882  1.00  0.00     0.016 A 
ATOM     28  C   UNL A   1      35.308  32.432  27.996  1.00  0.00     0.016 A 
ATOM     29  C   UNL A   1      35.824  29.783  28.677  1.00  0.00     0.010 A 
ATOM     30  C   UNL A   1      36.515  32.086  28.621  1.00  0.00     0.010 A 
ATOM     31  C   UNL A   1      36.767  30.760  29.022  1.00  0.00    -0.014 A 
BRANCH  31  32
ATOM     32  C   UNL A   1      37.999  30.380  29.777  1.00  0.00     0.031 A 
ATOM     33  C   UNL A   1      39.080  29.545  29.132  1.00  0.00     0.074 A 
ATOM     34  C   UNL A   1      38.163  30.788  31.054  1.00  0.00     0.049 A 
ATOM     35  N   UNL A   1      40.115  28.961  29.684  1.00  0.00    -0.248 NA
ATOM     36  C   UNL A   1      38.977  29.323  27.680  1.00  0.00     0.031 C 
ATOM     37  C   UNL A   1      37.237  31.645  31.804  1.00  0.00     0.029 A 
ATOM     38  N   UNL A   1      39.175  30.548  31.953  1.00  0.00    -0.354 N 
ATOM     39  C   UNL A   1      40.745  28.254  28.665  1.00  0.00     0.074 A 
ATOM     40  C   UNL A   1      39.971  28.473  27.463  1.00  0.00     0.031 C 
ATOM     41  C   UNL A   1      37.751  31.910  33.011  1.00  0.00     0.029 A 
ATOM     42  C   UNL A   1      38.969  31.135  33.180  1.00  0.00     0.049 A 
ATOM     43  H   UNL A   1      39.969  30.007  31.740  1.00  0.00     0.167 HD
ATOM     44  C   UNL A   1      41.862  27.487  28.729  1.00  0.00     0.031 A 
ATOM     45  C   UNL A   1      39.639  31.020  34.341  1.00  0.00     0.031 A 
ATOM     46  C   UNL A   1      42.645  27.294  29.923  1.00  0.00     0.049 A 
ATOM     47  C   UNL A   1      40.821  30.102  34.407  1.00  0.00     0.074 A 
ATOM     48  C   UNL A   1      43.799  26.546  30.088  1.00  0.00     0.029 A 
ATOM     49  N   UNL A   1      42.359  27.861  31.156  1.00  0.00    -0.354 N 
ATOM     50  N   UNL A   1      41.374  29.399  33.449  1.00  0.00    -0.248 NA
ATOM     51  C   UNL A   1      41.458  29.946  35.720  1.00  0.00     0.031 C 
ATOM     52  C   UNL A   1      44.174  26.611  31.435  1.00  0.00     0.029 A 
ATOM     53  C   UNL A   1      43.296  27.455  32.093  1.00  0.00     0.049 A 
ATOM     54  H   UNL A   1      41.602  28.463  31.339  1.00  0.00     0.167 HD
ATOM     55  C   UNL A   1      42.436  28.730  34.038  1.00  0.00     0.074 A 
ATOM     56  C   UNL A   1      42.462  29.131  35.430  1.00  0.00     0.031 C 
ATOM     57  C   UNL A   1      43.307  27.858  33.477  1.00  0.00     0.031 A 
BRANCH  44  58
ATOM     58  C   UNL A   1      42.274  26.749  27.480  1.00  0.00    -0.014 A 
ATOM     59  C   UNL A   1      43.147  27.313  26.536  1.00  0.00     0.009 A 
ATOM     60  C   UNL A   1      41.793  25.447  27.259  1.00  0.00     0.009 A 
ATOM     61  C   UNL A   1      43.492  26.608  25.379  1.00  0.00     0.001 A 
ATOM     62  C   UNL A   1      42.167  24.731  26.119  1.00  0.00     0.001 A 
ATOM     63  C   UNL A   1      43.006  25.317  25.174  1.00  0.00     0.000 A 
ENDBRANCH  44  58
BRANCH  45  64
ATOM     64  C   UNL A   1      39.160  31.744  35.549  1.00  0.00    -0.014 A 
ATOM     65  C   UNL A   1      38.219  31.158  36.407  1.00  0.00     0.009 A 
ATOM     66  C   UNL A   1      39.657  33.021  35.862  1.00  0.00     0.009 A 
ATOM     67  C   UNL A   1      37.775  31.840  37.542  1.00  0.00     0.001 A 
ATOM     68  C   UNL A   1      39.239  33.685  37.016  1.00  0.00     0.001 A 
ATOM     69  C   UNL A   1      38.292  33.098  37.850  1.00  0.00     0.000 A 
ENDBRANCH  45  64
BRANCH  57  70
ATOM     70  C   UNL A   1      44.388  27.311  34.367  1.00  0.00    -0.014 A 
ATOM     71  C   UNL A   1      44.204  26.128  35.098  1.00  0.00     0.009 A 
ATOM     72  C   UNL A   1      45.616  27.985  34.457  1.00  0.00     0.009 A 
ATOM     73  C   UNL A   1      45.216  25.652  35.933  1.00  0.00     0.001 A 
ATOM     74  C   UNL A   1      46.638  27.488  35.268  1.00  0.00     0.001 A 
ATOM     75  C   UNL A   1      46.433  26.329  36.013  1.00  0.00     0.000 A 
ENDBRANCH  57  70
ENDBRANCH  31  32
ENDBRANCH  24  26
ENDBRANCH  23  24
ENDBRANCH  22  23
ENDBRANCH   1  22
TORSDOF 13
ENDMDL
MODEL 3
REMARK VINA RESULT:     -10.6      3.990      9.408
REMARK SMILES CC(=O)N1CC[NH2+]C[C@@H]1c1ccc(C(=O)OCCOC(=O)c2ccc(-c3c4nc(c(-c5ccccc5)c5ccc([nH]5)c(-c5ccccc5)c5nc(c(-c6ccccc6)c6ccc3[nH]6)C=C5)C=C4)cc2)cc1
REMARK SMILES IDX 17 1 16 2 14 3 15 4 13 5 10 6 11 7 71 8 12 9 70 10 9 11 4 12
REMARK SMILES IDX 5 13 6 14 8 15 7 16 2 19 1 20 3 21 18 22 19 23 20 24 21 25
REMARK SMILES IDX 22 26 23 27 69 28 24 29 68 30 25 31 26 32 27 33 62 34 28 35
REMARK SMILES IDX 67 36 61 37 63 38 29 39 66 40 60 41 59 42 30 44 52 45 37 46
REMARK SMILES IDX 51 47 38 48 41 49 50 50 64 51 39 52 40 53 49 55 65 56 42 57
REMARK SMILES IDX 31 58 32 59 36 60 33 61 35 62 34 63 53 64 54 65 58 66 55 67
REMARK SMILES IDX 57 68 56 69 43 70 44 71 48 72 45 73 47 74 46 75
REMARK H PARENT 7 17 7 18 63 43 41 54
REMARK Flexibility Score: inf
ROOT
ATOM      1  C   UNL A   1      34.145  34.857  28.455  1.00  0.00     0.275 C 
ENDROOT
BRANCH   1   2
ATOM      2  O   UNL A   1      33.442  33.677  28.006  1.00  0.00    -0.458 OA
BRANCH   2   3
ATOM      3  C   UNL A   1      33.945  32.497  28.448  1.00  0.00     0.338 C 
ATOM      4  O   UNL A   1      34.607  32.319  29.453  1.00  0.00    -0.246 OA
BRANCH   3   5
ATOM      5  C   UNL A   1      33.512  31.380  27.583  1.00  0.00     0.060 A 
ATOM      6  C   UNL A   1      32.504  29.240  26.025  1.00  0.00    -0.020 A 
ATOM      7  C   UNL A   1      31.798  30.439  26.136  1.00  0.00     0.007 A 
ATOM      8  C   UNL A   1      33.699  29.119  26.770  1.00  0.00     0.007 A 
ATOM      9  C   UNL A   1      32.295  31.483  26.907  1.00  0.00     0.016 A 
ATOM     10  C   UNL A   1      34.217  30.185  27.521  1.00  0.00     0.016 A 
BRANCH   6  11
ATOM     11  C   UNL A   1      31.939  28.117  25.142  1.00  0.00     0.170 C 
ATOM     12  N   UNL A   1      32.992  27.190  24.693  1.00  0.00    -0.325 N 
ATOM     13  C   UNL A   1      33.880  27.706  23.640  1.00  0.00     0.181 C 
ATOM     14  C   UNL A   1      33.100  28.355  22.477  1.00  0.00     0.282 C 
ATOM     15  C   UNL A   1      31.172  28.634  23.881  1.00  0.00     0.290 C 
ATOM     16  N   UNL A   1      32.048  29.302  22.897  1.00  0.00    -0.343 N 
ATOM     17  H   UNL A   1      31.499  29.587  22.086  1.00  0.00     0.346 HD
ATOM     18  H   UNL A   1      32.473  30.130  23.317  1.00  0.00     0.346 HD
BRANCH  12  19
ATOM     19  C   UNL A   1      33.276  25.977  25.292  1.00  0.00     0.220 C 
ATOM     20  C   UNL A   1      34.408  25.164  24.711  1.00  0.00     0.114 C 
ATOM     21  O   UNL A   1      32.679  25.581  26.293  1.00  0.00    -0.275 OA
ENDBRANCH  12  19
ENDBRANCH   6  11
ENDBRANCH   3   5
ENDBRANCH   2   3
ENDBRANCH   1   2
BRANCH   1  22
ATOM     22  C   UNL A   1      33.216  35.842  29.170  1.00  0.00     0.275 C 
BRANCH  22  23
ATOM     23  O   UNL A   1      32.577  35.224  30.302  1.00  0.00    -0.458 OA
BRANCH  23  24
ATOM     24  C   UNL A   1      32.826  35.817  31.490  1.00  0.00     0.338 C 
ATOM     25  O   UNL A   1      32.263  36.787  31.972  1.00  0.00    -0.246 OA
BRANCH  24  26
ATOM     26  C   UNL A   1      33.850  35.075  32.236  1.00  0.00     0.060 A 
ATOM     27  C   UNL A   1      35.108  35.647  32.342  1.00  0.00     0.016 A 
ATOM     28  C   UNL A   1      33.663  33.744  32.595  1.00  0.00     0.016 A 
ATOM     29  C   UNL A   1      36.217  34.850  32.596  1.00  0.00     0.010 A 
ATOM     30  C   UNL A   1      34.757  32.994  33.050  1.00  0.00     0.010 A 
ATOM     31  C   UNL A   1      36.062  33.520  33.005  1.00  0.00    -0.014 A 
BRANCH  31  32
ATOM     32  C   UNL A   1      37.258  32.709  33.389  1.00  0.00     0.031 A 
ATOM     33  C   UNL A   1      37.932  32.904  34.726  1.00  0.00     0.074 A 
ATOM     34  C   UNL A   1      37.749  31.782  32.538  1.00  0.00     0.049 A 
ATOM     35  N   UNL A   1      39.081  32.437  35.150  1.00  0.00    -0.248 NA
ATOM     36  C   UNL A   1      37.233  33.746  35.712  1.00  0.00     0.031 C 
ATOM     37  C   UNL A   1      37.180  31.435  31.230  1.00  0.00     0.029 A 
ATOM     38  N   UNL A   1      38.836  30.947  32.646  1.00  0.00    -0.354 N 
ATOM     39  C   UNL A   1      39.271  32.978  36.418  1.00  0.00     0.074 A 
ATOM     40  C   UNL A   1      38.123  33.816  36.691  1.00  0.00     0.031 C 
ATOM     41  C   UNL A   1      37.876  30.425  30.695  1.00  0.00     0.029 A 
ATOM     42  C   UNL A   1      39.021  30.143  31.546  1.00  0.00     0.049 A 
ATOM     43  H   UNL A   1      39.425  30.928  33.434  1.00  0.00     0.167 HD
ATOM     44  C   UNL A   1      40.310  32.798  37.272  1.00  0.00     0.031 A 
ATOM     45  C   UNL A   1      40.027  29.315  31.212  1.00  0.00     0.031 A 
ATOM     46  C   UNL A   1      41.436  31.940  37.006  1.00  0.00     0.049 A 
ATOM     47  C   UNL A   1      41.202  29.196  32.134  1.00  0.00     0.074 A 
ATOM     48  C   UNL A   1      42.533  31.681  37.810  1.00  0.00     0.029 A 
ATOM     49  N   UNL A   1      41.607  31.195  35.849  1.00  0.00    -0.354 N 
ATOM     50  N   UNL A   1      41.392  29.755  33.304  1.00  0.00    -0.248 NA
ATOM     51  C   UNL A   1      42.311  28.350  31.677  1.00  0.00     0.031 C 
ATOM     52  C   UNL A   1      43.396  30.828  37.112  1.00  0.00     0.029 A 
ATOM     53  C   UNL A   1      42.804  30.500  35.904  1.00  0.00     0.049 A 
ATOM     54  H   UNL A   1      40.970  31.163  35.097  1.00  0.00     0.167 HD
ATOM     55  C   UNL A   1      42.634  29.313  33.735  1.00  0.00     0.074 A 
ATOM     56  C   UNL A   1      43.140  28.422  32.709  1.00  0.00     0.031 C 
ATOM     57  C   UNL A   1      43.298  29.622  34.874  1.00  0.00     0.031 A 
BRANCH  44  58
ATOM     58  C   UNL A   1      40.303  33.590  38.555  1.00  0.00    -0.014 A 
ATOM     59  C   UNL A   1      39.732  33.090  39.735  1.00  0.00     0.009 A 
ATOM     60  C   UNL A   1      40.909  34.858  38.584  1.00  0.00     0.009 A 
ATOM     61  C   UNL A   1      39.727  33.860  40.902  1.00  0.00     0.001 A 
ATOM     62  C   UNL A   1      40.934  35.611  39.760  1.00  0.00     0.001 A 
ATOM     63  C   UNL A   1      40.331  35.117  40.915  1.00  0.00     0.000 A 
ENDBRANCH  44  58
BRANCH  45  64
ATOM     64  C   UNL A   1      39.993  28.590  29.914  1.00  0.00    -0.014 A 
ATOM     65  C   UNL A   1      40.554  29.160  28.762  1.00  0.00     0.009 A 
ATOM     66  C   UNL A   1      39.413  27.312  29.822  1.00  0.00     0.009 A 
ATOM     67  C   UNL A   1      40.522  28.474  27.545  1.00  0.00     0.001 A 
ATOM     68  C   UNL A   1      39.415  26.614  28.615  1.00  0.00     0.001 A 
ATOM     69  C   UNL A   1      39.961  27.199  27.475  1.00  0.00     0.000 A 
ENDBRANCH  45  64
BRANCH  57  70
ATOM     70  C   UNL A   1      44.628  28.955  35.086  1.00  0.00    -0.014 A 
ATOM     71  C   UNL A   1      44.726  27.703  35.712  1.00  0.00     0.009 A 
ATOM     72  C   UNL A   1      45.798  29.585  34.636  1.00  0.00     0.009 A 
ATOM     73  C   UNL A   1      45.975  27.113  35.916  1.00  0.00     0.001 A 
ATOM     74  C   UNL A   1      47.042  28.978  34.812  1.00  0.00     0.001 A 
ATOM     75  C   UNL A   1      47.131  27.748  35.462  1.00  0.00     0.000 A 
ENDBRANCH  57  70
ENDBRANCH  31  32
ENDBRANCH  24  26
ENDBRANCH  23  24
ENDBRANCH  22  23
ENDBRANCH   1  22
TORSDOF 13
ENDMDL
