MODEL 1
REMARK VINA RESULT:     -11.7      0.000      0.000
REMARK SMILES CC1(C)C(n2c(SCC(=O)OCCOC(=O)c3ccc(-c4c5nc(c(-c6ccccc6)c6ccc([nH]6)c(-c6ccccc6)c6nc(c(-c7ccccc7)c7ccc4[nH]7)C=C6)C=C5)cc3)nc3cnccc32)C1(C)C
REMARK SMILES IDX 12 1 11 2 9 3 10 4 8 5 7 6 6 7 5 8 71 9 65 10 66 11 70 12
REMARK SMILES IDX 67 13 69 14 68 15 4 16 1 17 2 18 3 19 72 20 73 21 74 22
REMARK SMILES IDX 13 23 14 24 15 25 16 26 17 27 18 28 64 29 19 30 63 31 20 32
REMARK SMILES IDX 21 33 22 34 57 35 23 36 62 37 56 38 58 39 24 40 61 41 55 42
REMARK SMILES IDX 54 43 25 45 47 46 32 47 46 48 33 49 36 50 45 51 59 52 34 53
REMARK SMILES IDX 35 54 44 56 60 57 37 58 26 59 27 60 31 61 28 62 30 63 29 64
REMARK SMILES IDX 48 65 49 66 53 67 50 68 52 69 51 70 38 71 39 72 43 73 40 74
REMARK SMILES IDX 42 75 41 76
REMARK H PARENT 58 44 36 55
REMARK Flexibility Score: inf
ROOT
ATOM      1  C   UNL A   1      33.254  30.031  26.517  1.00  0.00     0.274 C 
ENDROOT
BRANCH   1   2
ATOM      2  O   UNL A   1      32.143  29.128  26.711  1.00  0.00    -0.461 OA
BRANCH   2   3
ATOM      3  C   UNL A   1      31.438  28.702  25.631  1.00  0.00     0.316 C 
ATOM      4  O   UNL A   1      31.208  29.393  24.642  1.00  0.00    -0.251 OA
BRANCH   3   5
ATOM      5  C   UNL A   1      31.026  27.249  25.717  1.00  0.00     0.200 C 
BRANCH   5   6
ATOM      6  S   UNL A   1      32.181  26.146  26.483  1.00  0.00    -0.076 SA
BRANCH   6   7
ATOM      7  C   UNL A   1      33.317  25.614  25.249  1.00  0.00     0.169 A 
ATOM      8  N   UNL A   1      33.399  24.383  24.564  1.00  0.00    -0.315 N 
ATOM      9  C   UNL A   1      33.316  24.751  23.223  1.00  0.00     0.072 A 
ATOM     10  N   UNL A   1      33.797  26.580  24.492  1.00  0.00    -0.221 NA
ATOM     11  C   UNL A   1      33.582  26.124  23.225  1.00  0.00     0.108 A 
ATOM     12  C   UNL A   1      32.988  24.099  22.035  1.00  0.00     0.049 A 
ATOM     13  C   UNL A   1      33.500  26.853  22.033  1.00  0.00     0.141 A 
ATOM     14  C   UNL A   1      32.905  24.909  20.906  1.00  0.00     0.113 A 
ATOM     15  N   UNL A   1      33.155  26.237  20.876  1.00  0.00    -0.262 NA
BRANCH   8  16
ATOM     16  C   UNL A   1      33.004  23.058  25.137  1.00  0.00     0.102 C 
ATOM     17  C   UNL A   1      32.531  19.468  24.996  1.00  0.00     0.014 C 
ATOM     18  C   UNL A   1      33.577  21.409  25.099  1.00  0.00    -0.007 C 
ATOM     19  C   UNL A   1      35.167  21.669  24.251  1.00  0.00     0.014 C 
ATOM     20  C   UNL A   1      33.764  22.569  26.391  1.00  0.00    -0.007 C 
ATOM     21  C   UNL A   1      33.158  22.662  27.789  1.00  0.00     0.014 C 
ATOM     22  C   UNL A   1      35.188  23.160  26.677  1.00  0.00     0.014 C 
ENDBRANCH   8  16
ENDBRANCH   6   7
ENDBRANCH   5   6
ENDBRANCH   3   5
ENDBRANCH   2   3
ENDBRANCH   1   2
BRANCH   1  23
ATOM     23  C   UNL A   1      33.011  31.306  27.371  1.00  0.00     0.275 C 
BRANCH  23  24
ATOM     24  O   UNL A   1      34.133  31.557  28.267  1.00  0.00    -0.458 OA
BRANCH  24  25
ATOM     25  C   UNL A   1      35.139  32.429  27.950  1.00  0.00     0.338 C 
ATOM     26  O   UNL A   1      35.037  33.592  27.623  1.00  0.00    -0.246 OA
BRANCH  25  27
ATOM     27  C   UNL A   1      36.392  31.769  28.416  1.00  0.00     0.060 A 
ATOM     28  C   UNL A   1      37.783  32.344  29.433  1.00  0.00     0.016 A 
ATOM     29  C   UNL A   1      36.398  30.097  27.802  1.00  0.00     0.016 A 
ATOM     30  C   UNL A   1      39.148  31.140  29.829  1.00  0.00     0.010 A 
ATOM     31  C   UNL A   1      37.695  28.996  28.153  1.00  0.00     0.010 A 
ATOM     32  C   UNL A   1      39.027  29.409  29.217  1.00  0.00    -0.014 A 
BRANCH  32  33
ATOM     33  C   UNL A   1      39.929  28.244  29.485  1.00  0.00     0.031 A 
ATOM     34  C   UNL A   1      40.109  28.095  30.935  1.00  0.00     0.074 A 
ATOM     35  C   UNL A   1      40.486  27.316  28.622  1.00  0.00     0.049 A 
ATOM     36  N   UNL A   1      41.100  28.625  31.567  1.00  0.00    -0.248 NA
ATOM     37  C   UNL A   1      39.056  27.570  31.815  1.00  0.00     0.031 C 
ATOM     38  C   UNL A   1      40.411  27.165  27.144  1.00  0.00     0.029 A 
ATOM     39  N   UNL A   1      41.215  26.172  28.910  1.00  0.00    -0.354 N 
ATOM     40  C   UNL A   1      40.952  28.224  32.877  1.00  0.00     0.074 A 
ATOM     41  C   UNL A   1      39.578  27.826  33.019  1.00  0.00     0.031 C 
ATOM     42  C   UNL A   1      40.765  25.934  26.725  1.00  0.00     0.029 A 
ATOM     43  C   UNL A   1      41.365  25.261  27.843  1.00  0.00     0.049 A 
ATOM     44  H   UNL A   1      41.602  26.007  29.800  1.00  0.00     0.167 HD
ATOM     45  C   UNL A   1      42.059  27.944  33.611  1.00  0.00     0.031 A 
ATOM     46  C   UNL A   1      42.246  24.247  27.648  1.00  0.00     0.031 A 
ATOM     47  C   UNL A   1      43.255  28.340  32.898  1.00  0.00     0.049 A 
ATOM     48  C   UNL A   1      43.411  24.555  28.474  1.00  0.00     0.074 A 
ATOM     49  C   UNL A   1      43.846  29.548  32.594  1.00  0.00     0.029 A 
ATOM     50  N   UNL A   1      43.686  27.427  31.960  1.00  0.00    -0.354 N 
ATOM     51  N   UNL A   1      44.208  25.551  28.226  1.00  0.00    -0.248 NA
ATOM     52  C   UNL A   1      43.457  24.003  29.816  1.00  0.00     0.031 C 
ATOM     53  C   UNL A   1      44.502  29.371  31.344  1.00  0.00     0.029 A 
ATOM     54  C   UNL A   1      44.389  28.040  30.950  1.00  0.00     0.049 A 
ATOM     55  H   UNL A   1      43.513  26.459  32.009  1.00  0.00     0.167 HD
ATOM     56  C   UNL A   1      44.486  26.048  29.481  1.00  0.00     0.074 A 
ATOM     57  C   UNL A   1      44.152  24.974  30.413  1.00  0.00     0.031 C 
ATOM     58  C   UNL A   1      44.647  27.384  29.684  1.00  0.00     0.031 A 
BRANCH  45  59
ATOM     59  C   UNL A   1      42.090  26.960  34.743  1.00  0.00    -0.014 A 
ATOM     60  C   UNL A   1      41.633  27.253  36.043  1.00  0.00     0.009 A 
ATOM     61  C   UNL A   1      42.402  25.620  34.467  1.00  0.00     0.009 A 
ATOM     62  C   UNL A   1      41.536  26.274  37.033  1.00  0.00     0.001 A 
ATOM     63  C   UNL A   1      42.275  24.628  35.448  1.00  0.00     0.001 A 
ATOM     64  C   UNL A   1      41.851  24.958  36.732  1.00  0.00     0.000 A 
ENDBRANCH  45  59
BRANCH  46  65
ATOM     65  C   UNL A   1      42.072  22.910  27.030  1.00  0.00    -0.014 A 
ATOM     66  C   UNL A   1      41.111  22.023  27.542  1.00  0.00     0.009 A 
ATOM     67  C   UNL A   1      43.068  22.382  26.186  1.00  0.00     0.009 A 
ATOM     68  C   UNL A   1      41.211  20.643  27.313  1.00  0.00     0.001 A 
ATOM     69  C   UNL A   1      43.164  21.002  25.955  1.00  0.00     0.001 A 
ATOM     70  C   UNL A   1      42.254  20.130  26.545  1.00  0.00     0.000 A 
ENDBRANCH  46  65
BRANCH  58  71
ATOM     71  C   UNL A   1      44.984  28.252  28.497  1.00  0.00    -0.014 A 
ATOM     72  C   UNL A   1      46.340  28.376  28.160  1.00  0.00     0.009 A 
ATOM     73  C   UNL A   1      44.053  29.036  27.795  1.00  0.00     0.009 A 
ATOM     74  C   UNL A   1      46.764  29.288  27.193  1.00  0.00     0.001 A 
ATOM     75  C   UNL A   1      44.475  29.938  26.807  1.00  0.00     0.001 A 
ATOM     76  C   UNL A   1      45.833  30.075  26.520  1.00  0.00     0.000 A 
ENDBRANCH  58  71
ENDBRANCH  32  33
ENDBRANCH  25  27
ENDBRANCH  24  25
ENDBRANCH  23  24
ENDBRANCH   1  23
TORSDOF 14
ENDMDL
MODEL 2
REMARK VINA RESULT:     -11.7      1.801      2.496
REMARK SMILES CC1(C)C(n2c(SCC(=O)OCCOC(=O)c3ccc(-c4c5nc(c(-c6ccccc6)c6ccc([nH]6)c(-c6ccccc6)c6nc(c(-c7ccccc7)c7ccc4[nH]7)C=C6)C=C5)cc3)nc3cnccc32)C1(C)C
REMARK SMILES IDX 12 1 11 2 9 3 10 4 8 5 7 6 6 7 5 8 71 9 65 10 66 11 70 12
REMARK SMILES IDX 67 13 69 14 68 15 4 16 1 17 2 18 3 19 72 20 73 21 74 22
REMARK SMILES IDX 13 23 14 24 15 25 16 26 17 27 18 28 64 29 19 30 63 31 20 32
REMARK SMILES IDX 21 33 22 34 57 35 23 36 62 37 56 38 58 39 24 40 61 41 55 42
REMARK SMILES IDX 54 43 25 45 47 46 32 47 46 48 33 49 36 50 45 51 59 52 34 53
REMARK SMILES IDX 35 54 44 56 60 57 37 58 26 59 27 60 31 61 28 62 30 63 29 64
REMARK SMILES IDX 48 65 49 66 53 67 50 68 52 69 51 70 38 71 39 72 43 73 40 74
REMARK SMILES IDX 42 75 41 76
REMARK H PARENT 58 44 36 55
REMARK Flexibility Score: inf
ROOT
ATOM      1  C   UNL A   1      34.098  32.184  27.491  1.00  0.00     0.274 C 
ENDROOT
BRANCH   1   2
ATOM      2  O   UNL A   1      33.205  31.066  27.698  1.00  0.00    -0.461 OA
BRANCH   2   3
ATOM      3  C   UNL A   1      33.498  29.869  27.128  1.00  0.00     0.316 C 
ATOM      4  O   UNL A   1      34.209  29.013  27.649  1.00  0.00    -0.251 OA
BRANCH   3   5
ATOM      5  C   UNL A   1      32.791  29.641  25.811  1.00  0.00     0.200 C 
BRANCH   5   6
ATOM      6  S   UNL A   1      33.697  28.758  24.571  1.00  0.00    -0.076 SA
BRANCH   6   7
ATOM      7  C   UNL A   1      32.532  28.003  23.489  1.00  0.00     0.169 A 
ATOM      8  N   UNL A   1      31.535  27.042  23.761  1.00  0.00    -0.315 N 
ATOM      9  C   UNL A   1      30.363  27.659  23.331  1.00  0.00     0.072 A 
ATOM     10  N   UNL A   1      32.166  28.751  22.468  1.00  0.00    -0.221 NA
ATOM     11  C   UNL A   1      30.804  28.710  22.519  1.00  0.00     0.108 A 
ATOM     12  C   UNL A   1      29.003  27.488  23.583  1.00  0.00     0.049 A 
ATOM     13  C   UNL A   1      29.878  29.606  21.974  1.00  0.00     0.141 A 
ATOM     14  C   UNL A   1      28.161  28.443  23.020  1.00  0.00     0.113 A 
ATOM     15  N   UNL A   1      28.556  29.468  22.234  1.00  0.00    -0.262 NA
BRANCH   8  16
ATOM     16  C   UNL A   1      31.634  25.981  24.812  1.00  0.00     0.102 C 
ATOM     17  C   UNL A   1      30.369  23.178  26.728  1.00  0.00     0.014 C 
ATOM     18  C   UNL A   1      31.172  24.310  25.011  1.00  0.00    -0.007 C 
ATOM     19  C   UNL A   1      30.635  23.947  23.309  1.00  0.00     0.014 C 
ATOM     20  C   UNL A   1      32.764  24.937  24.668  1.00  0.00    -0.007 C 
ATOM     21  C   UNL A   1      34.044  25.013  25.496  1.00  0.00     0.014 C 
ATOM     22  C   UNL A   1      33.380  24.698  23.245  1.00  0.00     0.014 C 
ENDBRANCH   8  16
ENDBRANCH   6   7
ENDBRANCH   5   6
ENDBRANCH   3   5
ENDBRANCH   2   3
ENDBRANCH   1   2
BRANCH   1  23
ATOM     23  C   UNL A   1      33.687  33.331  28.456  1.00  0.00     0.275 C 
BRANCH  23  24
ATOM     24  O   UNL A   1      34.820  33.766  29.262  1.00  0.00    -0.458 OA
BRANCH  24  25
ATOM     25  C   UNL A   1      35.078  33.244  30.501  1.00  0.00     0.338 C 
ATOM     26  O   UNL A   1      34.301  33.099  31.421  1.00  0.00    -0.246 OA
BRANCH  25  27
ATOM     27  C   UNL A   1      36.405  32.577  30.377  1.00  0.00     0.060 A 
ATOM     28  C   UNL A   1      38.108  33.209  30.402  1.00  0.00     0.016 A 
ATOM     29  C   UNL A   1      36.131  30.829  30.186  1.00  0.00     0.016 A 
ATOM     30  C   UNL A   1      39.509  31.988  30.268  1.00  0.00     0.010 A 
ATOM     31  C   UNL A   1      37.446  29.706  30.029  1.00  0.00     0.010 A 
ATOM     32  C   UNL A   1      39.128  30.191  30.156  1.00  0.00    -0.014 A 
BRANCH  32  33
ATOM     33  C   UNL A   1      40.065  29.024  30.145  1.00  0.00     0.031 A 
ATOM     34  C   UNL A   1      40.486  28.727  31.520  1.00  0.00     0.074 A 
ATOM     35  C   UNL A   1      40.471  28.202  29.106  1.00  0.00     0.049 A 
ATOM     36  N   UNL A   1      41.567  29.207  32.031  1.00  0.00    -0.248 NA
ATOM     37  C   UNL A   1      39.597  28.092  32.502  1.00  0.00     0.031 C 
ATOM     38  C   UNL A   1      40.149  28.204  27.654  1.00  0.00     0.029 A 
ATOM     39  N   UNL A   1      41.240  27.049  29.146  1.00  0.00    -0.354 N 
ATOM     40  C   UNL A   1      41.643  28.669  33.297  1.00  0.00     0.074 A 
ATOM     41  C   UNL A   1      40.312  28.231  33.623  1.00  0.00     0.031 C 
ATOM     42  C   UNL A   1      40.430  27.031  27.053  1.00  0.00     0.029 A 
ATOM     43  C   UNL A   1      41.211  26.258  27.978  1.00  0.00     0.049 A 
ATOM     44  H   UNL A   1      41.772  26.799  29.936  1.00  0.00     0.167 HD
ATOM     45  C   UNL A   1      42.858  28.336  33.802  1.00  0.00     0.031 A 
ATOM     46  C   UNL A   1      42.049  25.287  27.532  1.00  0.00     0.031 A 
ATOM     47  C   UNL A   1      43.916  28.829  32.946  1.00  0.00     0.049 A 
ATOM     48  C   UNL A   1      43.336  25.530  28.180  1.00  0.00     0.074 A 
ATOM     49  C   UNL A   1      44.445  30.073  32.678  1.00  0.00     0.029 A 
ATOM     50  N   UNL A   1      44.186  28.028  31.857  1.00  0.00    -0.354 N 
ATOM     51  N   UNL A   1      44.077  26.563  27.910  1.00  0.00    -0.248 NA
ATOM     52  C   UNL A   1      43.608  24.843  29.429  1.00  0.00     0.031 C 
ATOM     53  C   UNL A   1      44.883  30.041  31.324  1.00  0.00     0.029 A 
ATOM     54  C   UNL A   1      44.708  28.756  30.815  1.00  0.00     0.049 A 
ATOM     55  H   UNL A   1      44.025  27.056  31.831  1.00  0.00     0.167 HD
ATOM     56  C   UNL A   1      44.561  26.932  29.147  1.00  0.00     0.074 A 
ATOM     57  C   UNL A   1      44.390  25.760  30.002  1.00  0.00     0.031 C 
ATOM     58  C   UNL A   1      44.751  28.241  29.461  1.00  0.00     0.031 A 
BRANCH  45  59
ATOM     59  C   UNL A   1      43.081  27.240  34.802  1.00  0.00    -0.014 A 
ATOM     60  C   UNL A   1      43.006  27.430  36.195  1.00  0.00     0.009 A 
ATOM     61  C   UNL A   1      43.175  25.916  34.346  1.00  0.00     0.009 A 
ATOM     62  C   UNL A   1      43.070  26.363  37.093  1.00  0.00     0.001 A 
ATOM     63  C   UNL A   1      43.206  24.840  35.242  1.00  0.00     0.001 A 
ATOM     64  C   UNL A   1      43.162  25.065  36.614  1.00  0.00     0.000 A 
ENDBRANCH  45  59
BRANCH  46  65
ATOM     65  C   UNL A   1      41.776  24.019  26.813  1.00  0.00    -0.014 A 
ATOM     66  C   UNL A   1      40.636  23.266  27.132  1.00  0.00     0.009 A 
ATOM     67  C   UNL A   1      42.798  23.384  26.081  1.00  0.00     0.009 A 
ATOM     68  C   UNL A   1      40.569  21.897  26.833  1.00  0.00     0.001 A 
ATOM     69  C   UNL A   1      42.728  22.016  25.778  1.00  0.00     0.001 A 
ATOM     70  C   UNL A   1      41.628  21.266  26.183  1.00  0.00     0.000 A 
ENDBRANCH  46  65
BRANCH  58  71
ATOM     71  C   UNL A   1      44.882  29.236  28.334  1.00  0.00    -0.014 A 
ATOM     72  C   UNL A   1      46.176  29.503  27.865  1.00  0.00     0.009 A 
ATOM     73  C   UNL A   1      43.820  29.996  27.816  1.00  0.00     0.009 A 
ATOM     74  C   UNL A   1      46.416  30.529  26.950  1.00  0.00     0.001 A 
ATOM     75  C   UNL A   1      44.056  31.014  26.880  1.00  0.00     0.001 A 
ATOM     76  C   UNL A   1      45.357  31.290  26.462  1.00  0.00     0.000 A 
ENDBRANCH  58  71
ENDBRANCH  32  33
ENDBRANCH  25  27
ENDBRANCH  24  25
ENDBRANCH  23  24
ENDBRANCH   1  23
TORSDOF 14
ENDMDL
MODEL 3
REMARK VINA RESULT:     -11.6      3.636      8.418
REMARK SMILES CC1(C)C(n2c(SCC(=O)OCCOC(=O)c3ccc(-c4c5nc(c(-c6ccccc6)c6ccc([nH]6)c(-c6ccccc6)c6nc(c(-c7ccccc7)c7ccc4[nH]7)C=C6)C=C5)cc3)nc3cnccc32)C1(C)C
REMARK SMILES IDX 12 1 11 2 9 3 10 4 8 5 7 6 6 7 5 8 71 9 65 10 66 11 70 12
REMARK SMILES IDX 67 13 69 14 68 15 4 16 1 17 2 18 3 19 72 20 73 21 74 22
REMARK SMILES IDX 13 23 14 24 15 25 16 26 17 27 18 28 64 29 19 30 63 31 20 32
REMARK SMILES IDX 21 33 22 34 57 35 23 36 62 37 56 38 58 39 24 40 61 41 55 42
REMARK SMILES IDX 54 43 25 45 47 46 32 47 46 48 33 49 36 50 45 51 59 52 34 53
REMARK SMILES IDX 35 54 44 56 60 57 37 58 26 59 27 60 31 61 28 62 30 63 29 64
REMARK SMILES IDX 48 65 49 66 53 67 50 68 52 69 51 70 38 71 39 72 43 73 40 74
REMARK SMILES IDX 42 75 41 76
REMARK H PARENT 58 44 36 55
REMARK Flexibility Score: inf
ROOT
ATOM      1  C   UNL A   1      40.773  20.820  27.164  1.00  0.00     0.274 C 
ENDROOT
BRANCH   1   2
ATOM      2  O   UNL A   1      39.800  20.924  26.100  1.00  0.00    -0.461 OA
BRANCH   2   3
ATOM      3  C   UNL A   1      38.902  21.943  26.119  1.00  0.00     0.316 C 
ATOM      4  O   UNL A   1      39.142  23.065  26.556  1.00  0.00    -0.251 OA
BRANCH   3   5
ATOM      5  C   UNL A   1      37.584  21.594  25.464  1.00  0.00     0.200 C 
BRANCH   5   6
ATOM      6  S   UNL A   1      36.498  22.947  25.107  1.00  0.00    -0.076 SA
BRANCH   6   7
ATOM      7  C   UNL A   1      34.846  22.385  25.332  1.00  0.00     0.169 A 
ATOM      8  N   UNL A   1      33.675  22.707  24.613  1.00  0.00    -0.315 N 
ATOM      9  C   UNL A   1      33.210  21.468  24.177  1.00  0.00     0.072 A 
ATOM     10  N   UNL A   1      34.742  21.173  25.837  1.00  0.00    -0.221 NA
ATOM     11  C   UNL A   1      33.894  20.543  24.975  1.00  0.00     0.108 A 
ATOM     12  C   UNL A   1      32.351  21.030  23.171  1.00  0.00     0.049 A 
ATOM     13  C   UNL A   1      33.729  19.172  24.750  1.00  0.00     0.141 A 
ATOM     14  C   UNL A   1      32.272  19.650  23.005  1.00  0.00     0.113 A 
ATOM     15  N   UNL A   1      32.919  18.733  23.757  1.00  0.00    -0.262 NA
BRANCH   8  16
ATOM     16  C   UNL A   1      33.410  24.024  23.955  1.00  0.00     0.102 C 
ATOM     17  C   UNL A   1      31.660  26.218  21.662  1.00  0.00     0.014 C 
ATOM     18  C   UNL A   1      32.029  24.958  23.437  1.00  0.00    -0.007 C 
ATOM     19  C   UNL A   1      30.701  23.952  24.171  1.00  0.00     0.014 C 
ATOM     20  C   UNL A   1      33.004  25.207  24.864  1.00  0.00    -0.007 C 
ATOM     21  C   UNL A   1      33.994  26.299  25.259  1.00  0.00     0.014 C 
ATOM     22  C   UNL A   1      32.384  24.888  26.269  1.00  0.00     0.014 C 
ENDBRANCH   8  16
ENDBRANCH   6   7
ENDBRANCH   5   6
ENDBRANCH   3   5
ENDBRANCH   2   3
ENDBRANCH   1   2
BRANCH   1  23
ATOM     23  C   UNL A   1      42.190  21.030  26.562  1.00  0.00     0.275 C 
BRANCH  23  24
ATOM     24  O   UNL A   1      42.141  21.920  25.409  1.00  0.00    -0.458 OA
BRANCH  24  25
ATOM     25  C   UNL A   1      43.117  22.847  25.160  1.00  0.00     0.338 C 
ATOM     26  O   UNL A   1      43.793  22.961  24.160  1.00  0.00    -0.246 OA
BRANCH  25  27
ATOM     27  C   UNL A   1      42.946  23.889  26.211  1.00  0.00     0.060 A 
ATOM     28  C   UNL A   1      43.691  24.117  27.853  1.00  0.00     0.016 A 
ATOM     29  C   UNL A   1      41.773  25.089  25.617  1.00  0.00     0.016 A 
ATOM     30  C   UNL A   1      43.224  25.628  28.836  1.00  0.00     0.010 A 
ATOM     31  C   UNL A   1      41.323  26.476  26.559  1.00  0.00     0.010 A 
ATOM     32  C   UNL A   1      42.065  26.855  28.103  1.00  0.00    -0.014 A 
BRANCH  32  33
ATOM     33  C   UNL A   1      41.623  28.180  28.643  1.00  0.00     0.031 A 
ATOM     34  C   UNL A   1      42.582  29.214  28.231  1.00  0.00     0.074 A 
ATOM     35  C   UNL A   1      40.478  28.538  29.334  1.00  0.00     0.049 A 
ATOM     36  N   UNL A   1      43.569  29.577  28.976  1.00  0.00    -0.248 NA
ATOM     37  C   UNL A   1      42.658  29.722  26.855  1.00  0.00     0.031 C 
ATOM     38  C   UNL A   1      39.313  27.741  29.805  1.00  0.00     0.029 A 
ATOM     39  N   UNL A   1      40.033  29.796  29.711  1.00  0.00    -0.354 N 
ATOM     40  C   UNL A   1      44.198  30.586  28.280  1.00  0.00     0.074 A 
ATOM     41  C   UNL A   1      43.781  30.446  26.912  1.00  0.00     0.031 C 
ATOM     42  C   UNL A   1      38.240  28.503  30.095  1.00  0.00     0.029 A 
ATOM     43  C   UNL A   1      38.683  29.869  30.112  1.00  0.00     0.049 A 
ATOM     44  H   UNL A   1      40.622  30.586  29.699  1.00  0.00     0.167 HD
ATOM     45  C   UNL A   1      44.727  31.632  28.966  1.00  0.00     0.031 A 
ATOM     46  C   UNL A   1      38.011  30.805  30.831  1.00  0.00     0.031 A 
ATOM     47  C   UNL A   1      44.707  31.367  30.389  1.00  0.00     0.049 A 
ATOM     48  C   UNL A   1      39.017  31.506  31.627  1.00  0.00     0.074 A 
ATOM     49  C   UNL A   1      45.421  30.542  31.232  1.00  0.00     0.029 A 
ATOM     50  N   UNL A   1      43.497  31.623  30.998  1.00  0.00    -0.354 N 
ATOM     51  N   UNL A   1      39.663  30.941  32.603  1.00  0.00    -0.248 NA
ATOM     52  C   UNL A   1      39.600  32.714  31.073  1.00  0.00     0.031 C 
ATOM     53  C   UNL A   1      44.531  30.169  32.279  1.00  0.00     0.029 A 
ATOM     54  C   UNL A   1      43.324  30.846  32.118  1.00  0.00     0.049 A 
ATOM     55  H   UNL A   1      42.840  32.280  30.670  1.00  0.00     0.167 HD
ATOM     56  C   UNL A   1      40.942  31.434  32.456  1.00  0.00     0.074 A 
ATOM     57  C   UNL A   1      40.811  32.630  31.629  1.00  0.00     0.031 C 
ATOM     58  C   UNL A   1      42.025  30.659  32.733  1.00  0.00     0.031 A 
BRANCH  45  59
ATOM     59  C   UNL A   1      44.865  33.018  28.410  1.00  0.00    -0.014 A 
ATOM     60  C   UNL A   1      43.806  33.946  28.360  1.00  0.00     0.009 A 
ATOM     61  C   UNL A   1      46.146  33.500  28.102  1.00  0.00     0.009 A 
ATOM     62  C   UNL A   1      44.002  35.274  27.976  1.00  0.00     0.001 A 
ATOM     63  C   UNL A   1      46.352  34.839  27.749  1.00  0.00     0.001 A 
ATOM     64  C   UNL A   1      45.279  35.722  27.677  1.00  0.00     0.000 A 
ENDBRANCH  45  59
BRANCH  46  65
ATOM     65  C   UNL A   1      36.630  31.329  30.700  1.00  0.00    -0.014 A 
ATOM     66  C   UNL A   1      36.169  31.778  29.452  1.00  0.00     0.009 A 
ATOM     67  C   UNL A   1      35.903  31.711  31.844  1.00  0.00     0.009 A 
ATOM     68  C   UNL A   1      35.091  32.671  29.362  1.00  0.00     0.001 A 
ATOM     69  C   UNL A   1      34.823  32.600  31.751  1.00  0.00     0.001 A 
ATOM     70  C   UNL A   1      34.437  33.105  30.513  1.00  0.00     0.000 A 
ENDBRANCH  46  65
BRANCH  58  71
ATOM     71  C   UNL A   1      41.836  29.458  33.627  1.00  0.00    -0.014 A 
ATOM     72  C   UNL A   1      42.007  29.655  35.005  1.00  0.00     0.009 A 
ATOM     73  C   UNL A   1      41.628  28.147  33.166  1.00  0.00     0.009 A 
ATOM     74  C   UNL A   1      42.024  28.577  35.893  1.00  0.00     0.001 A 
ATOM     75  C   UNL A   1      41.625  27.065  34.059  1.00  0.00     0.001 A 
ATOM     76  C   UNL A   1      41.840  27.281  35.419  1.00  0.00     0.000 A 
ENDBRANCH  58  71
ENDBRANCH  32  33
ENDBRANCH  25  27
ENDBRANCH  24  25
ENDBRANCH  23  24
ENDBRANCH   1  23
TORSDOF 14
ENDMDL
