MODEL 1
REMARK VINA RESULT:     -13.0      0.000      0.000
REMARK SMILES Cc1ccc(C(=O)NC2(CC(=O)OCCOC(=O)c3ccc(-c4c5nc(c(-c6ccccc6)c6ccc([nH]6)c(-c6ccccc6)c6nc(c(-c7ccccc7)c7ccc4[nH]7)C=C6)C=C5)cc3)CCC2)cc1
REMARK SMILES IDX 14 1 13 2 11 3 12 4 10 5 9 6 67 7 69 8 68 9 8 10 6 11 7 12
REMARK SMILES IDX 5 14 1 15 2 16 3 17 71 18 4 19 70 20 15 21 16 22 17 23 18 24
REMARK SMILES IDX 19 25 20 26 66 27 21 28 65 29 22 30 23 31 24 32 59 33 25 34
REMARK SMILES IDX 64 35 58 36 60 37 26 38 63 39 57 40 56 41 27 43 49 44 34 45
REMARK SMILES IDX 48 46 35 47 38 48 47 49 61 50 36 51 37 52 46 54 62 55 39 56
REMARK SMILES IDX 28 57 29 58 33 59 30 60 32 61 31 62 50 63 51 64 55 65 52 66
REMARK SMILES IDX 54 67 53 68 40 69 41 70 45 71 42 72 44 73 43 74
REMARK H PARENT 8 13 60 42 38 53
REMARK Flexibility Score: inf
ROOT
ATOM      1  C   UNL A   1      34.131  29.626  27.236  1.00  0.00     0.274 C 
ENDROOT
BRANCH   1   2
ATOM      2  O   UNL A   1      33.711  27.707  26.596  1.00  0.00    -0.462 OA
BRANCH   2   3
ATOM      3  C   UNL A   1      33.656  26.605  25.691  1.00  0.00     0.308 C 
ATOM      4  O   UNL A   1      33.349  25.486  26.118  1.00  0.00    -0.252 OA
BRANCH   3   5
ATOM      5  C   UNL A   1      33.794  26.598  24.170  1.00  0.00     0.151 C 
BRANCH   5   6
ATOM      6  C   UNL A   1      32.870  27.255  23.151  1.00  0.00     0.051 C 
ATOM      7  C   UNL A   1      32.855  28.810  23.343  1.00  0.00     0.029 C 
ATOM      8  C   UNL A   1      31.335  27.320  23.409  1.00  0.00     0.029 C 
ATOM      9  C   UNL A   1      31.572  28.629  24.177  1.00  0.00     0.005 C 
BRANCH   6  10
ATOM     10  N   UNL A   1      33.207  26.918  21.756  1.00  0.00    -0.346 N 
ATOM     11  C   UNL A   1      32.998  25.687  21.232  1.00  0.00     0.251 C 
ATOM     12  O   UNL A   1      32.814  25.460  20.049  1.00  0.00    -0.269 OA
ATOM     13  H   UNL A   1      33.600  27.616  21.183  1.00  0.00     0.164 HD
BRANCH  11  14
ATOM     14  C   UNL A   1      32.893  24.660  22.248  1.00  0.00     0.039 A 
ATOM     15  C   UNL A   1      32.769  21.148  25.957  1.00  0.00     0.044 C 
ATOM     16  C   UNL A   1      32.879  22.235  24.919  1.00  0.00    -0.051 A 
ATOM     17  C   UNL A   1      31.371  22.981  24.468  1.00  0.00     0.004 A 
ATOM     18  C   UNL A   1      34.373  22.658  24.085  1.00  0.00     0.004 A 
ATOM     19  C   UNL A   1      31.337  24.146  23.111  1.00  0.00     0.014 A 
ATOM     20  C   UNL A   1      34.415  23.850  22.750  1.00  0.00     0.014 A 
ENDBRANCH  11  14
ENDBRANCH   6  10
ENDBRANCH   5   6
ENDBRANCH   3   5
ENDBRANCH   2   3
ENDBRANCH   1   2
BRANCH   1  21
ATOM     21  C   UNL A   1      32.875  31.010  27.253  1.00  0.00     0.275 C 
BRANCH  21  22
ATOM     22  O   UNL A   1      33.057  32.625  27.649  1.00  0.00    -0.458 OA
BRANCH  22  23
ATOM     23  C   UNL A   1      33.643  33.667  28.407  1.00  0.00     0.338 C 
ATOM     24  O   UNL A   1      33.295  34.833  28.237  1.00  0.00    -0.246 OA
BRANCH  23  25
ATOM     25  C   UNL A   1      34.748  33.444  29.461  1.00  0.00     0.060 A 
ATOM     26  C   UNL A   1      34.791  32.363  30.394  1.00  0.00     0.016 A 
ATOM     27  C   UNL A   1      35.946  33.999  29.109  1.00  0.00     0.016 A 
ATOM     28  C   UNL A   1      36.026  31.640  30.700  1.00  0.00     0.010 A 
ATOM     29  C   UNL A   1      37.061  33.171  29.268  1.00  0.00     0.010 A 
ATOM     30  C   UNL A   1      37.205  31.954  30.020  1.00  0.00    -0.014 A 
BRANCH  30  31
ATOM     31  C   UNL A   1      38.563  31.195  29.888  1.00  0.00     0.031 A 
ATOM     32  C   UNL A   1      38.926  29.831  29.259  1.00  0.00     0.074 A 
ATOM     33  C   UNL A   1      39.637  31.888  30.356  1.00  0.00     0.049 A 
ATOM     34  N   UNL A   1      39.491  28.792  29.822  1.00  0.00    -0.248 NA
ATOM     35  C   UNL A   1      38.841  29.594  27.823  1.00  0.00     0.031 C 
ATOM     36  C   UNL A   1      41.055  31.579  30.418  1.00  0.00     0.029 A 
ATOM     37  N   UNL A   1      39.587  33.070  31.115  1.00  0.00    -0.354 N 
ATOM     38  C   UNL A   1      39.961  27.954  28.778  1.00  0.00     0.074 A 
ATOM     39  C   UNL A   1      39.243  28.339  27.612  1.00  0.00     0.031 C 
ATOM     40  C   UNL A   1      41.563  32.239  31.489  1.00  0.00     0.029 A 
ATOM     41  C   UNL A   1      40.446  32.897  32.174  1.00  0.00     0.049 A 
ATOM     42  H   UNL A   1      39.043  33.868  30.924  1.00  0.00     0.167 HD
ATOM     43  C   UNL A   1      41.207  27.371  28.739  1.00  0.00     0.031 A 
ATOM     44  C   UNL A   1      39.885  32.662  33.397  1.00  0.00     0.031 A 
ATOM     45  C   UNL A   1      42.015  27.886  29.820  1.00  0.00     0.049 A 
ATOM     46  C   UNL A   1      40.355  31.345  33.935  1.00  0.00     0.074 A 
ATOM     47  C   UNL A   1      43.084  28.763  29.869  1.00  0.00     0.029 A 
ATOM     48  N   UNL A   1      41.547  27.755  31.104  1.00  0.00    -0.354 N 
ATOM     49  N   UNL A   1      40.877  30.421  33.182  1.00  0.00    -0.248 NA
ATOM     50  C   UNL A   1      40.283  30.948  35.330  1.00  0.00     0.031 C 
ATOM     51  C   UNL A   1      43.265  29.145  31.226  1.00  0.00     0.029 A 
ATOM     52  C   UNL A   1      42.316  28.479  31.979  1.00  0.00     0.049 A 
ATOM     53  H   UNL A   1      40.764  27.216  31.360  1.00  0.00     0.167 HD
ATOM     54  C   UNL A   1      41.304  29.381  33.947  1.00  0.00     0.074 A 
ATOM     55  C   UNL A   1      40.845  29.725  35.281  1.00  0.00     0.031 C 
ATOM     56  C   UNL A   1      42.002  28.352  33.387  1.00  0.00     0.031 A 
BRANCH  43  57
ATOM     57  C   UNL A   1      41.853  26.616  27.559  1.00  0.00    -0.014 A 
ATOM     58  C   UNL A   1      42.505  27.339  26.531  1.00  0.00     0.009 A 
ATOM     59  C   UNL A   1      41.920  25.214  27.426  1.00  0.00     0.009 A 
ATOM     60  C   UNL A   1      43.097  26.727  25.412  1.00  0.00     0.001 A 
ATOM     61  C   UNL A   1      42.498  24.592  26.296  1.00  0.00     0.001 A 
ATOM     62  C   UNL A   1      43.078  25.348  25.283  1.00  0.00     0.000 A 
ENDBRANCH  43  57
BRANCH  44  63
ATOM     63  C   UNL A   1      38.511  33.272  33.615  1.00  0.00    -0.014 A 
ATOM     64  C   UNL A   1      38.189  34.494  32.972  1.00  0.00     0.009 A 
ATOM     65  C   UNL A   1      37.443  32.553  34.177  1.00  0.00     0.009 A 
ATOM     66  C   UNL A   1      36.862  34.936  32.834  1.00  0.00     0.001 A 
ATOM     67  C   UNL A   1      36.112  33.005  34.051  1.00  0.00     0.001 A 
ATOM     68  C   UNL A   1      35.821  34.184  33.367  1.00  0.00     0.000 A 
ENDBRANCH  44  63
BRANCH  56  69
ATOM     69  C   UNL A   1      42.412  27.068  34.053  1.00  0.00    -0.014 A 
ATOM     70  C   UNL A   1      41.623  26.370  34.962  1.00  0.00     0.009 A 
ATOM     71  C   UNL A   1      43.687  26.517  33.768  1.00  0.00     0.009 A 
ATOM     72  C   UNL A   1      42.033  25.130  35.465  1.00  0.00     0.001 A 
ATOM     73  C   UNL A   1      44.107  25.291  34.271  1.00  0.00     0.001 A 
ATOM     74  C   UNL A   1      43.262  24.584  35.105  1.00  0.00     0.000 A 
ENDBRANCH  56  69
ENDBRANCH  30  31
ENDBRANCH  23  25
ENDBRANCH  22  23
ENDBRANCH  21  22
ENDBRANCH   1  21
TORSDOF 14
ENDMDL
MODEL 2
REMARK VINA RESULT:     -13.0      3.516      9.185
REMARK SMILES Cc1ccc(C(=O)NC2(CC(=O)OCCOC(=O)c3ccc(-c4c5nc(c(-c6ccccc6)c6ccc([nH]6)c(-c6ccccc6)c6nc(c(-c7ccccc7)c7ccc4[nH]7)C=C6)C=C5)cc3)CCC2)cc1
REMARK SMILES IDX 14 1 13 2 11 3 12 4 10 5 9 6 67 7 69 8 68 9 8 10 6 11 7 12
REMARK SMILES IDX 5 14 1 15 2 16 3 17 71 18 4 19 70 20 15 21 16 22 17 23 18 24
REMARK SMILES IDX 19 25 20 26 66 27 21 28 65 29 22 30 23 31 24 32 59 33 25 34
REMARK SMILES IDX 64 35 58 36 60 37 26 38 63 39 57 40 56 41 27 43 49 44 34 45
REMARK SMILES IDX 48 46 35 47 38 48 47 49 61 50 36 51 37 52 46 54 62 55 39 56
REMARK SMILES IDX 28 57 29 58 33 59 30 60 32 61 31 62 50 63 51 64 55 65 52 66
REMARK SMILES IDX 54 67 53 68 40 69 41 70 45 71 42 72 44 73 43 74
REMARK H PARENT 8 13 60 42 38 53
REMARK Flexibility Score: inf
ROOT
ATOM      1  C   UNL A   1      38.086  23.237  25.773  1.00  0.00     0.274 C 
ENDROOT
BRANCH   1   2
ATOM      2  O   UNL A   1      36.252  24.183  25.677  1.00  0.00    -0.462 OA
BRANCH   2   3
ATOM      3  C   UNL A   1      34.858  24.324  25.406  1.00  0.00     0.308 C 
ATOM      4  O   UNL A   1      34.494  24.694  24.284  1.00  0.00    -0.252 OA
BRANCH   3   5
ATOM      5  C   UNL A   1      33.663  23.948  26.279  1.00  0.00     0.151 C 
BRANCH   5   6
ATOM      6  C   UNL A   1      33.082  22.557  26.508  1.00  0.00     0.051 C 
ATOM      7  C   UNL A   1      34.176  21.589  27.075  1.00  0.00     0.029 C 
ATOM      8  C   UNL A   1      32.962  21.551  25.325  1.00  0.00     0.029 C 
ATOM      9  C   UNL A   1      34.400  21.102  25.630  1.00  0.00     0.005 C 
BRANCH   6  10
ATOM     10  N   UNL A   1      31.899  22.557  27.388  1.00  0.00    -0.346 N 
ATOM     11  C   UNL A   1      30.712  23.093  27.014  1.00  0.00     0.251 C 
ATOM     12  O   UNL A   1      29.628  22.745  27.449  1.00  0.00    -0.269 OA
ATOM     13  H   UNL A   1      31.974  22.152  28.282  1.00  0.00     0.164 HD
BRANCH  11  14
ATOM     14  C   UNL A   1      30.849  24.054  25.940  1.00  0.00     0.039 A 
ATOM     15  C   UNL A   1      31.555  27.573  22.302  1.00  0.00     0.044 C 
ATOM     16  C   UNL A   1      31.438  26.566  23.418  1.00  0.00    -0.051 A 
ATOM     17  C   UNL A   1      31.162  24.924  22.905  1.00  0.00     0.004 A 
ATOM     18  C   UNL A   1      31.427  26.984  25.130  1.00  0.00     0.004 A 
ATOM     19  C   UNL A   1      30.813  23.668  24.129  1.00  0.00     0.014 A 
ATOM     20  C   UNL A   1      31.129  25.765  26.407  1.00  0.00     0.014 A 
ENDBRANCH  11  14
ENDBRANCH   6  10
ENDBRANCH   5   6
ENDBRANCH   3   5
ENDBRANCH   2   3
ENDBRANCH   1   2
BRANCH   1  21
ATOM     21  C   UNL A   1      38.294  21.378  25.752  1.00  0.00     0.275 C 
BRANCH  21  22
ATOM     22  O   UNL A   1      39.663  20.446  25.985  1.00  0.00    -0.458 OA
BRANCH  22  23
ATOM     23  C   UNL A   1      41.068  20.275  26.014  1.00  0.00     0.338 C 
ATOM     24  O   UNL A   1      41.566  19.170  25.811  1.00  0.00    -0.246 OA
BRANCH  23  25
ATOM     25  C   UNL A   1      42.065  21.414  26.315  1.00  0.00     0.060 A 
ATOM     26  C   UNL A   1      42.317  22.535  25.466  1.00  0.00     0.016 A 
ATOM     27  C   UNL A   1      42.287  21.594  27.651  1.00  0.00     0.016 A 
ATOM     28  C   UNL A   1      42.458  23.896  25.986  1.00  0.00     0.010 A 
ATOM     29  C   UNL A   1      42.229  22.918  28.096  1.00  0.00     0.010 A 
ATOM     30  C   UNL A   1      42.280  24.144  27.348  1.00  0.00    -0.014 A 
BRANCH  30  31
ATOM     31  C   UNL A   1      42.060  25.470  28.144  1.00  0.00     0.031 A 
ATOM     32  C   UNL A   1      40.891  26.480  28.163  1.00  0.00     0.074 A 
ATOM     33  C   UNL A   1      43.052  25.760  29.030  1.00  0.00     0.049 A 
ATOM     34  N   UNL A   1      40.909  27.763  27.894  1.00  0.00    -0.248 NA
ATOM     35  C   UNL A   1      39.579  26.134  28.697  1.00  0.00     0.031 C 
ATOM     36  C   UNL A   1      43.247  26.855  29.963  1.00  0.00     0.029 A 
ATOM     37  N   UNL A   1      44.297  25.113  29.113  1.00  0.00    -0.354 N 
ATOM     38  C   UNL A   1      39.711  28.316  28.416  1.00  0.00     0.074 A 
ATOM     39  C   UNL A   1      38.817  27.224  28.589  1.00  0.00     0.031 C 
ATOM     40  C   UNL A   1      44.585  27.026  30.108  1.00  0.00     0.029 A 
ATOM     41  C   UNL A   1      45.251  26.099  29.188  1.00  0.00     0.049 A 
ATOM     42  H   UNL A   1      44.455  24.141  29.117  1.00  0.00     0.167 HD
ATOM     43  C   UNL A   1      39.638  29.476  29.153  1.00  0.00     0.031 A 
ATOM     44  C   UNL A   1      45.993  26.333  28.065  1.00  0.00     0.031 A 
ATOM     45  C   UNL A   1      40.972  29.936  29.463  1.00  0.00     0.049 A 
ATOM     46  C   UNL A   1      45.819  27.753  27.621  1.00  0.00     0.074 A 
ATOM     47  C   UNL A   1      41.723  29.951  30.626  1.00  0.00     0.029 A 
ATOM     48  N   UNL A   1      41.839  30.169  28.426  1.00  0.00    -0.354 N 
ATOM     49  N   UNL A   1      44.822  28.496  28.005  1.00  0.00    -0.248 NA
ATOM     50  C   UNL A   1      46.720  28.455  26.724  1.00  0.00     0.031 C 
ATOM     51  C   UNL A   1      43.069  30.222  30.265  1.00  0.00     0.029 A 
ATOM     52  C   UNL A   1      43.111  30.386  28.893  1.00  0.00     0.049 A 
ATOM     53  H   UNL A   1      41.583  30.178  27.475  1.00  0.00     0.167 HD
ATOM     54  C   UNL A   1      44.974  29.763  27.532  1.00  0.00     0.074 A 
ATOM     55  C   UNL A   1      46.141  29.670  26.674  1.00  0.00     0.031 C 
ATOM     56  C   UNL A   1      44.115  30.750  27.914  1.00  0.00     0.031 A 
BRANCH  43  57
ATOM     57  C   UNL A   1      38.414  30.031  29.910  1.00  0.00    -0.014 A 
ATOM     58  C   UNL A   1      37.667  31.099  29.357  1.00  0.00     0.009 A 
ATOM     59  C   UNL A   1      37.903  29.520  31.120  1.00  0.00     0.009 A 
ATOM     60  C   UNL A   1      36.555  31.676  29.995  1.00  0.00     0.001 A 
ATOM     61  C   UNL A   1      36.796  30.105  31.776  1.00  0.00     0.001 A 
ATOM     62  C   UNL A   1      36.127  31.190  31.219  1.00  0.00     0.000 A 
ENDBRANCH  43  57
BRANCH  44  63
ATOM     63  C   UNL A   1      46.198  25.135  27.154  1.00  0.00    -0.014 A 
ATOM     64  C   UNL A   1      45.994  23.831  27.673  1.00  0.00     0.009 A 
ATOM     65  C   UNL A   1      46.291  25.252  25.757  1.00  0.00     0.009 A 
ATOM     66  C   UNL A   1      45.819  22.716  26.836  1.00  0.00     0.001 A 
ATOM     67  C   UNL A   1      46.130  24.129  24.919  1.00  0.00     0.001 A 
ATOM     68  C   UNL A   1      45.877  22.867  25.456  1.00  0.00     0.000 A 
ENDBRANCH  44  63
BRANCH  56  69
ATOM     69  C   UNL A   1      44.050  32.152  27.375  1.00  0.00    -0.014 A 
ATOM     70  C   UNL A   1      43.990  33.294  28.167  1.00  0.00     0.009 A 
ATOM     71  C   UNL A   1      44.029  32.353  25.971  1.00  0.00     0.009 A 
ATOM     72  C   UNL A   1      44.031  34.569  27.592  1.00  0.00     0.001 A 
ATOM     73  C   UNL A   1      44.059  33.616  25.391  1.00  0.00     0.001 A 
ATOM     74  C   UNL A   1      44.085  34.729  26.210  1.00  0.00     0.000 A 
ENDBRANCH  56  69
ENDBRANCH  30  31
ENDBRANCH  23  25
ENDBRANCH  22  23
ENDBRANCH  21  22
ENDBRANCH   1  21
TORSDOF 14
ENDMDL
MODEL 3
REMARK VINA RESULT:     -12.9      1.491      2.145
REMARK SMILES Cc1ccc(C(=O)NC2(CC(=O)OCCOC(=O)c3ccc(-c4c5nc(c(-c6ccccc6)c6ccc([nH]6)c(-c6ccccc6)c6nc(c(-c7ccccc7)c7ccc4[nH]7)C=C6)C=C5)cc3)CCC2)cc1
REMARK SMILES IDX 14 1 13 2 11 3 12 4 10 5 9 6 67 7 69 8 68 9 8 10 6 11 7 12
REMARK SMILES IDX 5 14 1 15 2 16 3 17 71 18 4 19 70 20 15 21 16 22 17 23 18 24
REMARK SMILES IDX 19 25 20 26 66 27 21 28 65 29 22 30 23 31 24 32 59 33 25 34
REMARK SMILES IDX 64 35 58 36 60 37 26 38 63 39 57 40 56 41 27 43 49 44 34 45
REMARK SMILES IDX 48 46 35 47 38 48 47 49 61 50 36 51 37 52 46 54 62 55 39 56
REMARK SMILES IDX 28 57 29 58 33 59 30 60 32 61 31 62 50 63 51 64 55 65 52 66
REMARK SMILES IDX 54 67 53 68 40 69 41 70 45 71 42 72 44 73 43 74
REMARK H PARENT 8 13 60 42 38 53
REMARK Flexibility Score: inf
ROOT
ATOM      1  C   UNL A   1      33.872  29.547  27.263  1.00  0.00     0.274 C 
ENDROOT
BRANCH   1   2
ATOM      2  O   UNL A   1      33.158  27.649  26.870  1.00  0.00    -0.462 OA
BRANCH   2   3
ATOM      3  C   UNL A   1      32.206  26.653  26.498  1.00  0.00     0.308 C 
ATOM      4  O   UNL A   1      31.041  26.749  26.901  1.00  0.00    -0.252 OA
BRANCH   3   5
ATOM      5  C   UNL A   1      32.359  25.489  25.522  1.00  0.00     0.151 C 
BRANCH   5   6
ATOM      6  C   UNL A   1      31.253  24.753  24.774  1.00  0.00     0.051 C 
ATOM      7  C   UNL A   1      31.862  23.712  23.775  1.00  0.00     0.029 C 
ATOM      8  C   UNL A   1      30.587  25.399  23.522  1.00  0.00     0.029 C 
ATOM      9  C   UNL A   1      31.705  24.776  22.671  1.00  0.00     0.005 C 
BRANCH   6  10
ATOM     10  N   UNL A   1      30.284  24.094  25.667  1.00  0.00    -0.346 N 
ATOM     11  C   UNL A   1      30.653  23.182  26.598  1.00  0.00     0.251 C 
ATOM     12  O   UNL A   1      30.038  22.953  27.625  1.00  0.00    -0.269 OA
ATOM     13  H   UNL A   1      29.330  24.325  25.584  1.00  0.00     0.164 HD
BRANCH  11  14
ATOM     14  C   UNL A   1      31.937  22.579  26.309  1.00  0.00     0.039 A 
ATOM     15  C   UNL A   1      36.386  20.433  25.001  1.00  0.00     0.044 C 
ATOM     16  C   UNL A   1      35.054  21.079  25.284  1.00  0.00    -0.051 A 
ATOM     17  C   UNL A   1      35.105  22.426  26.386  1.00  0.00     0.004 A 
ATOM     18  C   UNL A   1      33.513  20.466  24.688  1.00  0.00     0.004 A 
ATOM     19  C   UNL A   1      33.575  23.156  26.955  1.00  0.00     0.014 A 
ATOM     20  C   UNL A   1      31.947  21.181  25.183  1.00  0.00     0.014 A 
ENDBRANCH  11  14
ENDBRANCH   6  10
ENDBRANCH   5   6
ENDBRANCH   3   5
ENDBRANCH   2   3
ENDBRANCH   1   2
BRANCH   1  21
ATOM     21  C   UNL A   1      32.817  31.089  27.172  1.00  0.00     0.275 C 
BRANCH  21  22
ATOM     22  O   UNL A   1      33.192  32.673  27.554  1.00  0.00    -0.458 OA
BRANCH  22  23
ATOM     23  C   UNL A   1      33.617  33.673  28.462  1.00  0.00     0.338 C 
ATOM     24  O   UNL A   1      33.112  34.792  28.438  1.00  0.00    -0.246 OA
BRANCH  23  25
ATOM     25  C   UNL A   1      34.730  33.461  29.510  1.00  0.00     0.060 A 
ATOM     26  C   UNL A   1      34.771  32.401  30.467  1.00  0.00     0.016 A 
ATOM     27  C   UNL A   1      35.930  33.995  29.135  1.00  0.00     0.016 A 
ATOM     28  C   UNL A   1      36.001  31.672  30.777  1.00  0.00     0.010 A 
ATOM     29  C   UNL A   1      37.038  33.159  29.301  1.00  0.00     0.010 A 
ATOM     30  C   UNL A   1      37.176  31.958  30.079  1.00  0.00    -0.014 A 
BRANCH  30  31
ATOM     31  C   UNL A   1      38.525  31.181  29.951  1.00  0.00     0.031 A 
ATOM     32  C   UNL A   1      38.872  29.810  29.328  1.00  0.00     0.074 A 
ATOM     33  C   UNL A   1      39.608  31.862  30.418  1.00  0.00     0.049 A 
ATOM     34  N   UNL A   1      39.423  28.766  29.895  1.00  0.00    -0.248 NA
ATOM     35  C   UNL A   1      38.785  29.570  27.892  1.00  0.00     0.031 C 
ATOM     36  C   UNL A   1      41.021  31.535  30.483  1.00  0.00     0.029 A 
ATOM     37  N   UNL A   1      39.572  33.048  31.173  1.00  0.00    -0.354 N 
ATOM     38  C   UNL A   1      39.884  27.919  28.854  1.00  0.00     0.074 A 
ATOM     39  C   UNL A   1      39.172  28.309  27.686  1.00  0.00     0.031 C 
ATOM     40  C   UNL A   1      41.536  32.193  31.552  1.00  0.00     0.029 A 
ATOM     41  C   UNL A   1      40.427  32.867  32.234  1.00  0.00     0.049 A 
ATOM     42  H   UNL A   1      39.037  33.851  30.978  1.00  0.00     0.167 HD
ATOM     43  C   UNL A   1      41.122  27.320  28.818  1.00  0.00     0.031 A 
ATOM     44  C   UNL A   1      39.861  32.644  33.457  1.00  0.00     0.031 A 
ATOM     45  C   UNL A   1      41.935  27.829  29.898  1.00  0.00     0.049 A 
ATOM     46  C   UNL A   1      40.315  31.323  33.999  1.00  0.00     0.074 A 
ATOM     47  C   UNL A   1      43.015  28.693  29.946  1.00  0.00     0.029 A 
ATOM     48  N   UNL A   1      41.464  27.709  31.182  1.00  0.00    -0.354 N 
ATOM     49  N   UNL A   1      40.825  30.390  33.250  1.00  0.00    -0.248 NA
ATOM     50  C   UNL A   1      40.237  30.932  35.396  1.00  0.00     0.031 C 
ATOM     51  C   UNL A   1      43.199  29.077  31.301  1.00  0.00     0.029 A 
ATOM     52  C   UNL A   1      42.242  28.426  32.056  1.00  0.00     0.049 A 
ATOM     53  H   UNL A   1      40.674  27.180  31.440  1.00  0.00     0.167 HD
ATOM     54  C   UNL A   1      41.239  29.347  34.020  1.00  0.00     0.074 A 
ATOM     55  C   UNL A   1      40.783  29.702  35.352  1.00  0.00     0.031 C 
ATOM     56  C   UNL A   1      41.924  28.307  33.464  1.00  0.00     0.031 A 
BRANCH  43  57
ATOM     57  C   UNL A   1      41.760  26.553  27.642  1.00  0.00    -0.014 A 
ATOM     58  C   UNL A   1      42.539  27.248  26.686  1.00  0.00     0.009 A 
ATOM     59  C   UNL A   1      41.697  25.158  27.447  1.00  0.00     0.009 A 
ATOM     60  C   UNL A   1      43.134  26.626  25.574  1.00  0.00     0.001 A 
ATOM     61  C   UNL A   1      42.277  24.528  26.323  1.00  0.00     0.001 A 
ATOM     62  C   UNL A   1      42.988  25.263  25.380  1.00  0.00     0.000 A 
ENDBRANCH  43  57
BRANCH  44  63
ATOM     63  C   UNL A   1      38.495  33.272  33.671  1.00  0.00    -0.014 A 
ATOM     64  C   UNL A   1      38.188  34.495  33.022  1.00  0.00     0.009 A 
ATOM     65  C   UNL A   1      37.418  32.568  34.236  1.00  0.00     0.009 A 
ATOM     66  C   UNL A   1      36.867  34.952  32.881  1.00  0.00     0.001 A 
ATOM     67  C   UNL A   1      36.093  33.037  34.107  1.00  0.00     0.001 A 
ATOM     68  C   UNL A   1      35.817  34.216  33.417  1.00  0.00     0.000 A 
ENDBRANCH  44  63
BRANCH  56  69
ATOM     69  C   UNL A   1      42.317  27.021  34.135  1.00  0.00    -0.014 A 
ATOM     70  C   UNL A   1      41.517  26.334  35.043  1.00  0.00     0.009 A 
ATOM     71  C   UNL A   1      43.588  26.455  33.857  1.00  0.00     0.009 A 
ATOM     72  C   UNL A   1      41.912  25.091  35.550  1.00  0.00     0.001 A 
ATOM     73  C   UNL A   1      43.992  25.226  34.365  1.00  0.00     0.001 A 
ATOM     74  C   UNL A   1      43.137  24.530  35.197  1.00  0.00     0.000 A 
ENDBRANCH  56  69
ENDBRANCH  30  31
ENDBRANCH  23  25
ENDBRANCH  22  23
ENDBRANCH  21  22
ENDBRANCH   1  21
TORSDOF 14
ENDMDL
