MODEL 1
REMARK VINA RESULT:     -12.0      0.000      0.000
REMARK SMILES C[NH+]1CCC2(CC1)OC[C@H](C(=O)OCCOC(=O)c1ccc(-c3c4nc(c(-c5ccccc5)c5ccc([nH]5)c(-c5ccccc5)c5nc(c(-c6ccccc6)c6ccc3[nH]6)C=C5)C=C4)cc1)N2C(=O)c1cc(C(F)(F)F)cc(C(F)(F)F)c1
REMARK SMILES IDX 14 1 13 2 11 3 12 4 10 5 1 6 2 7 3 8 7 9 4 11 6 12 5 13 8 14
REMARK SMILES IDX 67 15 9 16 68 17 69 18 70 19 71 20 83 21 72 22 78 23 77 24
REMARK SMILES IDX 73 25 74 26 75 27 76 28 79 29 80 30 81 31 82 32 15 33 16 34
REMARK SMILES IDX 17 35 18 36 19 37 20 38 66 39 21 40 65 41 22 42 23 43 24 44
REMARK SMILES IDX 59 45 25 46 64 47 58 48 60 49 26 50 63 51 57 52 56 53 27 55
REMARK SMILES IDX 49 56 34 57 48 58 35 59 38 60 47 61 61 62 36 63 37 64 46 66
REMARK SMILES IDX 62 67 39 68 28 69 29 70 33 71 30 72 32 73 31 74 50 75 51 76
REMARK SMILES IDX 55 77 52 78 54 79 53 80 40 81 41 82 45 83 42 84 44 85 43 86
REMARK H PARENT 2 10 60 54 38 65
REMARK Flexibility Score: inf
ROOT
ATOM      1  C   UNL A   1      35.391  21.604  24.818  1.00  0.00     0.274 C 
ENDROOT
BRANCH   1   2
ATOM      2  O   UNL A   1      35.680  22.517  23.737  1.00  0.00    -0.460 OA
BRANCH   2   3
ATOM      3  C   UNL A   1      35.017  23.705  23.763  1.00  0.00     0.331 C 
ATOM      4  O   UNL A   1      35.240  24.592  24.582  1.00  0.00    -0.250 OA
BRANCH   3   5
ATOM      5  C   UNL A   1      33.997  23.847  22.619  1.00  0.00     0.224 C 
ATOM      6  C   UNL A   1      28.988  25.359  26.498  1.00  0.00     0.332 C 
ATOM      7  N   UNL A   1      30.105  25.377  25.567  1.00  0.00    -0.337 N 
ATOM      8  C   UNL A   1      31.290  24.698  26.052  1.00  0.00     0.267 C 
ATOM      9  C   UNL A   1      29.722  25.337  24.166  1.00  0.00     0.267 C 
ATOM     10  H   UNL A   1      30.500  26.317  25.549  1.00  0.00     0.347 HD
ATOM     11  C   UNL A   1      31.925  23.682  25.133  1.00  0.00     0.120 C 
ATOM     12  C   UNL A   1      30.433  24.364  23.237  1.00  0.00     0.120 C 
ATOM     13  C   UNL A   1      31.851  23.988  23.638  1.00  0.00     0.155 C 
ATOM     14  O   UNL A   1      32.038  22.645  23.061  1.00  0.00    -0.352 OA
ATOM     15  N   UNL A   1      32.948  24.766  23.044  1.00  0.00    -0.293 N 
ATOM     16  C   UNL A   1      33.226  22.610  22.270  1.00  0.00     0.200 C 
BRANCH  15  17
ATOM     17  C   UNL A   1      33.151  26.107  22.755  1.00  0.00     0.256 C 
ATOM     18  O   UNL A   1      33.833  26.474  21.796  1.00  0.00    -0.269 OA
BRANCH  17  19
ATOM     19  C   UNL A   1      32.577  27.201  23.547  1.00  0.00     0.041 A 
ATOM     20  C   UNL A   1      33.066  27.444  24.837  1.00  0.00     0.027 A 
ATOM     21  C   UNL A   1      31.438  27.863  23.098  1.00  0.00     0.027 A 
ATOM     22  C   UNL A   1      32.490  28.445  25.638  1.00  0.00     0.057 A 
ATOM     23  C   UNL A   1      30.893  28.920  23.844  1.00  0.00     0.057 A 
ATOM     24  C   UNL A   1      31.421  29.195  25.118  1.00  0.00     0.026 A 
BRANCH  22  25
ATOM     25  C   UNL A   1      32.999  28.688  27.039  1.00  0.00     0.416 C 
ATOM     26  F   UNL A   1      32.839  29.979  27.434  1.00  0.00    -0.166 F 
ATOM     27  F   UNL A   1      32.360  27.925  27.968  1.00  0.00    -0.166 F 
ATOM     28  F   UNL A   1      34.326  28.414  27.183  1.00  0.00    -0.166 F 
ENDBRANCH  22  25
BRANCH  23  29
ATOM     29  C   UNL A   1      29.784  29.778  23.284  1.00  0.00     0.416 C 
ATOM     30  F   UNL A   1      28.622  29.086  23.124  1.00  0.00    -0.166 F 
ATOM     31  F   UNL A   1      29.481  30.828  24.100  1.00  0.00    -0.166 F 
ATOM     32  F   UNL A   1      30.067  30.322  22.069  1.00  0.00    -0.166 F 
ENDBRANCH  23  29
ENDBRANCH  17  19
ENDBRANCH  15  17
ENDBRANCH   3   5
ENDBRANCH   2   3
ENDBRANCH   1   2
BRANCH   1  33
ATOM     33  C   UNL A   1      36.646  20.877  25.311  1.00  0.00     0.275 C 
BRANCH  33  34
ATOM     34  O   UNL A   1      37.839  21.656  25.098  1.00  0.00    -0.458 OA
BRANCH  34  35
ATOM     35  C   UNL A   1      38.876  21.311  25.892  1.00  0.00     0.338 C 
ATOM     36  O   UNL A   1      39.434  20.221  25.939  1.00  0.00    -0.246 OA
BRANCH  35  37
ATOM     37  C   UNL A   1      39.412  22.487  26.589  1.00  0.00     0.060 A 
ATOM     38  C   UNL A   1      38.885  23.718  26.206  1.00  0.00     0.016 A 
ATOM     39  C   UNL A   1      40.472  22.434  27.493  1.00  0.00     0.016 A 
ATOM     40  C   UNL A   1      39.412  24.903  26.686  1.00  0.00     0.010 A 
ATOM     41  C   UNL A   1      41.014  23.634  27.980  1.00  0.00     0.010 A 
ATOM     42  C   UNL A   1      40.500  24.875  27.557  1.00  0.00    -0.014 A 
BRANCH  42  43
ATOM     43  C   UNL A   1      41.147  26.166  27.886  1.00  0.00     0.031 A 
ATOM     44  C   UNL A   1      42.470  26.503  27.262  1.00  0.00     0.074 A 
ATOM     45  C   UNL A   1      40.491  27.084  28.619  1.00  0.00     0.049 A 
ATOM     46  N   UNL A   1      43.201  27.580  27.403  1.00  0.00    -0.248 NA
ATOM     47  C   UNL A   1      43.042  25.501  26.349  1.00  0.00     0.031 C 
ATOM     48  C   UNL A   1      39.153  26.914  29.186  1.00  0.00     0.029 A 
ATOM     49  N   UNL A   1      40.853  28.355  28.983  1.00  0.00    -0.354 N 
ATOM     50  C   UNL A   1      44.331  27.370  26.624  1.00  0.00     0.074 A 
ATOM     51  C   UNL A   1      44.195  26.063  26.018  1.00  0.00     0.031 C 
ATOM     52  C   UNL A   1      38.801  28.047  29.818  1.00  0.00     0.029 A 
ATOM     53  C   UNL A   1      39.904  29.000  29.735  1.00  0.00     0.049 A 
ATOM     54  H   UNL A   1      41.711  28.766  28.730  1.00  0.00     0.167 HD
ATOM     55  C   UNL A   1      45.391  28.192  26.434  1.00  0.00     0.031 A 
ATOM     56  C   UNL A   1      39.929  30.217  30.311  1.00  0.00     0.031 A 
ATOM     57  C   UNL A   1      45.518  29.497  27.020  1.00  0.00     0.049 A 
ATOM     58  C   UNL A   1      41.142  31.086  30.135  1.00  0.00     0.074 A 
ATOM     59  C   UNL A   1      46.559  30.401  26.900  1.00  0.00     0.029 A 
ATOM     60  N   UNL A   1      44.564  30.090  27.834  1.00  0.00    -0.354 N 
ATOM     61  N   UNL A   1      42.227  30.858  29.436  1.00  0.00    -0.248 NA
ATOM     62  C   UNL A   1      41.134  32.380  30.832  1.00  0.00     0.031 C 
ATOM     63  C   UNL A   1      46.254  31.524  27.679  1.00  0.00     0.029 A 
ATOM     64  C   UNL A   1      45.002  31.338  28.243  1.00  0.00     0.049 A 
ATOM     65  H   UNL A   1      43.704  29.682  28.085  1.00  0.00     0.167 HD
ATOM     66  C   UNL A   1      43.025  31.983  29.598  1.00  0.00     0.074 A 
ATOM     67  C   UNL A   1      42.290  32.899  30.445  1.00  0.00     0.031 C 
ATOM     68  C   UNL A   1      44.258  32.232  29.092  1.00  0.00     0.031 A 
BRANCH  55  69
ATOM     69  C   UNL A   1      46.523  27.661  25.603  1.00  0.00    -0.014 A 
ATOM     70  C   UNL A   1      46.679  28.015  24.253  1.00  0.00     0.009 A 
ATOM     71  C   UNL A   1      47.449  26.783  26.187  1.00  0.00     0.009 A 
ATOM     72  C   UNL A   1      47.719  27.469  23.497  1.00  0.00     0.001 A 
ATOM     73  C   UNL A   1      48.501  26.258  25.436  1.00  0.00     0.001 A 
ATOM     74  C   UNL A   1      48.629  26.593  24.089  1.00  0.00     0.000 A 
ENDBRANCH  55  69
BRANCH  56  75
ATOM     75  C   UNL A   1      38.785  30.662  31.147  1.00  0.00    -0.014 A 
ATOM     76  C   UNL A   1      38.742  30.382  32.521  1.00  0.00     0.009 A 
ATOM     77  C   UNL A   1      37.723  31.373  30.565  1.00  0.00     0.009 A 
ATOM     78  C   UNL A   1      37.649  30.791  33.290  1.00  0.00     0.001 A 
ATOM     79  C   UNL A   1      36.646  31.804  31.340  1.00  0.00     0.001 A 
ATOM     80  C   UNL A   1      36.606  31.506  32.701  1.00  0.00     0.000 A 
ENDBRANCH  56  75
BRANCH  68  81
ATOM     81  C   UNL A   1      44.877  33.558  29.429  1.00  0.00    -0.014 A 
ATOM     82  C   UNL A   1      45.691  33.711  30.563  1.00  0.00     0.009 A 
ATOM     83  C   UNL A   1      44.669  34.659  28.584  1.00  0.00     0.009 A 
ATOM     84  C   UNL A   1      46.258  34.952  30.860  1.00  0.00     0.001 A 
ATOM     85  C   UNL A   1      45.256  35.891  28.871  1.00  0.00     0.001 A 
ATOM     86  C   UNL A   1      46.043  36.039  30.012  1.00  0.00     0.000 A 
ENDBRANCH  68  81
ENDBRANCH  42  43
ENDBRANCH  35  37
ENDBRANCH  34  35
ENDBRANCH  33  34
ENDBRANCH   1  33
TORSDOF 15
ENDMDL
MODEL 2
REMARK VINA RESULT:     -11.9      3.962      7.169
REMARK SMILES C[NH+]1CCC2(CC1)OC[C@H](C(=O)OCCOC(=O)c1ccc(-c3c4nc(c(-c5ccccc5)c5ccc([nH]5)c(-c5ccccc5)c5nc(c(-c6ccccc6)c6ccc3[nH]6)C=C5)C=C4)cc1)N2C(=O)c1cc(C(F)(F)F)cc(C(F)(F)F)c1
REMARK SMILES IDX 14 1 13 2 11 3 12 4 10 5 1 6 2 7 3 8 7 9 4 11 6 12 5 13 8 14
REMARK SMILES IDX 67 15 9 16 68 17 69 18 70 19 71 20 83 21 72 22 78 23 77 24
REMARK SMILES IDX 73 25 74 26 75 27 76 28 79 29 80 30 81 31 82 32 15 33 16 34
REMARK SMILES IDX 17 35 18 36 19 37 20 38 66 39 21 40 65 41 22 42 23 43 24 44
REMARK SMILES IDX 59 45 25 46 64 47 58 48 60 49 26 50 63 51 57 52 56 53 27 55
REMARK SMILES IDX 49 56 34 57 48 58 35 59 38 60 47 61 61 62 36 63 37 64 46 66
REMARK SMILES IDX 62 67 39 68 28 69 29 70 33 71 30 72 32 73 31 74 50 75 51 76
REMARK SMILES IDX 55 77 52 78 54 79 53 80 40 81 41 82 45 83 42 84 44 85 43 86
REMARK H PARENT 2 10 60 54 38 65
REMARK Flexibility Score: inf
ROOT
ATOM      1  C   UNL A   1      31.829  29.211  27.278  1.00  0.00     0.274 C 
ENDROOT
BRANCH   1   2
ATOM      2  O   UNL A   1      31.781  28.368  26.107  1.00  0.00    -0.460 OA
BRANCH   2   3
ATOM      3  C   UNL A   1      32.224  27.091  26.268  1.00  0.00     0.331 C 
ATOM      4  O   UNL A   1      33.398  26.798  26.473  1.00  0.00    -0.250 OA
BRANCH   3   5
ATOM      5  C   UNL A   1      31.087  26.054  26.226  1.00  0.00     0.224 C 
ATOM      6  C   UNL A   1      33.252  23.046  20.871  1.00  0.00     0.332 C 
ATOM      7  N   UNL A   1      32.914  23.431  22.231  1.00  0.00    -0.337 N 
ATOM      8  C   UNL A   1      33.303  24.783  22.577  1.00  0.00     0.267 C 
ATOM      9  C   UNL A   1      31.690  22.835  22.739  1.00  0.00     0.267 C 
ATOM     10  H   UNL A   1      33.546  22.952  22.873  1.00  0.00     0.347 HD
ATOM     11  C   UNL A   1      32.248  25.663  23.203  1.00  0.00     0.120 C 
ATOM     12  C   UNL A   1      30.675  23.725  23.441  1.00  0.00     0.120 C 
ATOM     13  C   UNL A   1      31.242  24.964  24.116  1.00  0.00     0.155 C 
ATOM     14  O   UNL A   1      30.123  25.922  24.098  1.00  0.00    -0.352 OA
ATOM     15  N   UNL A   1      31.574  24.860  25.545  1.00  0.00    -0.293 N 
ATOM     16  C   UNL A   1      29.886  26.429  25.412  1.00  0.00     0.200 C 
BRANCH  15  17
ATOM     17  C   UNL A   1      32.155  23.889  26.347  1.00  0.00     0.256 C 
ATOM     18  O   UNL A   1      31.764  23.667  27.494  1.00  0.00    -0.269 OA
BRANCH  17  19
ATOM     19  C   UNL A   1      33.270  23.041  25.909  1.00  0.00     0.041 A 
ATOM     20  C   UNL A   1      33.018  21.716  25.531  1.00  0.00     0.027 A 
ATOM     21  C   UNL A   1      34.581  23.488  26.047  1.00  0.00     0.027 A 
ATOM     22  C   UNL A   1      34.077  20.867  25.169  1.00  0.00     0.057 A 
ATOM     23  C   UNL A   1      35.652  22.688  25.618  1.00  0.00     0.057 A 
ATOM     24  C   UNL A   1      35.388  21.375  25.190  1.00  0.00     0.026 A 
BRANCH  22  25
ATOM     25  C   UNL A   1      33.808  19.430  24.790  1.00  0.00     0.416 C 
ATOM     26  F   UNL A   1      33.078  18.771  25.729  1.00  0.00    -0.166 F 
ATOM     27  F   UNL A   1      33.116  19.316  23.623  1.00  0.00    -0.166 F 
ATOM     28  F   UNL A   1      34.946  18.699  24.618  1.00  0.00    -0.166 F 
ENDBRANCH  22  25
BRANCH  23  29
ATOM     29  C   UNL A   1      37.061  23.229  25.573  1.00  0.00     0.416 C 
ATOM     30  F   UNL A   1      37.448  23.567  24.312  1.00  0.00    -0.166 F 
ATOM     31  F   UNL A   1      37.204  24.360  26.321  1.00  0.00    -0.166 F 
ATOM     32  F   UNL A   1      38.000  22.358  26.033  1.00  0.00    -0.166 F 
ENDBRANCH  23  29
ENDBRANCH  17  19
ENDBRANCH  15  17
ENDBRANCH   3   5
ENDBRANCH   2   3
ENDBRANCH   1   2
BRANCH   1  33
ATOM     33  C   UNL A   1      32.437  30.585  26.977  1.00  0.00     0.275 C 
BRANCH  33  34
ATOM     34  O   UNL A   1      33.870  30.523  26.847  1.00  0.00    -0.458 OA
BRANCH  34  35
ATOM     35  C   UNL A   1      34.546  31.032  27.901  1.00  0.00     0.338 C 
ATOM     36  O   UNL A   1      34.140  31.868  28.699  1.00  0.00    -0.246 OA
BRANCH  35  37
ATOM     37  C   UNL A   1      35.805  30.306  28.111  1.00  0.00     0.060 A 
ATOM     38  C   UNL A   1      35.982  29.741  29.371  1.00  0.00     0.016 A 
ATOM     39  C   UNL A   1      36.840  30.268  27.178  1.00  0.00     0.016 A 
ATOM     40  C   UNL A   1      37.184  29.160  29.733  1.00  0.00     0.010 A 
ATOM     41  C   UNL A   1      38.064  29.683  27.541  1.00  0.00     0.010 A 
ATOM     42  C   UNL A   1      38.248  29.149  28.830  1.00  0.00    -0.014 A 
BRANCH  42  43
ATOM     43  C   UNL A   1      39.564  28.693  29.331  1.00  0.00     0.031 A 
ATOM     44  C   UNL A   1      40.109  27.374  28.867  1.00  0.00     0.074 A 
ATOM     45  C   UNL A   1      40.325  29.515  30.078  1.00  0.00     0.049 A 
ATOM     46  N   UNL A   1      41.242  26.793  29.172  1.00  0.00    -0.248 NA
ATOM     47  C   UNL A   1      39.273  26.611  27.927  1.00  0.00     0.031 C 
ATOM     48  C   UNL A   1      39.950  30.864  30.500  1.00  0.00     0.029 A 
ATOM     49  N   UNL A   1      41.587  29.341  30.586  1.00  0.00    -0.354 N 
ATOM     50  C   UNL A   1      41.240  25.585  28.487  1.00  0.00     0.074 A 
ATOM     51  C   UNL A   1      39.992  25.511  27.757  1.00  0.00     0.031 C 
ATOM     52  C   UNL A   1      40.967  31.402  31.193  1.00  0.00     0.029 A 
ATOM     53  C   UNL A   1      42.042  30.421  31.300  1.00  0.00     0.049 A 
ATOM     54  H   UNL A   1      42.114  28.521  30.452  1.00  0.00     0.167 HD
ATOM     55  C   UNL A   1      42.190  24.621  28.471  1.00  0.00     0.031 A 
ATOM     56  C   UNL A   1      43.191  30.591  31.981  1.00  0.00     0.031 A 
ATOM     57  C   UNL A   1      43.437  24.702  29.180  1.00  0.00     0.049 A 
ATOM     58  C   UNL A   1      44.205  29.482  31.999  1.00  0.00     0.074 A 
ATOM     59  C   UNL A   1      44.460  23.772  29.240  1.00  0.00     0.029 A 
ATOM     60  N   UNL A   1      43.835  25.785  29.950  1.00  0.00    -0.354 N 
ATOM     61  N   UNL A   1      44.171  28.323  31.387  1.00  0.00    -0.248 NA
ATOM     62  C   UNL A   1      45.414  29.704  32.804  1.00  0.00     0.031 C 
ATOM     63  C   UNL A   1      45.458  24.274  30.083  1.00  0.00     0.029 A 
ATOM     64  C   UNL A   1      45.077  25.538  30.508  1.00  0.00     0.049 A 
ATOM     65  H   UNL A   1      43.310  26.607  30.082  1.00  0.00     0.167 HD
ATOM     66  C   UNL A   1      45.357  27.683  31.722  1.00  0.00     0.074 A 
ATOM     67  C   UNL A   1      46.096  28.592  32.574  1.00  0.00     0.031 C 
ATOM     68  C   UNL A   1      45.793  26.452  31.359  1.00  0.00     0.031 A 
BRANCH  55  69
ATOM     69  C   UNL A   1      41.876  23.367  27.706  1.00  0.00    -0.014 A 
ATOM     70  C   UNL A   1      41.109  22.333  28.266  1.00  0.00     0.009 A 
ATOM     71  C   UNL A   1      42.364  23.222  26.399  1.00  0.00     0.009 A 
ATOM     72  C   UNL A   1      40.871  21.162  27.543  1.00  0.00     0.001 A 
ATOM     73  C   UNL A   1      42.105  22.061  25.669  1.00  0.00     0.001 A 
ATOM     74  C   UNL A   1      41.367  21.027  26.246  1.00  0.00     0.000 A 
ENDBRANCH  55  69
BRANCH  56  75
ATOM     75  C   UNL A   1      43.419  31.846  32.742  1.00  0.00    -0.014 A 
ATOM     76  C   UNL A   1      42.990  31.973  34.072  1.00  0.00     0.009 A 
ATOM     77  C   UNL A   1      44.071  32.930  32.132  1.00  0.00     0.009 A 
ATOM     78  C   UNL A   1      43.196  33.167  34.768  1.00  0.00     0.001 A 
ATOM     79  C   UNL A   1      44.298  34.111  32.838  1.00  0.00     0.001 A 
ATOM     80  C   UNL A   1      43.854  34.233  34.153  1.00  0.00     0.000 A 
ENDBRANCH  56  75
BRANCH  68  81
ATOM     81  C   UNL A   1      47.140  26.029  31.869  1.00  0.00    -0.014 A 
ATOM     82  C   UNL A   1      48.310  26.304  31.144  1.00  0.00     0.009 A 
ATOM     83  C   UNL A   1      47.242  25.375  33.107  1.00  0.00     0.009 A 
ATOM     84  C   UNL A   1      49.554  25.903  31.635  1.00  0.00     0.001 A 
ATOM     85  C   UNL A   1      48.489  24.997  33.606  1.00  0.00     0.001 A 
ATOM     86  C   UNL A   1      49.642  25.254  32.867  1.00  0.00     0.000 A 
ENDBRANCH  68  81
ENDBRANCH  42  43
ENDBRANCH  35  37
ENDBRANCH  34  35
ENDBRANCH  33  34
ENDBRANCH   1  33
TORSDOF 15
ENDMDL
MODEL 3
REMARK VINA RESULT:     -11.9      0.240      2.007
REMARK SMILES C[NH+]1CCC2(CC1)OC[C@H](C(=O)OCCOC(=O)c1ccc(-c3c4nc(c(-c5ccccc5)c5ccc([nH]5)c(-c5ccccc5)c5nc(c(-c6ccccc6)c6ccc3[nH]6)C=C5)C=C4)cc1)N2C(=O)c1cc(C(F)(F)F)cc(C(F)(F)F)c1
REMARK SMILES IDX 14 1 13 2 11 3 12 4 10 5 1 6 2 7 3 8 7 9 4 11 6 12 5 13 8 14
REMARK SMILES IDX 67 15 9 16 68 17 69 18 70 19 71 20 83 21 72 22 78 23 77 24
REMARK SMILES IDX 73 25 74 26 75 27 76 28 79 29 80 30 81 31 82 32 15 33 16 34
REMARK SMILES IDX 17 35 18 36 19 37 20 38 66 39 21 40 65 41 22 42 23 43 24 44
REMARK SMILES IDX 59 45 25 46 64 47 58 48 60 49 26 50 63 51 57 52 56 53 27 55
REMARK SMILES IDX 49 56 34 57 48 58 35 59 38 60 47 61 61 62 36 63 37 64 46 66
REMARK SMILES IDX 62 67 39 68 28 69 29 70 33 71 30 72 32 73 31 74 50 75 51 76
REMARK SMILES IDX 55 77 52 78 54 79 53 80 40 81 41 82 45 83 42 84 44 85 43 86
REMARK H PARENT 2 10 60 54 38 65
REMARK Flexibility Score: inf
ROOT
ATOM      1  C   UNL A   1      35.197  21.642  25.026  1.00  0.00     0.274 C 
ENDROOT
BRANCH   1   2
ATOM      2  O   UNL A   1      35.491  22.364  23.811  1.00  0.00    -0.460 OA
BRANCH   2   3
ATOM      3  C   UNL A   1      34.979  23.623  23.724  1.00  0.00     0.331 C 
ATOM      4  O   UNL A   1      35.320  24.550  24.452  1.00  0.00    -0.250 OA
BRANCH   3   5
ATOM      5  C   UNL A   1      33.967  23.778  22.574  1.00  0.00     0.224 C 
ATOM      6  C   UNL A   1      28.961  25.372  26.422  1.00  0.00     0.332 C 
ATOM      7  N   UNL A   1      30.083  25.371  25.498  1.00  0.00    -0.337 N 
ATOM      8  C   UNL A   1      31.254  24.675  25.990  1.00  0.00     0.267 C 
ATOM      9  C   UNL A   1      29.707  25.335  24.095  1.00  0.00     0.267 C 
ATOM     10  H   UNL A   1      30.492  26.305  25.480  1.00  0.00     0.347 HD
ATOM     11  C   UNL A   1      31.879  23.649  25.076  1.00  0.00     0.120 C 
ATOM     12  C   UNL A   1      30.408  24.350  23.171  1.00  0.00     0.120 C 
ATOM     13  C   UNL A   1      31.818  23.953  23.580  1.00  0.00     0.155 C 
ATOM     14  O   UNL A   1      31.988  22.606  23.006  1.00  0.00    -0.352 OA
ATOM     15  N   UNL A   1      32.930  24.713  22.991  1.00  0.00    -0.293 N 
ATOM     16  C   UNL A   1      33.180  22.552  22.222  1.00  0.00     0.200 C 
BRANCH  15  17
ATOM     17  C   UNL A   1      33.155  26.051  22.701  1.00  0.00     0.256 C 
ATOM     18  O   UNL A   1      33.787  26.407  21.705  1.00  0.00    -0.269 OA
BRANCH  17  19
ATOM     19  C   UNL A   1      32.664  27.153  23.537  1.00  0.00     0.041 A 
ATOM     20  C   UNL A   1      31.554  27.894  23.113  1.00  0.00     0.027 A 
ATOM     21  C   UNL A   1      33.404  27.575  24.638  1.00  0.00     0.027 A 
ATOM     22  C   UNL A   1      31.105  28.993  23.864  1.00  0.00     0.057 A 
ATOM     23  C   UNL A   1      32.933  28.619  25.450  1.00  0.00     0.057 A 
ATOM     24  C   UNL A   1      31.787  29.328  25.047  1.00  0.00     0.026 A 
BRANCH  22  25
ATOM     25  C   UNL A   1      29.926  29.810  23.392  1.00  0.00     0.416 C 
ATOM     26  F   UNL A   1      28.769  29.094  23.375  1.00  0.00    -0.166 F 
ATOM     27  F   UNL A   1      29.689  30.894  24.181  1.00  0.00    -0.166 F 
ATOM     28  F   UNL A   1      30.083  30.298  22.129  1.00  0.00    -0.166 F 
ENDBRANCH  22  25
BRANCH  23  29
ATOM     29  C   UNL A   1      33.612  28.959  26.755  1.00  0.00     0.416 C 
ATOM     30  F   UNL A   1      33.651  30.301  26.986  1.00  0.00    -0.166 F 
ATOM     31  F   UNL A   1      32.971  28.416  27.828  1.00  0.00    -0.166 F 
ATOM     32  F   UNL A   1      34.901  28.528  26.835  1.00  0.00    -0.166 F 
ENDBRANCH  23  29
ENDBRANCH  17  19
ENDBRANCH  15  17
ENDBRANCH   3   5
ENDBRANCH   2   3
ENDBRANCH   1   2
BRANCH   1  33
ATOM     33  C   UNL A   1      36.468  21.157  25.731  1.00  0.00     0.275 C 
BRANCH  33  34
ATOM     34  O   UNL A   1      37.651  21.788  25.203  1.00  0.00    -0.458 OA
BRANCH  34  35
ATOM     35  C   UNL A   1      38.793  21.450  25.842  1.00  0.00     0.338 C 
ATOM     36  O   UNL A   1      39.404  20.392  25.745  1.00  0.00    -0.246 OA
BRANCH  35  37
ATOM     37  C   UNL A   1      39.354  22.606  26.553  1.00  0.00     0.060 A 
ATOM     38  C   UNL A   1      38.814  23.847  26.224  1.00  0.00     0.016 A 
ATOM     39  C   UNL A   1      40.444  22.527  27.418  1.00  0.00     0.016 A 
ATOM     40  C   UNL A   1      39.359  25.018  26.719  1.00  0.00     0.010 A 
ATOM     41  C   UNL A   1      41.004  23.713  27.921  1.00  0.00     0.010 A 
ATOM     42  C   UNL A   1      40.477  24.965  27.552  1.00  0.00    -0.014 A 
BRANCH  42  43
ATOM     43  C   UNL A   1      41.135  26.246  27.894  1.00  0.00     0.031 A 
ATOM     44  C   UNL A   1      42.456  26.583  27.266  1.00  0.00     0.074 A 
ATOM     45  C   UNL A   1      40.491  27.158  28.646  1.00  0.00     0.049 A 
ATOM     46  N   UNL A   1      43.197  27.652  27.418  1.00  0.00    -0.248 NA
ATOM     47  C   UNL A   1      43.014  25.590  26.334  1.00  0.00     0.031 C 
ATOM     48  C   UNL A   1      39.156  26.990  29.220  1.00  0.00     0.029 A 
ATOM     49  N   UNL A   1      40.865  28.422  29.026  1.00  0.00    -0.354 N 
ATOM     50  C   UNL A   1      44.319  27.445  26.627  1.00  0.00     0.074 A 
ATOM     51  C   UNL A   1      44.169  26.148  26.003  1.00  0.00     0.031 C 
ATOM     52  C   UNL A   1      38.817  28.116  29.870  1.00  0.00     0.029 A 
ATOM     53  C   UNL A   1      39.926  29.062  29.794  1.00  0.00     0.049 A 
ATOM     54  H   UNL A   1      41.725  28.829  28.772  1.00  0.00     0.167 HD
ATOM     55  C   UNL A   1      45.384  28.262  26.442  1.00  0.00     0.031 A 
ATOM     56  C   UNL A   1      39.965  30.270  30.387  1.00  0.00     0.031 A 
ATOM     57  C   UNL A   1      45.525  29.557  27.046  1.00  0.00     0.049 A 
ATOM     58  C   UNL A   1      41.183  31.133  30.216  1.00  0.00     0.074 A 
ATOM     59  C   UNL A   1      46.572  30.455  26.932  1.00  0.00     0.029 A 
ATOM     60  N   UNL A   1      44.581  30.145  27.876  1.00  0.00    -0.354 N 
ATOM     61  N   UNL A   1      42.262  30.907  29.505  1.00  0.00    -0.248 NA
ATOM     62  C   UNL A   1      41.190  32.416  30.932  1.00  0.00     0.031 C 
ATOM     63  C   UNL A   1      46.281  31.569  27.730  1.00  0.00     0.029 A 
ATOM     64  C   UNL A   1      45.031  31.384  28.300  1.00  0.00     0.049 A 
ATOM     65  H   UNL A   1      43.720  29.740  28.126  1.00  0.00     0.167 HD
ATOM     66  C   UNL A   1      43.069  32.023  29.678  1.00  0.00     0.074 A 
ATOM     67  C   UNL A   1      42.347  32.933  30.544  1.00  0.00     0.031 C 
ATOM     68  C   UNL A   1      44.300  32.271  29.167  1.00  0.00     0.031 A 
BRANCH  55  69
ATOM     69  C   UNL A   1      46.506  27.735  25.595  1.00  0.00    -0.014 A 
ATOM     70  C   UNL A   1      46.593  28.019  24.223  1.00  0.00     0.009 A 
ATOM     71  C   UNL A   1      47.493  26.932  26.188  1.00  0.00     0.009 A 
ATOM     72  C   UNL A   1      47.627  27.478  23.456  1.00  0.00     0.001 A 
ATOM     73  C   UNL A   1      48.538  26.412  25.423  1.00  0.00     0.001 A 
ATOM     74  C   UNL A   1      48.598  26.677  24.056  1.00  0.00     0.000 A 
ENDBRANCH  55  69
BRANCH  56  75
ATOM     75  C   UNL A   1      38.830  30.711  31.238  1.00  0.00    -0.014 A 
ATOM     76  C   UNL A   1      38.809  30.437  32.613  1.00  0.00     0.009 A 
ATOM     77  C   UNL A   1      37.755  31.413  30.669  1.00  0.00     0.009 A 
ATOM     78  C   UNL A   1      37.725  30.843  33.397  1.00  0.00     0.001 A 
ATOM     79  C   UNL A   1      36.687  31.839  31.458  1.00  0.00     0.001 A 
ATOM     80  C   UNL A   1      36.668  31.548  32.820  1.00  0.00     0.000 A 
ENDBRANCH  56  75
BRANCH  68  81
ATOM     81  C   UNL A   1      44.931  33.587  29.519  1.00  0.00    -0.014 A 
ATOM     82  C   UNL A   1      44.714  34.729  28.733  1.00  0.00     0.009 A 
ATOM     83  C   UNL A   1      45.727  33.692  30.671  1.00  0.00     0.009 A 
ATOM     84  C   UNL A   1      45.309  35.944  29.076  1.00  0.00     0.001 A 
ATOM     85  C   UNL A   1      46.300  34.913  31.024  1.00  0.00     0.001 A 
ATOM     86  C   UNL A   1      46.098  36.036  30.223  1.00  0.00     0.000 A 
ENDBRANCH  68  81
ENDBRANCH  42  43
ENDBRANCH  35  37
ENDBRANCH  34  35
ENDBRANCH  33  34
ENDBRANCH   1  33
TORSDOF 15
ENDMDL
