MODEL 1
REMARK VINA RESULT:      -9.1      0.000      0.000
REMARK SMILES CC(=O)N[C@@H](C[NH2+]CCc1ccc(F)cc1C)C(=O)OCCOC(=O)c1ccc(-c2c3nc(c(-c4ccccc4)c4ccc([nH]4)c(-c4ccccc4)c4nc(c(-c5ccccc5)c5ccc2[nH]5)C=C4)C=C3)cc1
REMARK SMILES IDX 20 1 18 2 19 3 5 4 4 5 1 6 2 7 3 8 6 10 7 11 8 14 9 15 10 16
REMARK SMILES IDX 11 17 16 18 12 19 15 20 17 21 13 22 14 23 21 24 22 25 23 26
REMARK SMILES IDX 24 27 25 28 26 29 27 30 73 31 28 32 72 33 29 34 30 35 31 36
REMARK SMILES IDX 66 37 32 38 71 39 65 40 67 41 33 42 70 43 64 44 63 45 34 47
REMARK SMILES IDX 56 48 41 49 55 50 42 51 45 52 54 53 68 54 43 55 44 56 53 58
REMARK SMILES IDX 69 59 46 60 35 61 36 62 40 63 37 64 39 65 38 66 57 67 58 68
REMARK SMILES IDX 62 69 59 70 61 71 60 72 47 73 48 74 52 75 49 76 51 77 50 78
REMARK H PARENT 4 9 7 12 7 13 67 46 45 57
REMARK Flexibility Score: inf
ROOT
ATOM      1  O   UNL A   1      42.819  21.429  26.537  1.00  0.00    -0.460 OA
ENDROOT
BRANCH   1   2
ATOM      2  C   UNL A   1      43.489  21.924  25.461  1.00  0.00     0.334 C 
ATOM      3  O   UNL A   1      43.013  22.684  24.624  1.00  0.00    -0.250 OA
BRANCH   2   4
ATOM      4  C   UNL A   1      44.935  21.419  25.385  1.00  0.00     0.247 C 
BRANCH   4   5
ATOM      5  N   UNL A   1      45.228  20.568  24.226  1.00  0.00    -0.338 N 
ATOM      6  C   UNL A   1      45.513  18.463  25.482  1.00  0.00     0.114 C 
ATOM      7  C   UNL A   1      45.503  19.234  24.190  1.00  0.00     0.217 C 
ATOM      8  O   UNL A   1      45.744  18.688  23.116  1.00  0.00    -0.275 OA
ATOM      9  H   UNL A   1      45.224  21.023  23.353  1.00  0.00     0.164 HD
ENDBRANCH   4   5
BRANCH   4  10
ATOM     10  C   UNL A   1      45.885  22.629  25.449  1.00  0.00     0.297 C 
BRANCH  10  11
ATOM     11  N   UNL A   1      45.432  23.631  26.421  1.00  0.00    -0.344 N 
ATOM     12  H   UNL A   1      44.801  23.181  27.085  1.00  0.00     0.346 HD
ATOM     13  H   UNL A   1      44.964  24.375  25.903  1.00  0.00     0.346 HD
BRANCH  11  14
ATOM     14  C   UNL A   1      46.542  24.237  27.165  1.00  0.00     0.265 C 
BRANCH  14  15
ATOM     15  C   UNL A   1      47.109  25.535  26.555  1.00  0.00     0.097 C 
BRANCH  15  16
ATOM     16  C   UNL A   1      48.623  25.612  26.582  1.00  0.00    -0.039 A 
ATOM     17  C   UNL A   1      49.285  25.211  27.762  1.00  0.00     0.007 A 
ATOM     18  C   UNL A   1      49.391  26.013  25.467  1.00  0.00    -0.045 A 
ATOM     19  C   UNL A   1      50.676  25.182  27.835  1.00  0.00     0.039 A 
ATOM     20  C   UNL A   1      50.794  25.979  25.560  1.00  0.00     0.043 A 
ATOM     21  C   UNL A   1      48.799  26.437  24.152  1.00  0.00     0.045 C 
ATOM     22  C   UNL A   1      51.419  25.568  26.732  1.00  0.00     0.123 A 
ATOM     23  F   UNL A   1      52.757  25.543  26.792  1.00  0.00    -0.207 F 
ENDBRANCH  15  16
ENDBRANCH  14  15
ENDBRANCH  11  14
ENDBRANCH  10  11
ENDBRANCH   4  10
ENDBRANCH   2   4
ENDBRANCH   1   2
BRANCH   1  24
ATOM     24  C   UNL A   1      42.175  20.155  26.353  1.00  0.00     0.274 C 
BRANCH  24  25
ATOM     25  C   UNL A   1      40.754  20.165  26.919  1.00  0.00     0.275 C 
BRANCH  25  26
ATOM     26  O   UNL A   1      40.452  21.413  27.571  1.00  0.00    -0.458 OA
BRANCH  26  27
ATOM     27  C   UNL A   1      39.787  22.305  26.804  1.00  0.00     0.338 C 
ATOM     28  O   UNL A   1      38.813  22.107  26.100  1.00  0.00    -0.246 OA
BRANCH  27  29
ATOM     29  C   UNL A   1      40.320  23.654  27.028  1.00  0.00     0.060 A 
ATOM     30  C   UNL A   1      41.042  23.875  28.200  1.00  0.00     0.016 A 
ATOM     31  C   UNL A   1      39.991  24.714  26.187  1.00  0.00     0.016 A 
ATOM     32  C   UNL A   1      41.399  25.162  28.573  1.00  0.00     0.010 A 
ATOM     33  C   UNL A   1      40.387  26.008  26.541  1.00  0.00     0.010 A 
ATOM     34  C   UNL A   1      41.072  26.242  27.747  1.00  0.00    -0.014 A 
BRANCH  34  35
ATOM     35  C   UNL A   1      41.410  27.617  28.183  1.00  0.00     0.031 A 
ATOM     36  C   UNL A   1      42.837  28.083  28.154  1.00  0.00     0.074 A 
ATOM     37  C   UNL A   1      40.432  28.460  28.563  1.00  0.00     0.049 A 
ATOM     38  N   UNL A   1      43.351  29.197  28.610  1.00  0.00    -0.248 NA
ATOM     39  C   UNL A   1      43.816  27.177  27.532  1.00  0.00     0.031 C 
ATOM     40  C   UNL A   1      39.001  28.152  28.565  1.00  0.00     0.029 A 
ATOM     41  N   UNL A   1      40.497  29.752  29.018  1.00  0.00    -0.354 N 
ATOM     42  C   UNL A   1      44.715  29.106  28.372  1.00  0.00     0.074 A 
ATOM     43  C   UNL A   1      44.952  27.833  27.726  1.00  0.00     0.031 C 
ATOM     44  C   UNL A   1      38.321  29.232  28.983  1.00  0.00     0.029 A 
ATOM     45  C   UNL A   1      39.271  30.280  29.340  1.00  0.00     0.049 A 
ATOM     46  H   UNL A   1      41.340  30.252  29.103  1.00  0.00     0.167 HD
ATOM     47  C   UNL A   1      45.685  30.002  28.675  1.00  0.00     0.031 A 
ATOM     48  C   UNL A   1      38.951  31.461  29.900  1.00  0.00     0.031 A 
ATOM     49  C   UNL A   1      45.443  31.276  29.297  1.00  0.00     0.049 A 
ATOM     50  C   UNL A   1      40.048  32.415  30.273  1.00  0.00     0.074 A 
ATOM     51  C   UNL A   1      46.361  32.251  29.653  1.00  0.00     0.029 A 
ATOM     52  N   UNL A   1      44.191  31.756  29.646  1.00  0.00    -0.354 N 
ATOM     53  N   UNL A   1      41.341  32.295  30.095  1.00  0.00    -0.248 NA
ATOM     54  C   UNL A   1      39.641  33.662  30.937  1.00  0.00     0.031 C 
ATOM     55  C   UNL A   1      45.663  33.309  30.246  1.00  0.00     0.029 A 
ATOM     56  C   UNL A   1      44.311  33.008  30.223  1.00  0.00     0.049 A 
ATOM     57  H   UNL A   1      43.343  31.278  29.503  1.00  0.00     0.167 HD
ATOM     58  C   UNL A   1      41.902  33.450  30.619  1.00  0.00     0.074 A 
ATOM     59  C   UNL A   1      40.808  34.268  31.102  1.00  0.00     0.031 C 
ATOM     60  C   UNL A   1      43.209  33.802  30.697  1.00  0.00     0.031 A 
BRANCH  47  61
ATOM     61  C   UNL A   1      47.102  29.608  28.381  1.00  0.00    -0.014 A 
ATOM     62  C   UNL A   1      47.690  29.864  27.133  1.00  0.00     0.009 A 
ATOM     63  C   UNL A   1      47.870  28.995  29.385  1.00  0.00     0.009 A 
ATOM     64  C   UNL A   1      49.013  29.489  26.888  1.00  0.00     0.001 A 
ATOM     65  C   UNL A   1      49.198  28.641  29.143  1.00  0.00     0.001 A 
ATOM     66  C   UNL A   1      49.766  28.881  27.893  1.00  0.00     0.000 A 
ENDBRANCH  47  61
BRANCH  48  67
ATOM     67  C   UNL A   1      37.531  31.780  30.190  1.00  0.00    -0.014 A 
ATOM     68  C   UNL A   1      36.969  31.467  31.436  1.00  0.00     0.009 A 
ATOM     69  C   UNL A   1      36.734  32.411  29.221  1.00  0.00     0.009 A 
ATOM     70  C   UNL A   1      35.630  31.767  31.700  1.00  0.00     0.001 A 
ATOM     71  C   UNL A   1      35.404  32.731  29.497  1.00  0.00     0.001 A 
ATOM     72  C   UNL A   1      34.851  32.404  30.734  1.00  0.00     0.000 A 
ENDBRANCH  48  67
BRANCH  60  73
ATOM     73  C   UNL A   1      43.516  35.137  31.307  1.00  0.00    -0.014 A 
ATOM     74  C   UNL A   1      43.700  36.272  30.503  1.00  0.00     0.009 A 
ATOM     75  C   UNL A   1      43.592  35.265  32.701  1.00  0.00     0.009 A 
ATOM     76  C   UNL A   1      43.982  37.508  31.087  1.00  0.00     0.001 A 
ATOM     77  C   UNL A   1      43.854  36.505  33.283  1.00  0.00     0.001 A 
ATOM     78  C   UNL A   1      44.055  37.624  32.476  1.00  0.00     0.000 A 
ENDBRANCH  60  73
ENDBRANCH  34  35
ENDBRANCH  27  29
ENDBRANCH  26  27
ENDBRANCH  25  26
ENDBRANCH  24  25
ENDBRANCH   1  24
TORSDOF 17
ENDMDL
MODEL 2
REMARK VINA RESULT:      -9.1      5.015     10.461
REMARK SMILES CC(=O)N[C@@H](C[NH2+]CCc1ccc(F)cc1C)C(=O)OCCOC(=O)c1ccc(-c2c3nc(c(-c4ccccc4)c4ccc([nH]4)c(-c4ccccc4)c4nc(c(-c5ccccc5)c5ccc2[nH]5)C=C4)C=C3)cc1
REMARK SMILES IDX 20 1 18 2 19 3 5 4 4 5 1 6 2 7 3 8 6 10 7 11 8 14 9 15 10 16
REMARK SMILES IDX 11 17 16 18 12 19 15 20 17 21 13 22 14 23 21 24 22 25 23 26
REMARK SMILES IDX 24 27 25 28 26 29 27 30 73 31 28 32 72 33 29 34 30 35 31 36
REMARK SMILES IDX 66 37 32 38 71 39 65 40 67 41 33 42 70 43 64 44 63 45 34 47
REMARK SMILES IDX 56 48 41 49 55 50 42 51 45 52 54 53 68 54 43 55 44 56 53 58
REMARK SMILES IDX 69 59 46 60 35 61 36 62 40 63 37 64 39 65 38 66 57 67 58 68
REMARK SMILES IDX 62 69 59 70 61 71 60 72 47 73 48 74 52 75 49 76 51 77 50 78
REMARK H PARENT 4 9 7 12 7 13 67 46 45 57
REMARK Flexibility Score: inf
ROOT
ATOM      1  O   UNL A   1      34.269  22.358  25.113  1.00  0.00    -0.460 OA
ENDROOT
BRANCH   1   2
ATOM      2  C   UNL A   1      34.459  23.546  24.478  1.00  0.00     0.334 C 
ATOM      3  O   UNL A   1      35.546  24.091  24.315  1.00  0.00    -0.250 OA
BRANCH   2   4
ATOM      4  C   UNL A   1      33.146  24.163  23.979  1.00  0.00     0.247 C 
BRANCH   4   5
ATOM      5  N   UNL A   1      33.092  24.403  22.532  1.00  0.00    -0.338 N 
ATOM      6  C   UNL A   1      33.552  26.826  22.627  1.00  0.00     0.114 C 
ATOM      7  C   UNL A   1      33.257  25.570  21.850  1.00  0.00     0.217 C 
ATOM      8  O   UNL A   1      33.158  25.583  20.626  1.00  0.00    -0.275 OA
ATOM      9  H   UNL A   1      32.911  23.610  21.977  1.00  0.00     0.164 HD
ENDBRANCH   4   5
BRANCH   4  10
ATOM     10  C   UNL A   1      31.975  23.280  24.447  1.00  0.00     0.297 C 
BRANCH  10  11
ATOM     11  N   UNL A   1      30.679  23.943  24.259  1.00  0.00    -0.344 N 
ATOM     12  H   UNL A   1      29.936  23.274  24.463  1.00  0.00     0.346 HD
ATOM     13  H   UNL A   1      30.635  24.269  23.294  1.00  0.00     0.346 HD
BRANCH  11  14
ATOM     14  C   UNL A   1      30.511  25.111  25.132  1.00  0.00     0.265 C 
BRANCH  14  15
ATOM     15  C   UNL A   1      30.405  26.465  24.402  1.00  0.00     0.097 C 
BRANCH  15  16
ATOM     16  C   UNL A   1      30.959  27.632  25.195  1.00  0.00    -0.039 A 
ATOM     17  C   UNL A   1      31.450  27.376  26.493  1.00  0.00     0.007 A 
ATOM     18  C   UNL A   1      31.054  28.940  24.672  1.00  0.00    -0.045 A 
ATOM     19  C   UNL A   1      32.044  28.383  27.251  1.00  0.00     0.039 A 
ATOM     20  C   UNL A   1      31.654  29.943  25.453  1.00  0.00     0.043 A 
ATOM     21  C   UNL A   1      30.588  29.326  23.296  1.00  0.00     0.045 C 
ATOM     22  C   UNL A   1      32.139  29.659  26.724  1.00  0.00     0.123 A 
ATOM     23  F   UNL A   1      32.709  30.633  27.445  1.00  0.00    -0.207 F 
ENDBRANCH  15  16
ENDBRANCH  14  15
ENDBRANCH  11  14
ENDBRANCH  10  11
ENDBRANCH   4  10
ENDBRANCH   2   4
ENDBRANCH   1   2
BRANCH   1  24
ATOM     24  C   UNL A   1      34.922  21.214  24.531  1.00  0.00     0.274 C 
BRANCH  24  25
ATOM     25  C   UNL A   1      36.125  20.777  25.369  1.00  0.00     0.275 C 
BRANCH  25  26
ATOM     26  O   UNL A   1      37.345  21.378  24.898  1.00  0.00    -0.458 OA
BRANCH  26  27
ATOM     27  C   UNL A   1      38.458  20.990  25.560  1.00  0.00     0.338 C 
ATOM     28  O   UNL A   1      38.959  19.880  25.594  1.00  0.00    -0.246 OA
BRANCH  27  29
ATOM     29  C   UNL A   1      39.113  22.156  26.165  1.00  0.00     0.060 A 
ATOM     30  C   UNL A   1      38.571  23.412  25.897  1.00  0.00     0.016 A 
ATOM     31  C   UNL A   1      40.318  22.036  26.853  1.00  0.00     0.016 A 
ATOM     32  C   UNL A   1      39.250  24.564  26.265  1.00  0.00     0.010 A 
ATOM     33  C   UNL A   1      40.983  23.197  27.262  1.00  0.00     0.010 A 
ATOM     34  C   UNL A   1      40.465  24.467  26.949  1.00  0.00    -0.014 A 
BRANCH  34  35
ATOM     35  C   UNL A   1      41.208  25.703  27.288  1.00  0.00     0.031 A 
ATOM     36  C   UNL A   1      40.609  26.700  28.237  1.00  0.00     0.074 A 
ATOM     37  C   UNL A   1      42.435  25.909  26.779  1.00  0.00     0.049 A 
ATOM     38  N   UNL A   1      41.039  27.893  28.560  1.00  0.00    -0.248 NA
ATOM     39  C   UNL A   1      39.360  26.306  28.910  1.00  0.00     0.031 C 
ATOM     40  C   UNL A   1      43.158  24.982  25.905  1.00  0.00     0.029 A 
ATOM     41  N   UNL A   1      43.296  26.966  26.928  1.00  0.00    -0.354 N 
ATOM     42  C   UNL A   1      40.094  28.409  29.437  1.00  0.00     0.074 A 
ATOM     43  C   UNL A   1      39.070  27.400  29.601  1.00  0.00     0.031 C 
ATOM     44  C   UNL A   1      44.359  25.504  25.610  1.00  0.00     0.029 A 
ATOM     45  C   UNL A   1      44.462  26.826  26.217  1.00  0.00     0.049 A 
ATOM     46  H   UNL A   1      43.097  27.749  27.491  1.00  0.00     0.167 HD
ATOM     47  C   UNL A   1      40.079  29.620  30.042  1.00  0.00     0.031 A 
ATOM     48  C   UNL A   1      45.484  27.684  26.041  1.00  0.00     0.031 A 
ATOM     49  C   UNL A   1      41.110  30.612  29.893  1.00  0.00     0.049 A 
ATOM     50  C   UNL A   1      45.419  29.040  26.681  1.00  0.00     0.074 A 
ATOM     51  C   UNL A   1      41.181  31.875  30.458  1.00  0.00     0.029 A 
ATOM     52  N   UNL A   1      42.256  30.448  29.132  1.00  0.00    -0.354 N 
ATOM     53  N   UNL A   1      44.493  29.539  27.463  1.00  0.00    -0.248 NA
ATOM     54  C   UNL A   1      46.535  29.955  26.403  1.00  0.00     0.031 C 
ATOM     55  C   UNL A   1      42.359  32.485  30.012  1.00  0.00     0.029 A 
ATOM     56  C   UNL A   1      43.036  31.588  29.202  1.00  0.00     0.049 A 
ATOM     57  H   UNL A   1      42.481  29.638  28.618  1.00  0.00     0.167 HD
ATOM     58  C   UNL A   1      44.915  30.823  27.775  1.00  0.00     0.074 A 
ATOM     59  C   UNL A   1      46.190  31.019  27.116  1.00  0.00     0.031 C 
ATOM     60  C   UNL A   1      44.300  31.761  28.536  1.00  0.00     0.031 A 
BRANCH  47  61
ATOM     61  C   UNL A   1      38.881  29.956  30.881  1.00  0.00    -0.014 A 
ATOM     62  C   UNL A   1      37.784  30.649  30.347  1.00  0.00     0.009 A 
ATOM     63  C   UNL A   1      38.842  29.545  32.223  1.00  0.00     0.009 A 
ATOM     64  C   UNL A   1      36.681  30.947  31.152  1.00  0.00     0.001 A 
ATOM     65  C   UNL A   1      37.730  29.826  33.017  1.00  0.00     0.001 A 
ATOM     66  C   UNL A   1      36.654  30.532  32.484  1.00  0.00     0.000 A 
ENDBRANCH  47  61
BRANCH  48  67
ATOM     67  C   UNL A   1      46.629  27.303  25.178  1.00  0.00    -0.014 A 
ATOM     68  C   UNL A   1      46.751  27.823  23.881  1.00  0.00     0.009 A 
ATOM     69  C   UNL A   1      47.612  26.421  25.653  1.00  0.00     0.009 A 
ATOM     70  C   UNL A   1      47.829  27.456  23.073  1.00  0.00     0.001 A 
ATOM     71  C   UNL A   1      48.701  26.075  24.851  1.00  0.00     0.001 A 
ATOM     72  C   UNL A   1      48.806  26.588  23.560  1.00  0.00     0.000 A 
ENDBRANCH  48  67
BRANCH  60  73
ATOM     73  C   UNL A   1      45.013  33.068  28.712  1.00  0.00    -0.014 A 
ATOM     74  C   UNL A   1      44.765  34.146  27.849  1.00  0.00     0.009 A 
ATOM     75  C   UNL A   1      45.918  33.231  29.770  1.00  0.00     0.009 A 
ATOM     76  C   UNL A   1      45.433  35.358  28.029  1.00  0.00     0.001 A 
ATOM     77  C   UNL A   1      46.569  34.449  29.960  1.00  0.00     0.001 A 
ATOM     78  C   UNL A   1      46.332  35.510  29.086  1.00  0.00     0.000 A 
ENDBRANCH  60  73
ENDBRANCH  34  35
ENDBRANCH  27  29
ENDBRANCH  26  27
ENDBRANCH  25  26
ENDBRANCH  24  25
ENDBRANCH   1  24
TORSDOF 17
ENDMDL
MODEL 3
REMARK VINA RESULT:      -9.0      6.194     10.467
REMARK SMILES CC(=O)N[C@@H](C[NH2+]CCc1ccc(F)cc1C)C(=O)OCCOC(=O)c1ccc(-c2c3nc(c(-c4ccccc4)c4ccc([nH]4)c(-c4ccccc4)c4nc(c(-c5ccccc5)c5ccc2[nH]5)C=C4)C=C3)cc1
REMARK SMILES IDX 20 1 18 2 19 3 5 4 4 5 1 6 2 7 3 8 6 10 7 11 8 14 9 15 10 16
REMARK SMILES IDX 11 17 16 18 12 19 15 20 17 21 13 22 14 23 21 24 22 25 23 26
REMARK SMILES IDX 24 27 25 28 26 29 27 30 73 31 28 32 72 33 29 34 30 35 31 36
REMARK SMILES IDX 66 37 32 38 71 39 65 40 67 41 33 42 70 43 64 44 63 45 34 47
REMARK SMILES IDX 56 48 41 49 55 50 42 51 45 52 54 53 68 54 43 55 44 56 53 58
REMARK SMILES IDX 69 59 46 60 35 61 36 62 40 63 37 64 39 65 38 66 57 67 58 68
REMARK SMILES IDX 62 69 59 70 61 71 60 72 47 73 48 74 52 75 49 76 51 77 50 78
REMARK H PARENT 4 9 7 12 7 13 67 46 45 57
REMARK Flexibility Score: inf
ROOT
ATOM      1  O   UNL A   1      32.967  28.613  24.853  1.00  0.00    -0.460 OA
ENDROOT
BRANCH   1   2
ATOM      2  C   UNL A   1      32.984  28.618  23.492  1.00  0.00     0.334 C 
ATOM      3  O   UNL A   1      33.931  28.982  22.802  1.00  0.00    -0.250 OA
BRANCH   2   4
ATOM      4  C   UNL A   1      31.667  28.120  22.885  1.00  0.00     0.247 C 
BRANCH   4   5
ATOM      5  N   UNL A   1      30.994  29.084  22.005  1.00  0.00    -0.338 N 
ATOM      6  C   UNL A   1      28.803  29.023  23.140  1.00  0.00     0.114 C 
ATOM      7  C   UNL A   1      29.709  29.534  22.052  1.00  0.00     0.217 C 
ATOM      8  O   UNL A   1      29.312  30.337  21.211  1.00  0.00    -0.275 OA
ATOM      9  H   UNL A   1      31.547  29.456  21.282  1.00  0.00     0.164 HD
ENDBRANCH   4   5
BRANCH   4  10
ATOM     10  C   UNL A   1      31.928  26.786  22.162  1.00  0.00     0.297 C 
BRANCH  10  11
ATOM     11  N   UNL A   1      33.186  26.166  22.595  1.00  0.00    -0.344 N 
ATOM     12  H   UNL A   1      33.734  26.859  23.106  1.00  0.00     0.346 HD
ATOM     13  H   UNL A   1      33.675  25.842  21.760  1.00  0.00     0.346 HD
BRANCH  11  14
ATOM     14  C   UNL A   1      32.972  25.003  23.464  1.00  0.00     0.265 C 
BRANCH  14  15
ATOM     15  C   UNL A   1      33.201  23.633  22.796  1.00  0.00     0.097 C 
BRANCH  15  16
ATOM     16  C   UNL A   1      34.282  22.802  23.460  1.00  0.00    -0.039 A 
ATOM     17  C   UNL A   1      35.621  23.227  23.321  1.00  0.00     0.007 A 
ATOM     18  C   UNL A   1      34.002  21.666  24.248  1.00  0.00    -0.045 A 
ATOM     19  C   UNL A   1      36.660  22.559  23.965  1.00  0.00     0.039 A 
ATOM     20  C   UNL A   1      35.064  21.003  24.889  1.00  0.00     0.043 A 
ATOM     21  C   UNL A   1      32.615  21.135  24.488  1.00  0.00     0.045 C 
ATOM     22  C   UNL A   1      36.372  21.451  24.744  1.00  0.00     0.123 A 
ATOM     23  F   UNL A   1      37.364  20.802  25.368  1.00  0.00    -0.207 F 
ENDBRANCH  15  16
ENDBRANCH  14  15
ENDBRANCH  11  14
ENDBRANCH  10  11
ENDBRANCH   4  10
ENDBRANCH   2   4
ENDBRANCH   1   2
BRANCH   1  24
ATOM     24  C   UNL A   1      31.723  28.985  25.474  1.00  0.00     0.274 C 
BRANCH  24  25
ATOM     25  C   UNL A   1      31.741  30.449  25.918  1.00  0.00     0.275 C 
BRANCH  25  26
ATOM     26  O   UNL A   1      32.387  30.607  27.195  1.00  0.00    -0.458 OA
BRANCH  26  27
ATOM     27  C   UNL A   1      33.126  31.732  27.319  1.00  0.00     0.338 C 
ATOM     28  O   UNL A   1      32.769  32.884  27.148  1.00  0.00    -0.246 OA
BRANCH  27  29
ATOM     29  C   UNL A   1      34.457  31.402  27.843  1.00  0.00     0.060 A 
ATOM     30  C   UNL A   1      34.747  30.056  28.065  1.00  0.00     0.016 A 
ATOM     31  C   UNL A   1      35.343  32.395  28.252  1.00  0.00     0.016 A 
ATOM     32  C   UNL A   1      35.899  29.689  28.744  1.00  0.00     0.010 A 
ATOM     33  C   UNL A   1      36.526  32.023  28.899  1.00  0.00     0.010 A 
ATOM     34  C   UNL A   1      36.799  30.670  29.170  1.00  0.00    -0.014 A 
BRANCH  34  35
ATOM     35  C   UNL A   1      37.998  30.269  29.942  1.00  0.00     0.031 A 
ATOM     36  C   UNL A   1      39.069  29.444  29.288  1.00  0.00     0.074 A 
ATOM     37  C   UNL A   1      38.146  30.681  31.214  1.00  0.00     0.049 A 
ATOM     38  N   UNL A   1      40.125  28.889  29.824  1.00  0.00    -0.248 NA
ATOM     39  C   UNL A   1      38.933  29.211  27.841  1.00  0.00     0.031 C 
ATOM     40  C   UNL A   1      37.213  31.546  31.939  1.00  0.00     0.029 A 
ATOM     41  N   UNL A   1      39.142  30.428  32.122  1.00  0.00    -0.354 N 
ATOM     42  C   UNL A   1      40.755  28.205  28.793  1.00  0.00     0.074 A 
ATOM     43  C   UNL A   1      39.967  28.418  27.597  1.00  0.00     0.031 C 
ATOM     44  C   UNL A   1      37.691  31.767  33.174  1.00  0.00     0.029 A 
ATOM     45  C   UNL A   1      38.923  31.006  33.348  1.00  0.00     0.049 A 
ATOM     46  H   UNL A   1      39.936  29.886  31.914  1.00  0.00     0.167 HD
ATOM     47  C   UNL A   1      41.883  27.458  28.842  1.00  0.00     0.031 A 
ATOM     48  C   UNL A   1      39.617  30.902  34.497  1.00  0.00     0.031 A 
ATOM     49  C   UNL A   1      42.675  27.266  30.028  1.00  0.00     0.049 A 
ATOM     50  C   UNL A   1      40.836  30.028  34.539  1.00  0.00     0.074 A 
ATOM     51  C   UNL A   1      43.831  26.520  30.182  1.00  0.00     0.029 A 
ATOM     52  N   UNL A   1      42.397  27.836  31.260  1.00  0.00    -0.354 N 
ATOM     53  N   UNL A   1      41.390  29.339  33.571  1.00  0.00    -0.248 NA
ATOM     54  C   UNL A   1      41.516  29.905  35.836  1.00  0.00     0.031 C 
ATOM     55  C   UNL A   1      44.235  26.615  31.519  1.00  0.00     0.029 A 
ATOM     56  C   UNL A   1      43.353  27.450  32.183  1.00  0.00     0.049 A 
ATOM     57  H   UNL A   1      41.634  28.429  31.449  1.00  0.00     0.167 HD
ATOM     58  C   UNL A   1      42.486  28.706  34.139  1.00  0.00     0.074 A 
ATOM     59  C   UNL A   1      42.531  29.109  35.530  1.00  0.00     0.031 C 
ATOM     60  C   UNL A   1      43.376  27.862  33.562  1.00  0.00     0.031 A 
BRANCH  47  61
ATOM     61  C   UNL A   1      42.297  26.751  27.585  1.00  0.00    -0.014 A 
ATOM     62  C   UNL A   1      41.834  25.461  27.284  1.00  0.00     0.009 A 
ATOM     63  C   UNL A   1      43.145  27.403  26.675  1.00  0.00     0.009 A 
ATOM     64  C   UNL A   1      42.235  24.828  26.105  1.00  0.00     0.001 A 
ATOM     65  C   UNL A   1      43.526  26.775  25.489  1.00  0.00     0.001 A 
ATOM     66  C   UNL A   1      43.077  25.486  25.208  1.00  0.00     0.000 A 
ENDBRANCH  47  61
BRANCH  48  67
ATOM     67  C   UNL A   1      39.141  31.605  35.713  1.00  0.00    -0.014 A 
ATOM     68  C   UNL A   1      38.182  31.016  36.550  1.00  0.00     0.009 A 
ATOM     69  C   UNL A   1      39.653  32.869  36.048  1.00  0.00     0.009 A 
ATOM     70  C   UNL A   1      37.735  31.686  37.691  1.00  0.00     0.001 A 
ATOM     71  C   UNL A   1      39.223  33.525  37.203  1.00  0.00     0.001 A 
ATOM     72  C   UNL A   1      38.260  32.936  38.021  1.00  0.00     0.000 A 
ENDBRANCH  48  67
BRANCH  60  73
ATOM     73  C   UNL A   1      44.480  27.342  34.431  1.00  0.00    -0.014 A 
ATOM     74  C   UNL A   1      45.696  28.034  34.545  1.00  0.00     0.009 A 
ATOM     75  C   UNL A   1      44.290  26.164  35.168  1.00  0.00     0.009 A 
ATOM     76  C   UNL A   1      46.712  27.538  35.363  1.00  0.00     0.001 A 
ATOM     77  C   UNL A   1      45.300  25.681  35.999  1.00  0.00     0.001 A 
ATOM     78  C   UNL A   1      46.513  26.364  36.092  1.00  0.00     0.000 A 
ENDBRANCH  60  73
ENDBRANCH  34  35
ENDBRANCH  27  29
ENDBRANCH  26  27
ENDBRANCH  25  26
ENDBRANCH  24  25
ENDBRANCH   1  24
TORSDOF 17
ENDMDL
