MODEL 1
REMARK VINA RESULT:     -11.4      0.000      0.000
REMARK SMILES NS(=O)(=O)c1ccc(N2N=C(C(=O)OCCOC(=O)c3ccc(-c4c5nc(c(-c6ccccc6)c6ccc([nH]6)c(-c6ccccc6)c6nc(c(-c7ccccc7)c7ccc4[nH]7)C=C6)C=C5)cc3)C[C@H]2c2ccco2)cc1
REMARK SMILES IDX 15 1 14 2 12 3 13 4 11 5 9 6 10 7 69 8 68 9 8 10 5 11 6 12
REMARK SMILES IDX 76 13 7 14 75 15 2 16 3 17 4 18 1 19 70 22 71 23 74 24 72 25
REMARK SMILES IDX 73 26 16 27 17 28 18 29 19 30 20 31 21 32 67 33 22 34 66 35
REMARK SMILES IDX 23 36 24 37 25 38 60 39 26 40 65 41 59 42 61 43 27 44 64 45
REMARK SMILES IDX 58 46 57 47 28 49 50 50 35 51 49 52 36 53 39 54 48 55 62 56
REMARK SMILES IDX 37 57 38 58 47 60 63 61 40 62 29 63 30 64 34 65 31 66 33 67
REMARK SMILES IDX 32 68 51 69 52 70 56 71 53 72 55 73 54 74 41 75 42 76 46 77
REMARK SMILES IDX 43 78 45 79 44 80
REMARK H PARENT 1 20 1 21 61 48 39 59
REMARK Flexibility Score: inf
ROOT
ATOM      1  C   UNL A   1      36.246  22.625  23.690  1.00  0.00     0.275 C 
ENDROOT
BRANCH   1   2
ATOM      2  O   UNL A   1      35.114  23.347  24.220  1.00  0.00    -0.458 OA
BRANCH   2   3
ATOM      3  C   UNL A   1      34.188  23.725  23.317  1.00  0.00     0.354 C 
ATOM      4  O   UNL A   1      34.036  23.283  22.192  1.00  0.00    -0.245 OA
BRANCH   3   5
ATOM      5  C   UNL A   1      33.212  24.710  23.926  1.00  0.00     0.148 C 
ATOM      6  N   UNL A   1      31.717  26.205  24.025  1.00  0.00    -0.254 N 
ATOM      7  N   UNL A   1      32.595  25.590  23.196  1.00  0.00    -0.169 NA
ATOM      8  C   UNL A   1      32.041  25.991  25.443  1.00  0.00     0.180 C 
ATOM      9  C   UNL A   1      32.820  24.662  25.368  1.00  0.00     0.101 C 
BRANCH   6  10
ATOM     10  C   UNL A   1      30.907  27.209  23.525  1.00  0.00     0.060 A 
ATOM     11  C   UNL A   1      29.239  29.235  22.524  1.00  0.00     0.082 A 
ATOM     12  C   UNL A   1      28.674  28.120  23.147  1.00  0.00     0.024 A 
ATOM     13  C   UNL A   1      30.622  29.330  22.360  1.00  0.00     0.024 A 
ATOM     14  C   UNL A   1      29.512  27.116  23.647  1.00  0.00     0.029 A 
ATOM     15  C   UNL A   1      31.443  28.310  22.847  1.00  0.00     0.029 A 
BRANCH  11  16
ATOM     16  S   UNL A   1      28.213  30.545  21.933  1.00  0.00     0.238 S 
ATOM     17  O   UNL A   1      27.199  30.851  22.918  1.00  0.00    -0.207 OA
ATOM     18  O   UNL A   1      27.912  30.321  20.542  1.00  0.00    -0.207 OA
BRANCH  16  19
ATOM     19  N   UNL A   1      29.263  31.860  21.974  1.00  0.00    -0.225 NA
ATOM     20  H   UNL A   1      29.774  31.915  21.094  1.00  0.00     0.137 HD
ATOM     21  H   UNL A   1      29.922  31.744  22.744  1.00  0.00     0.137 HD
ENDBRANCH  16  19
ENDBRANCH  11  16
ENDBRANCH   6  10
BRANCH   8  22
ATOM     22  C   UNL A   1      32.827  27.106  26.082  1.00  0.00     0.128 A 
ATOM     23  C   UNL A   1      34.105  27.587  25.862  1.00  0.00     0.048 A 
ATOM     24  O   UNL A   1      32.257  27.785  27.123  1.00  0.00    -0.467 OA
ATOM     25  C   UNL A   1      34.338  28.582  26.842  1.00  0.00     0.042 A 
ATOM     26  C   UNL A   1      33.178  28.675  27.572  1.00  0.00     0.195 A 
ENDBRANCH   8  22
ENDBRANCH   3   5
ENDBRANCH   2   3
ENDBRANCH   1   2
BRANCH   1  27
ATOM     27  C   UNL A   1      36.506  21.331  24.471  1.00  0.00     0.275 C 
BRANCH  27  28
ATOM     28  O   UNL A   1      37.065  21.585  25.775  1.00  0.00    -0.458 OA
BRANCH  28  29
ATOM     29  C   UNL A   1      38.405  21.417  25.848  1.00  0.00     0.338 C 
ATOM     30  O   UNL A   1      39.058  20.515  25.347  1.00  0.00    -0.246 OA
BRANCH  29  31
ATOM     31  C   UNL A   1      39.042  22.560  26.520  1.00  0.00     0.060 A 
ATOM     32  C   UNL A   1      38.507  23.817  26.251  1.00  0.00     0.016 A 
ATOM     33  C   UNL A   1      40.226  22.446  27.245  1.00  0.00     0.016 A 
ATOM     34  C   UNL A   1      39.175  24.971  26.624  1.00  0.00     0.010 A 
ATOM     35  C   UNL A   1      40.885  23.613  27.661  1.00  0.00     0.010 A 
ATOM     36  C   UNL A   1      40.386  24.884  27.314  1.00  0.00    -0.014 A 
BRANCH  36  37
ATOM     37  C   UNL A   1      41.155  26.131  27.558  1.00  0.00     0.031 A 
ATOM     38  C   UNL A   1      40.605  27.177  28.491  1.00  0.00     0.074 A 
ATOM     39  C   UNL A   1      42.379  26.287  27.021  1.00  0.00     0.049 A 
ATOM     40  N   UNL A   1      41.104  28.343  28.818  1.00  0.00    -0.248 NA
ATOM     41  C   UNL A   1      39.320  26.872  29.142  1.00  0.00     0.031 C 
ATOM     42  C   UNL A   1      43.058  25.316  26.162  1.00  0.00     0.029 A 
ATOM     43  N   UNL A   1      43.280  27.316  27.137  1.00  0.00    -0.354 N 
ATOM     44  C   UNL A   1      40.182  28.922  29.682  1.00  0.00     0.074 A 
ATOM     45  C   UNL A   1      39.079  27.992  29.805  1.00  0.00     0.031 C 
ATOM     46  C   UNL A   1      44.278  25.783  25.850  1.00  0.00     0.029 A 
ATOM     47  C   UNL A   1      44.442  27.109  26.435  1.00  0.00     0.049 A 
ATOM     48  H   UNL A   1      43.109  28.125  27.672  1.00  0.00     0.167 HD
ATOM     49  C   UNL A   1      40.249  30.115  30.318  1.00  0.00     0.031 A 
ATOM     50  C   UNL A   1      45.512  27.907  26.263  1.00  0.00     0.031 A 
ATOM     51  C   UNL A   1      41.353  31.031  30.204  1.00  0.00     0.049 A 
ATOM     52  C   UNL A   1      45.532  29.254  26.930  1.00  0.00     0.074 A 
ATOM     53  C   UNL A   1      41.516  32.268  30.805  1.00  0.00     0.029 A 
ATOM     54  N   UNL A   1      42.490  30.806  29.442  1.00  0.00    -0.354 N 
ATOM     55  N   UNL A   1      44.639  29.804  27.718  1.00  0.00    -0.248 NA
ATOM     56  C   UNL A   1      46.716  30.089  26.687  1.00  0.00     0.031 C 
ATOM     57  C   UNL A   1      42.724  32.815  30.361  1.00  0.00     0.029 A 
ATOM     58  C   UNL A   1      43.348  31.889  29.540  1.00  0.00     0.049 A 
ATOM     59  H   UNL A   1      42.661  29.996  28.908  1.00  0.00     0.167 HD
ATOM     60  C   UNL A   1      45.171  31.029  28.096  1.00  0.00     0.074 A 
ATOM     61  C   UNL A   1      46.470  31.135  27.462  1.00  0.00     0.031 C 
ATOM     62  C   UNL A   1      44.636  31.981  28.901  1.00  0.00     0.031 A 
BRANCH  49  63
ATOM     63  C   UNL A   1      39.066  30.519  31.159  1.00  0.00    -0.014 A 
ATOM     64  C   UNL A   1      39.048  30.327  32.550  1.00  0.00     0.009 A 
ATOM     65  C   UNL A   1      37.954  31.117  30.545  1.00  0.00     0.009 A 
ATOM     66  C   UNL A   1      37.925  30.688  33.299  1.00  0.00     0.001 A 
ATOM     67  C   UNL A   1      36.847  31.508  31.301  1.00  0.00     0.001 A 
ATOM     68  C   UNL A   1      36.829  31.282  32.675  1.00  0.00     0.000 A 
ENDBRANCH  49  63
BRANCH  50  69
ATOM     69  C   UNL A   1      46.643  27.467  25.403  1.00  0.00    -0.014 A 
ATOM     70  C   UNL A   1      47.645  26.624  25.906  1.00  0.00     0.009 A 
ATOM     71  C   UNL A   1      46.736  27.912  24.073  1.00  0.00     0.009 A 
ATOM     72  C   UNL A   1      48.733  26.263  25.107  1.00  0.00     0.001 A 
ATOM     73  C   UNL A   1      47.806  27.520  23.267  1.00  0.00     0.001 A 
ATOM     74  C   UNL A   1      48.811  26.707  23.788  1.00  0.00     0.000 A 
ENDBRANCH  50  69
BRANCH  62  75
ATOM     75  C   UNL A   1      45.486  33.191  29.185  1.00  0.00    -0.014 A 
ATOM     76  C   UNL A   1      45.418  34.344  28.390  1.00  0.00     0.009 A 
ATOM     77  C   UNL A   1      46.366  33.171  30.278  1.00  0.00     0.009 A 
ATOM     78  C   UNL A   1      46.256  35.431  28.650  1.00  0.00     0.001 A 
ATOM     79  C   UNL A   1      47.176  34.272  30.560  1.00  0.00     0.001 A 
ATOM     80  C   UNL A   1      47.131  35.395  29.735  1.00  0.00     0.000 A 
ENDBRANCH  62  75
ENDBRANCH  36  37
ENDBRANCH  29  31
ENDBRANCH  28  29
ENDBRANCH  27  28
ENDBRANCH   1  27
TORSDOF 15
ENDMDL
MODEL 2
REMARK VINA RESULT:     -11.4      3.762      7.447
REMARK SMILES NS(=O)(=O)c1ccc(N2N=C(C(=O)OCCOC(=O)c3ccc(-c4c5nc(c(-c6ccccc6)c6ccc([nH]6)c(-c6ccccc6)c6nc(c(-c7ccccc7)c7ccc4[nH]7)C=C6)C=C5)cc3)C[C@H]2c2ccco2)cc1
REMARK SMILES IDX 15 1 14 2 12 3 13 4 11 5 9 6 10 7 69 8 68 9 8 10 5 11 6 12
REMARK SMILES IDX 76 13 7 14 75 15 2 16 3 17 4 18 1 19 70 22 71 23 74 24 72 25
REMARK SMILES IDX 73 26 16 27 17 28 18 29 19 30 20 31 21 32 67 33 22 34 66 35
REMARK SMILES IDX 23 36 24 37 25 38 60 39 26 40 65 41 59 42 61 43 27 44 64 45
REMARK SMILES IDX 58 46 57 47 28 49 50 50 35 51 49 52 36 53 39 54 48 55 62 56
REMARK SMILES IDX 37 57 38 58 47 60 63 61 40 62 29 63 30 64 34 65 31 66 33 67
REMARK SMILES IDX 32 68 51 69 52 70 56 71 53 72 55 73 54 74 41 75 42 76 46 77
REMARK SMILES IDX 43 78 45 79 44 80
REMARK H PARENT 1 20 1 21 61 48 39 59
REMARK Flexibility Score: inf
ROOT
ATOM      1  C   UNL A   1      31.823  27.917  26.246  1.00  0.00     0.275 C 
ENDROOT
BRANCH   1   2
ATOM      2  O   UNL A   1      32.671  26.823  25.837  1.00  0.00    -0.458 OA
BRANCH   2   3
ATOM      3  C   UNL A   1      32.143  25.591  25.982  1.00  0.00     0.354 C 
ATOM      4  O   UNL A   1      31.103  25.298  26.546  1.00  0.00    -0.245 OA
BRANCH   3   5
ATOM      5  C   UNL A   1      32.948  24.566  25.211  1.00  0.00     0.148 C 
ATOM      6  N   UNL A   1      33.548  22.678  24.467  1.00  0.00    -0.254 N 
ATOM      7  N   UNL A   1      32.779  23.292  25.399  1.00  0.00    -0.169 NA
ATOM      8  C   UNL A   1      34.563  23.576  23.898  1.00  0.00     0.180 C 
ATOM      9  C   UNL A   1      33.897  24.949  24.121  1.00  0.00     0.101 C 
BRANCH   6  10
ATOM     10  C   UNL A   1      33.577  21.295  24.421  1.00  0.00     0.060 A 
ATOM     11  C   UNL A   1      33.612  18.489  24.308  1.00  0.00     0.082 A 
ATOM     12  C   UNL A   1      32.539  19.189  23.754  1.00  0.00     0.024 A 
ATOM     13  C   UNL A   1      34.646  19.171  24.952  1.00  0.00     0.024 A 
ATOM     14  C   UNL A   1      32.530  20.588  23.810  1.00  0.00     0.029 A 
ATOM     15  C   UNL A   1      34.613  20.566  25.017  1.00  0.00     0.029 A 
BRANCH  11  16
ATOM     16  S   UNL A   1      33.680  16.727  24.204  1.00  0.00     0.238 S 
ATOM     17  O   UNL A   1      34.074  16.334  22.868  1.00  0.00    -0.207 OA
ATOM     18  O   UNL A   1      32.540  16.167  24.882  1.00  0.00    -0.207 OA
BRANCH  16  19
ATOM     19  N   UNL A   1      35.015  16.370  25.167  1.00  0.00    -0.225 NA
ATOM     20  H   UNL A   1      34.954  15.404  25.488  1.00  0.00     0.137 HD
ATOM     21  H   UNL A   1      35.030  16.996  25.972  1.00  0.00     0.137 HD
ENDBRANCH  16  19
ENDBRANCH  11  16
ENDBRANCH   6  10
BRANCH   8  22
ATOM     22  C   UNL A   1      35.925  23.465  24.530  1.00  0.00     0.128 A 
ATOM     23  C   UNL A   1      37.064  22.766  24.171  1.00  0.00     0.048 A 
ATOM     24  O   UNL A   1      36.143  24.108  25.717  1.00  0.00    -0.467 OA
ATOM     25  C   UNL A   1      38.005  22.962  25.209  1.00  0.00     0.042 A 
ATOM     26  C   UNL A   1      37.402  23.798  26.117  1.00  0.00     0.195 A 
ENDBRANCH   8  22
ENDBRANCH   3   5
ENDBRANCH   2   3
ENDBRANCH   1   2
BRANCH   1  27
ATOM     27  C   UNL A   1      32.402  28.658  27.457  1.00  0.00     0.275 C 
BRANCH  27  28
ATOM     28  O   UNL A   1      33.835  28.786  27.384  1.00  0.00    -0.458 OA
BRANCH  28  29
ATOM     29  C   UNL A   1      34.303  30.011  27.713  1.00  0.00     0.338 C 
ATOM     30  O   UNL A   1      33.672  31.058  27.718  1.00  0.00    -0.246 OA
BRANCH  29  31
ATOM     31  C   UNL A   1      35.683  29.932  28.213  1.00  0.00     0.060 A 
ATOM     32  C   UNL A   1      36.695  30.129  27.277  1.00  0.00     0.016 A 
ATOM     33  C   UNL A   1      35.997  29.509  29.502  1.00  0.00     0.016 A 
ATOM     34  C   UNL A   1      38.014  29.833  27.579  1.00  0.00     0.010 A 
ATOM     35  C   UNL A   1      37.337  29.246  29.825  1.00  0.00     0.010 A 
ATOM     36  C   UNL A   1      38.349  29.365  28.851  1.00  0.00    -0.014 A 
BRANCH  36  37
ATOM     37  C   UNL A   1      39.740  28.906  29.095  1.00  0.00     0.031 A 
ATOM     38  C   UNL A   1      40.697  29.789  29.850  1.00  0.00     0.074 A 
ATOM     39  C   UNL A   1      40.120  27.669  28.723  1.00  0.00     0.049 A 
ATOM     40  N   UNL A   1      41.957  29.588  30.144  1.00  0.00    -0.248 NA
ATOM     41  C   UNL A   1      40.166  31.073  30.338  1.00  0.00     0.031 C 
ATOM     42  C   UNL A   1      39.267  26.686  28.053  1.00  0.00     0.029 A 
ATOM     43  N   UNL A   1      41.319  27.019  28.877  1.00  0.00    -0.354 N 
ATOM     44  C   UNL A   1      42.377  30.729  30.819  1.00  0.00     0.074 A 
ATOM     45  C   UNL A   1      41.246  31.631  30.864  1.00  0.00     0.031 C 
ATOM     46  C   UNL A   1      39.961  25.550  27.876  1.00  0.00     0.029 A 
ATOM     47  C   UNL A   1      41.321  25.745  28.365  1.00  0.00     0.049 A 
ATOM     48  H   UNL A   1      42.102  27.428  29.312  1.00  0.00     0.167 HD
ATOM     49  C   UNL A   1      43.590  31.000  31.355  1.00  0.00     0.031 A 
ATOM     50  C   UNL A   1      42.315  24.841  28.277  1.00  0.00     0.031 A 
ATOM     51  C   UNL A   1      44.709  30.095  31.320  1.00  0.00     0.049 A 
ATOM     52  C   UNL A   1      43.670  25.192  28.825  1.00  0.00     0.074 A 
ATOM     53  C   UNL A   1      45.983  30.275  31.831  1.00  0.00     0.029 A 
ATOM     54  N   UNL A   1      44.686  28.832  30.746  1.00  0.00    -0.354 N 
ATOM     55  N   UNL A   1      44.063  26.287  29.430  1.00  0.00    -0.248 NA
ATOM     56  C   UNL A   1      44.720  24.174  28.680  1.00  0.00     0.031 C 
ATOM     57  C   UNL A   1      46.746  29.146  31.516  1.00  0.00     0.029 A 
ATOM     58  C   UNL A   1      45.928  28.232  30.872  1.00  0.00     0.049 A 
ATOM     59  H   UNL A   1      43.902  28.423  30.312  1.00  0.00     0.167 HD
ATOM     60  C   UNL A   1      45.391  26.074  29.775  1.00  0.00     0.074 A 
ATOM     61  C   UNL A   1      45.731  24.740  29.322  1.00  0.00     0.031 C 
ATOM     62  C   UNL A   1      46.252  26.905  30.414  1.00  0.00     0.031 A 
BRANCH  49  63
ATOM     63  C   UNL A   1      43.782  32.354  31.984  1.00  0.00    -0.014 A 
ATOM     64  C   UNL A   1      44.207  33.464  31.236  1.00  0.00     0.009 A 
ATOM     65  C   UNL A   1      43.516  32.524  33.353  1.00  0.00     0.009 A 
ATOM     66  C   UNL A   1      44.402  34.702  31.854  1.00  0.00     0.001 A 
ATOM     67  C   UNL A   1      43.678  33.770  33.961  1.00  0.00     0.001 A 
ATOM     68  C   UNL A   1      44.133  34.855  33.214  1.00  0.00     0.000 A 
ENDBRANCH  49  63
BRANCH  50  69
ATOM     69  C   UNL A   1      42.076  23.526  27.624  1.00  0.00    -0.014 A 
ATOM     70  C   UNL A   1      41.568  22.442  28.354  1.00  0.00     0.009 A 
ATOM     71  C   UNL A   1      42.378  23.345  26.265  1.00  0.00     0.009 A 
ATOM     72  C   UNL A   1      41.400  21.195  27.746  1.00  0.00     0.001 A 
ATOM     73  C   UNL A   1      42.176  22.108  25.650  1.00  0.00     0.001 A 
ATOM     74  C   UNL A   1      41.700  21.031  26.394  1.00  0.00     0.000 A 
ENDBRANCH  50  69
BRANCH  62  75
ATOM     75  C   UNL A   1      47.626  26.366  30.711  1.00  0.00    -0.014 A 
ATOM     76  C   UNL A   1      47.948  25.811  31.959  1.00  0.00     0.009 A 
ATOM     77  C   UNL A   1      48.613  26.414  29.715  1.00  0.00     0.009 A 
ATOM     78  C   UNL A   1      49.246  25.366  32.219  1.00  0.00     0.001 A 
ATOM     79  C   UNL A   1      49.900  25.934  29.964  1.00  0.00     0.001 A 
ATOM     80  C   UNL A   1      50.219  25.425  31.223  1.00  0.00     0.000 A 
ENDBRANCH  62  75
ENDBRANCH  36  37
ENDBRANCH  29  31
ENDBRANCH  28  29
ENDBRANCH  27  28
ENDBRANCH   1  27
TORSDOF 15
ENDMDL
MODEL 3
REMARK VINA RESULT:     -11.3      3.660      8.173
REMARK SMILES NS(=O)(=O)c1ccc(N2N=C(C(=O)OCCOC(=O)c3ccc(-c4c5nc(c(-c6ccccc6)c6ccc([nH]6)c(-c6ccccc6)c6nc(c(-c7ccccc7)c7ccc4[nH]7)C=C6)C=C5)cc3)C[C@H]2c2ccco2)cc1
REMARK SMILES IDX 15 1 14 2 12 3 13 4 11 5 9 6 10 7 69 8 68 9 8 10 5 11 6 12
REMARK SMILES IDX 76 13 7 14 75 15 2 16 3 17 4 18 1 19 70 22 71 23 74 24 72 25
REMARK SMILES IDX 73 26 16 27 17 28 18 29 19 30 20 31 21 32 67 33 22 34 66 35
REMARK SMILES IDX 23 36 24 37 25 38 60 39 26 40 65 41 59 42 61 43 27 44 64 45
REMARK SMILES IDX 58 46 57 47 28 49 50 50 35 51 49 52 36 53 39 54 48 55 62 56
REMARK SMILES IDX 37 57 38 58 47 60 63 61 40 62 29 63 30 64 34 65 31 66 33 67
REMARK SMILES IDX 32 68 51 69 52 70 56 71 53 72 55 73 54 74 41 75 42 76 46 77
REMARK SMILES IDX 43 78 45 79 44 80
REMARK H PARENT 1 20 1 21 61 48 39 59
REMARK Flexibility Score: inf
ROOT
ATOM      1  C   UNL A   1      32.080  27.647  26.474  1.00  0.00     0.275 C 
ENDROOT
BRANCH   1   2
ATOM      2  O   UNL A   1      31.890  26.667  25.432  1.00  0.00    -0.458 OA
BRANCH   2   3
ATOM      3  C   UNL A   1      31.663  25.406  25.852  1.00  0.00     0.354 C 
ATOM      4  O   UNL A   1      30.816  25.038  26.646  1.00  0.00    -0.245 OA
BRANCH   3   5
ATOM      5  C   UNL A   1      32.523  24.421  25.088  1.00  0.00     0.148 C 
ATOM      6  N   UNL A   1      33.234  22.563  24.368  1.00  0.00    -0.254 N 
ATOM      7  N   UNL A   1      32.436  23.143  25.298  1.00  0.00    -0.169 NA
ATOM      8  C   UNL A   1      34.184  23.513  23.774  1.00  0.00     0.180 C 
ATOM      9  C   UNL A   1      33.436  24.845  23.982  1.00  0.00     0.101 C 
BRANCH   6  10
ATOM     10  C   UNL A   1      33.349  21.183  24.344  1.00  0.00     0.060 A 
ATOM     11  C   UNL A   1      33.562  18.385  24.272  1.00  0.00     0.082 A 
ATOM     12  C   UNL A   1      32.516  19.015  23.595  1.00  0.00     0.024 A 
ATOM     13  C   UNL A   1      34.477  19.131  25.016  1.00  0.00     0.024 A 
ATOM     14  C   UNL A   1      32.419  20.410  23.632  1.00  0.00     0.029 A 
ATOM     15  C   UNL A   1      34.354  20.522  25.058  1.00  0.00     0.029 A 
BRANCH  11  16
ATOM     16  S   UNL A   1      33.745  16.629  24.200  1.00  0.00     0.238 S 
ATOM     17  O   UNL A   1      34.100  16.233  22.855  1.00  0.00    -0.207 OA
ATOM     18  O   UNL A   1      32.679  16.009  24.945  1.00  0.00    -0.207 OA
BRANCH  16  19
ATOM     19  N   UNL A   1      35.145  16.384  25.103  1.00  0.00    -0.225 NA
ATOM     20  H   UNL A   1      35.060  15.518  25.634  1.00  0.00     0.137 HD
ATOM     21  H   UNL A   1      35.276  17.166  25.746  1.00  0.00     0.137 HD
ENDBRANCH  16  19
ENDBRANCH  11  16
ENDBRANCH   6  10
BRANCH   8  22
ATOM     22  C   UNL A   1      35.557  23.499  24.393  1.00  0.00     0.128 A 
ATOM     23  C   UNL A   1      36.774  23.015  23.947  1.00  0.00     0.048 A 
ATOM     24  O   UNL A   1      35.701  23.993  25.660  1.00  0.00    -0.467 OA
ATOM     25  C   UNL A   1      37.693  23.188  25.008  1.00  0.00     0.042 A 
ATOM     26  C   UNL A   1      36.995  23.802  26.020  1.00  0.00     0.195 A 
ENDBRANCH   8  22
ENDBRANCH   3   5
ENDBRANCH   2   3
ENDBRANCH   1   2
BRANCH   1  27
ATOM     27  C   UNL A   1      33.451  28.326  26.368  1.00  0.00     0.275 C 
BRANCH  27  28
ATOM     28  O   UNL A   1      34.003  28.643  27.660  1.00  0.00    -0.458 OA
BRANCH  28  29
ATOM     29  C   UNL A   1      34.530  29.885  27.751  1.00  0.00     0.338 C 
ATOM     30  O   UNL A   1      33.952  30.942  27.549  1.00  0.00    -0.246 OA
BRANCH  29  31
ATOM     31  C   UNL A   1      35.905  29.838  28.270  1.00  0.00     0.060 A 
ATOM     32  C   UNL A   1      36.924  30.089  27.354  1.00  0.00     0.016 A 
ATOM     33  C   UNL A   1      36.214  29.394  29.553  1.00  0.00     0.016 A 
ATOM     34  C   UNL A   1      38.247  29.828  27.669  1.00  0.00     0.010 A 
ATOM     35  C   UNL A   1      37.558  29.166  29.890  1.00  0.00     0.010 A 
ATOM     36  C   UNL A   1      38.579  29.340  28.935  1.00  0.00    -0.014 A 
BRANCH  36  37
ATOM     37  C   UNL A   1      39.980  28.920  29.188  1.00  0.00     0.031 A 
ATOM     38  C   UNL A   1      40.445  27.560  28.739  1.00  0.00     0.074 A 
ATOM     39  C   UNL A   1      40.857  29.782  29.737  1.00  0.00     0.049 A 
ATOM     40  N   UNL A   1      41.616  26.992  28.888  1.00  0.00    -0.248 NA
ATOM     41  C   UNL A   1      39.461  26.726  28.030  1.00  0.00     0.031 C 
ATOM     42  C   UNL A   1      40.553  31.154  30.146  1.00  0.00     0.029 A 
ATOM     43  N   UNL A   1      42.191  29.637  30.023  1.00  0.00    -0.354 N 
ATOM     44  C   UNL A   1      41.499  25.727  28.323  1.00  0.00     0.074 A 
ATOM     45  C   UNL A   1      40.135  25.600  27.856  1.00  0.00     0.031 C 
ATOM     46  C   UNL A   1      41.673  31.733  30.607  1.00  0.00     0.029 A 
ATOM     47  C   UNL A   1      42.756  30.757  30.581  1.00  0.00     0.049 A 
ATOM     48  H   UNL A   1      42.694  28.809  29.846  1.00  0.00     0.167 HD
ATOM     49  C   UNL A   1      42.441  24.763  28.200  1.00  0.00     0.031 A 
ATOM     50  C   UNL A   1      44.003  30.967  31.044  1.00  0.00     0.031 A 
ATOM     51  C   UNL A   1      43.801  24.898  28.654  1.00  0.00     0.049 A 
ATOM     52  C   UNL A   1      45.012  29.857  30.952  1.00  0.00     0.074 A 
ATOM     53  C   UNL A   1      44.833  23.978  28.580  1.00  0.00     0.029 A 
ATOM     54  N   UNL A   1      44.321  26.031  29.261  1.00  0.00    -0.354 N 
ATOM     55  N   UNL A   1      44.880  28.655  30.446  1.00  0.00    -0.248 NA
ATOM     56  C   UNL A   1      46.349  30.139  31.493  1.00  0.00     0.031 C 
ATOM     57  C   UNL A   1      45.960  24.533  29.194  1.00  0.00     0.029 A 
ATOM     58  C   UNL A   1      45.652  25.826  29.586  1.00  0.00     0.049 A 
ATOM     59  H   UNL A   1      43.818  26.860  29.437  1.00  0.00     0.167 HD
ATOM     60  C   UNL A   1      46.125  28.052  30.570  1.00  0.00     0.074 A 
ATOM     61  C   UNL A   1      47.001  29.027  31.186  1.00  0.00     0.031 C 
ATOM     62  C   UNL A   1      46.511  26.805  30.202  1.00  0.00     0.031 A 
BRANCH  49  63
ATOM     63  C   UNL A   1      42.016  23.453  27.591  1.00  0.00    -0.014 A 
ATOM     64  C   UNL A   1      41.357  22.467  28.343  1.00  0.00     0.009 A 
ATOM     65  C   UNL A   1      42.266  23.211  26.230  1.00  0.00     0.009 A 
ATOM     66  C   UNL A   1      40.998  21.251  27.755  1.00  0.00     0.001 A 
ATOM     67  C   UNL A   1      41.875  22.009  25.637  1.00  0.00     0.001 A 
ATOM     68  C   UNL A   1      41.253  21.025  26.403  1.00  0.00     0.000 A 
ENDBRANCH  49  63
BRANCH  50  69
ATOM     69  C   UNL A   1      44.363  32.274  31.657  1.00  0.00    -0.014 A 
ATOM     70  C   UNL A   1      44.185  32.497  33.031  1.00  0.00     0.009 A 
ATOM     71  C   UNL A   1      44.867  33.316  30.862  1.00  0.00     0.009 A 
ATOM     72  C   UNL A   1      44.472  33.746  33.588  1.00  0.00     0.001 A 
ATOM     73  C   UNL A   1      45.186  34.551  31.427  1.00  0.00     0.001 A 
ATOM     74  C   UNL A   1      44.976  34.770  32.787  1.00  0.00     0.000 A 
ENDBRANCH  50  69
BRANCH  62  75
ATOM     75  C   UNL A   1      47.960  26.452  30.404  1.00  0.00    -0.014 A 
ATOM     76  C   UNL A   1      48.420  25.873  31.597  1.00  0.00     0.009 A 
ATOM     77  C   UNL A   1      48.879  26.701  29.373  1.00  0.00     0.009 A 
ATOM     78  C   UNL A   1      49.779  25.604  31.772  1.00  0.00     0.001 A 
ATOM     79  C   UNL A   1      50.231  26.396  29.535  1.00  0.00     0.001 A 
ATOM     80  C   UNL A   1      50.682  25.862  30.742  1.00  0.00     0.000 A 
ENDBRANCH  62  75
ENDBRANCH  36  37
ENDBRANCH  29  31
ENDBRANCH  28  29
ENDBRANCH  27  28
ENDBRANCH   1  27
TORSDOF 15
ENDMDL
