MODEL 1
REMARK VINA RESULT:     -11.9      0.000      0.000
REMARK SMILES Cc1cccc(NS(=O)(=O)c2ccc(Br)c(C(=O)OCCOC(=O)c3ccc(-c4c5nc(c(-c6ccccc6)c6ccc([nH]6)c(-c6ccccc6)c6nc(c(-c7ccccc7)c7ccc4[nH]7)C=C6)C=C5)cc3)c2)c1
REMARK SMILES IDX 20 1 19 2 17 3 18 4 16 5 11 6 12 7 73 8 13 9 14 10 15 11
REMARK SMILES IDX 8 12 9 13 10 14 7 15 6 17 1 18 2 19 3 20 74 21 4 22 5 23
REMARK SMILES IDX 21 24 22 25 23 26 24 27 25 28 26 29 72 30 27 31 71 32 28 33
REMARK SMILES IDX 29 34 30 35 65 36 31 37 70 38 64 39 66 40 32 41 69 42 63 43
REMARK SMILES IDX 62 44 33 46 55 47 40 48 54 49 41 50 44 51 53 52 67 53 42 54
REMARK SMILES IDX 43 55 52 57 68 58 45 59 34 60 35 61 39 62 36 63 38 64 37 65
REMARK SMILES IDX 56 66 57 67 61 68 58 69 60 70 59 71 46 72 47 73 51 74 48 75
REMARK SMILES IDX 50 76 49 77
REMARK H PARENT 7 16 66 45 44 56
REMARK Flexibility Score: inf
ROOT
ATOM      1  C   UNL A   1      36.725  23.128  25.332  1.00  0.00     0.275 C 
ENDROOT
BRANCH   1   2
ATOM      2  O   UNL A   1      35.614  23.866  24.806  1.00  0.00    -0.458 OA
BRANCH   2   3
ATOM      3  C   UNL A   1      35.268  23.505  23.548  1.00  0.00     0.339 C 
ATOM      4  O   UNL A   1      35.989  23.043  22.681  1.00  0.00    -0.246 OA
BRANCH   3   5
ATOM      5  C   UNL A   1      33.867  23.829  23.284  1.00  0.00     0.075 A 
ATOM      6  C   UNL A   1      32.164  25.512  22.899  1.00  0.00     0.088 A 
ATOM      7  C   UNL A   1      31.179  24.543  23.092  1.00  0.00     0.023 A 
ATOM      8  C   UNL A   1      33.513  25.140  22.941  1.00  0.00     0.039 A 
ATOM      9  C   UNL A   1      31.539  23.242  23.461  1.00  0.00     0.018 A 
ATOM     10  C   UNL A   1      32.882  22.887  23.580  1.00  0.00     0.032 A 
ATOM     11  Br  UNL A   1      33.292  21.134  24.182  1.00  0.00    -0.050 Br
BRANCH   6  12
ATOM     12  S   UNL A   1      31.821  27.270  22.840  1.00  0.00     0.261 S 
ATOM     13  O   UNL A   1      30.684  27.430  21.958  1.00  0.00    -0.201 OA
ATOM     14  O   UNL A   1      33.084  27.917  22.555  1.00  0.00    -0.201 OA
BRANCH  12  15
ATOM     15  N   UNL A   1      31.294  27.774  24.346  1.00  0.00    -0.280 N 
ATOM     16  H   UNL A   1      30.414  27.451  24.647  1.00  0.00     0.180 HD
BRANCH  15  17
ATOM     17  C   UNL A   1      32.011  28.632  25.226  1.00  0.00     0.049 A 
ATOM     18  C   UNL A   1      31.391  32.116  26.631  1.00  0.00     0.044 C 
ATOM     19  C   UNL A   1      31.981  30.754  26.416  1.00  0.00    -0.049 A 
ATOM     20  C   UNL A   1      32.947  30.255  27.293  1.00  0.00     0.003 A 
ATOM     21  C   UNL A   1      31.512  29.931  25.385  1.00  0.00     0.030 A 
ATOM     22  C   UNL A   1      33.520  29.001  27.070  1.00  0.00     0.002 A 
ATOM     23  C   UNL A   1      33.083  28.207  26.008  1.00  0.00     0.027 A 
ENDBRANCH  15  17
ENDBRANCH  12  15
ENDBRANCH   6  12
ENDBRANCH   3   5
ENDBRANCH   2   3
ENDBRANCH   1   2
BRANCH   1  24
ATOM     24  C   UNL A   1      37.692  24.019  26.120  1.00  0.00     0.275 C 
BRANCH  24  25
ATOM     25  O   UNL A   1      38.952  23.434  26.573  1.00  0.00    -0.458 OA
BRANCH  25  26
ATOM     26  C   UNL A   1      40.135  24.026  26.874  1.00  0.00     0.338 C 
ATOM     27  O   UNL A   1      41.211  23.484  26.640  1.00  0.00    -0.246 OA
BRANCH  26  28
ATOM     28  C   UNL A   1      40.109  25.377  27.449  1.00  0.00     0.060 A 
ATOM     29  C   UNL A   1      40.634  26.462  26.728  1.00  0.00     0.016 A 
ATOM     30  C   UNL A   1      39.493  25.575  28.674  1.00  0.00     0.016 A 
ATOM     31  C   UNL A   1      40.397  27.765  27.161  1.00  0.00     0.010 A 
ATOM     32  C   UNL A   1      39.119  26.845  29.021  1.00  0.00     0.010 A 
ATOM     33  C   UNL A   1      39.603  27.942  28.295  1.00  0.00    -0.014 A 
BRANCH  33  34
ATOM     34  C   UNL A   1      39.488  29.195  29.020  1.00  0.00     0.031 A 
ATOM     35  C   UNL A   1      38.463  30.206  28.716  1.00  0.00     0.074 A 
ATOM     36  C   UNL A   1      40.376  29.295  30.038  1.00  0.00     0.049 A 
ATOM     37  N   UNL A   1      38.626  31.464  28.944  1.00  0.00    -0.248 NA
ATOM     38  C   UNL A   1      37.164  29.907  28.119  1.00  0.00     0.031 C 
ATOM     39  C   UNL A   1      40.501  30.282  31.092  1.00  0.00     0.029 A 
ATOM     40  N   UNL A   1      41.526  28.502  30.203  1.00  0.00    -0.354 N 
ATOM     41  C   UNL A   1      37.388  32.064  28.844  1.00  0.00     0.074 A 
ATOM     42  C   UNL A   1      36.540  31.091  28.202  1.00  0.00     0.031 C 
ATOM     43  C   UNL A   1      41.776  30.251  31.535  1.00  0.00     0.029 A 
ATOM     44  C   UNL A   1      42.525  29.355  30.658  1.00  0.00     0.049 A 
ATOM     45  H   UNL A   1      41.607  27.536  30.031  1.00  0.00     0.167 HD
ATOM     46  C   UNL A   1      37.181  33.251  29.476  1.00  0.00     0.031 A 
ATOM     47  C   UNL A   1      43.550  29.692  29.812  1.00  0.00     0.031 A 
ATOM     48  C   UNL A   1      38.397  33.687  30.157  1.00  0.00     0.049 A 
ATOM     49  C   UNL A   1      43.512  31.168  29.453  1.00  0.00     0.074 A 
ATOM     50  C   UNL A   1      38.845  33.573  31.461  1.00  0.00     0.029 A 
ATOM     51  N   UNL A   1      39.510  33.967  29.388  1.00  0.00    -0.354 N 
ATOM     52  N   UNL A   1      42.511  31.959  29.730  1.00  0.00    -0.248 NA
ATOM     53  C   UNL A   1      44.554  31.852  28.688  1.00  0.00     0.031 C 
ATOM     54  C   UNL A   1      40.260  33.752  31.454  1.00  0.00     0.029 A 
ATOM     55  C   UNL A   1      40.657  34.003  30.153  1.00  0.00     0.049 A 
ATOM     56  H   UNL A   1      39.487  34.121  28.416  1.00  0.00     0.167 HD
ATOM     57  C   UNL A   1      42.765  33.215  29.268  1.00  0.00     0.074 A 
ATOM     58  C   UNL A   1      44.041  33.090  28.583  1.00  0.00     0.031 C 
ATOM     59  C   UNL A   1      41.916  34.262  29.477  1.00  0.00     0.031 A 
BRANCH  46  60
ATOM     60  C   UNL A   1      35.840  33.901  29.705  1.00  0.00    -0.014 A 
ATOM     61  C   UNL A   1      35.110  34.368  28.592  1.00  0.00     0.009 A 
ATOM     62  C   UNL A   1      35.235  34.080  30.960  1.00  0.00     0.009 A 
ATOM     63  C   UNL A   1      33.883  35.031  28.723  1.00  0.00     0.001 A 
ATOM     64  C   UNL A   1      34.012  34.760  31.100  1.00  0.00     0.001 A 
ATOM     65  C   UNL A   1      33.340  35.241  29.980  1.00  0.00     0.000 A 
ENDBRANCH  46  60
BRANCH  47  66
ATOM     66  C   UNL A   1      43.982  28.595  28.873  1.00  0.00    -0.014 A 
ATOM     67  C   UNL A   1      43.796  28.782  27.483  1.00  0.00     0.009 A 
ATOM     68  C   UNL A   1      44.826  27.549  29.277  1.00  0.00     0.009 A 
ATOM     69  C   UNL A   1      44.519  28.040  26.540  1.00  0.00     0.001 A 
ATOM     70  C   UNL A   1      45.522  26.782  28.327  1.00  0.00     0.001 A 
ATOM     71  C   UNL A   1      45.401  27.054  26.965  1.00  0.00     0.000 A 
ENDBRANCH  47  66
BRANCH  59  72
ATOM     72  C   UNL A   1      42.204  35.661  29.023  1.00  0.00    -0.014 A 
ATOM     73  C   UNL A   1      41.721  36.166  27.811  1.00  0.00     0.009 A 
ATOM     74  C   UNL A   1      43.089  36.479  29.756  1.00  0.00     0.009 A 
ATOM     75  C   UNL A   1      42.033  37.464  27.400  1.00  0.00     0.001 A 
ATOM     76  C   UNL A   1      43.426  37.764  29.335  1.00  0.00     0.001 A 
ATOM     77  C   UNL A   1      42.879  38.264  28.164  1.00  0.00     0.000 A 
ENDBRANCH  59  72
ENDBRANCH  33  34
ENDBRANCH  26  28
ENDBRANCH  25  26
ENDBRANCH  24  25
ENDBRANCH   1  24
TORSDOF 14
ENDMDL
MODEL 2
REMARK VINA RESULT:     -11.9      3.599      9.041
REMARK SMILES Cc1cccc(NS(=O)(=O)c2ccc(Br)c(C(=O)OCCOC(=O)c3ccc(-c4c5nc(c(-c6ccccc6)c6ccc([nH]6)c(-c6ccccc6)c6nc(c(-c7ccccc7)c7ccc4[nH]7)C=C6)C=C5)cc3)c2)c1
REMARK SMILES IDX 20 1 19 2 17 3 18 4 16 5 11 6 12 7 73 8 13 9 14 10 15 11
REMARK SMILES IDX 8 12 9 13 10 14 7 15 6 17 1 18 2 19 3 20 74 21 4 22 5 23
REMARK SMILES IDX 21 24 22 25 23 26 24 27 25 28 26 29 72 30 27 31 71 32 28 33
REMARK SMILES IDX 29 34 30 35 65 36 31 37 70 38 64 39 66 40 32 41 69 42 63 43
REMARK SMILES IDX 62 44 33 46 55 47 40 48 54 49 41 50 44 51 53 52 67 53 42 54
REMARK SMILES IDX 43 55 52 57 68 58 45 59 34 60 35 61 39 62 36 63 38 64 37 65
REMARK SMILES IDX 56 66 57 67 61 68 58 69 60 70 59 71 46 72 47 73 51 74 48 75
REMARK SMILES IDX 50 76 49 77
REMARK H PARENT 7 16 66 45 44 56
REMARK Flexibility Score: inf
ROOT
ATOM      1  C   UNL A   1      33.349  28.790  26.705  1.00  0.00     0.275 C 
ENDROOT
BRANCH   1   2
ATOM      2  O   UNL A   1      33.112  27.383  26.557  1.00  0.00    -0.458 OA
BRANCH   2   3
ATOM      3  C   UNL A   1      31.808  27.037  26.668  1.00  0.00     0.339 C 
ATOM      4  O   UNL A   1      31.012  27.394  27.519  1.00  0.00    -0.246 OA
BRANCH   3   5
ATOM      5  C   UNL A   1      31.445  26.055  25.647  1.00  0.00     0.075 A 
ATOM      6  C   UNL A   1      31.646  23.803  24.771  1.00  0.00     0.088 A 
ATOM      7  C   UNL A   1      31.054  24.225  23.581  1.00  0.00     0.023 A 
ATOM      8  C   UNL A   1      31.791  24.709  25.828  1.00  0.00     0.039 A 
ATOM      9  C   UNL A   1      30.737  25.576  23.397  1.00  0.00     0.018 A 
ATOM     10  C   UNL A   1      30.951  26.497  24.420  1.00  0.00     0.032 A 
ATOM     11  Br  UNL A   1      30.590  28.327  24.063  1.00  0.00    -0.050 Br
BRANCH   6  12
ATOM     12  S   UNL A   1      32.465  22.220  24.958  1.00  0.00     0.261 S 
ATOM     13  O   UNL A   1      33.209  22.002  23.736  1.00  0.00    -0.201 OA
ATOM     14  O   UNL A   1      31.445  21.287  25.388  1.00  0.00    -0.201 OA
BRANCH  12  15
ATOM     15  N   UNL A   1      33.617  22.340  26.167  1.00  0.00    -0.280 N 
ATOM     16  H   UNL A   1      33.294  22.371  27.096  1.00  0.00     0.180 HD
BRANCH  15  17
ATOM     17  C   UNL A   1      35.024  22.401  25.962  1.00  0.00     0.049 A 
ATOM     18  C   UNL A   1      37.662  19.881  24.871  1.00  0.00     0.044 C 
ATOM     19  C   UNL A   1      36.993  21.176  25.225  1.00  0.00    -0.049 A 
ATOM     20  C   UNL A   1      37.646  22.392  25.009  1.00  0.00     0.003 A 
ATOM     21  C   UNL A   1      35.675  21.190  25.699  1.00  0.00     0.030 A 
ATOM     22  C   UNL A   1      37.035  23.594  25.373  1.00  0.00     0.002 A 
ATOM     23  C   UNL A   1      35.739  23.595  25.893  1.00  0.00     0.027 A 
ENDBRANCH  15  17
ENDBRANCH  12  15
ENDBRANCH   6  12
ENDBRANCH   3   5
ENDBRANCH   2   3
ENDBRANCH   1   2
BRANCH   1  24
ATOM     24  C   UNL A   1      34.828  29.105  26.956  1.00  0.00     0.275 C 
BRANCH  24  25
ATOM     25  O   UNL A   1      35.153  30.251  27.801  1.00  0.00    -0.458 OA
BRANCH  25  26
ATOM     26  C   UNL A   1      36.159  30.424  28.695  1.00  0.00     0.338 C 
ATOM     27  O   UNL A   1      36.068  31.212  29.631  1.00  0.00    -0.246 OA
BRANCH  26  28
ATOM     28  C   UNL A   1      37.364  29.597  28.552  1.00  0.00     0.060 A 
ATOM     29  C   UNL A   1      38.177  29.724  27.414  1.00  0.00     0.016 A 
ATOM     30  C   UNL A   1      37.725  28.750  29.587  1.00  0.00     0.016 A 
ATOM     31  C   UNL A   1      39.434  29.123  27.387  1.00  0.00     0.010 A 
ATOM     32  C   UNL A   1      39.013  28.291  29.638  1.00  0.00     0.010 A 
ATOM     33  C   UNL A   1      39.854  28.436  28.527  1.00  0.00    -0.014 A 
BRANCH  33  34
ATOM     34  C   UNL A   1      40.999  27.542  28.562  1.00  0.00     0.031 A 
ATOM     35  C   UNL A   1      40.889  26.092  28.345  1.00  0.00     0.074 A 
ATOM     36  C   UNL A   1      42.170  28.197  28.749  1.00  0.00     0.049 A 
ATOM     37  N   UNL A   1      41.713  25.240  28.851  1.00  0.00    -0.248 NA
ATOM     38  C   UNL A   1      39.841  25.455  27.551  1.00  0.00     0.031 C 
ATOM     39  C   UNL A   1      43.539  27.724  28.691  1.00  0.00     0.029 A 
ATOM     40  N   UNL A   1      42.305  29.516  29.220  1.00  0.00    -0.354 N 
ATOM     41  C   UNL A   1      41.513  24.039  28.203  1.00  0.00     0.074 A 
ATOM     42  C   UNL A   1      40.260  24.181  27.505  1.00  0.00     0.031 C 
ATOM     43  C   UNL A   1      44.298  28.573  29.416  1.00  0.00     0.029 A 
ATOM     44  C   UNL A   1      43.397  29.511  30.081  1.00  0.00     0.049 A 
ATOM     45  H   UNL A   1      41.741  30.287  28.986  1.00  0.00     0.167 HD
ATOM     46  C   UNL A   1      42.521  23.123  28.191  1.00  0.00     0.031 A 
ATOM     47  C   UNL A   1      43.183  29.637  31.429  1.00  0.00     0.031 A 
ATOM     48  C   UNL A   1      43.674  23.623  28.933  1.00  0.00     0.049 A 
ATOM     49  C   UNL A   1      43.560  28.366  32.173  1.00  0.00     0.074 A 
ATOM     50  C   UNL A   1      44.842  24.261  28.553  1.00  0.00     0.029 A 
ATOM     51  N   UNL A   1      43.525  23.861  30.286  1.00  0.00    -0.354 N 
ATOM     52  N   UNL A   1      43.836  27.234  31.585  1.00  0.00    -0.248 NA
ATOM     53  C   UNL A   1      43.579  28.246  33.630  1.00  0.00     0.031 C 
ATOM     54  C   UNL A   1      45.372  24.923  29.701  1.00  0.00     0.029 A 
ATOM     55  C   UNL A   1      44.541  24.657  30.774  1.00  0.00     0.049 A 
ATOM     56  H   UNL A   1      42.787  23.508  30.833  1.00  0.00     0.167 HD
ATOM     57  C   UNL A   1      44.119  26.280  32.516  1.00  0.00     0.074 A 
ATOM     58  C   UNL A   1      43.904  26.950  33.787  1.00  0.00     0.031 C 
ATOM     59  C   UNL A   1      44.506  25.016  32.180  1.00  0.00     0.031 A 
BRANCH  46  60
ATOM     60  C   UNL A   1      42.582  21.898  27.315  1.00  0.00    -0.014 A 
ATOM     61  C   UNL A   1      41.687  20.837  27.563  1.00  0.00     0.009 A 
ATOM     62  C   UNL A   1      43.471  21.719  26.242  1.00  0.00     0.009 A 
ATOM     63  C   UNL A   1      41.715  19.644  26.830  1.00  0.00     0.001 A 
ATOM     64  C   UNL A   1      43.517  20.517  25.513  1.00  0.00     0.001 A 
ATOM     65  C   UNL A   1      42.642  19.477  25.813  1.00  0.00     0.000 A 
ENDBRANCH  46  60
BRANCH  47  66
ATOM     66  C   UNL A   1      42.036  30.540  31.806  1.00  0.00    -0.014 A 
ATOM     67  C   UNL A   1      42.073  31.891  31.388  1.00  0.00     0.009 A 
ATOM     68  C   UNL A   1      40.812  30.042  32.277  1.00  0.00     0.009 A 
ATOM     69  C   UNL A   1      40.910  32.670  31.323  1.00  0.00     0.001 A 
ATOM     70  C   UNL A   1      39.655  30.838  32.246  1.00  0.00     0.001 A 
ATOM     71  C   UNL A   1      39.695  32.135  31.732  1.00  0.00     0.000 A 
ENDBRANCH  47  66
BRANCH  59  72
ATOM     72  C   UNL A   1      44.873  23.971  33.190  1.00  0.00    -0.014 A 
ATOM     73  C   UNL A   1      43.955  23.017  33.644  1.00  0.00     0.009 A 
ATOM     74  C   UNL A   1      46.138  23.997  33.814  1.00  0.00     0.009 A 
ATOM     75  C   UNL A   1      44.318  22.075  34.610  1.00  0.00     0.001 A 
ATOM     76  C   UNL A   1      46.494  23.078  34.799  1.00  0.00     0.001 A 
ATOM     77  C   UNL A   1      45.588  22.102  35.182  1.00  0.00     0.000 A 
ENDBRANCH  59  72
ENDBRANCH  33  34
ENDBRANCH  26  28
ENDBRANCH  25  26
ENDBRANCH  24  25
ENDBRANCH   1  24
TORSDOF 14
ENDMDL
MODEL 3
REMARK VINA RESULT:     -11.3      3.760      9.089
REMARK SMILES Cc1cccc(NS(=O)(=O)c2ccc(Br)c(C(=O)OCCOC(=O)c3ccc(-c4c5nc(c(-c6ccccc6)c6ccc([nH]6)c(-c6ccccc6)c6nc(c(-c7ccccc7)c7ccc4[nH]7)C=C6)C=C5)cc3)c2)c1
REMARK SMILES IDX 20 1 19 2 17 3 18 4 16 5 11 6 12 7 73 8 13 9 14 10 15 11
REMARK SMILES IDX 8 12 9 13 10 14 7 15 6 17 1 18 2 19 3 20 74 21 4 22 5 23
REMARK SMILES IDX 21 24 22 25 23 26 24 27 25 28 26 29 72 30 27 31 71 32 28 33
REMARK SMILES IDX 29 34 30 35 65 36 31 37 70 38 64 39 66 40 32 41 69 42 63 43
REMARK SMILES IDX 62 44 33 46 55 47 40 48 54 49 41 50 44 51 53 52 67 53 42 54
REMARK SMILES IDX 43 55 52 57 68 58 45 59 34 60 35 61 39 62 36 63 38 64 37 65
REMARK SMILES IDX 56 66 57 67 61 68 58 69 60 70 59 71 46 72 47 73 51 74 48 75
REMARK SMILES IDX 50 76 49 77
REMARK H PARENT 7 16 66 45 44 56
REMARK Flexibility Score: inf
ROOT
ATOM      1  C   UNL A   1      32.887  29.585  26.807  1.00  0.00     0.275 C 
ENDROOT
BRANCH   1   2
ATOM      2  O   UNL A   1      32.532  29.688  25.422  1.00  0.00    -0.458 OA
BRANCH   2   3
ATOM      3  C   UNL A   1      32.675  28.529  24.736  1.00  0.00     0.339 C 
ATOM      4  O   UNL A   1      33.634  28.169  24.075  1.00  0.00    -0.246 OA
BRANCH   3   5
ATOM      5  C   UNL A   1      31.448  27.737  24.797  1.00  0.00     0.075 A 
ATOM      6  C   UNL A   1      30.288  25.767  25.603  1.00  0.00     0.088 A 
ATOM      7  C   UNL A   1      29.252  26.021  24.704  1.00  0.00     0.023 A 
ATOM      8  C   UNL A   1      31.363  26.660  25.688  1.00  0.00     0.039 A 
ATOM      9  C   UNL A   1      29.358  27.083  23.798  1.00  0.00     0.018 A 
ATOM     10  C   UNL A   1      30.464  27.930  23.827  1.00  0.00     0.032 A 
ATOM     11  Br  UNL A   1      30.585  29.286  22.503  1.00  0.00    -0.050 Br
BRANCH   6  12
ATOM     12  S   UNL A   1      30.457  24.225  26.502  1.00  0.00     0.261 S 
ATOM     13  O   UNL A   1      29.197  24.012  27.180  1.00  0.00    -0.201 OA
ATOM     14  O   UNL A   1      31.696  24.326  27.244  1.00  0.00    -0.201 OA
BRANCH  12  15
ATOM     15  N   UNL A   1      30.595  22.968  25.407  1.00  0.00    -0.280 N 
ATOM     16  H   UNL A   1      29.766  22.635  24.995  1.00  0.00     0.180 HD
BRANCH  15  17
ATOM     17  C   UNL A   1      31.813  22.338  25.023  1.00  0.00     0.049 A 
ATOM     18  C   UNL A   1      34.941  23.503  23.190  1.00  0.00     0.044 C 
ATOM     19  C   UNL A   1      33.996  22.665  23.999  1.00  0.00    -0.049 A 
ATOM     20  C   UNL A   1      34.443  21.498  24.625  1.00  0.00     0.003 A 
ATOM     21  C   UNL A   1      32.676  23.083  24.209  1.00  0.00     0.030 A 
ATOM     22  C   UNL A   1      33.553  20.702  25.347  1.00  0.00     0.002 A 
ATOM     23  C   UNL A   1      32.224  21.099  25.509  1.00  0.00     0.027 A 
ENDBRANCH  15  17
ENDBRANCH  12  15
ENDBRANCH   6  12
ENDBRANCH   3   5
ENDBRANCH   2   3
ENDBRANCH   1   2
BRANCH   1  24
ATOM     24  C   UNL A   1      34.271  30.178  27.096  1.00  0.00     0.275 C 
BRANCH  24  25
ATOM     25  O   UNL A   1      35.172  29.427  27.968  1.00  0.00    -0.458 OA
BRANCH  25  26
ATOM     26  C   UNL A   1      36.140  29.863  28.811  1.00  0.00     0.338 C 
ATOM     27  O   UNL A   1      35.924  30.722  29.661  1.00  0.00    -0.246 OA
BRANCH  26  28
ATOM     28  C   UNL A   1      37.468  29.241  28.725  1.00  0.00     0.060 A 
ATOM     29  C   UNL A   1      38.364  29.624  27.714  1.00  0.00     0.016 A 
ATOM     30  C   UNL A   1      37.848  28.329  29.696  1.00  0.00     0.016 A 
ATOM     31  C   UNL A   1      39.695  29.217  27.772  1.00  0.00     0.010 A 
ATOM     32  C   UNL A   1      39.180  28.055  29.852  1.00  0.00     0.010 A 
ATOM     33  C   UNL A   1      40.098  28.458  28.872  1.00  0.00    -0.014 A 
BRANCH  33  34
ATOM     34  C   UNL A   1      41.357  27.738  28.947  1.00  0.00     0.031 A 
ATOM     35  C   UNL A   1      41.522  26.359  28.465  1.00  0.00     0.074 A 
ATOM     36  C   UNL A   1      42.365  28.496  29.442  1.00  0.00     0.049 A 
ATOM     37  N   UNL A   1      42.395  25.544  28.948  1.00  0.00    -0.248 NA
ATOM     38  C   UNL A   1      40.718  25.755  27.405  1.00  0.00     0.031 C 
ATOM     39  C   UNL A   1      43.787  28.235  29.538  1.00  0.00     0.029 A 
ATOM     40  N   UNL A   1      42.211  29.701  30.152  1.00  0.00    -0.354 N 
ATOM     41  C   UNL A   1      42.491  24.479  28.077  1.00  0.00     0.074 A 
ATOM     42  C   UNL A   1      41.344  24.585  27.211  1.00  0.00     0.031 C 
ATOM     43  C   UNL A   1      44.285  29.018  30.519  1.00  0.00     0.029 A 
ATOM     44  C   UNL A   1      43.155  29.674  31.173  1.00  0.00     0.049 A 
ATOM     45  H   UNL A   1      41.566  30.420  29.962  1.00  0.00     0.167 HD
ATOM     46  C   UNL A   1      43.627  23.729  28.078  1.00  0.00     0.031 A 
ATOM     47  C   UNL A   1      42.733  29.500  32.465  1.00  0.00     0.031 A 
ATOM     48  C   UNL A   1      44.564  24.224  29.083  1.00  0.00     0.049 A 
ATOM     49  C   UNL A   1      43.206  28.171  33.030  1.00  0.00     0.074 A 
ATOM     50  C   UNL A   1      45.652  25.077  29.025  1.00  0.00     0.029 A 
ATOM     51  N   UNL A   1      44.187  24.167  30.411  1.00  0.00    -0.354 N 
ATOM     52  N   UNL A   1      43.746  27.225  32.310  1.00  0.00    -0.248 NA
ATOM     53  C   UNL A   1      43.037  27.768  34.425  1.00  0.00     0.031 C 
ATOM     54  C   UNL A   1      45.897  25.564  30.344  1.00  0.00     0.029 A 
ATOM     55  C   UNL A   1      44.977  24.980  31.196  1.00  0.00     0.049 A 
ATOM     56  H   UNL A   1      43.447  23.616  30.753  1.00  0.00     0.167 HD
ATOM     57  C   UNL A   1      44.048  26.154  33.096  1.00  0.00     0.074 A 
ATOM     58  C   UNL A   1      43.545  26.523  34.408  1.00  0.00     0.031 C 
ATOM     59  C   UNL A   1      44.683  25.046  32.616  1.00  0.00     0.031 A 
BRANCH  46  60
ATOM     60  C   UNL A   1      44.015  22.722  27.026  1.00  0.00    -0.014 A 
ATOM     61  C   UNL A   1      45.277  22.835  26.406  1.00  0.00     0.009 A 
ATOM     62  C   UNL A   1      43.212  21.649  26.604  1.00  0.00     0.009 A 
ATOM     63  C   UNL A   1      45.691  21.973  25.383  1.00  0.00     0.001 A 
ATOM     64  C   UNL A   1      43.614  20.791  25.564  1.00  0.00     0.001 A 
ATOM     65  C   UNL A   1      44.852  20.958  24.950  1.00  0.00     0.000 A 
ENDBRANCH  46  60
BRANCH  47  66
ATOM     66  C   UNL A   1      41.411  30.146  32.792  1.00  0.00    -0.014 A 
ATOM     67  C   UNL A   1      41.293  31.550  32.661  1.00  0.00     0.009 A 
ATOM     68  C   UNL A   1      40.225  29.407  32.920  1.00  0.00     0.009 A 
ATOM     69  C   UNL A   1      40.044  32.172  32.535  1.00  0.00     0.001 A 
ATOM     70  C   UNL A   1      38.974  30.039  32.830  1.00  0.00     0.001 A 
ATOM     71  C   UNL A   1      38.883  31.412  32.597  1.00  0.00     0.000 A 
ENDBRANCH  47  66
BRANCH  59  72
ATOM     72  C   UNL A   1      45.070  23.881  33.477  1.00  0.00    -0.014 A 
ATOM     73  C   UNL A   1      44.153  22.894  33.852  1.00  0.00     0.009 A 
ATOM     74  C   UNL A   1      46.360  23.813  34.043  1.00  0.00     0.009 A 
ATOM     75  C   UNL A   1      44.536  21.836  34.682  1.00  0.00     0.001 A 
ATOM     76  C   UNL A   1      46.738  22.776  34.894  1.00  0.00     0.001 A 
ATOM     77  C   UNL A   1      45.829  21.775  35.196  1.00  0.00     0.000 A 
ENDBRANCH  59  72
ENDBRANCH  33  34
ENDBRANCH  26  28
ENDBRANCH  25  26
ENDBRANCH  24  25
ENDBRANCH   1  24
TORSDOF 14
ENDMDL
