MODEL 1
REMARK VINA RESULT:      -9.6      0.000      0.000
REMARK SMILES N#Cc1cccc(NCCCC(=O)OCCOC(=O)c2ccc(-c3c4nc(c(-c5ccccc5)c5ccc([nH]5)c(-c5ccccc5)c5nc(c(-c6ccccc6)c6ccc3[nH]6)C=C5)C=C4)cc2)c1
REMARK SMILES IDX 14 1 12 2 13 3 11 4 10 5 9 6 8 7 7 9 3 10 4 11 68 12 5 13
REMARK SMILES IDX 6 14 2 15 1 16 15 17 16 18 17 19 18 20 19 21 20 22 21 23
REMARK SMILES IDX 67 24 22 25 66 26 23 27 24 28 25 29 60 30 26 31 65 32 59 33
REMARK SMILES IDX 61 34 27 35 64 36 58 37 57 38 28 40 50 41 35 42 49 43 36 44
REMARK SMILES IDX 39 45 48 46 62 47 37 48 38 49 47 51 63 52 40 53 29 54 30 55
REMARK SMILES IDX 34 56 31 57 33 58 32 59 51 60 52 61 56 62 53 63 55 64 54 65
REMARK SMILES IDX 41 66 42 67 46 68 43 69 45 70 44 71
REMARK H PARENT 8 8 61 39 39 50
REMARK Flexibility Score: inf
ROOT
ATOM      1  O   UNL A   1      37.839  21.999  24.991  1.00  0.00    -0.462 OA
ENDROOT
BRANCH   1   2
ATOM      2  C   UNL A   1      36.642  22.324  25.533  1.00  0.00     0.305 C 
ATOM      3  O   UNL A   1      36.404  23.370  26.125  1.00  0.00    -0.252 OA
BRANCH   2   4
ATOM      4  C   UNL A   1      35.616  21.223  25.384  1.00  0.00     0.124 C 
BRANCH   4   5
ATOM      5  C   UNL A   1      34.204  21.661  24.982  1.00  0.00     0.033 C 
BRANCH   5   6
ATOM      6  C   UNL A   1      33.083  21.300  25.958  1.00  0.00     0.113 C 
BRANCH   6   7
ATOM      7  N   UNL A   1      32.225  20.291  25.368  1.00  0.00    -0.385 N 
ATOM      8  H   UNL A   1      31.267  20.340  25.590  1.00  0.00     0.160 HD
BRANCH   7   9
ATOM      9  C   UNL A   1      32.614  19.272  24.530  1.00  0.00     0.035 A 
ATOM     10  C   UNL A   1      33.850  17.181  24.264  1.00  0.00     0.054 A 
ATOM     11  C   UNL A   1      33.443  17.096  22.933  1.00  0.00     0.019 A 
ATOM     12  C   UNL A   1      33.435  18.262  25.051  1.00  0.00     0.045 A 
ATOM     13  C   UNL A   1      32.611  18.080  22.405  1.00  0.00     0.003 A 
ATOM     14  C   UNL A   1      32.192  19.149  23.204  1.00  0.00     0.026 A 
BRANCH  10  15
ATOM     15  C   UNL A   1      34.689  16.165  24.832  1.00  0.00     0.099 C 
ATOM     16  N   UNL A   1      35.369  15.349  25.293  1.00  0.00    -0.192 NA
ENDBRANCH  10  15
ENDBRANCH   7   9
ENDBRANCH   6   7
ENDBRANCH   5   6
ENDBRANCH   4   5
ENDBRANCH   2   4
ENDBRANCH   1   2
BRANCH   1  17
ATOM     17  C   UNL A   1      38.883  21.610  25.904  1.00  0.00     0.274 C 
BRANCH  17  18
ATOM     18  C   UNL A   1      39.402  20.202  25.602  1.00  0.00     0.275 C 
BRANCH  18  19
ATOM     19  O   UNL A   1      40.438  19.810  26.524  1.00  0.00    -0.458 OA
BRANCH  19  20
ATOM     20  C   UNL A   1      41.699  19.964  26.059  1.00  0.00     0.338 C 
ATOM     21  O   UNL A   1      42.291  19.236  25.279  1.00  0.00    -0.246 OA
BRANCH  20  22
ATOM     22  C   UNL A   1      42.260  21.246  26.514  1.00  0.00     0.060 A 
ATOM     23  C   UNL A   1      42.252  21.507  27.885  1.00  0.00     0.016 A 
ATOM     24  C   UNL A   1      42.663  22.229  25.611  1.00  0.00     0.016 A 
ATOM     25  C   UNL A   1      42.608  22.761  28.364  1.00  0.00     0.010 A 
ATOM     26  C   UNL A   1      43.046  23.487  26.096  1.00  0.00     0.010 A 
ATOM     27  C   UNL A   1      42.998  23.769  27.473  1.00  0.00    -0.014 A 
BRANCH  27  28
ATOM     28  C   UNL A   1      43.298  25.121  28.008  1.00  0.00     0.031 A 
ATOM     29  C   UNL A   1      42.184  26.096  28.272  1.00  0.00     0.074 A 
ATOM     30  C   UNL A   1      44.567  25.446  28.323  1.00  0.00     0.049 A 
ATOM     31  N   UNL A   1      42.248  27.315  28.749  1.00  0.00    -0.248 NA
ATOM     32  C   UNL A   1      40.820  25.645  27.957  1.00  0.00     0.031 C 
ATOM     33  C   UNL A   1      45.729  24.570  28.159  1.00  0.00     0.029 A 
ATOM     34  N   UNL A   1      45.088  26.594  28.863  1.00  0.00    -0.354 N 
ATOM     35  C   UNL A   1      40.938  27.781  28.772  1.00  0.00     0.074 A 
ATOM     36  C   UNL A   1      40.106  26.728  28.234  1.00  0.00     0.031 C 
ATOM     37  C   UNL A   1      46.821  25.203  28.615  1.00  0.00     0.029 A 
ATOM     38  C   UNL A   1      46.448  26.545  29.049  1.00  0.00     0.049 A 
ATOM     39  H   UNL A   1      44.540  27.378  29.097  1.00  0.00     0.167 HD
ATOM     40  C   UNL A   1      40.472  28.977  29.209  1.00  0.00     0.031 A 
ATOM     41  C   UNL A   1      47.303  27.481  29.499  1.00  0.00     0.031 A 
ATOM     42  C   UNL A   1      41.304  30.027  29.738  1.00  0.00     0.049 A 
ATOM     43  C   UNL A   1      46.766  28.824  29.911  1.00  0.00     0.074 A 
ATOM     44  C   UNL A   1      40.926  31.271  30.215  1.00  0.00     0.029 A 
ATOM     45  N   UNL A   1      42.684  29.959  29.856  1.00  0.00    -0.354 N 
ATOM     46  N   UNL A   1      45.525  29.247  29.936  1.00  0.00    -0.248 NA
ATOM     47  C   UNL A   1      47.751  29.814  30.363  1.00  0.00     0.031 C 
ATOM     48  C   UNL A   1      42.082  31.979  30.559  1.00  0.00     0.029 A 
ATOM     49  C   UNL A   1      43.175  31.149  30.371  1.00  0.00     0.049 A 
ATOM     50  H   UNL A   1      43.235  29.181  29.611  1.00  0.00     0.167 HD
ATOM     51  C   UNL A   1      45.577  30.543  30.437  1.00  0.00     0.074 A 
ATOM     52  C   UNL A   1      46.970  30.823  30.723  1.00  0.00     0.031 C 
ATOM     53  C   UNL A   1      44.564  31.420  30.642  1.00  0.00     0.031 A 
BRANCH  40  54
ATOM     54  C   UNL A   1      38.993  29.231  29.087  1.00  0.00    -0.014 A 
ATOM     55  C   UNL A   1      38.120  29.034  30.170  1.00  0.00     0.009 A 
ATOM     56  C   UNL A   1      38.467  29.708  27.876  1.00  0.00     0.009 A 
ATOM     57  C   UNL A   1      36.750  29.271  30.028  1.00  0.00     0.001 A 
ATOM     58  C   UNL A   1      37.104  29.976  27.746  1.00  0.00     0.001 A 
ATOM     59  C   UNL A   1      36.244  29.747  28.819  1.00  0.00     0.000 A 
ENDBRANCH  40  54
BRANCH  41  60
ATOM     60  C   UNL A   1      48.760  27.192  29.566  1.00  0.00    -0.014 A 
ATOM     61  C   UNL A   1      49.598  27.456  28.472  1.00  0.00     0.009 A 
ATOM     62  C   UNL A   1      49.319  26.628  30.724  1.00  0.00     0.009 A 
ATOM     63  C   UNL A   1      50.956  27.134  28.525  1.00  0.00     0.001 A 
ATOM     64  C   UNL A   1      50.684  26.341  30.790  1.00  0.00     0.001 A 
ATOM     65  C   UNL A   1      51.499  26.583  29.685  1.00  0.00     0.000 A 
ENDBRANCH  41  60
BRANCH  53  66
ATOM     66  C   UNL A   1      44.926  32.750  31.250  1.00  0.00    -0.014 A 
ATOM     67  C   UNL A   1      45.261  33.858  30.453  1.00  0.00     0.009 A 
ATOM     68  C   UNL A   1      44.926  32.895  32.646  1.00  0.00     0.009 A 
ATOM     69  C   UNL A   1      45.643  35.064  31.045  1.00  0.00     0.001 A 
ATOM     70  C   UNL A   1      45.269  34.114  33.234  1.00  0.00     0.001 A 
ATOM     71  C   UNL A   1      45.644  35.192  32.434  1.00  0.00     0.000 A 
ENDBRANCH  53  66
ENDBRANCH  27  28
ENDBRANCH  20  22
ENDBRANCH  19  20
ENDBRANCH  18  19
ENDBRANCH  17  18
ENDBRANCH   1  17
TORSDOF 16
ENDMDL
MODEL 2
REMARK VINA RESULT:      -9.6      5.205      9.967
REMARK SMILES N#Cc1cccc(NCCCC(=O)OCCOC(=O)c2ccc(-c3c4nc(c(-c5ccccc5)c5ccc([nH]5)c(-c5ccccc5)c5nc(c(-c6ccccc6)c6ccc3[nH]6)C=C5)C=C4)cc2)c1
REMARK SMILES IDX 14 1 12 2 13 3 11 4 10 5 9 6 8 7 7 9 3 10 4 11 68 12 5 13
REMARK SMILES IDX 6 14 2 15 1 16 15 17 16 18 17 19 18 20 19 21 20 22 21 23
REMARK SMILES IDX 67 24 22 25 66 26 23 27 24 28 25 29 60 30 26 31 65 32 59 33
REMARK SMILES IDX 61 34 27 35 64 36 58 37 57 38 28 40 50 41 35 42 49 43 36 44
REMARK SMILES IDX 39 45 48 46 62 47 37 48 38 49 47 51 63 52 40 53 29 54 30 55
REMARK SMILES IDX 34 56 31 57 33 58 32 59 51 60 52 61 56 62 53 63 55 64 54 65
REMARK SMILES IDX 41 66 42 67 46 68 43 69 45 70 44 71
REMARK H PARENT 8 8 61 39 39 50
REMARK Flexibility Score: inf
ROOT
ATOM      1  O   UNL A   1      33.921  33.802  30.957  1.00  0.00    -0.462 OA
ENDROOT
BRANCH   1   2
ATOM      2  C   UNL A   1      33.844  34.368  29.729  1.00  0.00     0.305 C 
ATOM      3  O   UNL A   1      32.947  35.117  29.361  1.00  0.00    -0.252 OA
BRANCH   2   4
ATOM      4  C   UNL A   1      34.966  33.932  28.815  1.00  0.00     0.124 C 
BRANCH   4   5
ATOM      5  C   UNL A   1      34.625  32.841  27.794  1.00  0.00     0.033 C 
BRANCH   5   6
ATOM      6  C   UNL A   1      34.913  31.401  28.225  1.00  0.00     0.113 C 
BRANCH   6   7
ATOM      7  N   UNL A   1      34.768  30.512  27.089  1.00  0.00    -0.385 N 
ATOM      8  H   UNL A   1      35.398  30.642  26.343  1.00  0.00     0.160 HD
BRANCH   7   9
ATOM      9  C   UNL A   1      33.840  29.508  26.947  1.00  0.00     0.035 A 
ATOM     10  C   UNL A   1      33.380  27.209  26.259  1.00  0.00     0.054 A 
ATOM     11  C   UNL A   1      32.048  27.347  26.647  1.00  0.00     0.019 A 
ATOM     12  C   UNL A   1      34.264  28.284  26.411  1.00  0.00     0.045 A 
ATOM     13  C   UNL A   1      31.614  28.549  27.199  1.00  0.00     0.003 A 
ATOM     14  C   UNL A   1      32.508  29.612  27.359  1.00  0.00     0.026 A 
BRANCH  10  15
ATOM     15  C   UNL A   1      33.851  25.970  25.709  1.00  0.00     0.099 C 
ATOM     16  N   UNL A   1      34.227  24.971  25.262  1.00  0.00    -0.192 NA
ENDBRANCH  10  15
ENDBRANCH   7   9
ENDBRANCH   6   7
ENDBRANCH   5   6
ENDBRANCH   4   5
ENDBRANCH   2   4
ENDBRANCH   1   2
BRANCH   1  17
ATOM     17  C   UNL A   1      34.330  34.656  32.043  1.00  0.00     0.274 C 
BRANCH  17  18
ATOM     18  C   UNL A   1      34.531  33.864  33.338  1.00  0.00     0.275 C 
BRANCH  18  19
ATOM     19  O   UNL A   1      35.115  32.572  33.084  1.00  0.00    -0.458 OA
BRANCH  19  20
ATOM     20  C   UNL A   1      36.334  32.381  33.642  1.00  0.00     0.338 C 
ATOM     21  O   UNL A   1      36.650  32.570  34.805  1.00  0.00    -0.246 OA
BRANCH  20  22
ATOM     22  C   UNL A   1      37.249  31.757  32.673  1.00  0.00     0.060 A 
ATOM     23  C   UNL A   1      38.297  30.984  33.176  1.00  0.00     0.016 A 
ATOM     24  C   UNL A   1      37.166  32.031  31.309  1.00  0.00     0.016 A 
ATOM     25  C   UNL A   1      39.290  30.510  32.329  1.00  0.00     0.010 A 
ATOM     26  C   UNL A   1      38.156  31.532  30.450  1.00  0.00     0.010 A 
ATOM     27  C   UNL A   1      39.237  30.789  30.958  1.00  0.00    -0.014 A 
BRANCH  27  28
ATOM     28  C   UNL A   1      40.353  30.335  30.091  1.00  0.00     0.031 A 
ATOM     29  C   UNL A   1      41.554  31.215  29.879  1.00  0.00     0.074 A 
ATOM     30  C   UNL A   1      40.318  29.102  29.550  1.00  0.00     0.049 A 
ATOM     31  N   UNL A   1      42.631  30.986  29.168  1.00  0.00    -0.248 NA
ATOM     32  C   UNL A   1      41.544  32.524  30.550  1.00  0.00     0.031 C 
ATOM     33  C   UNL A   1      39.230  28.136  29.721  1.00  0.00     0.029 A 
ATOM     34  N   UNL A   1      41.229  28.444  28.764  1.00  0.00    -0.354 N 
ATOM     35  C   UNL A   1      43.415  32.128  29.291  1.00  0.00     0.074 A 
ATOM     36  C   UNL A   1      42.677  33.059  30.118  1.00  0.00     0.031 C 
ATOM     37  C   UNL A   1      39.550  27.000  29.082  1.00  0.00     0.029 A 
ATOM     38  C   UNL A   1      40.834  27.176  28.411  1.00  0.00     0.049 A 
ATOM     39  H   UNL A   1      42.083  28.841  28.480  1.00  0.00     0.167 HD
ATOM     40  C   UNL A   1      44.641  32.375  28.767  1.00  0.00     0.031 A 
ATOM     41  C   UNL A   1      41.428  26.264  27.620  1.00  0.00     0.031 A 
ATOM     42  C   UNL A   1      45.370  31.449  27.939  1.00  0.00     0.049 A 
ATOM     43  C   UNL A   1      42.756  26.593  26.996  1.00  0.00     0.074 A 
ATOM     44  C   UNL A   1      46.622  31.603  27.367  1.00  0.00     0.029 A 
ATOM     45  N   UNL A   1      44.910  30.198  27.558  1.00  0.00    -0.354 N 
ATOM     46  N   UNL A   1      43.489  27.672  27.128  1.00  0.00    -0.248 NA
ATOM     47  C   UNL A   1      43.340  25.571  26.117  1.00  0.00     0.031 C 
ATOM     48  C   UNL A   1      46.890  30.474  26.588  1.00  0.00     0.029 A 
ATOM     49  C   UNL A   1      45.841  29.581  26.736  1.00  0.00     0.049 A 
ATOM     50  H   UNL A   1      44.050  29.804  27.831  1.00  0.00     0.167 HD
ATOM     51  C   UNL A   1      44.636  27.446  26.376  1.00  0.00     0.074 A 
ATOM     52  C   UNL A   1      44.507  26.117  25.810  1.00  0.00     0.031 C 
ATOM     53  C   UNL A   1      45.698  28.263  26.172  1.00  0.00     0.031 A 
BRANCH  40  54
ATOM     54  C   UNL A   1      45.252  33.725  29.039  1.00  0.00    -0.014 A 
ATOM     55  C   UNL A   1      46.097  33.942  30.140  1.00  0.00     0.009 A 
ATOM     56  C   UNL A   1      45.003  34.789  28.158  1.00  0.00     0.009 A 
ATOM     57  C   UNL A   1      46.646  35.207  30.372  1.00  0.00     0.001 A 
ATOM     58  C   UNL A   1      45.579  36.042  28.374  1.00  0.00     0.001 A 
ATOM     59  C   UNL A   1      46.391  36.253  29.487  1.00  0.00     0.000 A 
ENDBRANCH  40  54
BRANCH  41  60
ATOM     60  C   UNL A   1      40.765  24.960  27.355  1.00  0.00    -0.014 A 
ATOM     61  C   UNL A   1      39.622  24.884  26.545  1.00  0.00     0.009 A 
ATOM     62  C   UNL A   1      41.264  23.780  27.930  1.00  0.00     0.009 A 
ATOM     63  C   UNL A   1      38.976  23.662  26.343  1.00  0.00     0.001 A 
ATOM     64  C   UNL A   1      40.640  22.554  27.697  1.00  0.00     0.001 A 
ATOM     65  C   UNL A   1      39.488  22.498  26.913  1.00  0.00     0.000 A 
ENDBRANCH  41  60
BRANCH  53  66
ATOM     66  C   UNL A   1      46.827  27.718  25.338  1.00  0.00    -0.014 A 
ATOM     67  C   UNL A   1      46.909  27.963  23.957  1.00  0.00     0.009 A 
ATOM     68  C   UNL A   1      47.830  26.948  25.949  1.00  0.00     0.009 A 
ATOM     69  C   UNL A   1      47.940  27.402  23.199  1.00  0.00     0.001 A 
ATOM     70  C   UNL A   1      48.880  26.422  25.196  1.00  0.00     0.001 A 
ATOM     71  C   UNL A   1      48.926  26.635  23.820  1.00  0.00     0.000 A 
ENDBRANCH  53  66
ENDBRANCH  27  28
ENDBRANCH  20  22
ENDBRANCH  19  20
ENDBRANCH  18  19
ENDBRANCH  17  18
ENDBRANCH   1  17
TORSDOF 16
ENDMDL
MODEL 3
REMARK VINA RESULT:      -9.5      4.119      8.088
REMARK SMILES N#Cc1cccc(NCCCC(=O)OCCOC(=O)c2ccc(-c3c4nc(c(-c5ccccc5)c5ccc([nH]5)c(-c5ccccc5)c5nc(c(-c6ccccc6)c6ccc3[nH]6)C=C5)C=C4)cc2)c1
REMARK SMILES IDX 14 1 12 2 13 3 11 4 10 5 9 6 8 7 7 9 3 10 4 11 68 12 5 13
REMARK SMILES IDX 6 14 2 15 1 16 15 17 16 18 17 19 18 20 19 21 20 22 21 23
REMARK SMILES IDX 67 24 22 25 66 26 23 27 24 28 25 29 60 30 26 31 65 32 59 33
REMARK SMILES IDX 61 34 27 35 64 36 58 37 57 38 28 40 50 41 35 42 49 43 36 44
REMARK SMILES IDX 39 45 48 46 62 47 37 48 38 49 47 51 63 52 40 53 29 54 30 55
REMARK SMILES IDX 34 56 31 57 33 58 32 59 51 60 52 61 56 62 53 63 55 64 54 65
REMARK SMILES IDX 41 66 42 67 46 68 43 69 45 70 44 71
REMARK H PARENT 8 8 61 39 39 50
REMARK Flexibility Score: inf
ROOT
ATOM      1  O   UNL A   1      43.353  21.188  26.082  1.00  0.00    -0.462 OA
ENDROOT
BRANCH   1   2
ATOM      2  C   UNL A   1      42.279  20.367  26.001  1.00  0.00     0.305 C 
ATOM      3  O   UNL A   1      42.233  19.341  25.332  1.00  0.00    -0.252 OA
BRANCH   2   4
ATOM      4  C   UNL A   1      41.093  20.878  26.787  1.00  0.00     0.124 C 
BRANCH   4   5
ATOM      5  C   UNL A   1      39.754  20.922  26.044  1.00  0.00     0.033 C 
BRANCH   5   6
ATOM      6  C   UNL A   1      39.037  22.274  26.028  1.00  0.00     0.113 C 
BRANCH   6   7
ATOM      7  N   UNL A   1      38.076  22.304  24.943  1.00  0.00    -0.385 N 
ATOM      8  H   UNL A   1      38.336  21.851  24.109  1.00  0.00     0.160 HD
BRANCH   7   9
ATOM      9  C   UNL A   1      36.838  22.903  24.961  1.00  0.00     0.035 A 
ATOM     10  C   UNL A   1      34.798  23.456  23.733  1.00  0.00     0.054 A 
ATOM     11  C   UNL A   1      34.261  24.052  24.873  1.00  0.00     0.019 A 
ATOM     12  C   UNL A   1      36.077  22.888  23.783  1.00  0.00     0.045 A 
ATOM     13  C   UNL A   1      34.994  24.060  26.056  1.00  0.00     0.003 A 
ATOM     14  C   UNL A   1      36.265  23.477  26.099  1.00  0.00     0.026 A 
BRANCH  10  15
ATOM     15  C   UNL A   1      34.048  23.419  22.511  1.00  0.00     0.099 C 
ATOM     16  N   UNL A   1      33.443  23.394  21.524  1.00  0.00    -0.192 NA
ENDBRANCH  10  15
ENDBRANCH   7   9
ENDBRANCH   6   7
ENDBRANCH   5   6
ENDBRANCH   4   5
ENDBRANCH   2   4
ENDBRANCH   1   2
BRANCH   1  17
ATOM     17  C   UNL A   1      44.418  20.962  25.139  1.00  0.00     0.274 C 
BRANCH  17  18
ATOM     18  C   UNL A   1      44.557  22.127  24.155  1.00  0.00     0.275 C 
BRANCH  18  19
ATOM     19  O   UNL A   1      43.766  23.261  24.561  1.00  0.00    -0.458 OA
BRANCH  19  20
ATOM     20  C   UNL A   1      44.480  24.322  25.002  1.00  0.00     0.338 C 
ATOM     21  O   UNL A   1      45.565  24.701  24.593  1.00  0.00    -0.246 OA
BRANCH  20  22
ATOM     22  C   UNL A   1      43.702  25.090  25.986  1.00  0.00     0.060 A 
ATOM     23  C   UNL A   1      44.048  26.428  26.185  1.00  0.00     0.016 A 
ATOM     24  C   UNL A   1      42.744  24.482  26.796  1.00  0.00     0.016 A 
ATOM     25  C   UNL A   1      43.470  27.158  27.215  1.00  0.00     0.010 A 
ATOM     26  C   UNL A   1      42.142  25.226  27.821  1.00  0.00     0.010 A 
ATOM     27  C   UNL A   1      42.519  26.561  28.052  1.00  0.00    -0.014 A 
BRANCH  27  28
ATOM     28  C   UNL A   1      41.977  27.343  29.192  1.00  0.00     0.031 A 
ATOM     29  C   UNL A   1      42.710  27.379  30.504  1.00  0.00     0.074 A 
ATOM     30  C   UNL A   1      40.861  28.079  29.024  1.00  0.00     0.049 A 
ATOM     31  N   UNL A   1      42.400  28.014  31.607  1.00  0.00    -0.248 NA
ATOM     32  C   UNL A   1      43.952  26.596  30.590  1.00  0.00     0.031 C 
ATOM     33  C   UNL A   1      40.085  28.166  27.784  1.00  0.00     0.029 A 
ATOM     34  N   UNL A   1      40.196  28.906  29.893  1.00  0.00    -0.354 N 
ATOM     35  C   UNL A   1      43.397  27.692  32.522  1.00  0.00     0.074 A 
ATOM     36  C   UNL A   1      44.303  26.782  31.855  1.00  0.00     0.031 C 
ATOM     37  C   UNL A   1      39.067  29.021  27.965  1.00  0.00     0.029 A 
ATOM     38  C   UNL A   1      39.084  29.497  29.344  1.00  0.00     0.049 A 
ATOM     39  H   UNL A   1      40.488  29.063  30.820  1.00  0.00     0.167 HD
ATOM     40  C   UNL A   1      43.546  28.121  33.799  1.00  0.00     0.031 A 
ATOM     41  C   UNL A   1      38.168  30.315  29.894  1.00  0.00     0.031 A 
ATOM     42  C   UNL A   1      42.639  29.022  34.463  1.00  0.00     0.049 A 
ATOM     43  C   UNL A   1      38.321  30.719  31.335  1.00  0.00     0.074 A 
ATOM     44  C   UNL A   1      42.707  29.523  35.752  1.00  0.00     0.029 A 
ATOM     45  N   UNL A   1      41.492  29.553  33.890  1.00  0.00    -0.354 N 
ATOM     46  N   UNL A   1      39.272  30.414  32.184  1.00  0.00    -0.248 NA
ATOM     47  C   UNL A   1      37.273  31.587  31.888  1.00  0.00     0.031 C 
ATOM     48  C   UNL A   1      41.570  30.303  35.981  1.00  0.00     0.029 A 
ATOM     49  C   UNL A   1      40.831  30.353  34.810  1.00  0.00     0.049 A 
ATOM     50  H   UNL A   1      41.192  29.387  32.968  1.00  0.00     0.167 HD
ATOM     51  C   UNL A   1      38.955  31.079  33.363  1.00  0.00     0.074 A 
ATOM     52  C   UNL A   1      37.735  31.820  33.108  1.00  0.00     0.031 C 
ATOM     53  C   UNL A   1      39.613  31.078  34.548  1.00  0.00     0.031 A 
BRANCH  40  54
ATOM     54  C   UNL A   1      44.715  27.581  34.580  1.00  0.00    -0.014 A 
ATOM     55  C   UNL A   1      45.968  28.217  34.565  1.00  0.00     0.009 A 
ATOM     56  C   UNL A   1      44.550  26.434  35.373  1.00  0.00     0.009 A 
ATOM     57  C   UNL A   1      47.037  27.690  35.294  1.00  0.00     0.001 A 
ATOM     58  C   UNL A   1      45.611  25.930  36.127  1.00  0.00     0.001 A 
ATOM     59  C   UNL A   1      46.857  26.552  36.078  1.00  0.00     0.000 A 
ENDBRANCH  40  54
BRANCH  41  60
ATOM     60  C   UNL A   1      37.012  30.791  29.089  1.00  0.00    -0.014 A 
ATOM     61  C   UNL A   1      36.928  32.128  28.670  1.00  0.00     0.009 A 
ATOM     62  C   UNL A   1      35.971  29.911  28.752  1.00  0.00     0.009 A 
ATOM     63  C   UNL A   1      35.814  32.578  27.958  1.00  0.00     0.001 A 
ATOM     64  C   UNL A   1      34.876  30.353  28.008  1.00  0.00     0.001 A 
ATOM     65  C   UNL A   1      34.793  31.690  27.622  1.00  0.00     0.000 A 
ENDBRANCH  41  60
BRANCH  53  66
ATOM     66  C   UNL A   1      39.049  31.944  35.643  1.00  0.00    -0.014 A 
ATOM     67  C   UNL A   1      38.197  31.422  36.631  1.00  0.00     0.009 A 
ATOM     68  C   UNL A   1      39.381  33.307  35.688  1.00  0.00     0.009 A 
ATOM     69  C   UNL A   1      37.647  32.259  37.604  1.00  0.00     0.001 A 
ATOM     70  C   UNL A   1      38.862  34.133  36.685  1.00  0.00     0.001 A 
ATOM     71  C   UNL A   1      37.983  33.613  37.632  1.00  0.00     0.000 A 
ENDBRANCH  53  66
ENDBRANCH  27  28
ENDBRANCH  20  22
ENDBRANCH  19  20
ENDBRANCH  18  19
ENDBRANCH  17  18
ENDBRANCH   1  17
TORSDOF 16
ENDMDL
