MODEL 1
REMARK VINA RESULT:     -11.1      0.000      0.000
REMARK SMILES Cc1ccc(S(=O)(=O)Nc2cc3c(cc2C(=O)OCCOC(=O)c2ccc(-c4c5nc(c(-c6ccccc6)c6ccc([nH]6)c(-c6ccccc6)c6nc(c(-c7ccccc7)c7ccc4[nH]7)C=C6)C=C5)cc2)OCCO3)s1
REMARK SMILES IDX 19 1 18 2 16 3 17 4 15 5 10 6 11 7 12 8 14 9 13 10 75 11
REMARK SMILES IDX 72 12 74 13 73 14 9 15 6 17 7 18 8 19 5 20 1 21 2 22 3 23
REMARK SMILES IDX 76 24 4 25 20 26 21 27 22 28 23 29 24 30 25 31 71 32 26 33
REMARK SMILES IDX 70 34 27 35 28 36 29 37 64 38 30 39 69 40 63 41 65 42 31 43
REMARK SMILES IDX 68 44 62 45 61 46 32 48 54 49 39 50 53 51 40 52 43 53 52 54
REMARK SMILES IDX 66 55 41 56 42 57 51 59 67 60 44 61 33 62 34 63 38 64 35 65
REMARK SMILES IDX 37 66 36 67 55 68 56 69 60 70 57 71 59 72 58 73 45 74 46 75
REMARK SMILES IDX 50 76 47 77 49 78 48 79
REMARK H PARENT 9 16 65 47 43 58
REMARK Flexibility Score: inf
ROOT
ATOM      1  C   UNL A   1      38.533  21.518  25.443  1.00  0.00     0.275 C 
ENDROOT
BRANCH   1   2
ATOM      2  O   UNL A   1      37.358  21.341  24.617  1.00  0.00    -0.458 OA
BRANCH   2   3
ATOM      3  C   UNL A   1      36.185  21.670  25.210  1.00  0.00     0.340 C 
ATOM      4  O   UNL A   1      36.010  22.545  26.045  1.00  0.00    -0.246 OA
BRANCH   3   5
ATOM      5  C   UNL A   1      35.107  20.726  24.867  1.00  0.00     0.088 A 
ATOM      6  C   UNL A   1      33.753  21.104  24.890  1.00  0.00     0.067 A 
ATOM      7  C   UNL A   1      32.763  20.126  24.996  1.00  0.00     0.078 A 
ATOM      8  C   UNL A   1      33.108  18.784  24.923  1.00  0.00     0.163 A 
ATOM      9  C   UNL A   1      35.452  19.372  24.771  1.00  0.00     0.068 A 
ATOM     10  C   UNL A   1      34.443  18.413  24.734  1.00  0.00     0.162 A 
ATOM     11  O   UNL A   1      32.072  17.892  24.988  1.00  0.00    -0.486 OA
ATOM     12  O   UNL A   1      34.820  17.112  24.514  1.00  0.00    -0.486 OA
ATOM     13  C   UNL A   1      32.535  16.540  25.057  1.00  0.00     0.271 C 
ATOM     14  C   UNL A   1      33.691  16.330  24.094  1.00  0.00     0.271 C 
BRANCH   6  15
ATOM     15  N   UNL A   1      33.334  22.457  24.659  1.00  0.00    -0.278 N 
ATOM     16  H   UNL A   1      33.581  22.949  23.842  1.00  0.00     0.180 HD
BRANCH  15  17
ATOM     17  S   UNL A   1      32.367  23.169  25.901  1.00  0.00     0.271 S 
ATOM     18  O   UNL A   1      32.845  22.608  27.151  1.00  0.00    -0.200 OA
ATOM     19  O   UNL A   1      30.982  23.028  25.524  1.00  0.00    -0.200 OA
BRANCH  17  20
ATOM     20  C   UNL A   1      32.665  24.918  25.918  1.00  0.00     0.140 A 
ATOM     21  C   UNL A   1      31.833  28.512  27.153  1.00  0.00     0.056 C 
ATOM     22  C   UNL A   1      32.366  27.284  26.503  1.00  0.00     0.003 A 
ATOM     23  C   UNL A   1      33.650  27.023  26.075  1.00  0.00     0.016 A 
ATOM     24  S   UNL A   1      31.334  25.946  26.223  1.00  0.00    -0.127 S 
ATOM     25  C   UNL A   1      33.808  25.663  25.684  1.00  0.00     0.034 A 
ENDBRANCH  17  20
ENDBRANCH  15  17
ENDBRANCH   6  15
ENDBRANCH   3   5
ENDBRANCH   2   3
ENDBRANCH   1   2
BRANCH   1  26
ATOM     26  C   UNL A   1      39.116  20.195  25.934  1.00  0.00     0.275 C 
BRANCH  26  27
ATOM     27  O   UNL A   1      40.252  19.814  25.132  1.00  0.00    -0.458 OA
BRANCH  27  28
ATOM     28  C   UNL A   1      41.358  19.554  25.859  1.00  0.00     0.338 C 
ATOM     29  O   UNL A   1      41.839  18.451  26.064  1.00  0.00    -0.246 OA
BRANCH  28  30
ATOM     30  C   UNL A   1      42.007  20.763  26.382  1.00  0.00     0.060 A 
ATOM     31  C   UNL A   1      42.047  20.975  27.754  1.00  0.00     0.016 A 
ATOM     32  C   UNL A   1      42.301  21.807  25.501  1.00  0.00     0.016 A 
ATOM     33  C   UNL A   1      42.234  22.266  28.238  1.00  0.00     0.010 A 
ATOM     34  C   UNL A   1      42.620  23.076  26.000  1.00  0.00     0.010 A 
ATOM     35  C   UNL A   1      42.550  23.332  27.376  1.00  0.00    -0.014 A 
BRANCH  35  36
ATOM     36  C   UNL A   1      42.853  24.676  27.944  1.00  0.00     0.031 A 
ATOM     37  C   UNL A   1      41.773  25.678  28.272  1.00  0.00     0.074 A 
ATOM     38  C   UNL A   1      44.140  24.988  28.204  1.00  0.00     0.049 A 
ATOM     39  N   UNL A   1      41.904  26.928  28.649  1.00  0.00    -0.248 NA
ATOM     40  C   UNL A   1      40.376  25.231  28.173  1.00  0.00     0.031 C 
ATOM     41  C   UNL A   1      45.285  24.099  27.981  1.00  0.00     0.029 A 
ATOM     42  N   UNL A   1      44.703  26.122  28.730  1.00  0.00    -0.354 N 
ATOM     43  C   UNL A   1      40.613  27.423  28.798  1.00  0.00     0.074 A 
ATOM     44  C   UNL A   1      39.709  26.338  28.479  1.00  0.00     0.031 C 
ATOM     45  C   UNL A   1      46.397  24.689  28.433  1.00  0.00     0.029 A 
ATOM     46  C   UNL A   1      46.070  26.049  28.835  1.00  0.00     0.049 A 
ATOM     47  H   UNL A   1      44.180  26.910  29.004  1.00  0.00     0.167 HD
ATOM     48  C   UNL A   1      40.222  28.671  29.156  1.00  0.00     0.031 A 
ATOM     49  C   UNL A   1      46.989  26.984  29.136  1.00  0.00     0.031 A 
ATOM     50  C   UNL A   1      41.126  29.749  29.478  1.00  0.00     0.049 A 
ATOM     51  C   UNL A   1      46.539  28.381  29.408  1.00  0.00     0.074 A 
ATOM     52  C   UNL A   1      40.822  31.047  29.857  1.00  0.00     0.029 A 
ATOM     53  N   UNL A   1      42.508  29.656  29.457  1.00  0.00    -0.354 N 
ATOM     54  N   UNL A   1      45.318  28.851  29.475  1.00  0.00    -0.248 NA
ATOM     55  C   UNL A   1      47.591  29.382  29.611  1.00  0.00     0.031 C 
ATOM     56  C   UNL A   1      42.019  31.755  30.006  1.00  0.00     0.029 A 
ATOM     57  C   UNL A   1      43.071  30.883  29.778  1.00  0.00     0.049 A 
ATOM     58  H   UNL A   1      43.017  28.840  29.245  1.00  0.00     0.167 HD
ATOM     59  C   UNL A   1      45.453  30.209  29.718  1.00  0.00     0.074 A 
ATOM     60  C   UNL A   1      46.873  30.478  29.818  1.00  0.00     0.031 C 
ATOM     61  C   UNL A   1      44.484  31.147  29.840  1.00  0.00     0.031 A 
BRANCH  48  62
ATOM     62  C   UNL A   1      38.748  28.980  29.172  1.00  0.00    -0.014 A 
ATOM     63  C   UNL A   1      38.000  28.944  30.358  1.00  0.00     0.009 A 
ATOM     64  C   UNL A   1      38.124  29.419  27.991  1.00  0.00     0.009 A 
ATOM     65  C   UNL A   1      36.655  29.329  30.357  1.00  0.00     0.001 A 
ATOM     66  C   UNL A   1      36.788  29.823  27.998  1.00  0.00     0.001 A 
ATOM     67  C   UNL A   1      36.053  29.776  29.180  1.00  0.00     0.000 A 
ENDBRANCH  48  62
BRANCH  49  68
ATOM     68  C   UNL A   1      48.428  26.625  29.067  1.00  0.00    -0.014 A 
ATOM     69  C   UNL A   1      49.162  26.818  27.890  1.00  0.00     0.009 A 
ATOM     70  C   UNL A   1      49.089  26.156  30.217  1.00  0.00     0.009 A 
ATOM     71  C   UNL A   1      50.534  26.558  27.870  1.00  0.00     0.001 A 
ATOM     72  C   UNL A   1      50.465  25.934  30.203  1.00  0.00     0.001 A 
ATOM     73  C   UNL A   1      51.186  26.133  29.029  1.00  0.00     0.000 A 
ENDBRANCH  49  68
BRANCH  61  74
ATOM     74  C   UNL A   1      44.943  32.550  30.102  1.00  0.00    -0.014 A 
ATOM     75  C   UNL A   1      45.156  33.008  31.412  1.00  0.00     0.009 A 
ATOM     76  C   UNL A   1      45.150  33.429  29.028  1.00  0.00     0.009 A 
ATOM     77  C   UNL A   1      45.528  34.333  31.644  1.00  0.00     0.001 A 
ATOM     78  C   UNL A   1      45.548  34.745  29.261  1.00  0.00     0.001 A 
ATOM     79  C   UNL A   1      45.725  35.199  30.567  1.00  0.00     0.000 A 
ENDBRANCH  61  74
ENDBRANCH  35  36
ENDBRANCH  28  30
ENDBRANCH  27  28
ENDBRANCH  26  27
ENDBRANCH   1  26
TORSDOF 14
ENDMDL
MODEL 2
REMARK VINA RESULT:     -11.1      2.323      4.748
REMARK SMILES Cc1ccc(S(=O)(=O)Nc2cc3c(cc2C(=O)OCCOC(=O)c2ccc(-c4c5nc(c(-c6ccccc6)c6ccc([nH]6)c(-c6ccccc6)c6nc(c(-c7ccccc7)c7ccc4[nH]7)C=C6)C=C5)cc2)OCCO3)s1
REMARK SMILES IDX 19 1 18 2 16 3 17 4 15 5 10 6 11 7 12 8 14 9 13 10 75 11
REMARK SMILES IDX 72 12 74 13 73 14 9 15 6 17 7 18 8 19 5 20 1 21 2 22 3 23
REMARK SMILES IDX 76 24 4 25 20 26 21 27 22 28 23 29 24 30 25 31 71 32 26 33
REMARK SMILES IDX 70 34 27 35 28 36 29 37 64 38 30 39 69 40 63 41 65 42 31 43
REMARK SMILES IDX 68 44 62 45 61 46 32 48 54 49 39 50 53 51 40 52 43 53 52 54
REMARK SMILES IDX 66 55 41 56 42 57 51 59 67 60 44 61 33 62 34 63 38 64 35 65
REMARK SMILES IDX 37 66 36 67 55 68 56 69 60 70 57 71 59 72 58 73 45 74 46 75
REMARK SMILES IDX 50 76 47 77 49 78 48 79
REMARK H PARENT 9 16 65 47 43 58
REMARK Flexibility Score: inf
ROOT
ATOM      1  C   UNL A   1      35.589  21.268  25.897  1.00  0.00     0.275 C 
ENDROOT
BRANCH   1   2
ATOM      2  O   UNL A   1      35.565  22.704  25.720  1.00  0.00    -0.458 OA
BRANCH   2   3
ATOM      3  C   UNL A   1      34.436  23.317  26.153  1.00  0.00     0.340 C 
ATOM      4  O   UNL A   1      33.811  23.060  27.170  1.00  0.00    -0.246 OA
BRANCH   3   5
ATOM      5  C   UNL A   1      33.904  24.263  25.156  1.00  0.00     0.088 A 
ATOM      6  C   UNL A   1      33.911  23.973  23.780  1.00  0.00     0.067 A 
ATOM      7  C   UNL A   1      33.824  25.013  22.854  1.00  0.00     0.078 A 
ATOM      8  C   UNL A   1      33.575  26.306  23.289  1.00  0.00     0.163 A 
ATOM      9  C   UNL A   1      33.631  25.565  25.594  1.00  0.00     0.068 A 
ATOM     10  C   UNL A   1      33.404  26.566  24.653  1.00  0.00     0.162 A 
ATOM     11  O   UNL A   1      33.457  27.258  22.313  1.00  0.00    -0.486 OA
ATOM     12  O   UNL A   1      33.019  27.795  25.124  1.00  0.00    -0.486 OA
ATOM     13  C   UNL A   1      33.353  28.576  22.861  1.00  0.00     0.271 C 
ATOM     14  C   UNL A   1      32.431  28.572  24.069  1.00  0.00     0.271 C 
BRANCH   6  15
ATOM     15  N   UNL A   1      33.857  22.628  23.282  1.00  0.00    -0.278 N 
ATOM     16  H   UNL A   1      34.661  22.156  22.963  1.00  0.00     0.180 HD
BRANCH  15  17
ATOM     17  S   UNL A   1      32.297  21.888  23.278  1.00  0.00     0.271 S 
ATOM     18  O   UNL A   1      31.932  21.730  21.882  1.00  0.00    -0.200 OA
ATOM     19  O   UNL A   1      31.446  22.635  24.171  1.00  0.00    -0.200 OA
BRANCH  17  20
ATOM     20  C   UNL A   1      32.432  20.277  24.010  1.00  0.00     0.140 A 
ATOM     21  C   UNL A   1      33.526  16.546  23.875  1.00  0.00     0.056 C 
ATOM     22  C   UNL A   1      32.991  17.893  24.208  1.00  0.00     0.003 A 
ATOM     23  C   UNL A   1      32.879  18.496  25.443  1.00  0.00     0.016 A 
ATOM     24  S   UNL A   1      32.435  18.927  22.961  1.00  0.00    -0.127 S 
ATOM     25  C   UNL A   1      32.502  19.864  25.329  1.00  0.00     0.034 A 
ENDBRANCH  17  20
ENDBRANCH  15  17
ENDBRANCH   6  15
ENDBRANCH   3   5
ENDBRANCH   2   3
ENDBRANCH   1   2
BRANCH   1  26
ATOM     26  C   UNL A   1      36.619  20.580  25.004  1.00  0.00     0.275 C 
BRANCH  26  27
ATOM     27  O   UNL A   1      37.779  21.417  24.830  1.00  0.00    -0.458 OA
BRANCH  27  28
ATOM     28  C   UNL A   1      38.768  21.153  25.709  1.00  0.00     0.338 C 
ATOM     29  O   UNL A   1      39.268  20.060  25.918  1.00  0.00    -0.246 OA
BRANCH  28  30
ATOM     30  C   UNL A   1      39.260  22.348  26.407  1.00  0.00     0.060 A 
ATOM     31  C   UNL A   1      38.730  23.591  26.085  1.00  0.00     0.016 A 
ATOM     32  C   UNL A   1      40.439  22.259  27.151  1.00  0.00     0.016 A 
ATOM     33  C   UNL A   1      39.460  24.738  26.377  1.00  0.00     0.010 A 
ATOM     34  C   UNL A   1      41.100  23.424  27.558  1.00  0.00     0.010 A 
ATOM     35  C   UNL A   1      40.640  24.680  27.141  1.00  0.00    -0.014 A 
BRANCH  35  36
ATOM     36  C   UNL A   1      41.332  25.942  27.529  1.00  0.00     0.031 A 
ATOM     37  C   UNL A   1      40.709  26.950  28.465  1.00  0.00     0.074 A 
ATOM     38  C   UNL A   1      42.572  26.168  27.051  1.00  0.00     0.049 A 
ATOM     39  N   UNL A   1      41.143  28.146  28.784  1.00  0.00    -0.248 NA
ATOM     40  C   UNL A   1      39.452  26.576  29.130  1.00  0.00     0.031 C 
ATOM     41  C   UNL A   1      43.317  25.260  26.173  1.00  0.00     0.029 A 
ATOM     42  N   UNL A   1      43.436  27.216  27.245  1.00  0.00    -0.354 N 
ATOM     43  C   UNL A   1      40.199  28.678  29.657  1.00  0.00     0.074 A 
ATOM     44  C   UNL A   1      39.171  27.673  29.825  1.00  0.00     0.031 C 
ATOM     45  C   UNL A   1      44.544  25.750  25.968  1.00  0.00     0.029 A 
ATOM     46  C   UNL A   1      44.622  27.073  26.569  1.00  0.00     0.049 A 
ATOM     47  H   UNL A   1      43.227  27.992  27.813  1.00  0.00     0.167 HD
ATOM     48  C   UNL A   1      40.189  29.898  30.250  1.00  0.00     0.031 A 
ATOM     49  C   UNL A   1      45.639  27.930  26.369  1.00  0.00     0.031 A 
ATOM     50  C   UNL A   1      41.219  30.895  30.084  1.00  0.00     0.049 A 
ATOM     51  C   UNL A   1      45.546  29.309  26.933  1.00  0.00     0.074 A 
ATOM     52  C   UNL A   1      41.297  32.157  30.650  1.00  0.00     0.029 A 
ATOM     53  N   UNL A   1      42.346  30.745  29.293  1.00  0.00    -0.354 N 
ATOM     54  N   UNL A   1      44.614  29.821  27.696  1.00  0.00    -0.248 NA
ATOM     55  C   UNL A   1      46.627  30.236  26.581  1.00  0.00     0.031 C 
ATOM     56  C   UNL A   1      42.440  32.794  30.154  1.00  0.00     0.029 A 
ATOM     57  C   UNL A   1      43.106  31.905  29.325  1.00  0.00     0.049 A 
ATOM     58  H   UNL A   1      42.575  29.935  28.783  1.00  0.00     0.167 HD
ATOM     59  C   UNL A   1      44.988  31.139  27.910  1.00  0.00     0.074 A 
ATOM     60  C   UNL A   1      46.248  31.334  27.221  1.00  0.00     0.031 C 
ATOM     61  C   UNL A   1      44.339  32.100  28.609  1.00  0.00     0.031 A 
BRANCH  48  62
ATOM     62  C   UNL A   1      39.003  30.267  31.102  1.00  0.00    -0.014 A 
ATOM     63  C   UNL A   1      37.856  30.858  30.552  1.00  0.00     0.009 A 
ATOM     64  C   UNL A   1      38.998  29.915  32.463  1.00  0.00     0.009 A 
ATOM     65  C   UNL A   1      36.734  31.100  31.352  1.00  0.00     0.001 A 
ATOM     66  C   UNL A   1      37.868  30.139  33.253  1.00  0.00     0.001 A 
ATOM     67  C   UNL A   1      36.738  30.733  32.698  1.00  0.00     0.000 A 
ENDBRANCH  48  62
BRANCH  49  68
ATOM     68  C   UNL A   1      46.762  27.518  25.489  1.00  0.00    -0.014 A 
ATOM     69  C   UNL A   1      46.772  27.854  24.130  1.00  0.00     0.009 A 
ATOM     70  C   UNL A   1      47.871  26.848  26.036  1.00  0.00     0.009 A 
ATOM     71  C   UNL A   1      47.878  27.536  23.338  1.00  0.00     0.001 A 
ATOM     72  C   UNL A   1      48.988  26.566  25.252  1.00  0.00     0.001 A 
ATOM     73  C   UNL A   1      48.989  26.908  23.902  1.00  0.00     0.000 A 
ENDBRANCH  49  68
BRANCH  61  74
ATOM     74  C   UNL A   1      44.996  33.446  28.660  1.00  0.00    -0.014 A 
ATOM     75  C   UNL A   1      45.935  33.753  29.657  1.00  0.00     0.009 A 
ATOM     76  C   UNL A   1      44.661  34.424  27.712  1.00  0.00     0.009 A 
ATOM     77  C   UNL A   1      46.497  35.029  29.728  1.00  0.00     0.001 A 
ATOM     78  C   UNL A   1      45.245  35.690  27.768  1.00  0.00     0.001 A 
ATOM     79  C   UNL A   1      46.152  35.995  28.781  1.00  0.00     0.000 A 
ENDBRANCH  61  74
ENDBRANCH  35  36
ENDBRANCH  28  30
ENDBRANCH  27  28
ENDBRANCH  26  27
ENDBRANCH   1  26
TORSDOF 14
ENDMDL
MODEL 3
REMARK VINA RESULT:     -10.9      2.481      4.214
REMARK SMILES Cc1ccc(S(=O)(=O)Nc2cc3c(cc2C(=O)OCCOC(=O)c2ccc(-c4c5nc(c(-c6ccccc6)c6ccc([nH]6)c(-c6ccccc6)c6nc(c(-c7ccccc7)c7ccc4[nH]7)C=C6)C=C5)cc2)OCCO3)s1
REMARK SMILES IDX 19 1 18 2 16 3 17 4 15 5 10 6 11 7 12 8 14 9 13 10 75 11
REMARK SMILES IDX 72 12 74 13 73 14 9 15 6 17 7 18 8 19 5 20 1 21 2 22 3 23
REMARK SMILES IDX 76 24 4 25 20 26 21 27 22 28 23 29 24 30 25 31 71 32 26 33
REMARK SMILES IDX 70 34 27 35 28 36 29 37 64 38 30 39 69 40 63 41 65 42 31 43
REMARK SMILES IDX 68 44 62 45 61 46 32 48 54 49 39 50 53 51 40 52 43 53 52 54
REMARK SMILES IDX 66 55 41 56 42 57 51 59 67 60 44 61 33 62 34 63 38 64 35 65
REMARK SMILES IDX 37 66 36 67 55 68 56 69 60 70 57 71 59 72 58 73 45 74 46 75
REMARK SMILES IDX 50 76 47 77 49 78 48 79
REMARK H PARENT 9 16 65 47 43 58
REMARK Flexibility Score: inf
ROOT
ATOM      1  C   UNL A   1      35.883  21.494  26.100  1.00  0.00     0.275 C 
ENDROOT
BRANCH   1   2
ATOM      2  O   UNL A   1      35.829  22.929  25.922  1.00  0.00    -0.458 OA
BRANCH   2   3
ATOM      3  C   UNL A   1      34.629  23.497  26.196  1.00  0.00     0.340 C 
ATOM      4  O   UNL A   1      33.920  23.271  27.165  1.00  0.00    -0.246 OA
BRANCH   3   5
ATOM      5  C   UNL A   1      34.146  24.335  25.085  1.00  0.00     0.088 A 
ATOM      6  C   UNL A   1      34.077  23.851  23.767  1.00  0.00     0.067 A 
ATOM      7  C   UNL A   1      34.048  24.751  22.700  1.00  0.00     0.078 A 
ATOM      8  C   UNL A   1      33.932  26.110  22.947  1.00  0.00     0.163 A 
ATOM      9  C   UNL A   1      34.007  25.706  25.333  1.00  0.00     0.068 A 
ATOM     10  C   UNL A   1      33.836  26.579  24.262  1.00  0.00     0.162 A 
ATOM     11  O   UNL A   1      33.862  26.919  21.844  1.00  0.00    -0.486 OA
ATOM     12  O   UNL A   1      33.578  27.893  24.557  1.00  0.00    -0.486 OA
ATOM     13  C   UNL A   1      33.897  28.306  22.196  1.00  0.00     0.271 C 
ATOM     14  C   UNL A   1      33.024  28.562  23.413  1.00  0.00     0.271 C 
BRANCH   6  15
ATOM     15  N   UNL A   1      33.885  22.459  23.472  1.00  0.00    -0.278 N 
ATOM     16  H   UNL A   1      34.632  21.873  23.212  1.00  0.00     0.180 HD
BRANCH  15  17
ATOM     17  S   UNL A   1      32.264  21.877  23.605  1.00  0.00     0.271 S 
ATOM     18  O   UNL A   1      32.250  20.991  24.755  1.00  0.00    -0.200 OA
ATOM     19  O   UNL A   1      31.856  21.393  22.310  1.00  0.00    -0.200 OA
BRANCH  17  20
ATOM     20  C   UNL A   1      31.194  23.253  23.941  1.00  0.00     0.140 A 
ATOM     21  C   UNL A   1      29.977  26.152  26.231  1.00  0.00     0.056 C 
ATOM     22  C   UNL A   1      30.207  25.137  25.169  1.00  0.00     0.003 A 
ATOM     23  C   UNL A   1      29.999  25.247  23.810  1.00  0.00     0.016 A 
ATOM     24  S   UNL A   1      30.834  23.597  25.577  1.00  0.00    -0.127 S 
ATOM     25  C   UNL A   1      30.524  24.128  23.105  1.00  0.00     0.034 A 
ENDBRANCH  17  20
ENDBRANCH  15  17
ENDBRANCH   6  15
ENDBRANCH   3   5
ENDBRANCH   2   3
ENDBRANCH   1   2
BRANCH   1  26
ATOM     26  C   UNL A   1      36.818  20.810  25.104  1.00  0.00     0.275 C 
BRANCH  26  27
ATOM     27  O   UNL A   1      38.013  21.592  24.912  1.00  0.00    -0.458 OA
BRANCH  27  28
ATOM     28  C   UNL A   1      38.961  21.360  25.844  1.00  0.00     0.338 C 
ATOM     29  O   UNL A   1      39.457  20.276  26.106  1.00  0.00    -0.246 OA
BRANCH  28  30
ATOM     30  C   UNL A   1      39.413  22.577  26.530  1.00  0.00     0.060 A 
ATOM     31  C   UNL A   1      38.916  23.809  26.127  1.00  0.00     0.016 A 
ATOM     32  C   UNL A   1      40.537  22.509  27.356  1.00  0.00     0.016 A 
ATOM     33  C   UNL A   1      39.632  24.963  26.428  1.00  0.00     0.010 A 
ATOM     34  C   UNL A   1      41.177  23.685  27.766  1.00  0.00     0.010 A 
ATOM     35  C   UNL A   1      40.757  24.927  27.273  1.00  0.00    -0.014 A 
BRANCH  35  36
ATOM     36  C   UNL A   1      41.429  26.199  27.662  1.00  0.00     0.031 A 
ATOM     37  C   UNL A   1      40.783  27.206  28.581  1.00  0.00     0.074 A 
ATOM     38  C   UNL A   1      42.674  26.435  27.199  1.00  0.00     0.049 A 
ATOM     39  N   UNL A   1      41.199  28.409  28.899  1.00  0.00    -0.248 NA
ATOM     40  C   UNL A   1      39.520  26.824  29.231  1.00  0.00     0.031 C 
ATOM     41  C   UNL A   1      43.441  25.528  26.339  1.00  0.00     0.029 A 
ATOM     42  N   UNL A   1      43.524  27.493  27.399  1.00  0.00    -0.354 N 
ATOM     43  C   UNL A   1      40.238  28.938  29.754  1.00  0.00     0.074 A 
ATOM     44  C   UNL A   1      39.218  27.922  29.914  1.00  0.00     0.031 C 
ATOM     45  C   UNL A   1      44.665  26.030  26.148  1.00  0.00     0.029 A 
ATOM     46  C   UNL A   1      44.721  27.358  26.741  1.00  0.00     0.049 A 
ATOM     47  H   UNL A   1      43.298  28.271  27.959  1.00  0.00     0.167 HD
ATOM     48  C   UNL A   1      40.206  30.161  30.339  1.00  0.00     0.031 A 
ATOM     49  C   UNL A   1      45.731  28.224  26.549  1.00  0.00     0.031 A 
ATOM     50  C   UNL A   1      41.228  31.167  30.180  1.00  0.00     0.049 A 
ATOM     51  C   UNL A   1      45.616  29.606  27.102  1.00  0.00     0.074 A 
ATOM     52  C   UNL A   1      41.284  32.435  30.738  1.00  0.00     0.029 A 
ATOM     53  N   UNL A   1      42.368  31.025  29.406  1.00  0.00    -0.354 N 
ATOM     54  N   UNL A   1      44.668  30.113  27.849  1.00  0.00    -0.248 NA
ATOM     55  C   UNL A   1      46.692  30.542  26.759  1.00  0.00     0.031 C 
ATOM     56  C   UNL A   1      42.428  33.080  30.254  1.00  0.00     0.029 A 
ATOM     57  C   UNL A   1      43.115  32.192  29.441  1.00  0.00     0.049 A 
ATOM     58  H   UNL A   1      42.612  30.213  28.905  1.00  0.00     0.167 HD
ATOM     59  C   UNL A   1      45.024  31.437  28.058  1.00  0.00     0.074 A 
ATOM     60  C   UNL A   1      46.292  31.641  27.386  1.00  0.00     0.031 C 
ATOM     61  C   UNL A   1      44.356  32.395  28.741  1.00  0.00     0.031 A 
BRANCH  48  62
ATOM     62  C   UNL A   1      39.004  30.523  31.171  1.00  0.00    -0.014 A 
ATOM     63  C   UNL A   1      37.851  31.078  30.597  1.00  0.00     0.009 A 
ATOM     64  C   UNL A   1      38.993  30.201  32.539  1.00  0.00     0.009 A 
ATOM     65  C   UNL A   1      36.716  31.314  31.380  1.00  0.00     0.001 A 
ATOM     66  C   UNL A   1      37.851  30.418  33.313  1.00  0.00     0.001 A 
ATOM     67  C   UNL A   1      36.714  30.976  32.734  1.00  0.00     0.000 A 
ENDBRANCH  48  62
BRANCH  49  68
ATOM     68  C   UNL A   1      46.871  27.819  25.688  1.00  0.00    -0.014 A 
ATOM     69  C   UNL A   1      48.003  27.203  26.235  1.00  0.00     0.009 A 
ATOM     70  C   UNL A   1      46.789  27.983  24.293  1.00  0.00     0.009 A 
ATOM     71  C   UNL A   1      49.027  26.748  25.400  1.00  0.00     0.001 A 
ATOM     72  C   UNL A   1      47.794  27.495  23.460  1.00  0.00     0.001 A 
ATOM     73  C   UNL A   1      48.914  26.881  24.015  1.00  0.00     0.000 A 
ENDBRANCH  49  68
BRANCH  61  74
ATOM     74  C   UNL A   1      44.998  33.749  28.792  1.00  0.00    -0.014 A 
ATOM     75  C   UNL A   1      45.835  34.111  29.860  1.00  0.00     0.009 A 
ATOM     76  C   UNL A   1      44.751  34.679  27.772  1.00  0.00     0.009 A 
ATOM     77  C   UNL A   1      46.381  35.393  29.924  1.00  0.00     0.001 A 
ATOM     78  C   UNL A   1      45.319  35.952  27.824  1.00  0.00     0.001 A 
ATOM     79  C   UNL A   1      46.124  36.312  28.905  1.00  0.00     0.000 A 
ENDBRANCH  61  74
ENDBRANCH  35  36
ENDBRANCH  28  30
ENDBRANCH  27  28
ENDBRANCH  26  27
ENDBRANCH   1  26
TORSDOF 14
ENDMDL
