MODEL 1
REMARK VINA RESULT:     -10.8      0.000      0.000
REMARK SMILES C[C@H](NC(=O)c1ccc(NC(N)=O)cc1)C(=O)OCCOC(=O)c1ccc(-c2c3nc(c(-c4ccccc4)c4ccc([nH]4)c(-c4ccccc4)c4nc(c(-c5ccccc5)c5ccc2[nH]5)C=C4)C=C3)cc1
REMARK SMILES IDX 19 1 18 2 16 3 17 4 2 5 1 6 3 7 4 8 5 10 6 11 7 12 15 13
REMARK SMILES IDX 8 14 14 15 9 16 10 17 11 18 12 20 13 21 20 24 21 25 22 26
REMARK SMILES IDX 23 27 24 28 25 29 71 30 26 31 70 32 27 33 28 34 29 35 64 36
REMARK SMILES IDX 30 37 69 38 63 39 65 40 31 41 68 42 62 43 61 44 32 46 54 47
REMARK SMILES IDX 39 48 53 49 40 50 43 51 52 52 66 53 41 54 42 55 51 57 67 58
REMARK SMILES IDX 44 59 33 60 34 61 38 62 35 63 37 64 36 65 55 66 56 67 60 68
REMARK SMILES IDX 57 69 59 70 58 71 45 72 46 73 50 74 47 75 49 76 48 77
REMARK H PARENT 3 9 10 19 12 22 12 23 65 45 43 56
REMARK Flexibility Score: inf
ROOT
ATOM      1  C   UNL A   1      37.844  19.903  24.920  1.00  0.00     0.274 C 
ENDROOT
BRANCH   1   2
ATOM      2  O   UNL A   1      36.794  20.783  25.360  1.00  0.00    -0.461 OA
BRANCH   2   3
ATOM      3  C   UNL A   1      36.777  22.020  24.795  1.00  0.00     0.328 C 
ATOM      4  O   UNL A   1      36.954  22.242  23.601  1.00  0.00    -0.250 OA
BRANCH   3   5
ATOM      5  C   UNL A   1      36.529  23.143  25.817  1.00  0.00     0.189 C 
ATOM      6  C   UNL A   1      37.883  23.673  26.262  1.00  0.00     0.043 C 
BRANCH   5   7
ATOM      7  N   UNL A   1      35.493  22.828  26.817  1.00  0.00    -0.339 N 
ATOM      8  C   UNL A   1      34.126  22.793  26.845  1.00  0.00     0.251 C 
ATOM      9  H   UNL A   1      35.884  22.580  27.685  1.00  0.00     0.164 HD
ATOM     10  O   UNL A   1      33.526  22.431  27.851  1.00  0.00    -0.269 OA
BRANCH   8  11
ATOM     11  C   UNL A   1      33.350  23.256  25.694  1.00  0.00     0.039 A 
ATOM     12  C   UNL A   1      32.845  24.554  25.728  1.00  0.00     0.016 A 
ATOM     13  C   UNL A   1      33.156  22.444  24.577  1.00  0.00     0.016 A 
ATOM     14  C   UNL A   1      32.252  25.092  24.586  1.00  0.00     0.027 A 
ATOM     15  C   UNL A   1      32.589  22.999  23.426  1.00  0.00     0.027 A 
ATOM     16  C   UNL A   1      32.168  24.338  23.412  1.00  0.00     0.042 A 
BRANCH  16  17
ATOM     17  N   UNL A   1      31.739  24.870  22.181  1.00  0.00    -0.308 N 
ATOM     18  C   UNL A   1      32.484  25.590  21.284  1.00  0.00     0.316 C 
ATOM     19  H   UNL A   1      30.800  24.707  21.937  1.00  0.00     0.171 HD
ATOM     20  N   UNL A   1      31.835  25.775  20.103  1.00  0.00    -0.351 N 
ATOM     21  O   UNL A   1      33.608  26.048  21.430  1.00  0.00    -0.249 OA
ATOM     22  H   UNL A   1      30.930  25.410  19.976  1.00  0.00     0.161 HD
ATOM     23  H   UNL A   1      32.271  26.276  19.375  1.00  0.00     0.161 HD
ENDBRANCH  16  17
ENDBRANCH   8  11
ENDBRANCH   5   7
ENDBRANCH   3   5
ENDBRANCH   2   3
ENDBRANCH   1   2
BRANCH   1  24
ATOM     24  C   UNL A   1      39.203  20.355  25.467  1.00  0.00     0.275 C 
BRANCH  24  25
ATOM     25  O   UNL A   1      40.037  19.246  25.865  1.00  0.00    -0.458 OA
BRANCH  25  26
ATOM     26  C   UNL A   1      41.351  19.526  25.993  1.00  0.00     0.338 C 
ATOM     27  O   UNL A   1      42.297  18.850  25.600  1.00  0.00    -0.246 OA
BRANCH  26  28
ATOM     28  C   UNL A   1      41.542  20.870  26.560  1.00  0.00     0.060 A 
ATOM     29  C   UNL A   1      41.912  21.896  25.685  1.00  0.00     0.016 A 
ATOM     30  C   UNL A   1      41.456  21.109  27.933  1.00  0.00     0.016 A 
ATOM     31  C   UNL A   1      42.213  23.161  26.169  1.00  0.00     0.010 A 
ATOM     32  C   UNL A   1      41.768  22.381  28.422  1.00  0.00     0.010 A 
ATOM     33  C   UNL A   1      42.164  23.406  27.543  1.00  0.00    -0.014 A 
BRANCH  33  34
ATOM     34  C   UNL A   1      42.624  24.710  28.065  1.00  0.00     0.031 A 
ATOM     35  C   UNL A   1      41.612  25.771  28.381  1.00  0.00     0.074 A 
ATOM     36  C   UNL A   1      43.932  24.927  28.285  1.00  0.00     0.049 A 
ATOM     37  N   UNL A   1      41.803  27.018  28.724  1.00  0.00    -0.248 NA
ATOM     38  C   UNL A   1      40.197  25.374  28.299  1.00  0.00     0.031 C 
ATOM     39  C   UNL A   1      44.997  23.942  28.095  1.00  0.00     0.029 A 
ATOM     40  N   UNL A   1      44.584  26.055  28.711  1.00  0.00    -0.354 N 
ATOM     41  C   UNL A   1      40.534  27.566  28.864  1.00  0.00     0.074 A 
ATOM     42  C   UNL A   1      39.582  26.517  28.568  1.00  0.00     0.031 C 
ATOM     43  C   UNL A   1      46.174  24.513  28.397  1.00  0.00     0.029 A 
ATOM     44  C   UNL A   1      45.949  25.913  28.746  1.00  0.00     0.049 A 
ATOM     45  H   UNL A   1      44.120  26.884  28.966  1.00  0.00     0.167 HD
ATOM     46  C   UNL A   1      40.197  28.833  29.201  1.00  0.00     0.031 A 
ATOM     47  C   UNL A   1      46.909  26.822  28.992  1.00  0.00     0.031 A 
ATOM     48  C   UNL A   1      41.150  29.869  29.496  1.00  0.00     0.049 A 
ATOM     49  C   UNL A   1      46.515  28.242  29.290  1.00  0.00     0.074 A 
ATOM     50  C   UNL A   1      40.914  31.189  29.840  1.00  0.00     0.029 A 
ATOM     51  N   UNL A   1      42.526  29.695  29.486  1.00  0.00    -0.354 N 
ATOM     52  N   UNL A   1      45.315  28.762  29.381  1.00  0.00    -0.248 NA
ATOM     53  C   UNL A   1      47.607  29.199  29.512  1.00  0.00     0.031 C 
ATOM     54  C   UNL A   1      42.150  31.824  29.998  1.00  0.00     0.029 A 
ATOM     55  C   UNL A   1      43.154  30.888  29.800  1.00  0.00     0.049 A 
ATOM     56  H   UNL A   1      42.988  28.850  29.286  1.00  0.00     0.167 HD
ATOM     57  C   UNL A   1      45.505  30.102  29.691  1.00  0.00     0.074 A 
ATOM     58  C   UNL A   1      46.937  30.311  29.782  1.00  0.00     0.031 C 
ATOM     59  C   UNL A   1      44.579  31.071  29.886  1.00  0.00     0.031 A 
BRANCH  46  60
ATOM     60  C   UNL A   1      38.736  29.174  29.206  1.00  0.00    -0.014 A 
ATOM     61  C   UNL A   1      37.944  29.000  30.352  1.00  0.00     0.009 A 
ATOM     62  C   UNL A   1      38.142  29.684  28.040  1.00  0.00     0.009 A 
ATOM     63  C   UNL A   1      36.580  29.297  30.318  1.00  0.00     0.001 A 
ATOM     64  C   UNL A   1      36.783  30.003  28.017  1.00  0.00     0.001 A 
ATOM     65  C   UNL A   1      36.001  29.799  29.153  1.00  0.00     0.000 A 
ENDBRANCH  46  60
BRANCH  47  66
ATOM     66  C   UNL A   1      48.337  26.424  28.919  1.00  0.00    -0.014 A 
ATOM     67  C   UNL A   1      49.017  25.983  30.063  1.00  0.00     0.009 A 
ATOM     68  C   UNL A   1      49.025  26.470  27.694  1.00  0.00     0.009 A 
ATOM     69  C   UNL A   1      50.360  25.608  29.985  1.00  0.00     0.001 A 
ATOM     70  C   UNL A   1      50.359  26.070  27.614  1.00  0.00     0.001 A 
ATOM     71  C   UNL A   1      51.028  25.645  28.761  1.00  0.00     0.000 A 
ENDBRANCH  47  66
BRANCH  59  72
ATOM     72  C   UNL A   1      45.085  32.436  30.256  1.00  0.00    -0.014 A 
ATOM     73  C   UNL A   1      45.343  33.406  29.278  1.00  0.00     0.009 A 
ATOM     74  C   UNL A   1      45.258  32.765  31.610  1.00  0.00     0.009 A 
ATOM     75  C   UNL A   1      45.789  34.677  29.647  1.00  0.00     0.001 A 
ATOM     76  C   UNL A   1      45.682  34.042  31.977  1.00  0.00     0.001 A 
ATOM     77  C   UNL A   1      45.954  34.994  30.996  1.00  0.00     0.000 A 
ENDBRANCH  59  72
ENDBRANCH  33  34
ENDBRANCH  26  28
ENDBRANCH  25  26
ENDBRANCH  24  25
ENDBRANCH   1  24
TORSDOF 14
ENDMDL
MODEL 2
REMARK VINA RESULT:     -10.7      2.842      6.786
REMARK SMILES C[C@H](NC(=O)c1ccc(NC(N)=O)cc1)C(=O)OCCOC(=O)c1ccc(-c2c3nc(c(-c4ccccc4)c4ccc([nH]4)c(-c4ccccc4)c4nc(c(-c5ccccc5)c5ccc2[nH]5)C=C4)C=C3)cc1
REMARK SMILES IDX 19 1 18 2 16 3 17 4 2 5 1 6 3 7 4 8 5 10 6 11 7 12 15 13
REMARK SMILES IDX 8 14 14 15 9 16 10 17 11 18 12 20 13 21 20 24 21 25 22 26
REMARK SMILES IDX 23 27 24 28 25 29 71 30 26 31 70 32 27 33 28 34 29 35 64 36
REMARK SMILES IDX 30 37 69 38 63 39 65 40 31 41 68 42 62 43 61 44 32 46 54 47
REMARK SMILES IDX 39 48 53 49 40 50 43 51 52 52 66 53 41 54 42 55 51 57 67 58
REMARK SMILES IDX 44 59 33 60 34 61 38 62 35 63 37 64 36 65 55 66 56 67 60 68
REMARK SMILES IDX 57 69 59 70 58 71 45 72 46 73 50 74 47 75 49 76 48 77
REMARK H PARENT 3 9 10 19 12 22 12 23 65 45 43 56
REMARK Flexibility Score: inf
ROOT
ATOM      1  C   UNL A   1      37.615  19.938  24.698  1.00  0.00     0.274 C 
ENDROOT
BRANCH   1   2
ATOM      2  O   UNL A   1      36.512  20.528  25.409  1.00  0.00    -0.461 OA
BRANCH   2   3
ATOM      3  C   UNL A   1      36.357  21.871  25.261  1.00  0.00     0.328 C 
ATOM      4  O   UNL A   1      36.715  22.707  26.086  1.00  0.00    -0.250 OA
BRANCH   3   5
ATOM      5  C   UNL A   1      35.662  22.254  23.944  1.00  0.00     0.189 C 
ATOM      6  C   UNL A   1      36.633  23.098  23.134  1.00  0.00     0.043 C 
BRANCH   5   7
ATOM      7  N   UNL A   1      34.263  22.690  24.108  1.00  0.00    -0.339 N 
ATOM      8  C   UNL A   1      33.067  22.086  24.385  1.00  0.00     0.251 C 
ATOM      9  H   UNL A   1      34.163  23.661  23.986  1.00  0.00     0.164 HD
ATOM     10  O   UNL A   1      32.042  22.747  24.509  1.00  0.00    -0.269 OA
BRANCH   8  11
ATOM     11  C   UNL A   1      32.976  20.628  24.471  1.00  0.00     0.039 A 
ATOM     12  C   UNL A   1      33.153  20.038  25.721  1.00  0.00     0.016 A 
ATOM     13  C   UNL A   1      32.678  19.852  23.352  1.00  0.00     0.016 A 
ATOM     14  C   UNL A   1      32.903  18.675  25.880  1.00  0.00     0.027 A 
ATOM     15  C   UNL A   1      32.400  18.493  23.524  1.00  0.00     0.027 A 
ATOM     16  C   UNL A   1      32.474  17.904  24.796  1.00  0.00     0.042 A 
BRANCH  16  17
ATOM     17  N   UNL A   1      32.042  16.570  24.919  1.00  0.00    -0.308 N 
ATOM     18  C   UNL A   1      32.819  15.464  25.140  1.00  0.00     0.316 C 
ATOM     19  H   UNL A   1      31.073  16.414  24.837  1.00  0.00     0.171 HD
ATOM     20  N   UNL A   1      32.078  14.357  25.417  1.00  0.00    -0.351 N 
ATOM     21  O   UNL A   1      34.038  15.380  25.121  1.00  0.00    -0.249 OA
ATOM     22  H   UNL A   1      31.095  14.414  25.435  1.00  0.00     0.161 HD
ATOM     23  H   UNL A   1      32.524  13.498  25.599  1.00  0.00     0.161 HD
ENDBRANCH  16  17
ENDBRANCH   8  11
ENDBRANCH   5   7
ENDBRANCH   3   5
ENDBRANCH   2   3
ENDBRANCH   1   2
BRANCH   1  24
ATOM     24  C   UNL A   1      38.724  19.508  25.663  1.00  0.00     0.275 C 
BRANCH  24  25
ATOM     25  O   UNL A   1      39.804  20.463  25.729  1.00  0.00    -0.458 OA
BRANCH  25  26
ATOM     26  C   UNL A   1      40.448  20.529  26.914  1.00  0.00     0.338 C 
ATOM     27  O   UNL A   1      40.881  19.593  27.578  1.00  0.00    -0.246 OA
BRANCH  26  28
ATOM     28  C   UNL A   1      40.715  21.928  27.280  1.00  0.00     0.060 A 
ATOM     29  C   UNL A   1      40.065  22.926  26.545  1.00  0.00     0.016 A 
ATOM     30  C   UNL A   1      41.653  22.268  28.257  1.00  0.00     0.016 A 
ATOM     31  C   UNL A   1      40.354  24.265  26.766  1.00  0.00     0.010 A 
ATOM     32  C   UNL A   1      41.951  23.617  28.473  1.00  0.00     0.010 A 
ATOM     33  C   UNL A   1      41.315  24.619  27.716  1.00  0.00    -0.014 A 
BRANCH  33  34
ATOM     34  C   UNL A   1      41.722  26.033  27.846  1.00  0.00     0.031 A 
ATOM     35  C   UNL A   1      42.983  26.497  27.180  1.00  0.00     0.074 A 
ATOM     36  C   UNL A   1      40.952  26.899  28.526  1.00  0.00     0.049 A 
ATOM     37  N   UNL A   1      43.588  27.653  27.270  1.00  0.00    -0.248 NA
ATOM     38  C   UNL A   1      43.652  25.530  26.295  1.00  0.00     0.031 C 
ATOM     39  C   UNL A   1      39.663  26.582  29.144  1.00  0.00     0.029 A 
ATOM     40  N   UNL A   1      41.149  28.224  28.815  1.00  0.00    -0.354 N 
ATOM     41  C   UNL A   1      44.726  27.541  26.483  1.00  0.00     0.074 A 
ATOM     42  C   UNL A   1      44.729  26.206  25.924  1.00  0.00     0.031 C 
ATOM     43  C   UNL A   1      39.188  27.683  29.747  1.00  0.00     0.029 A 
ATOM     44  C   UNL A   1      40.162  28.762  29.604  1.00  0.00     0.049 A 
ATOM     45  H   UNL A   1      41.921  28.740  28.490  1.00  0.00     0.167 HD
ATOM     46  C   UNL A   1      45.686  28.468  26.255  1.00  0.00     0.031 A 
ATOM     47  C   UNL A   1      40.077  29.974  30.180  1.00  0.00     0.031 A 
ATOM     48  C   UNL A   1      45.674  29.794  26.812  1.00  0.00     0.049 A 
ATOM     49  C   UNL A   1      41.190  30.963  29.976  1.00  0.00     0.074 A 
ATOM     50  C   UNL A   1      46.603  30.808  26.652  1.00  0.00     0.029 A 
ATOM     51  N   UNL A   1      44.675  30.290  27.636  1.00  0.00    -0.354 N 
ATOM     52  N   UNL A   1      42.284  30.837  29.263  1.00  0.00    -0.248 NA
ATOM     53  C   UNL A   1      41.062  32.256  30.660  1.00  0.00     0.031 C 
ATOM     54  C   UNL A   1      46.184  31.904  27.414  1.00  0.00     0.029 A 
ATOM     55  C   UNL A   1      44.972  31.589  28.009  1.00  0.00     0.049 A 
ATOM     56  H   UNL A   1      43.874  29.792  27.916  1.00  0.00     0.167 HD
ATOM     57  C   UNL A   1      42.964  32.040  29.395  1.00  0.00     0.074 A 
ATOM     58  C   UNL A   1      42.153  32.886  30.249  1.00  0.00     0.031 C 
ATOM     59  C   UNL A   1      44.150  32.412  28.857  1.00  0.00     0.031 A 
BRANCH  46  60
ATOM     60  C   UNL A   1      46.856  28.050  25.413  1.00  0.00    -0.014 A 
ATOM     61  C   UNL A   1      46.798  28.071  24.011  1.00  0.00     0.009 A 
ATOM     62  C   UNL A   1      48.042  27.632  26.039  1.00  0.00     0.009 A 
ATOM     63  C   UNL A   1      47.891  27.646  23.253  1.00  0.00     0.001 A 
ATOM     64  C   UNL A   1      49.142  27.231  25.278  1.00  0.00     0.001 A 
ATOM     65  C   UNL A   1      49.062  27.229  23.886  1.00  0.00     0.000 A 
ENDBRANCH  46  60
BRANCH  47  66
ATOM     66  C   UNL A   1      38.914  30.300  31.043  1.00  0.00    -0.014 A 
ATOM     67  C   UNL A   1      38.946  30.034  32.419  1.00  0.00     0.009 A 
ATOM     68  C   UNL A   1      37.767  30.895  30.491  1.00  0.00     0.009 A 
ATOM     69  C   UNL A   1      37.849  30.347  33.224  1.00  0.00     0.001 A 
ATOM     70  C   UNL A   1      36.682  31.229  31.302  1.00  0.00     0.001 A 
ATOM     71  C   UNL A   1      36.720  30.949  32.668  1.00  0.00     0.000 A 
ENDBRANCH  47  66
BRANCH  59  72
ATOM     72  C   UNL A   1      44.623  33.808  29.142  1.00  0.00    -0.014 A 
ATOM     73  C   UNL A   1      45.462  34.084  30.232  1.00  0.00     0.009 A 
ATOM     74  C   UNL A   1      44.258  34.852  28.277  1.00  0.00     0.009 A 
ATOM     75  C   UNL A   1      45.909  35.386  30.464  1.00  0.00     0.001 A 
ATOM     76  C   UNL A   1      44.724  36.147  28.499  1.00  0.00     0.001 A 
ATOM     77  C   UNL A   1      45.543  36.415  29.595  1.00  0.00     0.000 A 
ENDBRANCH  59  72
ENDBRANCH  33  34
ENDBRANCH  26  28
ENDBRANCH  25  26
ENDBRANCH  24  25
ENDBRANCH   1  24
TORSDOF 14
ENDMDL
MODEL 3
REMARK VINA RESULT:     -10.6      2.367      7.436
REMARK SMILES C[C@H](NC(=O)c1ccc(NC(N)=O)cc1)C(=O)OCCOC(=O)c1ccc(-c2c3nc(c(-c4ccccc4)c4ccc([nH]4)c(-c4ccccc4)c4nc(c(-c5ccccc5)c5ccc2[nH]5)C=C4)C=C3)cc1
REMARK SMILES IDX 19 1 18 2 16 3 17 4 2 5 1 6 3 7 4 8 5 10 6 11 7 12 15 13
REMARK SMILES IDX 8 14 14 15 9 16 10 17 11 18 12 20 13 21 20 24 21 25 22 26
REMARK SMILES IDX 23 27 24 28 25 29 71 30 26 31 70 32 27 33 28 34 29 35 64 36
REMARK SMILES IDX 30 37 69 38 63 39 65 40 31 41 68 42 62 43 61 44 32 46 54 47
REMARK SMILES IDX 39 48 53 49 40 50 43 51 52 52 66 53 41 54 42 55 51 57 67 58
REMARK SMILES IDX 44 59 33 60 34 61 38 62 35 63 37 64 36 65 55 66 56 67 60 68
REMARK SMILES IDX 57 69 59 70 58 71 45 72 46 73 50 74 47 75 49 76 48 77
REMARK H PARENT 3 9 10 19 12 22 12 23 65 45 43 56
REMARK Flexibility Score: inf
ROOT
ATOM      1  C   UNL A   1      32.920  29.559  25.356  1.00  0.00     0.274 C 
ENDROOT
BRANCH   1   2
ATOM      2  O   UNL A   1      33.418  28.423  24.628  1.00  0.00    -0.461 OA
BRANCH   2   3
ATOM      3  C   UNL A   1      32.488  27.511  24.237  1.00  0.00     0.328 C 
ATOM      4  O   UNL A   1      31.376  27.796  23.800  1.00  0.00    -0.250 OA
BRANCH   3   5
ATOM      5  C   UNL A   1      32.959  26.058  24.413  1.00  0.00     0.189 C 
ATOM      6  C   UNL A   1      34.013  26.041  25.509  1.00  0.00     0.043 C 
BRANCH   5   7
ATOM      7  N   UNL A   1      33.201  25.346  23.144  1.00  0.00    -0.339 N 
ATOM      8  C   UNL A   1      33.304  24.041  22.749  1.00  0.00     0.251 C 
ATOM      9  H   UNL A   1      33.317  25.967  22.391  1.00  0.00     0.164 HD
ATOM     10  O   UNL A   1      33.467  23.751  21.569  1.00  0.00    -0.269 OA
BRANCH   8  11
ATOM     11  C   UNL A   1      33.292  22.964  23.740  1.00  0.00     0.039 A 
ATOM     12  C   UNL A   1      32.061  22.585  24.274  1.00  0.00     0.016 A 
ATOM     13  C   UNL A   1      34.463  22.304  24.109  1.00  0.00     0.016 A 
ATOM     14  C   UNL A   1      31.983  21.454  25.086  1.00  0.00     0.027 A 
ATOM     15  C   UNL A   1      34.373  21.153  24.897  1.00  0.00     0.027 A 
ATOM     16  C   UNL A   1      33.127  20.700  25.360  1.00  0.00     0.042 A 
BRANCH  16  17
ATOM     17  N   UNL A   1      33.094  19.460  26.026  1.00  0.00    -0.308 N 
ATOM     18  C   UNL A   1      32.646  18.264  25.531  1.00  0.00     0.316 C 
ATOM     19  H   UNL A   1      33.432  19.451  26.951  1.00  0.00     0.171 HD
ATOM     20  N   UNL A   1      32.945  17.220  26.350  1.00  0.00    -0.351 N 
ATOM     21  O   UNL A   1      32.046  18.055  24.487  1.00  0.00    -0.249 OA
ATOM     22  H   UNL A   1      33.427  17.377  27.194  1.00  0.00     0.161 HD
ATOM     23  H   UNL A   1      32.677  16.305  26.100  1.00  0.00     0.161 HD
ENDBRANCH  16  17
ENDBRANCH   8  11
ENDBRANCH   5   7
ENDBRANCH   3   5
ENDBRANCH   2   3
ENDBRANCH   1   2
BRANCH   1  24
ATOM     24  C   UNL A   1      32.634  29.192  26.817  1.00  0.00     0.275 C 
BRANCH  24  25
ATOM     25  O   UNL A   1      33.839  29.042  27.597  1.00  0.00    -0.458 OA
BRANCH  25  26
ATOM     26  C   UNL A   1      34.450  30.193  27.948  1.00  0.00     0.338 C 
ATOM     27  O   UNL A   1      33.936  31.301  28.067  1.00  0.00    -0.246 OA
BRANCH  26  28
ATOM     28  C   UNL A   1      35.848  29.942  28.329  1.00  0.00     0.060 A 
ATOM     29  C   UNL A   1      36.824  30.073  27.335  1.00  0.00     0.016 A 
ATOM     30  C   UNL A   1      36.195  29.495  29.605  1.00  0.00     0.016 A 
ATOM     31  C   UNL A   1      38.147  29.746  27.599  1.00  0.00     0.010 A 
ATOM     32  C   UNL A   1      37.526  29.156  29.869  1.00  0.00     0.010 A 
ATOM     33  C   UNL A   1      38.503  29.265  28.862  1.00  0.00    -0.014 A 
BRANCH  33  34
ATOM     34  C   UNL A   1      39.880  28.784  29.094  1.00  0.00     0.031 A 
ATOM     35  C   UNL A   1      40.885  29.707  29.716  1.00  0.00     0.074 A 
ATOM     36  C   UNL A   1      40.217  27.521  28.780  1.00  0.00     0.049 A 
ATOM     37  N   UNL A   1      42.169  29.534  29.890  1.00  0.00    -0.248 NA
ATOM     38  C   UNL A   1      40.374  30.997  30.207  1.00  0.00     0.031 C 
ATOM     39  C   UNL A   1      39.303  26.508  28.249  1.00  0.00     0.029 A 
ATOM     40  N   UNL A   1      41.425  26.880  28.859  1.00  0.00    -0.354 N 
ATOM     41  C   UNL A   1      42.628  30.706  30.477  1.00  0.00     0.074 A 
ATOM     42  C   UNL A   1      41.486  31.582  30.629  1.00  0.00     0.031 C 
ATOM     43  C   UNL A   1      39.988  25.372  28.042  1.00  0.00     0.029 A 
ATOM     44  C   UNL A   1      41.393  25.596  28.374  1.00  0.00     0.049 A 
ATOM     45  H   UNL A   1      42.237  27.297  29.227  1.00  0.00     0.167 HD
ATOM     46  C   UNL A   1      43.891  31.023  30.848  1.00  0.00     0.031 A 
ATOM     47  C   UNL A   1      42.392  24.717  28.180  1.00  0.00     0.031 A 
ATOM     48  C   UNL A   1      45.019  30.145  30.696  1.00  0.00     0.049 A 
ATOM     49  C   UNL A   1      43.798  25.116  28.528  1.00  0.00     0.074 A 
ATOM     50  C   UNL A   1      46.343  30.372  31.030  1.00  0.00     0.029 A 
ATOM     51  N   UNL A   1      44.952  28.866  30.166  1.00  0.00    -0.354 N 
ATOM     52  N   UNL A   1      44.231  26.241  29.046  1.00  0.00    -0.248 NA
ATOM     53  C   UNL A   1      44.853  24.130  28.259  1.00  0.00     0.031 C 
ATOM     54  C   UNL A   1      47.084  29.243  30.664  1.00  0.00     0.029 A 
ATOM     55  C   UNL A   1      46.214  28.296  30.147  1.00  0.00     0.049 A 
ATOM     56  H   UNL A   1      44.130  28.427  29.850  1.00  0.00     0.167 HD
ATOM     57  C   UNL A   1      45.604  26.091  29.185  1.00  0.00     0.074 A 
ATOM     58  C   UNL A   1      45.930  24.762  28.705  1.00  0.00     0.031 C 
ATOM     59  C   UNL A   1      46.513  26.972  29.668  1.00  0.00     0.031 A 
BRANCH  46  60
ATOM     60  C   UNL A   1      44.118  32.402  31.397  1.00  0.00    -0.014 A 
ATOM     61  C   UNL A   1      44.074  32.660  32.776  1.00  0.00     0.009 A 
ATOM     62  C   UNL A   1      44.384  33.460  30.514  1.00  0.00     0.009 A 
ATOM     63  C   UNL A   1      44.258  33.959  33.256  1.00  0.00     0.001 A 
ATOM     64  C   UNL A   1      44.592  34.753  31.000  1.00  0.00     0.001 A 
ATOM     65  C   UNL A   1      44.518  35.002  32.369  1.00  0.00     0.000 A 
ENDBRANCH  46  60
BRANCH  47  66
ATOM     66  C   UNL A   1      42.100  23.389  27.584  1.00  0.00    -0.014 A 
ATOM     67  C   UNL A   1      42.266  23.169  26.209  1.00  0.00     0.009 A 
ATOM     68  C   UNL A   1      41.666  22.327  28.396  1.00  0.00     0.009 A 
ATOM     69  C   UNL A   1      41.991  21.915  25.657  1.00  0.00     0.001 A 
ATOM     70  C   UNL A   1      41.417  21.069  27.846  1.00  0.00     0.001 A 
ATOM     71  C   UNL A   1      41.574  20.865  26.475  1.00  0.00     0.000 A 
ENDBRANCH  47  66
BRANCH  59  72
ATOM     72  C   UNL A   1      47.940  26.512  29.738  1.00  0.00    -0.014 A 
ATOM     73  C   UNL A   1      48.451  25.899  30.891  1.00  0.00     0.009 A 
ATOM     74  C   UNL A   1      48.769  26.653  28.614  1.00  0.00     0.009 A 
ATOM     75  C   UNL A   1      49.775  25.456  30.925  1.00  0.00     0.001 A 
ATOM     76  C   UNL A   1      50.084  26.190  28.643  1.00  0.00     0.001 A 
ATOM     77  C   UNL A   1      50.588  25.598  29.800  1.00  0.00     0.000 A 
ENDBRANCH  59  72
ENDBRANCH  33  34
ENDBRANCH  26  28
ENDBRANCH  25  26
ENDBRANCH  24  25
ENDBRANCH   1  24
TORSDOF 14
ENDMDL
