MODEL 1
REMARK VINA RESULT:     -10.1      0.000      0.000
REMARK SMILES C[N@H+]1CC[C@@H](Cc2nccnc2C(=O)OCCOC(=O)c2ccc(-c3c4nc(c(-c5ccccc5)c5ccc([nH]5)c(-c5ccccc5)c5nc(c(-c6ccccc6)c6ccc3[nH]6)C=C5)C=C4)cc2)C1
REMARK SMILES IDX 16 1 15 2 13 3 14 4 12 5 7 6 8 7 9 8 11 9 10 10 6 11 5 12
REMARK SMILES IDX 1 13 2 14 3 15 69 16 4 18 17 19 18 20 19 21 20 22 21 23
REMARK SMILES IDX 22 24 68 25 23 26 67 27 24 28 25 29 26 30 61 31 27 32 66 33
REMARK SMILES IDX 60 34 62 35 28 36 65 37 59 38 58 39 29 41 51 42 36 43 50 44
REMARK SMILES IDX 37 45 40 46 49 47 63 48 38 49 39 50 48 52 64 53 41 54 30 55
REMARK SMILES IDX 31 56 35 57 32 58 34 59 33 60 52 61 53 62 57 63 54 64 56 65
REMARK SMILES IDX 55 66 42 67 43 68 47 69 44 70 46 71 45 72
REMARK H PARENT 2 17 62 40 40 51
REMARK Flexibility Score: inf
ROOT
ATOM      1  C   UNL A   1      35.219  35.174  32.924  1.00  0.00     0.275 C 
ENDROOT
BRANCH   1   2
ATOM      2  O   UNL A   1      34.009  35.953  32.821  1.00  0.00    -0.457 OA
BRANCH   2   3
ATOM      3  C   UNL A   1      33.066  35.516  31.947  1.00  0.00     0.358 C 
ATOM      4  O   UNL A   1      32.024  34.960  32.251  1.00  0.00    -0.244 OA
BRANCH   3   5
ATOM      5  C   UNL A   1      33.419  35.907  30.548  1.00  0.00     0.169 A 
ATOM      6  C   UNL A   1      33.990  35.055  29.599  1.00  0.00     0.074 A 
ATOM      7  N   UNL A   1      34.304  35.513  28.349  1.00  0.00    -0.257 NA
ATOM      8  C   UNL A   1      34.041  36.811  28.086  1.00  0.00     0.131 A 
ATOM      9  N   UNL A   1      33.120  37.211  30.251  1.00  0.00    -0.246 NA
ATOM     10  C   UNL A   1      33.453  37.640  29.016  1.00  0.00     0.132 A 
BRANCH   6  11
ATOM     11  C   UNL A   1      34.236  33.583  29.803  1.00  0.00     0.068 C 
BRANCH  11  12
ATOM     12  C   UNL A   1      34.531  32.828  28.502  1.00  0.00     0.056 C 
ATOM     13  C   UNL A   1      35.528  29.446  27.518  1.00  0.00     0.332 C 
ATOM     14  N   UNL A   1      35.025  30.811  27.470  1.00  0.00    -0.337 N 
ATOM     15  C   UNL A   1      33.566  30.877  27.414  1.00  0.00     0.262 C 
ATOM     16  C   UNL A   1      35.390  31.575  28.665  1.00  0.00     0.266 C 
ATOM     17  H   UNL A   1      35.445  31.198  26.625  1.00  0.00     0.347 HD
ATOM     18  C   UNL A   1      33.258  32.318  27.812  1.00  0.00     0.071 C 
ENDBRANCH  11  12
ENDBRANCH   6  11
ENDBRANCH   3   5
ENDBRANCH   2   3
ENDBRANCH   1   2
BRANCH   1  19
ATOM     19  C   UNL A   1      35.002  33.976  33.851  1.00  0.00     0.275 C 
BRANCH  19  20
ATOM     20  O   UNL A   1      35.566  32.779  33.282  1.00  0.00    -0.458 OA
BRANCH  20  21
ATOM     21  C   UNL A   1      36.704  32.351  33.873  1.00  0.00     0.338 C 
ATOM     22  O   UNL A   1      36.959  32.339  35.068  1.00  0.00    -0.246 OA
BRANCH  21  23
ATOM     23  C   UNL A   1      37.584  31.742  32.867  1.00  0.00     0.060 A 
ATOM     24  C   UNL A   1      38.542  30.833  33.322  1.00  0.00     0.016 A 
ATOM     25  C   UNL A   1      37.534  32.104  31.521  1.00  0.00     0.016 A 
ATOM     26  C   UNL A   1      39.471  30.295  32.441  1.00  0.00     0.010 A 
ATOM     27  C   UNL A   1      38.470  31.562  30.631  1.00  0.00     0.010 A 
ATOM     28  C   UNL A   1      39.456  30.669  31.092  1.00  0.00    -0.014 A 
BRANCH  28  29
ATOM     29  C   UNL A   1      40.532  30.182  30.197  1.00  0.00     0.031 A 
ATOM     30  C   UNL A   1      41.756  31.023  29.979  1.00  0.00     0.074 A 
ATOM     31  C   UNL A   1      40.442  28.964  29.633  1.00  0.00     0.049 A 
ATOM     32  N   UNL A   1      42.795  30.790  29.218  1.00  0.00    -0.248 NA
ATOM     33  C   UNL A   1      41.824  32.293  30.719  1.00  0.00     0.031 C 
ATOM     34  C   UNL A   1      39.333  28.025  29.818  1.00  0.00     0.029 A 
ATOM     35  N   UNL A   1      41.309  28.301  28.801  1.00  0.00    -0.354 N 
ATOM     36  C   UNL A   1      43.627  31.892  29.367  1.00  0.00     0.074 A 
ATOM     37  C   UNL A   1      42.969  32.799  30.283  1.00  0.00     0.031 C 
ATOM     38  C   UNL A   1      39.597  26.900  29.132  1.00  0.00     0.029 A 
ATOM     39  C   UNL A   1      40.866  27.057  28.428  1.00  0.00     0.049 A 
ATOM     40  H   UNL A   1      42.166  28.682  28.502  1.00  0.00     0.167 HD
ATOM     41  C   UNL A   1      44.831  32.127  28.795  1.00  0.00     0.031 A 
ATOM     42  C   UNL A   1      41.415  26.150  27.596  1.00  0.00     0.031 A 
ATOM     43  C   UNL A   1      45.493  31.224  27.893  1.00  0.00     0.049 A 
ATOM     44  C   UNL A   1      42.725  26.461  26.929  1.00  0.00     0.074 A 
ATOM     45  C   UNL A   1      46.715  31.376  27.260  1.00  0.00     0.029 A 
ATOM     46  N   UNL A   1      44.987  29.996  27.498  1.00  0.00    -0.354 N 
ATOM     47  N   UNL A   1      43.492  27.516  27.064  1.00  0.00    -0.248 NA
ATOM     48  C   UNL A   1      43.242  25.455  25.990  1.00  0.00     0.031 C 
ATOM     49  C   UNL A   1      46.931  30.254  26.452  1.00  0.00     0.029 A 
ATOM     50  C   UNL A   1      45.863  29.387  26.616  1.00  0.00     0.049 A 
ATOM     51  H   UNL A   1      44.132  29.613  27.800  1.00  0.00     0.167 HD
ATOM     52  C   UNL A   1      44.586  27.296  26.239  1.00  0.00     0.074 A 
ATOM     53  C   UNL A   1      44.394  26.000  25.621  1.00  0.00     0.031 C 
ATOM     54  C   UNL A   1      45.654  28.099  26.009  1.00  0.00     0.031 A 
BRANCH  41  55
ATOM     55  C   UNL A   1      45.492  33.439  29.102  1.00  0.00    -0.014 A 
ATOM     56  C   UNL A   1      46.376  33.577  30.183  1.00  0.00     0.009 A 
ATOM     57  C   UNL A   1      45.240  34.550  28.281  1.00  0.00     0.009 A 
ATOM     58  C   UNL A   1      46.970  34.812  30.454  1.00  0.00     0.001 A 
ATOM     59  C   UNL A   1      45.853  35.777  28.542  1.00  0.00     0.001 A 
ATOM     60  C   UNL A   1      46.711  35.909  29.632  1.00  0.00     0.000 A 
ENDBRANCH  41  55
BRANCH  42  61
ATOM     61  C   UNL A   1      40.711  24.872  27.325  1.00  0.00    -0.014 A 
ATOM     62  C   UNL A   1      39.564  24.844  26.517  1.00  0.00     0.009 A 
ATOM     63  C   UNL A   1      41.181  23.672  27.880  1.00  0.00     0.009 A 
ATOM     64  C   UNL A   1      38.894  23.641  26.284  1.00  0.00     0.001 A 
ATOM     65  C   UNL A   1      40.523  22.467  27.626  1.00  0.00     0.001 A 
ATOM     66  C   UNL A   1      39.376  22.454  26.835  1.00  0.00     0.000 A 
ENDBRANCH  42  61
BRANCH  54  67
ATOM     67  C   UNL A   1      46.704  27.585  25.069  1.00  0.00    -0.014 A 
ATOM     68  C   UNL A   1      46.837  28.111  23.775  1.00  0.00     0.009 A 
ATOM     69  C   UNL A   1      47.596  26.589  25.496  1.00  0.00     0.009 A 
ATOM     70  C   UNL A   1      47.826  27.629  22.917  1.00  0.00     0.001 A 
ATOM     71  C   UNL A   1      48.597  26.124  24.643  1.00  0.00     0.001 A 
ATOM     72  C   UNL A   1      48.707  26.639  23.353  1.00  0.00     0.000 A 
ENDBRANCH  54  67
ENDBRANCH  28  29
ENDBRANCH  21  23
ENDBRANCH  20  21
ENDBRANCH  19  20
ENDBRANCH   1  19
TORSDOF 13
ENDMDL
MODEL 2
REMARK VINA RESULT:     -10.0      5.683     10.650
REMARK SMILES C[N@H+]1CC[C@@H](Cc2nccnc2C(=O)OCCOC(=O)c2ccc(-c3c4nc(c(-c5ccccc5)c5ccc([nH]5)c(-c5ccccc5)c5nc(c(-c6ccccc6)c6ccc3[nH]6)C=C5)C=C4)cc2)C1
REMARK SMILES IDX 16 1 15 2 13 3 14 4 12 5 7 6 8 7 9 8 11 9 10 10 6 11 5 12
REMARK SMILES IDX 1 13 2 14 3 15 69 16 4 18 17 19 18 20 19 21 20 22 21 23
REMARK SMILES IDX 22 24 68 25 23 26 67 27 24 28 25 29 26 30 61 31 27 32 66 33
REMARK SMILES IDX 60 34 62 35 28 36 65 37 59 38 58 39 29 41 51 42 36 43 50 44
REMARK SMILES IDX 37 45 40 46 49 47 63 48 38 49 39 50 48 52 64 53 41 54 30 55
REMARK SMILES IDX 31 56 35 57 32 58 34 59 33 60 52 61 53 62 57 63 54 64 56 65
REMARK SMILES IDX 55 66 42 67 43 68 47 69 44 70 46 71 45 72
REMARK H PARENT 2 17 62 40 40 51
REMARK Flexibility Score: inf
ROOT
ATOM      1  C   UNL A   1      38.017  21.217  25.397  1.00  0.00     0.275 C 
ENDROOT
BRANCH   1   2
ATOM      2  O   UNL A   1      36.618  20.920  25.208  1.00  0.00    -0.457 OA
BRANCH   2   3
ATOM      3  C   UNL A   1      35.874  21.845  24.549  1.00  0.00     0.358 C 
ATOM      4  O   UNL A   1      36.172  22.370  23.490  1.00  0.00    -0.244 OA
BRANCH   3   5
ATOM      5  C   UNL A   1      34.567  22.062  25.243  1.00  0.00     0.169 A 
ATOM      6  C   UNL A   1      33.435  21.257  25.086  1.00  0.00     0.074 A 
ATOM      7  N   UNL A   1      32.273  21.551  25.744  1.00  0.00    -0.257 NA
ATOM      8  C   UNL A   1      32.275  22.646  26.535  1.00  0.00     0.131 A 
ATOM      9  N   UNL A   1      34.564  23.145  26.082  1.00  0.00    -0.246 NA
ATOM     10  C   UNL A   1      33.400  23.421  26.706  1.00  0.00     0.132 A 
BRANCH   6  11
ATOM     11  C   UNL A   1      33.391  19.984  24.283  1.00  0.00     0.068 C 
BRANCH  11  12
ATOM     12  C   UNL A   1      33.825  18.746  25.076  1.00  0.00     0.056 C 
ATOM     13  C   UNL A   1      32.492  15.419  25.818  1.00  0.00     0.332 C 
ATOM     14  N   UNL A   1      33.402  16.544  25.668  1.00  0.00    -0.337 N 
ATOM     15  C   UNL A   1      34.266  16.425  24.495  1.00  0.00     0.262 C 
ATOM     16  C   UNL A   1      32.688  17.809  25.481  1.00  0.00     0.266 C 
ATOM     17  H   UNL A   1      33.947  16.536  26.531  1.00  0.00     0.347 HD
ATOM     18  C   UNL A   1      34.786  17.845  24.288  1.00  0.00     0.071 C 
ENDBRANCH  11  12
ENDBRANCH   6  11
ENDBRANCH   3   5
ENDBRANCH   2   3
ENDBRANCH   1   2
BRANCH   1  19
ATOM     19  C   UNL A   1      38.866  19.973  25.125  1.00  0.00     0.275 C 
BRANCH  19  20
ATOM     20  O   UNL A   1      39.636  19.615  26.289  1.00  0.00    -0.458 OA
BRANCH  20  21
ATOM     21  C   UNL A   1      40.976  19.651  26.116  1.00  0.00     0.338 C 
ATOM     22  O   UNL A   1      41.672  18.827  25.541  1.00  0.00    -0.246 OA
BRANCH  21  23
ATOM     23  C   UNL A   1      41.502  20.933  26.603  1.00  0.00     0.060 A 
ATOM     24  C   UNL A   1      41.357  21.207  27.965  1.00  0.00     0.016 A 
ATOM     25  C   UNL A   1      42.055  21.883  25.744  1.00  0.00     0.016 A 
ATOM     26  C   UNL A   1      41.741  22.440  28.476  1.00  0.00     0.010 A 
ATOM     27  C   UNL A   1      42.443  23.126  26.258  1.00  0.00     0.010 A 
ATOM     28  C   UNL A   1      42.270  23.418  27.624  1.00  0.00    -0.014 A 
BRANCH  28  29
ATOM     29  C   UNL A   1      42.556  24.767  28.165  1.00  0.00     0.031 A 
ATOM     30  C   UNL A   1      43.965  25.144  28.520  1.00  0.00     0.074 A 
ATOM     31  C   UNL A   1      41.567  25.674  28.277  1.00  0.00     0.049 A 
ATOM     32  N   UNL A   1      44.420  26.261  29.029  1.00  0.00    -0.248 NA
ATOM     33  C   UNL A   1      45.002  24.131  28.264  1.00  0.00     0.031 C 
ATOM     34  C   UNL A   1      40.168  25.451  27.906  1.00  0.00     0.029 A 
ATOM     35  N   UNL A   1      41.595  26.971  28.722  1.00  0.00    -0.354 N 
ATOM     36  C   UNL A   1      45.789  26.078  29.177  1.00  0.00     0.074 A 
ATOM     37  C   UNL A   1      46.090  24.740  28.715  1.00  0.00     0.031 C 
ATOM     38  C   UNL A   1      39.475  26.582  28.124  1.00  0.00     0.029 A 
ATOM     39  C   UNL A   1      40.370  27.588  28.688  1.00  0.00     0.049 A 
ATOM     40  H   UNL A   1      42.415  27.416  29.035  1.00  0.00     0.167 HD
ATOM     41  C   UNL A   1      46.711  26.947  29.653  1.00  0.00     0.031 A 
ATOM     42  C   UNL A   1      40.004  28.823  29.084  1.00  0.00     0.031 A 
ATOM     43  C   UNL A   1      46.417  28.280  30.104  1.00  0.00     0.049 A 
ATOM     44  C   UNL A   1      41.039  29.746  29.664  1.00  0.00     0.074 A 
ATOM     45  C   UNL A   1      47.286  29.233  30.606  1.00  0.00     0.029 A 
ATOM     46  N   UNL A   1      45.154  28.849  30.103  1.00  0.00    -0.354 N 
ATOM     47  N   UNL A   1      42.326  29.554  29.816  1.00  0.00    -0.248 NA
ATOM     48  C   UNL A   1      40.565  31.058  30.129  1.00  0.00     0.031 C 
ATOM     49  C   UNL A   1      46.542  30.369  30.943  1.00  0.00     0.029 A 
ATOM     50  C   UNL A   1      45.216  30.135  30.612  1.00  0.00     0.049 A 
ATOM     51  H   UNL A   1      44.334  28.406  29.787  1.00  0.00     0.167 HD
ATOM     52  C   UNL A   1      42.819  30.721  30.383  1.00  0.00     0.074 A 
ATOM     53  C   UNL A   1      41.696  31.625  30.530  1.00  0.00     0.031 C 
ATOM     54  C   UNL A   1      44.089  31.017  30.753  1.00  0.00     0.031 A 
BRANCH  41  55
ATOM     55  C   UNL A   1      48.128  26.458  29.748  1.00  0.00    -0.014 A 
ATOM     56  C   UNL A   1      49.032  26.630  28.689  1.00  0.00     0.009 A 
ATOM     57  C   UNL A   1      48.568  25.834  30.926  1.00  0.00     0.009 A 
ATOM     58  C   UNL A   1      50.342  26.157  28.797  1.00  0.00     0.001 A 
ATOM     59  C   UNL A   1      49.884  25.383  31.039  1.00  0.00     0.001 A 
ATOM     60  C   UNL A   1      50.767  25.538  29.972  1.00  0.00     0.000 A 
ENDBRANCH  41  55
BRANCH  42  61
ATOM     61  C   UNL A   1      38.586  29.248  28.974  1.00  0.00    -0.014 A 
ATOM     62  C   UNL A   1      37.729  29.177  30.082  1.00  0.00     0.009 A 
ATOM     63  C   UNL A   1      38.081  29.720  27.752  1.00  0.00     0.009 A 
ATOM     64  C   UNL A   1      36.390  29.557  29.965  1.00  0.00     0.001 A 
ATOM     65  C   UNL A   1      36.749  30.123  27.644  1.00  0.00     0.001 A 
ATOM     66  C   UNL A   1      35.902  30.033  28.749  1.00  0.00     0.000 A 
ENDBRANCH  42  61
BRANCH  54  67
ATOM     67  C   UNL A   1      44.330  32.382  31.329  1.00  0.00    -0.014 A 
ATOM     68  C   UNL A   1      44.221  32.614  32.709  1.00  0.00     0.009 A 
ATOM     69  C   UNL A   1      44.709  33.438  30.487  1.00  0.00     0.009 A 
ATOM     70  C   UNL A   1      44.459  33.887  33.230  1.00  0.00     0.001 A 
ATOM     71  C   UNL A   1      44.967  34.704  31.013  1.00  0.00     0.001 A 
ATOM     72  C   UNL A   1      44.835  34.929  32.382  1.00  0.00     0.000 A 
ENDBRANCH  54  67
ENDBRANCH  28  29
ENDBRANCH  21  23
ENDBRANCH  20  21
ENDBRANCH  19  20
ENDBRANCH   1  19
TORSDOF 13
ENDMDL
MODEL 3
REMARK VINA RESULT:     -10.0      5.728     10.987
REMARK SMILES C[N@H+]1CC[C@@H](Cc2nccnc2C(=O)OCCOC(=O)c2ccc(-c3c4nc(c(-c5ccccc5)c5ccc([nH]5)c(-c5ccccc5)c5nc(c(-c6ccccc6)c6ccc3[nH]6)C=C5)C=C4)cc2)C1
REMARK SMILES IDX 16 1 15 2 13 3 14 4 12 5 7 6 8 7 9 8 11 9 10 10 6 11 5 12
REMARK SMILES IDX 1 13 2 14 3 15 69 16 4 18 17 19 18 20 19 21 20 22 21 23
REMARK SMILES IDX 22 24 68 25 23 26 67 27 24 28 25 29 26 30 61 31 27 32 66 33
REMARK SMILES IDX 60 34 62 35 28 36 65 37 59 38 58 39 29 41 51 42 36 43 50 44
REMARK SMILES IDX 37 45 40 46 49 47 63 48 38 49 39 50 48 52 64 53 41 54 30 55
REMARK SMILES IDX 31 56 35 57 32 58 34 59 33 60 52 61 53 62 57 63 54 64 56 65
REMARK SMILES IDX 55 66 42 67 43 68 47 69 44 70 46 71 45 72
REMARK H PARENT 2 17 62 40 40 51
REMARK Flexibility Score: inf
ROOT
ATOM      1  C   UNL A   1      37.262  20.359  24.959  1.00  0.00     0.275 C 
ENDROOT
BRANCH   1   2
ATOM      2  O   UNL A   1      36.148  21.071  25.538  1.00  0.00    -0.457 OA
BRANCH   2   3
ATOM      3  C   UNL A   1      35.409  21.847  24.704  1.00  0.00     0.358 C 
ATOM      4  O   UNL A   1      35.804  22.337  23.659  1.00  0.00    -0.244 OA
BRANCH   3   5
ATOM      5  C   UNL A   1      33.994  21.936  25.180  1.00  0.00     0.169 A 
ATOM      6  C   UNL A   1      32.985  21.023  24.862  1.00  0.00     0.074 A 
ATOM      7  N   UNL A   1      31.710  21.204  25.324  1.00  0.00    -0.257 NA
ATOM      8  C   UNL A   1      31.482  22.296  26.086  1.00  0.00     0.131 A 
ATOM      9  N   UNL A   1      33.755  23.016  25.988  1.00  0.00    -0.246 NA
ATOM     10  C   UNL A   1      32.486  23.178  26.417  1.00  0.00     0.132 A 
BRANCH   6  11
ATOM     11  C   UNL A   1      33.191  19.750  24.084  1.00  0.00     0.068 C 
BRANCH  11  12
ATOM     12  C   UNL A   1      33.613  18.563  24.958  1.00  0.00     0.056 C 
ATOM     13  C   UNL A   1      32.385  15.197  25.704  1.00  0.00     0.332 C 
ATOM     14  N   UNL A   1      33.248  16.363  25.592  1.00  0.00    -0.337 N 
ATOM     15  C   UNL A   1      34.218  16.251  24.504  1.00  0.00     0.262 C 
ATOM     16  C   UNL A   1      32.492  17.582  25.297  1.00  0.00     0.266 C 
ATOM     17  H   UNL A   1      33.715  16.411  26.499  1.00  0.00     0.347 HD
ATOM     18  C   UNL A   1      34.683  17.688  24.290  1.00  0.00     0.071 C 
ENDBRANCH  11  12
ENDBRANCH   6  11
ENDBRANCH   3   5
ENDBRANCH   2   3
ENDBRANCH   1   2
BRANCH   1  19
ATOM     19  C   UNL A   1      38.584  20.944  25.461  1.00  0.00     0.275 C 
BRANCH  19  20
ATOM     20  O   UNL A   1      39.252  20.018  26.339  1.00  0.00    -0.458 OA
BRANCH  20  21
ATOM     21  C   UNL A   1      40.589  19.929  26.159  1.00  0.00     0.338 C 
ATOM     22  O   UNL A   1      41.203  19.039  25.588  1.00  0.00    -0.246 OA
BRANCH  21  23
ATOM     23  C   UNL A   1      41.234  21.161  26.633  1.00  0.00     0.060 A 
ATOM     24  C   UNL A   1      41.144  21.446  27.997  1.00  0.00     0.016 A 
ATOM     25  C   UNL A   1      41.845  22.061  25.760  1.00  0.00     0.016 A 
ATOM     26  C   UNL A   1      41.644  22.641  28.497  1.00  0.00     0.010 A 
ATOM     27  C   UNL A   1      42.350  23.266  26.264  1.00  0.00     0.010 A 
ATOM     28  C   UNL A   1      42.234  23.570  27.633  1.00  0.00    -0.014 A 
BRANCH  28  29
ATOM     29  C   UNL A   1      42.646  24.890  28.165  1.00  0.00     0.031 A 
ATOM     30  C   UNL A   1      41.612  25.952  28.405  1.00  0.00     0.074 A 
ATOM     31  C   UNL A   1      43.932  25.114  28.495  1.00  0.00     0.049 A 
ATOM     32  N   UNL A   1      41.769  27.177  28.840  1.00  0.00    -0.248 NA
ATOM     33  C   UNL A   1      40.215  25.587  28.121  1.00  0.00     0.031 C 
ATOM     34  C   UNL A   1      45.019  24.142  28.370  1.00  0.00     0.029 A 
ATOM     35  N   UNL A   1      44.535  26.230  29.018  1.00  0.00    -0.354 N 
ATOM     36  C   UNL A   1      40.498  27.736  28.860  1.00  0.00     0.074 A 
ATOM     37  C   UNL A   1      39.582  26.722  28.382  1.00  0.00     0.031 C 
ATOM     38  C   UNL A   1      46.155  24.701  28.821  1.00  0.00     0.029 A 
ATOM     39  C   UNL A   1      45.883  26.078  29.223  1.00  0.00     0.049 A 
ATOM     40  H   UNL A   1      44.047  27.059  29.226  1.00  0.00     0.167 HD
ATOM     41  C   UNL A   1      40.127  28.981  29.242  1.00  0.00     0.031 A 
ATOM     42  C   UNL A   1      46.801  26.957  29.669  1.00  0.00     0.031 A 
ATOM     43  C   UNL A   1      41.033  29.987  29.726  1.00  0.00     0.049 A 
ATOM     44  C   UNL A   1      46.372  28.350  30.032  1.00  0.00     0.074 A 
ATOM     45  C   UNL A   1      40.750  31.279  30.134  1.00  0.00     0.029 A 
ATOM     46  N   UNL A   1      42.400  29.810  29.869  1.00  0.00    -0.354 N 
ATOM     47  N   UNL A   1      45.170  28.872  30.027  1.00  0.00    -0.248 NA
ATOM     48  C   UNL A   1      47.430  29.277  30.458  1.00  0.00     0.031 C 
ATOM     49  C   UNL A   1      41.954  31.897  30.491  1.00  0.00     0.029 A 
ATOM     50  C   UNL A   1      42.978  30.975  30.343  1.00  0.00     0.049 A 
ATOM     51  H   UNL A   1      42.887  28.980  29.664  1.00  0.00     0.167 HD
ATOM     52  C   UNL A   1      45.324  30.182  30.459  1.00  0.00     0.074 A 
ATOM     53  C   UNL A   1      46.733  30.371  30.737  1.00  0.00     0.031 C 
ATOM     54  C   UNL A   1      44.382  31.145  30.610  1.00  0.00     0.031 A 
BRANCH  41  55
ATOM     55  C   UNL A   1      38.674  29.333  29.110  1.00  0.00    -0.014 A 
ATOM     56  C   UNL A   1      37.806  29.278  30.212  1.00  0.00     0.009 A 
ATOM     57  C   UNL A   1      38.171  29.748  27.867  1.00  0.00     0.009 A 
ATOM     58  C   UNL A   1      36.455  29.602  30.061  1.00  0.00     0.001 A 
ATOM     59  C   UNL A   1      36.826  30.092  27.725  1.00  0.00     0.001 A 
ATOM     60  C   UNL A   1      35.968  30.011  28.820  1.00  0.00     0.000 A 
ENDBRANCH  41  55
BRANCH  42  61
ATOM     61  C   UNL A   1      48.226  26.553  29.771  1.00  0.00    -0.014 A 
ATOM     62  C   UNL A   1      49.109  26.768  28.702  1.00  0.00     0.009 A 
ATOM     63  C   UNL A   1      48.709  25.942  30.939  1.00  0.00     0.009 A 
ATOM     64  C   UNL A   1      50.443  26.364  28.796  1.00  0.00     0.001 A 
ATOM     65  C   UNL A   1      50.048  25.562  31.040  1.00  0.00     0.001 A 
ATOM     66  C   UNL A   1      50.912  25.766  29.965  1.00  0.00     0.000 A 
ENDBRANCH  42  61
BRANCH  54  67
ATOM     67  C   UNL A   1      44.845  32.479  31.118  1.00  0.00    -0.014 A 
ATOM     68  C   UNL A   1      45.193  33.510  30.232  1.00  0.00     0.009 A 
ATOM     69  C   UNL A   1      44.898  32.719  32.500  1.00  0.00     0.009 A 
ATOM     70  C   UNL A   1      45.612  34.748  30.721  1.00  0.00     0.001 A 
ATOM     71  C   UNL A   1      45.297  33.964  32.985  1.00  0.00     0.001 A 
ATOM     72  C   UNL A   1      45.660  34.975  32.097  1.00  0.00     0.000 A 
ENDBRANCH  54  67
ENDBRANCH  28  29
ENDBRANCH  21  23
ENDBRANCH  20  21
ENDBRANCH  19  20
ENDBRANCH   1  19
TORSDOF 13
ENDMDL
