MODEL 1
REMARK VINA RESULT:     -12.5      0.000      0.000
REMARK SMILES O=C(N[C@]1(C(=O)OCCOC(=O)c2ccc(-c3c4nc(c(-c5ccccc5)c5ccc([nH]5)c(-c5ccccc5)c5nc(c(-c6ccccc6)c6ccc3[nH]6)C=C5)C=C4)cc2)CC[C@H](c2ccccc2)CC1)OCC1c2ccccc2-c2ccccc21
REMARK SMILES IDX 8 1 7 2 5 3 6 4 4 5 61 6 71 7 62 8 70 9 63 10 3 11 1 12 2 13
REMARK SMILES IDX 72 15 73 16 74 17 75 18 86 19 76 20 80 21 81 22 85 23 77 24
REMARK SMILES IDX 79 25 82 26 84 27 78 28 83 29 64 30 65 31 69 32 66 33 68 34
REMARK SMILES IDX 67 35 9 36 10 37 11 38 12 39 13 40 14 41 60 42 15 43 59 44
REMARK SMILES IDX 16 45 17 46 18 47 53 48 19 49 58 50 52 51 54 52 20 53 57 54
REMARK SMILES IDX 51 55 50 56 21 58 43 59 28 60 42 61 29 62 32 63 41 64 55 65
REMARK SMILES IDX 30 66 31 67 40 69 56 70 33 71 22 72 23 73 27 74 24 75 26 76
REMARK SMILES IDX 25 77 44 78 45 79 49 80 46 81 48 82 47 83 34 84 35 85 39 86
REMARK SMILES IDX 36 87 38 88 37 89
REMARK H PARENT 3 14 54 57 32 68
REMARK Flexibility Score: inf
ROOT
ATOM      1  C   UNL A   1      32.038  30.260  26.791  1.00  0.00     0.274 C 
ENDROOT
BRANCH   1   2
ATOM      2  O   UNL A   1      32.564  28.919  26.890  1.00  0.00    -0.460 OA
BRANCH   2   3
ATOM      3  C   UNL A   1      31.638  27.929  27.040  1.00  0.00     0.332 C 
ATOM      4  O   UNL A   1      30.958  27.778  28.052  1.00  0.00    -0.249 OA
BRANCH   3   5
ATOM      5  C   UNL A   1      31.672  26.904  25.865  1.00  0.00     0.141 C 
ATOM      6  C   UNL A   1      33.169  26.710  25.629  1.00  0.00     0.041 C 
ATOM      7  C   UNL A   1      30.873  27.339  24.618  1.00  0.00     0.041 C 
ATOM      8  C   UNL A   1      33.816  27.524  24.527  1.00  0.00     0.011 C 
ATOM      9  C   UNL A   1      31.632  28.082  23.525  1.00  0.00     0.011 C 
ATOM     10  C   UNL A   1      33.028  27.516  23.223  1.00  0.00     0.019 C 
BRANCH   5  11
ATOM     11  N   UNL A   1      30.960  25.667  26.332  1.00  0.00    -0.305 N 
ATOM     12  O   UNL A   1      30.696  23.693  27.375  1.00  0.00    -0.225 OA
ATOM     13  C   UNL A   1      31.419  24.462  26.758  1.00  0.00     0.408 C 
ATOM     14  H   UNL A   1      29.978  25.745  26.328  1.00  0.00     0.168 HD
BRANCH  13  15
ATOM     15  O   UNL A   1      32.717  24.216  26.465  1.00  0.00    -0.449 OA
BRANCH  15  16
ATOM     16  C   UNL A   1      32.912  22.853  26.127  1.00  0.00     0.248 C 
BRANCH  16  17
ATOM     17  C   UNL A   1      33.957  22.610  25.006  1.00  0.00     0.088 C 
ATOM     18  C   UNL A   1      35.454  22.653  25.320  1.00  0.00    -0.029 A 
ATOM     19  C   UNL A   1      33.792  21.144  24.591  1.00  0.00    -0.029 A 
ATOM     20  C   UNL A   1      36.256  23.746  25.623  1.00  0.00     0.005 A 
ATOM     21  C   UNL A   1      36.018  21.360  25.201  1.00  0.00    -0.014 A 
ATOM     22  C   UNL A   1      34.976  20.426  24.840  1.00  0.00    -0.014 A 
ATOM     23  C   UNL A   1      32.621  20.512  24.196  1.00  0.00     0.005 A 
ATOM     24  C   UNL A   1      37.628  23.533  25.816  1.00  0.00     0.000 A 
ATOM     25  C   UNL A   1      37.375  21.147  25.404  1.00  0.00     0.009 A 
ATOM     26  C   UNL A   1      34.974  19.045  24.784  1.00  0.00     0.009 A 
ATOM     27  C   UNL A   1      32.621  19.122  24.139  1.00  0.00     0.000 A 
ATOM     28  C   UNL A   1      38.183  22.246  25.706  1.00  0.00     0.001 A 
ATOM     29  C   UNL A   1      33.781  18.394  24.449  1.00  0.00     0.001 A 
ENDBRANCH  16  17
ENDBRANCH  15  16
ENDBRANCH  13  15
ENDBRANCH   5  11
BRANCH  10  30
ATOM     30  C   UNL A   1      33.049  26.227  22.397  1.00  0.00    -0.045 A 
ATOM     31  C   UNL A   1      33.646  25.016  22.785  1.00  0.00     0.004 A 
ATOM     32  C   UNL A   1      32.497  26.266  21.106  1.00  0.00     0.004 A 
ATOM     33  C   UNL A   1      33.671  23.894  21.950  1.00  0.00     0.000 A 
ATOM     34  C   UNL A   1      32.543  25.156  20.255  1.00  0.00     0.000 A 
ATOM     35  C   UNL A   1      33.124  23.965  20.680  1.00  0.00     0.000 A 
ENDBRANCH  10  30
ENDBRANCH   3   5
ENDBRANCH   2   3
ENDBRANCH   1   2
BRANCH   1  36
ATOM     36  C   UNL A   1      32.994  31.301  27.371  1.00  0.00     0.275 C 
BRANCH  36  37
ATOM     37  O   UNL A   1      34.344  30.806  27.403  1.00  0.00    -0.458 OA
BRANCH  37  38
ATOM     38  C   UNL A   1      35.019  31.086  28.540  1.00  0.00     0.338 C 
ATOM     39  O   UNL A   1      34.651  31.767  29.481  1.00  0.00    -0.246 OA
BRANCH  38  40
ATOM     40  C   UNL A   1      36.272  30.326  28.561  1.00  0.00     0.060 A 
ATOM     41  C   UNL A   1      36.675  29.766  29.773  1.00  0.00     0.016 A 
ATOM     42  C   UNL A   1      37.106  30.284  27.448  1.00  0.00     0.016 A 
ATOM     43  C   UNL A   1      37.928  29.192  29.904  1.00  0.00     0.010 A 
ATOM     44  C   UNL A   1      38.357  29.672  27.567  1.00  0.00     0.010 A 
ATOM     45  C   UNL A   1      38.784  29.145  28.801  1.00  0.00    -0.014 A 
BRANCH  45  46
ATOM     46  C   UNL A   1      40.156  28.621  28.968  1.00  0.00     0.031 A 
ATOM     47  C   UNL A   1      41.223  29.525  29.513  1.00  0.00     0.074 A 
ATOM     48  C   UNL A   1      40.436  27.339  28.670  1.00  0.00     0.049 A 
ATOM     49  N   UNL A   1      42.516  29.340  29.566  1.00  0.00    -0.248 NA
ATOM     50  C   UNL A   1      40.773  30.813  30.067  1.00  0.00     0.031 C 
ATOM     51  C   UNL A   1      39.462  26.336  28.236  1.00  0.00     0.029 A 
ATOM     52  N   UNL A   1      41.627  26.661  28.697  1.00  0.00    -0.354 N 
ATOM     53  C   UNL A   1      43.038  30.509  30.104  1.00  0.00     0.074 A 
ATOM     54  C   UNL A   1      41.925  31.394  30.369  1.00  0.00     0.031 C 
ATOM     55  C   UNL A   1      40.094  25.165  28.051  1.00  0.00     0.029 A 
ATOM     56  C   UNL A   1      41.522  25.360  28.274  1.00  0.00     0.049 A 
ATOM     57  H   UNL A   1      42.474  27.068  28.989  1.00  0.00     0.167 HD
ATOM     58  C   UNL A   1      44.335  30.814  30.343  1.00  0.00     0.031 A 
ATOM     59  C   UNL A   1      42.479  24.441  28.047  1.00  0.00     0.031 A 
ATOM     60  C   UNL A   1      45.429  29.911  30.103  1.00  0.00     0.049 A 
ATOM     61  C   UNL A   1      43.916  24.829  28.251  1.00  0.00     0.074 A 
ATOM     62  C   UNL A   1      46.782  30.122  30.299  1.00  0.00     0.029 A 
ATOM     63  N   UNL A   1      45.287  28.617  29.625  1.00  0.00    -0.354 N 
ATOM     64  N   UNL A   1      44.412  25.961  28.687  1.00  0.00    -0.248 NA
ATOM     65  C   UNL A   1      44.926  23.817  27.911  1.00  0.00     0.031 C 
ATOM     66  C   UNL A   1      47.463  28.967  29.898  1.00  0.00     0.029 A 
ATOM     67  C   UNL A   1      46.529  28.022  29.502  1.00  0.00     0.049 A 
ATOM     68  H   UNL A   1      44.429  28.188  29.405  1.00  0.00     0.167 HD
ATOM     69  C   UNL A   1      45.790  25.794  28.691  1.00  0.00     0.074 A 
ATOM     70  C   UNL A   1      46.049  24.444  28.230  1.00  0.00     0.031 C 
ATOM     71  C   UNL A   1      46.757  26.677  29.040  1.00  0.00     0.031 A 
BRANCH  58  72
ATOM     72  C   UNL A   1      44.639  32.202  30.829  1.00  0.00    -0.014 A 
ATOM     73  C   UNL A   1      44.865  33.264  29.940  1.00  0.00     0.009 A 
ATOM     74  C   UNL A   1      44.685  32.450  32.210  1.00  0.00     0.009 A 
ATOM     75  C   UNL A   1      45.164  34.539  30.427  1.00  0.00     0.001 A 
ATOM     76  C   UNL A   1      44.958  33.731  32.694  1.00  0.00     0.001 A 
ATOM     77  C   UNL A   1      45.207  34.772  31.802  1.00  0.00     0.000 A 
ENDBRANCH  58  72
BRANCH  59  78
ATOM     78  C   UNL A   1      42.114  23.093  27.541  1.00  0.00    -0.014 A 
ATOM     79  C   UNL A   1      42.222  22.788  26.177  1.00  0.00     0.009 A 
ATOM     80  C   UNL A   1      41.651  22.102  28.422  1.00  0.00     0.009 A 
ATOM     81  C   UNL A   1      41.856  21.526  25.703  1.00  0.00     0.001 A 
ATOM     82  C   UNL A   1      41.315  20.832  27.951  1.00  0.00     0.001 A 
ATOM     83  C   UNL A   1      41.409  20.548  26.591  1.00  0.00     0.000 A 
ENDBRANCH  59  78
BRANCH  71  84
ATOM     84  C   UNL A   1      48.175  26.193  28.970  1.00  0.00    -0.014 A 
ATOM     85  C   UNL A   1      48.814  25.653  30.096  1.00  0.00     0.009 A 
ATOM     86  C   UNL A   1      48.867  26.251  27.750  1.00  0.00     0.009 A 
ATOM     87  C   UNL A   1      50.134  25.205  30.007  1.00  0.00     0.001 A 
ATOM     88  C   UNL A   1      50.176  25.779  27.659  1.00  0.00     0.001 A 
ATOM     89  C   UNL A   1      50.811  25.265  28.788  1.00  0.00     0.000 A 
ENDBRANCH  71  84
ENDBRANCH  45  46
ENDBRANCH  38  40
ENDBRANCH  37  38
ENDBRANCH  36  37
ENDBRANCH   1  36
TORSDOF 16
ENDMDL
MODEL 2
REMARK VINA RESULT:     -12.5      1.351      3.109
REMARK SMILES O=C(N[C@]1(C(=O)OCCOC(=O)c2ccc(-c3c4nc(c(-c5ccccc5)c5ccc([nH]5)c(-c5ccccc5)c5nc(c(-c6ccccc6)c6ccc3[nH]6)C=C5)C=C4)cc2)CC[C@H](c2ccccc2)CC1)OCC1c2ccccc2-c2ccccc21
REMARK SMILES IDX 8 1 7 2 5 3 6 4 4 5 61 6 71 7 62 8 70 9 63 10 3 11 1 12 2 13
REMARK SMILES IDX 72 15 73 16 74 17 75 18 86 19 76 20 80 21 81 22 85 23 77 24
REMARK SMILES IDX 79 25 82 26 84 27 78 28 83 29 64 30 65 31 69 32 66 33 68 34
REMARK SMILES IDX 67 35 9 36 10 37 11 38 12 39 13 40 14 41 60 42 15 43 59 44
REMARK SMILES IDX 16 45 17 46 18 47 53 48 19 49 58 50 52 51 54 52 20 53 57 54
REMARK SMILES IDX 51 55 50 56 21 58 43 59 28 60 42 61 29 62 32 63 41 64 55 65
REMARK SMILES IDX 30 66 31 67 40 69 56 70 33 71 22 72 23 73 27 74 24 75 26 76
REMARK SMILES IDX 25 77 44 78 45 79 49 80 46 81 48 82 47 83 34 84 35 85 39 86
REMARK SMILES IDX 36 87 38 88 37 89
REMARK H PARENT 3 14 54 57 32 68
REMARK Flexibility Score: inf
ROOT
ATOM      1  C   UNL A   1      32.575  30.026  25.299  1.00  0.00     0.274 C 
ENDROOT
BRANCH   1   2
ATOM      2  O   UNL A   1      33.479  29.291  24.446  1.00  0.00    -0.460 OA
BRANCH   2   3
ATOM      3  C   UNL A   1      32.894  28.557  23.456  1.00  0.00     0.332 C 
ATOM      4  O   UNL A   1      32.358  29.050  22.468  1.00  0.00    -0.249 OA
BRANCH   3   5
ATOM      5  C   UNL A   1      32.817  27.041  23.811  1.00  0.00     0.141 C 
ATOM      6  C   UNL A   1      31.345  26.855  24.181  1.00  0.00     0.041 C 
ATOM      7  C   UNL A   1      33.817  26.589  24.896  1.00  0.00     0.041 C 
ATOM      8  C   UNL A   1      30.982  26.899  25.651  1.00  0.00     0.011 C 
ATOM      9  C   UNL A   1      33.330  26.591  26.341  1.00  0.00     0.011 C 
ATOM     10  C   UNL A   1      31.900  26.060  26.529  1.00  0.00     0.019 C 
BRANCH   5  11
ATOM     11  N   UNL A   1      33.243  26.275  22.592  1.00  0.00    -0.305 N 
ATOM     12  O   UNL A   1      33.393  24.528  21.184  1.00  0.00    -0.225 OA
ATOM     13  C   UNL A   1      33.304  24.943  22.331  1.00  0.00     0.408 C 
ATOM     14  H   UNL A   1      33.533  26.845  21.843  1.00  0.00     0.168 HD
BRANCH  13  15
ATOM     15  O   UNL A   1      33.232  24.150  23.425  1.00  0.00    -0.449 OA
BRANCH  15  16
ATOM     16  C   UNL A   1      34.049  23.001  23.273  1.00  0.00     0.248 C 
BRANCH  16  17
ATOM     17  C   UNL A   1      34.176  22.127  24.549  1.00  0.00     0.088 C 
ATOM     18  C   UNL A   1      34.325  20.608  24.435  1.00  0.00    -0.029 A 
ATOM     19  C   UNL A   1      35.520  22.502  25.181  1.00  0.00    -0.029 A 
ATOM     20  C   UNL A   1      33.383  19.659  24.060  1.00  0.00     0.005 A 
ATOM     21  C   UNL A   1      35.621  20.210  24.846  1.00  0.00    -0.014 A 
ATOM     22  C   UNL A   1      36.375  21.385  25.218  1.00  0.00    -0.014 A 
ATOM     23  C   UNL A   1      35.962  23.774  25.517  1.00  0.00     0.005 A 
ATOM     24  C   UNL A   1      33.751  18.306  24.092  1.00  0.00     0.000 A 
ATOM     25  C   UNL A   1      35.988  18.872  24.866  1.00  0.00     0.009 A 
ATOM     26  C   UNL A   1      37.717  21.548  25.507  1.00  0.00     0.009 A 
ATOM     27  C   UNL A   1      37.312  23.936  25.809  1.00  0.00     0.000 A 
ATOM     28  C   UNL A   1      35.040  17.916  24.493  1.00  0.00     0.001 A 
ATOM     29  C   UNL A   1      38.186  22.837  25.785  1.00  0.00     0.001 A 
ENDBRANCH  16  17
ENDBRANCH  15  16
ENDBRANCH  13  15
ENDBRANCH   5  11
BRANCH  10  30
ATOM     30  C   UNL A   1      31.749  24.539  26.454  1.00  0.00    -0.045 A 
ATOM     31  C   UNL A   1      30.777  23.849  25.709  1.00  0.00     0.004 A 
ATOM     32  C   UNL A   1      32.597  23.755  27.252  1.00  0.00     0.004 A 
ATOM     33  C   UNL A   1      30.668  22.454  25.733  1.00  0.00     0.000 A 
ATOM     34  C   UNL A   1      32.476  22.361  27.301  1.00  0.00     0.000 A 
ATOM     35  C   UNL A   1      31.515  21.709  26.535  1.00  0.00     0.000 A 
ENDBRANCH  10  30
ENDBRANCH   3   5
ENDBRANCH   2   3
ENDBRANCH   1   2
BRANCH   1  36
ATOM     36  C   UNL A   1      32.856  29.788  26.782  1.00  0.00     0.275 C 
BRANCH  36  37
ATOM     37  O   UNL A   1      34.268  29.787  27.050  1.00  0.00    -0.458 OA
BRANCH  37  38
ATOM     38  C   UNL A   1      34.670  30.707  27.954  1.00  0.00     0.338 C 
ATOM     39  O   UNL A   1      34.022  31.623  28.429  1.00  0.00    -0.246 OA
BRANCH  38  40
ATOM     40  C   UNL A   1      36.022  30.377  28.414  1.00  0.00     0.060 A 
ATOM     41  C   UNL A   1      37.074  30.532  27.513  1.00  0.00     0.016 A 
ATOM     42  C   UNL A   1      36.235  29.792  29.659  1.00  0.00     0.016 A 
ATOM     43  C   UNL A   1      38.343  30.072  27.821  1.00  0.00     0.010 A 
ATOM     44  C   UNL A   1      37.523  29.360  29.988  1.00  0.00     0.010 A 
ATOM     45  C   UNL A   1      38.578  29.476  29.062  1.00  0.00    -0.014 A 
BRANCH  45  46
ATOM     46  C   UNL A   1      39.907  28.897  29.351  1.00  0.00     0.031 A 
ATOM     47  C   UNL A   1      40.909  29.712  30.115  1.00  0.00     0.074 A 
ATOM     48  C   UNL A   1      40.200  27.641  28.969  1.00  0.00     0.049 A 
ATOM     49  N   UNL A   1      42.180  29.484  30.315  1.00  0.00    -0.248 NA
ATOM     50  C   UNL A   1      40.414  30.956  30.729  1.00  0.00     0.031 C 
ATOM     51  C   UNL A   1      39.273  26.712  28.317  1.00  0.00     0.029 A 
ATOM     52  N   UNL A   1      41.364  26.927  29.082  1.00  0.00    -0.354 N 
ATOM     53  C   UNL A   1      42.650  30.580  31.026  1.00  0.00     0.074 A 
ATOM     54  C   UNL A   1      41.527  31.470  31.230  1.00  0.00     0.031 C 
ATOM     55  C   UNL A   1      39.902  25.545  28.102  1.00  0.00     0.029 A 
ATOM     56  C   UNL A   1      41.292  25.674  28.525  1.00  0.00     0.049 A 
ATOM     57  H   UNL A   1      42.173  27.278  29.519  1.00  0.00     0.167 HD
ATOM     58  C   UNL A   1      43.909  30.821  31.459  1.00  0.00     0.031 A 
ATOM     59  C   UNL A   1      42.254  24.752  28.335  1.00  0.00     0.031 A 
ATOM     60  C   UNL A   1      45.008  29.912  31.274  1.00  0.00     0.049 A 
ATOM     61  C   UNL A   1      43.658  25.075  28.758  1.00  0.00     0.074 A 
ATOM     62  C   UNL A   1      46.327  30.061  31.662  1.00  0.00     0.029 A 
ATOM     63  N   UNL A   1      44.906  28.674  30.659  1.00  0.00    -0.354 N 
ATOM     64  N   UNL A   1      44.114  26.145  29.363  1.00  0.00    -0.248 NA
ATOM     65  C   UNL A   1      44.685  24.069  28.454  1.00  0.00     0.031 C 
ATOM     66  C   UNL A   1      47.034  28.929  31.242  1.00  0.00     0.029 A 
ATOM     67  C   UNL A   1      46.143  28.055  30.639  1.00  0.00     0.049 A 
ATOM     68  H   UNL A   1      44.077  28.293  30.290  1.00  0.00     0.167 HD
ATOM     69  C   UNL A   1      45.476  25.936  29.527  1.00  0.00     0.074 A 
ATOM     70  C   UNL A   1      45.768  24.629  28.974  1.00  0.00     0.031 C 
ATOM     71  C   UNL A   1      46.405  26.752  30.082  1.00  0.00     0.031 A 
BRANCH  58  72
ATOM     72  C   UNL A   1      44.172  32.147  32.112  1.00  0.00    -0.014 A 
ATOM     73  C   UNL A   1      44.009  32.336  33.493  1.00  0.00     0.009 A 
ATOM     74  C   UNL A   1      44.603  33.226  31.325  1.00  0.00     0.009 A 
ATOM     75  C   UNL A   1      44.244  33.590  34.065  1.00  0.00     0.001 A 
ATOM     76  C   UNL A   1      44.862  34.471  31.903  1.00  0.00     0.001 A 
ATOM     77  C   UNL A   1      44.673  34.653  33.271  1.00  0.00     0.000 A 
ENDBRANCH  58  72
BRANCH  59  78
ATOM     78  C   UNL A   1      41.933  23.469  27.657  1.00  0.00    -0.014 A 
ATOM     79  C   UNL A   1      41.369  22.404  28.373  1.00  0.00     0.009 A 
ATOM     80  C   UNL A   1      42.195  23.302  26.288  1.00  0.00     0.009 A 
ATOM     81  C   UNL A   1      41.090  21.192  27.736  1.00  0.00     0.001 A 
ATOM     82  C   UNL A   1      41.888  22.101  25.647  1.00  0.00     0.001 A 
ATOM     83  C   UNL A   1      41.344  21.044  26.373  1.00  0.00     0.000 A 
ENDBRANCH  59  78
BRANCH  71  84
ATOM     84  C   UNL A   1      47.811  26.234  30.148  1.00  0.00    -0.014 A 
ATOM     85  C   UNL A   1      48.673  26.330  29.046  1.00  0.00     0.009 A 
ATOM     86  C   UNL A   1      48.286  25.672  31.344  1.00  0.00     0.009 A 
ATOM     87  C   UNL A   1      49.979  25.844  29.131  1.00  0.00     0.001 A 
ATOM     88  C   UNL A   1      49.599  25.212  31.433  1.00  0.00     0.001 A 
ATOM     89  C   UNL A   1      50.442  25.290  30.325  1.00  0.00     0.000 A 
ENDBRANCH  71  84
ENDBRANCH  45  46
ENDBRANCH  38  40
ENDBRANCH  37  38
ENDBRANCH  36  37
ENDBRANCH   1  36
TORSDOF 16
ENDMDL
MODEL 3
REMARK VINA RESULT:     -12.2      1.399      5.723
REMARK SMILES O=C(N[C@]1(C(=O)OCCOC(=O)c2ccc(-c3c4nc(c(-c5ccccc5)c5ccc([nH]5)c(-c5ccccc5)c5nc(c(-c6ccccc6)c6ccc3[nH]6)C=C5)C=C4)cc2)CC[C@H](c2ccccc2)CC1)OCC1c2ccccc2-c2ccccc21
REMARK SMILES IDX 8 1 7 2 5 3 6 4 4 5 61 6 71 7 62 8 70 9 63 10 3 11 1 12 2 13
REMARK SMILES IDX 72 15 73 16 74 17 75 18 86 19 76 20 80 21 81 22 85 23 77 24
REMARK SMILES IDX 79 25 82 26 84 27 78 28 83 29 64 30 65 31 69 32 66 33 68 34
REMARK SMILES IDX 67 35 9 36 10 37 11 38 12 39 13 40 14 41 60 42 15 43 59 44
REMARK SMILES IDX 16 45 17 46 18 47 53 48 19 49 58 50 52 51 54 52 20 53 57 54
REMARK SMILES IDX 51 55 50 56 21 58 43 59 28 60 42 61 29 62 32 63 41 64 55 65
REMARK SMILES IDX 30 66 31 67 40 69 56 70 33 71 22 72 23 73 27 74 24 75 26 76
REMARK SMILES IDX 25 77 44 78 45 79 49 80 46 81 48 82 47 83 34 84 35 85 39 86
REMARK SMILES IDX 36 87 38 88 37 89
REMARK H PARENT 3 14 54 57 32 68
REMARK Flexibility Score: inf
ROOT
ATOM      1  C   UNL A   1      32.063  29.882  26.296  1.00  0.00     0.274 C 
ENDROOT
BRANCH   1   2
ATOM      2  O   UNL A   1      32.567  28.566  26.609  1.00  0.00    -0.460 OA
BRANCH   2   3
ATOM      3  C   UNL A   1      31.624  27.596  26.779  1.00  0.00     0.332 C 
ATOM      4  O   UNL A   1      30.962  27.459  27.804  1.00  0.00    -0.249 OA
BRANCH   3   5
ATOM      5  C   UNL A   1      31.613  26.569  25.605  1.00  0.00     0.141 C 
ATOM      6  C   UNL A   1      33.097  26.257  25.416  1.00  0.00     0.041 C 
ATOM      7  C   UNL A   1      30.891  27.064  24.334  1.00  0.00     0.041 C 
ATOM      8  C   UNL A   1      33.840  27.015  24.335  1.00  0.00     0.011 C 
ATOM      9  C   UNL A   1      31.740  27.742  23.265  1.00  0.00     0.011 C 
ATOM     10  C   UNL A   1      33.095  27.067  23.007  1.00  0.00     0.019 C 
BRANCH   5  11
ATOM     11  N   UNL A   1      30.792  25.393  26.048  1.00  0.00    -0.305 N 
ATOM     12  O   UNL A   1      30.241  23.588  27.272  1.00  0.00    -0.225 OA
ATOM     13  C   UNL A   1      31.110  24.280  26.759  1.00  0.00     0.408 C 
ATOM     14  H   UNL A   1      29.848  25.438  25.773  1.00  0.00     0.168 HD
BRANCH  13  15
ATOM     15  O   UNL A   1      32.437  24.036  26.862  1.00  0.00    -0.449 OA
BRANCH  15  16
ATOM     16  C   UNL A   1      32.740  22.708  26.467  1.00  0.00     0.248 C 
BRANCH  16  17
ATOM     17  C   UNL A   1      33.701  22.600  25.253  1.00  0.00     0.088 C 
ATOM     18  C   UNL A   1      35.212  22.737  25.447  1.00  0.00    -0.029 A 
ATOM     19  C   UNL A   1      33.603  21.149  24.770  1.00  0.00    -0.029 A 
ATOM     20  C   UNL A   1      35.960  23.869  25.747  1.00  0.00     0.005 A 
ATOM     21  C   UNL A   1      35.853  21.496  25.211  1.00  0.00    -0.014 A 
ATOM     22  C   UNL A   1      34.850  20.508  24.882  1.00  0.00    -0.014 A 
ATOM     23  C   UNL A   1      32.450  20.454  24.436  1.00  0.00     0.005 A 
ATOM     24  C   UNL A   1      37.355  23.747  25.816  1.00  0.00     0.000 A 
ATOM     25  C   UNL A   1      37.233  21.374  25.291  1.00  0.00     0.009 A 
ATOM     26  C   UNL A   1      34.940  19.135  24.747  1.00  0.00     0.009 A 
ATOM     27  C   UNL A   1      32.541  19.072  24.300  1.00  0.00     0.000 A 
ATOM     28  C   UNL A   1      37.986  22.512  25.588  1.00  0.00     0.001 A 
ATOM     29  C   UNL A   1      33.770  18.416  24.474  1.00  0.00     0.001 A 
ENDBRANCH  16  17
ENDBRANCH  15  16
ENDBRANCH  13  15
ENDBRANCH   5  11
BRANCH  10  30
ATOM     30  C   UNL A   1      33.041  25.779  22.181  1.00  0.00    -0.045 A 
ATOM     31  C   UNL A   1      33.398  24.499  22.636  1.00  0.00     0.004 A 
ATOM     32  C   UNL A   1      32.679  25.883  20.828  1.00  0.00     0.004 A 
ATOM     33  C   UNL A   1      33.372  23.375  21.803  1.00  0.00     0.000 A 
ATOM     34  C   UNL A   1      32.678  24.767  19.982  1.00  0.00     0.000 A 
ATOM     35  C   UNL A   1      33.018  23.510  20.472  1.00  0.00     0.000 A 
ENDBRANCH  10  30
ENDBRANCH   3   5
ENDBRANCH   2   3
ENDBRANCH   1   2
BRANCH   1  36
ATOM     36  C   UNL A   1      32.801  30.982  27.059  1.00  0.00     0.275 C 
BRANCH  36  37
ATOM     37  O   UNL A   1      34.206  30.694  27.156  1.00  0.00    -0.458 OA
BRANCH  37  38
ATOM     38  C   UNL A   1      34.799  31.157  28.279  1.00  0.00     0.338 C 
ATOM     39  O   UNL A   1      34.350  31.945  29.092  1.00  0.00    -0.246 OA
BRANCH  38  40
ATOM     40  C   UNL A   1      36.073  30.461  28.477  1.00  0.00     0.060 A 
ATOM     41  C   UNL A   1      36.314  29.883  29.723  1.00  0.00     0.016 A 
ATOM     42  C   UNL A   1      37.071  30.498  27.508  1.00  0.00     0.016 A 
ATOM     43  C   UNL A   1      37.561  29.369  30.035  1.00  0.00     0.010 A 
ATOM     44  C   UNL A   1      38.321  29.946  27.807  1.00  0.00     0.010 A 
ATOM     45  C   UNL A   1      38.579  29.401  29.080  1.00  0.00    -0.014 A 
BRANCH  45  46
ATOM     46  C   UNL A   1      39.936  28.943  29.447  1.00  0.00     0.031 A 
ATOM     47  C   UNL A   1      40.425  27.621  28.932  1.00  0.00     0.074 A 
ATOM     48  C   UNL A   1      40.735  29.719  30.200  1.00  0.00     0.049 A 
ATOM     49  N   UNL A   1      41.489  26.943  29.273  1.00  0.00    -0.248 NA
ATOM     50  C   UNL A   1      39.600  26.971  27.899  1.00  0.00     0.031 C 
ATOM     51  C   UNL A   1      40.414  31.069  30.668  1.00  0.00     0.029 A 
ATOM     52  N   UNL A   1      41.991  29.482  30.697  1.00  0.00    -0.354 N 
ATOM     53  C   UNL A   1      41.433  25.764  28.542  1.00  0.00     0.074 A 
ATOM     54  C   UNL A   1      40.234  25.820  27.733  1.00  0.00     0.031 C 
ATOM     55  C   UNL A   1      41.453  31.546  31.374  1.00  0.00     0.029 A 
ATOM     56  C   UNL A   1      42.472  30.507  31.472  1.00  0.00     0.049 A 
ATOM     57  H   UNL A   1      42.496  28.657  30.516  1.00  0.00     0.167 HD
ATOM     58  C   UNL A   1      42.301  24.726  28.557  1.00  0.00     0.031 A 
ATOM     59  C   UNL A   1      43.590  30.581  32.218  1.00  0.00     0.031 A 
ATOM     60  C   UNL A   1      43.504  24.699  29.345  1.00  0.00     0.049 A 
ATOM     61  C   UNL A   1      44.500  29.386  32.275  1.00  0.00     0.074 A 
ATOM     62  C   UNL A   1      44.449  23.694  29.444  1.00  0.00     0.029 A 
ATOM     63  N   UNL A   1      43.932  25.737  30.159  1.00  0.00    -0.354 N 
ATOM     64  N   UNL A   1      44.404  28.243  31.641  1.00  0.00    -0.248 NA
ATOM     65  C   UNL A   1      45.664  29.488  33.167  1.00  0.00     0.031 C 
ATOM     66  C   UNL A   1      45.429  24.108  30.353  1.00  0.00     0.029 A 
ATOM     67  C   UNL A   1      45.118  25.390  30.779  1.00  0.00     0.049 A 
ATOM     68  H   UNL A   1      43.460  26.593  30.277  1.00  0.00     0.167 HD
ATOM     69  C   UNL A   1      45.501  27.494  32.043  1.00  0.00     0.074 A 
ATOM     70  C   UNL A   1      46.258  28.320  32.962  1.00  0.00     0.031 C 
ATOM     71  C   UNL A   1      45.850  26.233  31.689  1.00  0.00     0.031 A 
BRANCH  58  72
ATOM     72  C   UNL A   1      41.941  23.514  27.747  1.00  0.00    -0.014 A 
ATOM     73  C   UNL A   1      42.359  23.363  26.416  1.00  0.00     0.009 A 
ATOM     74  C   UNL A   1      41.176  22.496  28.339  1.00  0.00     0.009 A 
ATOM     75  C   UNL A   1      41.990  22.231  25.685  1.00  0.00     0.001 A 
ATOM     76  C   UNL A   1      40.830  21.354  27.615  1.00  0.00     0.001 A 
ATOM     77  C   UNL A   1      41.230  21.227  26.286  1.00  0.00     0.000 A 
ENDBRANCH  58  72
BRANCH  59  78
ATOM     78  C   UNL A   1      43.875  31.800  33.018  1.00  0.00    -0.014 A 
ATOM     79  C   UNL A   1      43.451  31.895  34.351  1.00  0.00     0.009 A 
ATOM     80  C   UNL A   1      44.571  32.878  32.449  1.00  0.00     0.009 A 
ATOM     81  C   UNL A   1      43.702  33.052  35.092  1.00  0.00     0.001 A 
ATOM     82  C   UNL A   1      44.847  34.022  33.201  1.00  0.00     0.001 A 
ATOM     83  C   UNL A   1      44.404  34.112  34.518  1.00  0.00     0.000 A 
ENDBRANCH  59  78
BRANCH  71  84
ATOM     84  C   UNL A   1      47.124  25.694  32.270  1.00  0.00    -0.014 A 
ATOM     85  C   UNL A   1      48.356  25.895  31.631  1.00  0.00     0.009 A 
ATOM     86  C   UNL A   1      47.090  25.003  33.492  1.00  0.00     0.009 A 
ATOM     87  C   UNL A   1      49.530  25.387  32.191  1.00  0.00     0.001 A 
ATOM     88  C   UNL A   1      48.267  24.520  34.061  1.00  0.00     0.001 A 
ATOM     89  C   UNL A   1      49.484  24.704  33.407  1.00  0.00     0.000 A 
ENDBRANCH  71  84
ENDBRANCH  45  46
ENDBRANCH  38  40
ENDBRANCH  37  38
ENDBRANCH  36  37
ENDBRANCH   1  36
TORSDOF 16
ENDMDL
