MODEL 1
REMARK VINA RESULT:      -9.2      0.000      0.000
REMARK SMILES COc1c(Br)cc(C)cc1C(=O)OCCOC(=O)c1ccc(-c2c3nc(c(-c4ccccc4)c4ccc([nH]4)c(-c4ccccc4)c4nc(c(-c5ccccc5)c5ccc2[nH]5)C=C4)C=C3)cc1
REMARK SMILES IDX 15 1 14 2 13 3 11 4 12 5 10 6 3 7 4 8 5 9 6 10 9 11 7 12
REMARK SMILES IDX 8 13 2 14 1 15 16 16 17 17 18 18 19 19 20 20 66 21 21 22
REMARK SMILES IDX 65 23 22 24 23 25 24 26 59 27 25 28 64 29 58 30 60 31 26 32
REMARK SMILES IDX 63 33 57 34 56 35 27 37 49 38 34 39 48 40 35 41 38 42 47 43
REMARK SMILES IDX 61 44 36 45 37 46 46 48 62 49 39 50 28 51 29 52 33 53 30 54
REMARK SMILES IDX 32 55 31 56 50 57 51 58 55 59 52 60 54 61 53 62 40 63 41 64
REMARK SMILES IDX 45 65 42 66 44 67 43 68
REMARK H PARENT 60 36 38 47
REMARK Flexibility Score: inf
ROOT
ATOM      1  C   UNL A   1      33.106  37.062  30.218  1.00  0.00     0.275 C 
ENDROOT
BRANCH   1   2
ATOM      2  C   UNL A   1      33.037  36.448  28.821  1.00  0.00     0.275 C 
BRANCH   2   3
ATOM      3  O   UNL A   1      34.228  35.690  28.515  1.00  0.00    -0.458 OA
BRANCH   3   4
ATOM      4  C   UNL A   1      34.209  34.397  28.925  1.00  0.00     0.342 C 
ATOM      5  O   UNL A   1      33.276  33.816  29.458  1.00  0.00    -0.246 OA
BRANCH   4   6
ATOM      6  C   UNL A   1      35.531  33.768  28.746  1.00  0.00     0.103 A 
ATOM      7  C   UNL A   1      35.659  32.528  28.112  1.00  0.00     0.147 A 
ATOM      8  C   UNL A   1      36.825  31.776  28.276  1.00  0.00     0.061 A 
ATOM      9  Br  UNL A   1      36.960  29.996  27.631  1.00  0.00    -0.047 Br
ATOM     10  C   UNL A   1      37.925  32.340  28.915  1.00  0.00     0.023 A 
ATOM     11  C   UNL A   1      36.645  34.347  29.363  1.00  0.00     0.023 A 
ATOM     12  C   UNL A   1      37.862  33.654  29.400  1.00  0.00    -0.049 A 
ATOM     13  C   UNL A   1      39.095  34.287  29.968  1.00  0.00     0.044 C 
BRANCH   7  14
ATOM     14  O   UNL A   1      34.690  32.077  27.258  1.00  0.00    -0.495 OA
ATOM     15  C   UNL A   1      33.979  31.004  27.900  1.00  0.00     0.278 C 
ENDBRANCH   7  14
ENDBRANCH   4   6
ENDBRANCH   3   4
ENDBRANCH   2   3
ENDBRANCH   1   2
BRANCH   1  16
ATOM     16  O   UNL A   1      32.155  36.415  31.080  1.00  0.00    -0.458 OA
BRANCH  16  17
ATOM     17  C   UNL A   1      32.522  36.292  32.377  1.00  0.00     0.338 C 
ATOM     18  O   UNL A   1      32.007  36.834  33.339  1.00  0.00    -0.246 OA
BRANCH  17  19
ATOM     19  C   UNL A   1      33.634  35.327  32.520  1.00  0.00     0.060 A 
ATOM     20  C   UNL A   1      33.385  34.017  32.913  1.00  0.00     0.016 A 
ATOM     21  C   UNL A   1      34.951  35.787  32.469  1.00  0.00     0.016 A 
ATOM     22  C   UNL A   1      34.425  33.231  33.412  1.00  0.00     0.010 A 
ATOM     23  C   UNL A   1      36.008  34.940  32.835  1.00  0.00     0.010 A 
ATOM     24  C   UNL A   1      35.759  33.662  33.365  1.00  0.00    -0.014 A 
BRANCH  24  25
ATOM     25  C   UNL A   1      36.875  32.800  33.867  1.00  0.00     0.031 A 
ATOM     26  C   UNL A   1      37.560  33.097  35.185  1.00  0.00     0.074 A 
ATOM     27  C   UNL A   1      37.309  31.749  33.137  1.00  0.00     0.049 A 
ATOM     28  N   UNL A   1      38.701  32.643  35.645  1.00  0.00    -0.248 NA
ATOM     29  C   UNL A   1      36.887  34.036  36.098  1.00  0.00     0.031 C 
ATOM     30  C   UNL A   1      36.728  31.281  31.876  1.00  0.00     0.029 A 
ATOM     31  N   UNL A   1      38.356  30.881  33.351  1.00  0.00    -0.354 N 
ATOM     32  C   UNL A   1      38.916  33.296  36.856  1.00  0.00     0.074 A 
ATOM     33  C   UNL A   1      37.782  34.168  37.069  1.00  0.00     0.031 C 
ATOM     34  C   UNL A   1      37.394  30.200  31.451  1.00  0.00     0.029 A 
ATOM     35  C   UNL A   1      38.533  29.978  32.329  1.00  0.00     0.049 A 
ATOM     36  H   UNL A   1      38.923  30.905  34.155  1.00  0.00     0.167 HD
ATOM     37  C   UNL A   1      39.971  33.186  37.702  1.00  0.00     0.031 A 
ATOM     38  C   UNL A   1      39.534  29.118  32.064  1.00  0.00     0.031 A 
ATOM     39  C   UNL A   1      41.068  32.269  37.522  1.00  0.00     0.049 A 
ATOM     40  C   UNL A   1      40.716  29.061  32.983  1.00  0.00     0.074 A 
ATOM     41  C   UNL A   1      42.158  32.060  38.351  1.00  0.00     0.029 A 
ATOM     42  N   UNL A   1      41.211  31.403  36.451  1.00  0.00    -0.354 N 
ATOM     43  N   UNL A   1      40.932  29.722  34.094  1.00  0.00    -0.248 NA
ATOM     44  C   UNL A   1      41.805  28.151  32.600  1.00  0.00     0.031 C 
ATOM     45  C   UNL A   1      42.992  31.112  37.753  1.00  0.00     0.029 A 
ATOM     46  C   UNL A   1      42.388  30.681  36.584  1.00  0.00     0.049 A 
ATOM     47  H   UNL A   1      40.574  31.313  35.707  1.00  0.00     0.167 HD
ATOM     48  C   UNL A   1      42.168  29.291  34.552  1.00  0.00     0.074 A 
ATOM     49  C   UNL A   1      42.644  28.297  33.614  1.00  0.00     0.031 C 
ATOM     50  C   UNL A   1      42.851  29.691  35.651  1.00  0.00     0.031 A 
BRANCH  37  51
ATOM     51  C   UNL A   1      40.041  34.107  38.892  1.00  0.00    -0.014 A 
ATOM     52  C   UNL A   1      40.567  35.403  38.801  1.00  0.00     0.009 A 
ATOM     53  C   UNL A   1      39.446  33.700  40.100  1.00  0.00     0.009 A 
ATOM     54  C   UNL A   1      40.502  36.268  39.900  1.00  0.00     0.001 A 
ATOM     55  C   UNL A   1      39.359  34.574  41.184  1.00  0.00     0.001 A 
ATOM     56  C   UNL A   1      39.890  35.858  41.084  1.00  0.00     0.000 A 
ENDBRANCH  37  51
BRANCH  38  57
ATOM     57  C   UNL A   1      39.511  28.314  30.811  1.00  0.00    -0.014 A 
ATOM     58  C   UNL A   1      40.115  28.788  29.639  1.00  0.00     0.009 A 
ATOM     59  C   UNL A   1      38.864  27.066  30.783  1.00  0.00     0.009 A 
ATOM     60  C   UNL A   1      40.047  28.044  28.459  1.00  0.00     0.001 A 
ATOM     61  C   UNL A   1      38.836  26.305  29.614  1.00  0.00     0.001 A 
ATOM     62  C   UNL A   1      39.416  26.801  28.450  1.00  0.00     0.000 A 
ENDBRANCH  38  57
BRANCH  50  63
ATOM     63  C   UNL A   1      44.161  29.008  35.926  1.00  0.00    -0.014 A 
ATOM     64  C   UNL A   1      44.230  27.847  36.711  1.00  0.00     0.009 A 
ATOM     65  C   UNL A   1      45.343  29.534  35.382  1.00  0.00     0.009 A 
ATOM     66  C   UNL A   1      45.464  27.251  36.981  1.00  0.00     0.001 A 
ATOM     67  C   UNL A   1      46.570  28.919  35.627  1.00  0.00     0.001 A 
ATOM     68  C   UNL A   1      46.631  27.786  36.436  1.00  0.00     0.000 A 
ENDBRANCH  50  63
ENDBRANCH  24  25
ENDBRANCH  17  19
ENDBRANCH  16  17
ENDBRANCH   1  16
TORSDOF 12
ENDMDL
MODEL 2
REMARK VINA RESULT:      -9.1      6.227     10.528
REMARK SMILES COc1c(Br)cc(C)cc1C(=O)OCCOC(=O)c1ccc(-c2c3nc(c(-c4ccccc4)c4ccc([nH]4)c(-c4ccccc4)c4nc(c(-c5ccccc5)c5ccc2[nH]5)C=C4)C=C3)cc1
REMARK SMILES IDX 15 1 14 2 13 3 11 4 12 5 10 6 3 7 4 8 5 9 6 10 9 11 7 12
REMARK SMILES IDX 8 13 2 14 1 15 16 16 17 17 18 18 19 19 20 20 66 21 21 22
REMARK SMILES IDX 65 23 22 24 23 25 24 26 59 27 25 28 64 29 58 30 60 31 26 32
REMARK SMILES IDX 63 33 57 34 56 35 27 37 49 38 34 39 48 40 35 41 38 42 47 43
REMARK SMILES IDX 61 44 36 45 37 46 46 48 62 49 39 50 28 51 29 52 33 53 30 54
REMARK SMILES IDX 32 55 31 56 50 57 51 58 55 59 52 60 54 61 53 62 40 63 41 64
REMARK SMILES IDX 45 65 42 66 44 67 43 68
REMARK H PARENT 60 36 38 47
REMARK Flexibility Score: inf
ROOT
ATOM      1  C   UNL A   1      37.085  21.355  24.365  1.00  0.00     0.275 C 
ENDROOT
BRANCH   1   2
ATOM      2  C   UNL A   1      36.749  22.595  23.539  1.00  0.00     0.275 C 
BRANCH   2   3
ATOM      3  O   UNL A   1      36.038  23.578  24.323  1.00  0.00    -0.458 OA
BRANCH   3   4
ATOM      4  C   UNL A   1      34.852  23.980  23.805  1.00  0.00     0.342 C 
ATOM      5  O   UNL A   1      34.555  24.033  22.621  1.00  0.00    -0.246 OA
BRANCH   4   6
ATOM      6  C   UNL A   1      33.951  24.469  24.865  1.00  0.00     0.103 A 
ATOM      7  C   UNL A   1      32.958  23.645  25.404  1.00  0.00     0.147 A 
ATOM      8  C   UNL A   1      31.892  24.206  26.111  1.00  0.00     0.061 A 
ATOM      9  Br  UNL A   1      30.405  23.162  26.663  1.00  0.00    -0.047 Br
ATOM     10  C   UNL A   1      31.916  25.558  26.437  1.00  0.00     0.023 A 
ATOM     11  C   UNL A   1      33.991  25.822  25.216  1.00  0.00     0.023 A 
ATOM     12  C   UNL A   1      33.001  26.358  26.050  1.00  0.00    -0.049 A 
ATOM     13  C   UNL A   1      33.071  27.778  26.520  1.00  0.00     0.044 C 
BRANCH   7  14
ATOM     14  O   UNL A   1      33.061  22.282  25.323  1.00  0.00    -0.495 OA
ATOM     15  C   UNL A   1      33.862  21.818  26.423  1.00  0.00     0.278 C 
ENDBRANCH   7  14
ENDBRANCH   4   6
ENDBRANCH   3   4
ENDBRANCH   2   3
ENDBRANCH   1   2
BRANCH   1  16
ATOM     16  O   UNL A   1      37.446  21.744  25.701  1.00  0.00    -0.458 OA
BRANCH  16  17
ATOM     17  C   UNL A   1      38.749  21.580  26.032  1.00  0.00     0.338 C 
ATOM     18  O   UNL A   1      39.452  20.617  25.784  1.00  0.00    -0.246 OA
BRANCH  17  19
ATOM     19  C   UNL A   1      39.277  22.786  26.706  1.00  0.00     0.060 A 
ATOM     20  C   UNL A   1      38.791  24.047  26.379  1.00  0.00     0.016 A 
ATOM     21  C   UNL A   1      40.410  22.678  27.514  1.00  0.00     0.016 A 
ATOM     22  C   UNL A   1      39.527  25.184  26.714  1.00  0.00     0.010 A 
ATOM     23  C   UNL A   1      41.063  23.833  27.968  1.00  0.00     0.010 A 
ATOM     24  C   UNL A   1      40.665  25.108  27.532  1.00  0.00    -0.014 A 
BRANCH  24  25
ATOM     25  C   UNL A   1      41.430  26.335  27.919  1.00  0.00     0.031 A 
ATOM     26  C   UNL A   1      40.824  27.376  28.838  1.00  0.00     0.074 A 
ATOM     27  C   UNL A   1      42.673  26.548  27.435  1.00  0.00     0.049 A 
ATOM     28  N   UNL A   1      41.212  28.609  29.061  1.00  0.00    -0.248 NA
ATOM     29  C   UNL A   1      39.618  26.991  29.591  1.00  0.00     0.031 C 
ATOM     30  C   UNL A   1      43.434  25.625  26.587  1.00  0.00     0.029 A 
ATOM     31  N   UNL A   1      43.520  27.624  27.581  1.00  0.00    -0.354 N 
ATOM     32  C   UNL A   1      40.262  29.165  29.913  1.00  0.00     0.074 A 
ATOM     33  C   UNL A   1      39.285  28.132  30.181  1.00  0.00     0.031 C 
ATOM     34  C   UNL A   1      44.636  26.151  26.323  1.00  0.00     0.029 A 
ATOM     35  C   UNL A   1      44.685  27.501  26.860  1.00  0.00     0.049 A 
ATOM     36  H   UNL A   1      43.311  28.403  28.144  1.00  0.00     0.167 HD
ATOM     37  C   UNL A   1      40.206  30.424  30.413  1.00  0.00     0.031 A 
ATOM     38  C   UNL A   1      45.656  28.390  26.580  1.00  0.00     0.031 A 
ATOM     39  C   UNL A   1      41.215  31.432  30.200  1.00  0.00     0.049 A 
ATOM     40  C   UNL A   1      45.538  29.793  27.095  1.00  0.00     0.074 A 
ATOM     41  C   UNL A   1      41.261  32.721  30.703  1.00  0.00     0.029 A 
ATOM     42  N   UNL A   1      42.356  31.263  29.434  1.00  0.00    -0.354 N 
ATOM     43  N   UNL A   1      44.608  30.320  27.853  1.00  0.00    -0.248 NA
ATOM     44  C   UNL A   1      46.596  30.731  26.696  1.00  0.00     0.031 C 
ATOM     45  C   UNL A   1      42.398  33.353  30.193  1.00  0.00     0.029 A 
ATOM     46  C   UNL A   1      43.095  32.436  29.427  1.00  0.00     0.049 A 
ATOM     47  H   UNL A   1      42.605  30.434  28.965  1.00  0.00     0.167 HD
ATOM     48  C   UNL A   1      44.982  31.642  28.040  1.00  0.00     0.074 A 
ATOM     49  C   UNL A   1      46.233  31.832  27.338  1.00  0.00     0.031 C 
ATOM     50  C   UNL A   1      44.340  32.615  28.730  1.00  0.00     0.031 A 
BRANCH  37  51
ATOM     51  C   UNL A   1      38.995  30.831  31.210  1.00  0.00    -0.014 A 
ATOM     52  C   UNL A   1      37.820  31.291  30.599  1.00  0.00     0.009 A 
ATOM     53  C   UNL A   1      38.998  30.624  32.602  1.00  0.00     0.009 A 
ATOM     54  C   UNL A   1      36.678  31.544  31.367  1.00  0.00     0.001 A 
ATOM     55  C   UNL A   1      37.849  30.851  33.361  1.00  0.00     0.001 A 
ATOM     56  C   UNL A   1      36.689  31.313  32.743  1.00  0.00     0.000 A 
ENDBRANCH  37  51
BRANCH  38  57
ATOM     57  C   UNL A   1      46.777  28.008  25.678  1.00  0.00    -0.014 A 
ATOM     58  C   UNL A   1      46.641  28.089  24.285  1.00  0.00     0.009 A 
ATOM     59  C   UNL A   1      47.990  27.542  26.215  1.00  0.00     0.009 A 
ATOM     60  C   UNL A   1      47.685  27.684  23.450  1.00  0.00     0.001 A 
ATOM     61  C   UNL A   1      49.046  27.180  25.378  1.00  0.00     0.001 A 
ATOM     62  C   UNL A   1      48.888  27.239  23.997  1.00  0.00     0.000 A 
ENDBRANCH  38  57
BRANCH  50  63
ATOM     63  C   UNL A   1      45.012  33.957  28.802  1.00  0.00    -0.014 A 
ATOM     64  C   UNL A   1      45.939  34.257  29.812  1.00  0.00     0.009 A 
ATOM     65  C   UNL A   1      44.715  34.932  27.837  1.00  0.00     0.009 A 
ATOM     66  C   UNL A   1      46.523  35.525  29.878  1.00  0.00     0.001 A 
ATOM     67  C   UNL A   1      45.324  36.185  27.887  1.00  0.00     0.001 A 
ATOM     68  C   UNL A   1      46.218  36.484  28.914  1.00  0.00     0.000 A 
ENDBRANCH  50  63
ENDBRANCH  24  25
ENDBRANCH  17  19
ENDBRANCH  16  17
ENDBRANCH   1  16
TORSDOF 12
ENDMDL
MODEL 3
REMARK VINA RESULT:      -8.9      3.799      8.666
REMARK SMILES COc1c(Br)cc(C)cc1C(=O)OCCOC(=O)c1ccc(-c2c3nc(c(-c4ccccc4)c4ccc([nH]4)c(-c4ccccc4)c4nc(c(-c5ccccc5)c5ccc2[nH]5)C=C4)C=C3)cc1
REMARK SMILES IDX 15 1 14 2 13 3 11 4 12 5 10 6 3 7 4 8 5 9 6 10 9 11 7 12
REMARK SMILES IDX 8 13 2 14 1 15 16 16 17 17 18 18 19 19 20 20 66 21 21 22
REMARK SMILES IDX 65 23 22 24 23 25 24 26 59 27 25 28 64 29 58 30 60 31 26 32
REMARK SMILES IDX 63 33 57 34 56 35 27 37 49 38 34 39 48 40 35 41 38 42 47 43
REMARK SMILES IDX 61 44 36 45 37 46 46 48 62 49 39 50 28 51 29 52 33 53 30 54
REMARK SMILES IDX 32 55 31 56 50 57 51 58 55 59 52 60 54 61 53 62 40 63 41 64
REMARK SMILES IDX 45 65 42 66 44 67 43 68
REMARK H PARENT 60 36 38 47
REMARK Flexibility Score: inf
ROOT
ATOM      1  C   UNL A   1      31.446  30.105  25.469  1.00  0.00     0.275 C 
ENDROOT
BRANCH   1   2
ATOM      2  C   UNL A   1      31.526  28.899  24.536  1.00  0.00     0.275 C 
BRANCH   2   3
ATOM      3  O   UNL A   1      32.582  27.994  24.927  1.00  0.00    -0.458 OA
BRANCH   3   4
ATOM      4  C   UNL A   1      32.941  27.086  23.986  1.00  0.00     0.342 C 
ATOM      5  O   UNL A   1      33.025  27.279  22.783  1.00  0.00    -0.246 OA
BRANCH   4   6
ATOM      6  C   UNL A   1      33.125  25.751  24.585  1.00  0.00     0.103 A 
ATOM      7  C   UNL A   1      32.026  24.972  24.962  1.00  0.00     0.147 A 
ATOM      8  C   UNL A   1      32.196  23.907  25.851  1.00  0.00     0.061 A 
ATOM      9  Br  UNL A   1      30.713  22.966  26.571  1.00  0.00    -0.047 Br
ATOM     10  C   UNL A   1      33.479  23.509  26.213  1.00  0.00     0.023 A 
ATOM     11  C   UNL A   1      34.416  25.335  24.925  1.00  0.00     0.023 A 
ATOM     12  C   UNL A   1      34.598  24.179  25.696  1.00  0.00    -0.049 A 
ATOM     13  C   UNL A   1      35.969  23.656  25.994  1.00  0.00     0.044 C 
BRANCH   7  14
ATOM     14  O   UNL A   1      30.795  25.184  24.403  1.00  0.00    -0.495 OA
ATOM     15  C   UNL A   1      30.730  24.471  23.156  1.00  0.00     0.278 C 
ENDBRANCH   7  14
ENDBRANCH   4   6
ENDBRANCH   3   4
ENDBRANCH   2   3
ENDBRANCH   1   2
BRANCH   1  16
ATOM     16  O   UNL A   1      32.342  29.921  26.579  1.00  0.00    -0.458 OA
BRANCH  16  17
ATOM     17  C   UNL A   1      32.903  31.047  27.078  1.00  0.00     0.338 C 
ATOM     18  O   UNL A   1      32.359  32.124  27.247  1.00  0.00    -0.246 OA
BRANCH  17  19
ATOM     19  C   UNL A   1      34.306  30.804  27.479  1.00  0.00     0.060 A 
ATOM     20  C   UNL A   1      34.766  29.509  27.687  1.00  0.00     0.016 A 
ATOM     21  C   UNL A   1      35.108  31.883  27.857  1.00  0.00     0.016 A 
ATOM     22  C   UNL A   1      35.935  29.295  28.418  1.00  0.00     0.010 A 
ATOM     23  C   UNL A   1      36.352  31.658  28.462  1.00  0.00     0.010 A 
ATOM     24  C   UNL A   1      36.765  30.358  28.803  1.00  0.00    -0.014 A 
BRANCH  24  25
ATOM     25  C   UNL A   1      38.039  30.121  29.554  1.00  0.00     0.031 A 
ATOM     26  C   UNL A   1      39.145  29.270  28.967  1.00  0.00     0.074 A 
ATOM     27  C   UNL A   1      38.214  30.647  30.786  1.00  0.00     0.049 A 
ATOM     28  N   UNL A   1      40.182  28.732  29.564  1.00  0.00    -0.248 NA
ATOM     29  C   UNL A   1      39.072  28.967  27.527  1.00  0.00     0.031 C 
ATOM     30  C   UNL A   1      37.281  31.538  31.480  1.00  0.00     0.029 A 
ATOM     31  N   UNL A   1      39.246  30.497  31.685  1.00  0.00    -0.354 N 
ATOM     32  C   UNL A   1      40.835  27.973  28.598  1.00  0.00     0.074 A 
ATOM     33  C   UNL A   1      40.088  28.128  27.368  1.00  0.00     0.031 C 
ATOM     34  C   UNL A   1      37.794  31.884  32.668  1.00  0.00     0.029 A 
ATOM     35  C   UNL A   1      39.022  31.135  32.883  1.00  0.00     0.049 A 
ATOM     36  H   UNL A   1      40.063  29.984  31.490  1.00  0.00     0.167 HD
ATOM     37  C   UNL A   1      41.946  27.207  28.730  1.00  0.00     0.031 A 
ATOM     38  C   UNL A   1      39.671  31.072  34.060  1.00  0.00     0.031 A 
ATOM     39  C   UNL A   1      42.728  27.106  29.937  1.00  0.00     0.049 A 
ATOM     40  C   UNL A   1      40.860  30.170  34.196  1.00  0.00     0.074 A 
ATOM     41  C   UNL A   1      43.893  26.388  30.148  1.00  0.00     0.029 A 
ATOM     42  N   UNL A   1      42.434  27.748  31.128  1.00  0.00    -0.354 N 
ATOM     43  N   UNL A   1      41.434  29.417  33.290  1.00  0.00    -0.248 NA
ATOM     44  C   UNL A   1      41.481  30.095  35.526  1.00  0.00     0.031 C 
ATOM     45  C   UNL A   1      44.272  26.545  31.484  1.00  0.00     0.029 A 
ATOM     46  C   UNL A   1      43.380  27.415  32.086  1.00  0.00     0.049 A 
ATOM     47  H   UNL A   1      41.670  28.349  31.273  1.00  0.00     0.167 HD
ATOM     48  C   UNL A   1      42.494  28.797  33.935  1.00  0.00     0.074 A 
ATOM     49  C   UNL A   1      42.500  29.279  35.299  1.00  0.00     0.031 C 
ATOM     50  C   UNL A   1      43.381  27.903  33.439  1.00  0.00     0.031 A 
BRANCH  37  51
ATOM     51  C   UNL A   1      42.385  26.364  27.562  1.00  0.00    -0.014 A 
ATOM     52  C   UNL A   1      41.882  25.074  27.343  1.00  0.00     0.009 A 
ATOM     53  C   UNL A   1      43.230  26.935  26.592  1.00  0.00     0.009 A 
ATOM     54  C   UNL A   1      42.223  24.372  26.181  1.00  0.00     0.001 A 
ATOM     55  C   UNL A   1      43.546  26.243  25.422  1.00  0.00     0.001 A 
ATOM     56  C   UNL A   1      43.044  24.959  25.219  1.00  0.00     0.000 A 
ENDBRANCH  37  51
BRANCH  38  57
ATOM     57  C   UNL A   1      39.142  31.808  35.241  1.00  0.00    -0.014 A 
ATOM     58  C   UNL A   1      38.303  31.175  36.169  1.00  0.00     0.009 A 
ATOM     59  C   UNL A   1      39.466  33.162  35.434  1.00  0.00     0.009 A 
ATOM     60  C   UNL A   1      37.778  31.890  37.248  1.00  0.00     0.001 A 
ATOM     61  C   UNL A   1      38.975  33.861  36.537  1.00  0.00     0.001 A 
ATOM     62  C   UNL A   1      38.120  33.229  37.435  1.00  0.00     0.000 A 
ENDBRANCH  38  57
BRANCH  50  63
ATOM     63  C   UNL A   1      44.466  27.432  34.366  1.00  0.00    -0.014 A 
ATOM     64  C   UNL A   1      44.310  26.276  35.147  1.00  0.00     0.009 A 
ATOM     65  C   UNL A   1      45.666  28.155  34.451  1.00  0.00     0.009 A 
ATOM     66  C   UNL A   1      45.319  25.880  36.028  1.00  0.00     0.001 A 
ATOM     67  C   UNL A   1      46.684  27.738  35.307  1.00  0.00     0.001 A 
ATOM     68  C   UNL A   1      46.505  26.609  36.103  1.00  0.00     0.000 A 
ENDBRANCH  50  63
ENDBRANCH  24  25
ENDBRANCH  17  19
ENDBRANCH  16  17
ENDBRANCH   1  16
TORSDOF 12
ENDMDL
