MODEL 1
REMARK VINA RESULT:     -11.2      0.000      0.000
REMARK SMILES CC1(C)[C@H](C(=O)OCCOC(=O)c2ccc(-c3c4nc(c(-c5ccccc5)c5ccc([nH]5)c(-c5ccccc5)c5nc(c(-c6ccccc6)c6ccc3[nH]6)C=C5)C=C4)cc2)[C@@H]1C(=O)Nc1ccc(NC(=O)C2CCC2)cc1
REMARK SMILES IDX 8 1 7 2 5 3 6 4 4 5 1 6 2 7 3 8 61 9 62 10 63 11 64 12 65 14
REMARK SMILES IDX 66 15 77 16 67 17 76 18 68 19 69 20 70 21 71 23 72 24 73 25
REMARK SMILES IDX 75 26 74 27 9 28 10 29 11 30 12 31 13 32 14 33 60 34 15 35
REMARK SMILES IDX 59 36 16 37 17 38 18 39 53 40 19 41 58 42 52 43 54 44 20 45
REMARK SMILES IDX 57 46 51 47 50 48 21 50 43 51 28 52 42 53 29 54 32 55 41 56
REMARK SMILES IDX 55 57 30 58 31 59 40 61 56 62 33 63 22 64 23 65 27 66 24 67
REMARK SMILES IDX 26 68 25 69 44 70 45 71 49 72 46 73 48 74 47 75 34 76 35 77
REMARK SMILES IDX 39 78 36 79 38 80 37 81
REMARK H PARENT 64 13 69 22 54 49 32 60
REMARK Flexibility Score: inf
ROOT
ATOM      1  C   UNL A   1      32.965  30.346  26.244  1.00  0.00     0.274 C 
ENDROOT
BRANCH   1   2
ATOM      2  O   UNL A   1      31.583  29.996  26.009  1.00  0.00    -0.462 OA
BRANCH   2   3
ATOM      3  C   UNL A   1      31.367  29.299  24.862  1.00  0.00     0.310 C 
ATOM      4  O   UNL A   1      30.621  29.668  23.975  1.00  0.00    -0.252 OA
BRANCH   3   5
ATOM      5  C   UNL A   1      32.214  28.110  24.624  1.00  0.00     0.118 C 
ATOM      6  C   UNL A   1      33.828  26.474  25.685  1.00  0.00     0.013 C 
ATOM      7  C   UNL A   1      32.389  26.896  25.487  1.00  0.00    -0.009 C 
ATOM      8  C   UNL A   1      31.552  26.737  26.731  1.00  0.00     0.013 C 
ATOM      9  C   UNL A   1      31.774  26.784  24.073  1.00  0.00     0.100 C 
BRANCH   9  10
ATOM     10  C   UNL A   1      30.397  26.278  23.886  1.00  0.00     0.228 C 
ATOM     11  O   UNL A   1      29.510  27.056  23.545  1.00  0.00    -0.274 OA
ATOM     12  N   UNL A   1      30.066  24.969  24.143  1.00  0.00    -0.326 N 
ATOM     13  H   UNL A   1      29.108  24.778  24.266  1.00  0.00     0.169 HD
BRANCH  12  14
ATOM     14  C   UNL A   1      30.928  23.878  24.249  1.00  0.00     0.041 A 
ATOM     15  C   UNL A   1      31.750  23.665  23.152  1.00  0.00     0.028 A 
ATOM     16  C   UNL A   1      31.057  23.073  25.379  1.00  0.00     0.028 A 
ATOM     17  C   UNL A   1      32.797  22.756  23.248  1.00  0.00     0.028 A 
ATOM     18  C   UNL A   1      32.043  22.066  25.402  1.00  0.00     0.028 A 
ATOM     19  C   UNL A   1      32.949  21.919  24.336  1.00  0.00     0.041 A 
BRANCH  19  20
ATOM     20  N   UNL A   1      34.002  21.002  24.470  1.00  0.00    -0.326 N 
ATOM     21  C   UNL A   1      35.265  21.028  25.024  1.00  0.00     0.227 C 
ATOM     22  H   UNL A   1      33.787  20.128  24.072  1.00  0.00     0.169 HD
ATOM     23  O   UNL A   1      35.850  19.926  24.986  1.00  0.00    -0.274 OA
BRANCH  21  24
ATOM     24  C   UNL A   1      35.979  22.240  25.677  1.00  0.00     0.079 C 
ATOM     25  C   UNL A   1      37.549  22.151  25.573  1.00  0.00     0.013 C 
ATOM     26  C   UNL A   1      36.173  23.656  25.054  1.00  0.00     0.013 C 
ATOM     27  C   UNL A   1      37.588  23.679  25.633  1.00  0.00     0.002 C 
ENDBRANCH  21  24
ENDBRANCH  19  20
ENDBRANCH  12  14
ENDBRANCH   9  10
ENDBRANCH   3   5
ENDBRANCH   2   3
ENDBRANCH   1   2
BRANCH   1  28
ATOM     28  C   UNL A   1      33.270  30.857  27.662  1.00  0.00     0.275 C 
BRANCH  28  29
ATOM     29  O   UNL A   1      34.507  31.588  27.765  1.00  0.00    -0.458 OA
BRANCH  29  30
ATOM     30  C   UNL A   1      35.152  31.437  28.945  1.00  0.00     0.338 C 
ATOM     31  O   UNL A   1      34.825  31.907  30.024  1.00  0.00    -0.246 OA
BRANCH  30  32
ATOM     32  C   UNL A   1      36.282  30.499  28.827  1.00  0.00     0.060 A 
ATOM     33  C   UNL A   1      36.803  29.961  30.006  1.00  0.00     0.016 A 
ATOM     34  C   UNL A   1      36.945  30.302  27.620  1.00  0.00     0.016 A 
ATOM     35  C   UNL A   1      38.004  29.271  30.014  1.00  0.00     0.010 A 
ATOM     36  C   UNL A   1      38.158  29.601  27.619  1.00  0.00     0.010 A 
ATOM     37  C   UNL A   1      38.707  29.117  28.822  1.00  0.00    -0.014 A 
BRANCH  37  38
ATOM     38  C   UNL A   1      40.083  28.580  28.866  1.00  0.00     0.031 A 
ATOM     39  C   UNL A   1      41.209  29.508  29.217  1.00  0.00     0.074 A 
ATOM     40  C   UNL A   1      40.315  27.275  28.645  1.00  0.00     0.049 A 
ATOM     41  N   UNL A   1      42.498  29.309  29.143  1.00  0.00    -0.248 NA
ATOM     42  C   UNL A   1      40.829  30.840  29.720  1.00  0.00     0.031 C 
ATOM     43  C   UNL A   1      39.289  26.257  28.417  1.00  0.00     0.029 A 
ATOM     44  N   UNL A   1      41.497  26.587  28.567  1.00  0.00    -0.354 N 
ATOM     45  C   UNL A   1      43.083  30.503  29.542  1.00  0.00     0.074 A 
ATOM     46  C   UNL A   1      42.012  31.421  29.861  1.00  0.00     0.031 C 
ATOM     47  C   UNL A   1      39.890  25.074  28.205  1.00  0.00     0.029 A 
ATOM     48  C   UNL A   1      41.336  25.270  28.215  1.00  0.00     0.049 A 
ATOM     49  H   UNL A   1      42.374  26.996  28.746  1.00  0.00     0.167 HD
ATOM     50  C   UNL A   1      44.400  30.808  29.618  1.00  0.00     0.031 A 
ATOM     51  C   UNL A   1      42.255  24.345  27.880  1.00  0.00     0.031 A 
ATOM     52  C   UNL A   1      45.453  29.881  29.301  1.00  0.00     0.049 A 
ATOM     53  C   UNL A   1      43.707  24.733  27.874  1.00  0.00     0.074 A 
ATOM     54  C   UNL A   1      46.820  30.085  29.326  1.00  0.00     0.029 A 
ATOM     55  N   UNL A   1      45.248  28.567  28.906  1.00  0.00    -0.354 N 
ATOM     56  N   UNL A   1      44.257  25.879  28.194  1.00  0.00    -0.248 NA
ATOM     57  C   UNL A   1      44.665  23.702  27.452  1.00  0.00     0.031 C 
ATOM     58  C   UNL A   1      47.442  28.907  28.898  1.00  0.00     0.029 A 
ATOM     59  C   UNL A   1      46.464  27.953  28.666  1.00  0.00     0.049 A 
ATOM     60  H   UNL A   1      44.369  28.136  28.810  1.00  0.00     0.167 HD
ATOM     61  C   UNL A   1      45.626  25.699  28.044  1.00  0.00     0.074 A 
ATOM     62  C   UNL A   1      45.821  24.331  27.610  1.00  0.00     0.031 C 
ATOM     63  C   UNL A   1      46.632  26.585  28.250  1.00  0.00     0.031 A 
BRANCH  50  64
ATOM     64  C   UNL A   1      44.766  32.214  29.997  1.00  0.00    -0.014 A 
ATOM     65  C   UNL A   1      45.010  32.581  31.329  1.00  0.00     0.009 A 
ATOM     66  C   UNL A   1      44.884  33.188  28.992  1.00  0.00     0.009 A 
ATOM     67  C   UNL A   1      45.333  33.902  31.650  1.00  0.00     0.001 A 
ATOM     68  C   UNL A   1      45.234  34.501  29.311  1.00  0.00     0.001 A 
ATOM     69  C   UNL A   1      45.450  34.859  30.641  1.00  0.00     0.000 A 
ENDBRANCH  50  64
BRANCH  51  70
ATOM     70  C   UNL A   1      41.822  22.985  27.464  1.00  0.00    -0.014 A 
ATOM     71  C   UNL A   1      41.574  21.990  28.421  1.00  0.00     0.009 A 
ATOM     72  C   UNL A   1      41.656  22.676  26.105  1.00  0.00     0.009 A 
ATOM     73  C   UNL A   1      41.190  20.707  28.022  1.00  0.00     0.001 A 
ATOM     74  C   UNL A   1      41.242  21.402  25.711  1.00  0.00     0.001 A 
ATOM     75  C   UNL A   1      41.018  20.416  26.669  1.00  0.00     0.000 A 
ENDBRANCH  51  70
BRANCH  63  76
ATOM     76  C   UNL A   1      48.035  26.084  28.070  1.00  0.00    -0.014 A 
ATOM     77  C   UNL A   1      48.687  26.162  26.831  1.00  0.00     0.009 A 
ATOM     78  C   UNL A   1      48.732  25.580  29.180  1.00  0.00     0.009 A 
ATOM     79  C   UNL A   1      50.006  25.720  26.702  1.00  0.00     0.001 A 
ATOM     80  C   UNL A   1      50.058  25.166  29.054  1.00  0.00     0.001 A 
ATOM     81  C   UNL A   1      50.691  25.230  27.814  1.00  0.00     0.000 A 
ENDBRANCH  63  76
ENDBRANCH  37  38
ENDBRANCH  30  32
ENDBRANCH  29  30
ENDBRANCH  28  29
ENDBRANCH   1  28
TORSDOF 15
ENDMDL
MODEL 2
REMARK VINA RESULT:     -11.0      3.627      6.489
REMARK SMILES CC1(C)[C@H](C(=O)OCCOC(=O)c2ccc(-c3c4nc(c(-c5ccccc5)c5ccc([nH]5)c(-c5ccccc5)c5nc(c(-c6ccccc6)c6ccc3[nH]6)C=C5)C=C4)cc2)[C@@H]1C(=O)Nc1ccc(NC(=O)C2CCC2)cc1
REMARK SMILES IDX 8 1 7 2 5 3 6 4 4 5 1 6 2 7 3 8 61 9 62 10 63 11 64 12 65 14
REMARK SMILES IDX 66 15 77 16 67 17 76 18 68 19 69 20 70 21 71 23 72 24 73 25
REMARK SMILES IDX 75 26 74 27 9 28 10 29 11 30 12 31 13 32 14 33 60 34 15 35
REMARK SMILES IDX 59 36 16 37 17 38 18 39 53 40 19 41 58 42 52 43 54 44 20 45
REMARK SMILES IDX 57 46 51 47 50 48 21 50 43 51 28 52 42 53 29 54 32 55 41 56
REMARK SMILES IDX 55 57 30 58 31 59 40 61 56 62 33 63 22 64 23 65 27 66 24 67
REMARK SMILES IDX 26 68 25 69 44 70 45 71 49 72 46 73 48 74 47 75 34 76 35 77
REMARK SMILES IDX 39 78 36 79 38 80 37 81
REMARK H PARENT 64 13 69 22 54 49 32 60
REMARK Flexibility Score: inf
ROOT
ATOM      1  C   UNL A   1      31.286  29.706  25.240  1.00  0.00     0.274 C 
ENDROOT
BRANCH   1   2
ATOM      2  O   UNL A   1      31.072  28.285  25.388  1.00  0.00    -0.462 OA
BRANCH   2   3
ATOM      3  C   UNL A   1      30.803  27.633  24.226  1.00  0.00     0.310 C 
ATOM      4  O   UNL A   1      30.110  28.089  23.337  1.00  0.00    -0.252 OA
BRANCH   3   5
ATOM      5  C   UNL A   1      31.532  26.370  23.975  1.00  0.00     0.118 C 
ATOM      6  C   UNL A   1      33.821  25.311  23.762  1.00  0.00     0.013 C 
ATOM      7  C   UNL A   1      32.738  25.829  24.682  1.00  0.00    -0.009 C 
ATOM      8  C   UNL A   1      33.285  26.552  25.887  1.00  0.00     0.013 C 
ATOM      9  C   UNL A   1      31.386  25.079  24.728  1.00  0.00     0.100 C 
BRANCH   9  10
ATOM     10  C   UNL A   1      30.699  24.839  26.015  1.00  0.00     0.228 C 
ATOM     11  O   UNL A   1      29.697  25.493  26.296  1.00  0.00    -0.274 OA
ATOM     12  N   UNL A   1      31.184  23.945  26.940  1.00  0.00    -0.326 N 
ATOM     13  H   UNL A   1      30.846  24.043  27.859  1.00  0.00     0.169 HD
BRANCH  12  14
ATOM     14  C   UNL A   1      32.099  22.915  26.728  1.00  0.00     0.041 A 
ATOM     15  C   UNL A   1      31.815  22.082  25.656  1.00  0.00     0.028 A 
ATOM     16  C   UNL A   1      33.274  22.732  27.455  1.00  0.00     0.028 A 
ATOM     17  C   UNL A   1      32.774  21.176  25.219  1.00  0.00     0.028 A 
ATOM     18  C   UNL A   1      34.173  21.715  27.073  1.00  0.00     0.028 A 
ATOM     19  C   UNL A   1      33.940  20.941  25.922  1.00  0.00     0.041 A 
BRANCH  19  20
ATOM     20  N   UNL A   1      34.934  20.046  25.502  1.00  0.00    -0.326 N 
ATOM     21  C   UNL A   1      36.224  20.159  25.024  1.00  0.00     0.227 C 
ATOM     22  H   UNL A   1      34.639  19.108  25.561  1.00  0.00     0.169 HD
ATOM     23  O   UNL A   1      36.788  19.060  24.843  1.00  0.00    -0.274 OA
BRANCH  21  24
ATOM     24  C   UNL A   1      37.003  21.466  24.728  1.00  0.00     0.079 C 
ATOM     25  C   UNL A   1      36.184  22.475  23.837  1.00  0.00     0.013 C 
ATOM     26  C   UNL A   1      37.175  22.687  25.681  1.00  0.00     0.013 C 
ATOM     27  C   UNL A   1      36.986  23.610  24.477  1.00  0.00     0.002 C 
ENDBRANCH  21  24
ENDBRANCH  19  20
ENDBRANCH  12  14
ENDBRANCH   9  10
ENDBRANCH   3   5
ENDBRANCH   2   3
ENDBRANCH   1   2
BRANCH   1  28
ATOM     28  C   UNL A   1      32.677  30.198  25.676  1.00  0.00     0.275 C 
BRANCH  28  29
ATOM     29  O   UNL A   1      32.797  30.427  27.094  1.00  0.00    -0.458 OA
BRANCH  29  30
ATOM     30  C   UNL A   1      33.515  31.524  27.427  1.00  0.00     0.338 C 
ATOM     31  O   UNL A   1      33.097  32.666  27.540  1.00  0.00    -0.246 OA
BRANCH  30  32
ATOM     32  C   UNL A   1      34.902  31.175  27.780  1.00  0.00     0.060 A 
ATOM     33  C   UNL A   1      35.171  29.843  28.106  1.00  0.00     0.016 A 
ATOM     34  C   UNL A   1      35.872  32.150  27.982  1.00  0.00     0.016 A 
ATOM     35  C   UNL A   1      36.375  29.470  28.680  1.00  0.00     0.010 A 
ATOM     36  C   UNL A   1      37.095  31.780  28.557  1.00  0.00     0.010 A 
ATOM     37  C   UNL A   1      37.333  30.446  28.941  1.00  0.00    -0.014 A 
BRANCH  37  38
ATOM     38  C   UNL A   1      38.518  30.089  29.749  1.00  0.00     0.031 A 
ATOM     39  C   UNL A   1      39.592  29.249  29.122  1.00  0.00     0.074 A 
ATOM     40  C   UNL A   1      38.655  30.551  31.004  1.00  0.00     0.049 A 
ATOM     41  N   UNL A   1      40.620  28.669  29.682  1.00  0.00    -0.248 NA
ATOM     42  C   UNL A   1      39.493  29.034  27.668  1.00  0.00     0.031 C 
ATOM     43  C   UNL A   1      37.737  31.474  31.673  1.00  0.00     0.029 A 
ATOM     44  N   UNL A   1      39.619  30.293  31.941  1.00  0.00    -0.354 N 
ATOM     45  C   UNL A   1      41.262  27.982  28.661  1.00  0.00     0.074 A 
ATOM     46  C   UNL A   1      40.514  28.218  27.447  1.00  0.00     0.031 C 
ATOM     47  C   UNL A   1      38.174  31.690  32.925  1.00  0.00     0.029 A 
ATOM     48  C   UNL A   1      39.358  30.869  33.160  1.00  0.00     0.049 A 
ATOM     49  H   UNL A   1      40.419  29.750  31.760  1.00  0.00     0.167 HD
ATOM     50  C   UNL A   1      42.372  27.209  28.739  1.00  0.00     0.031 A 
ATOM     51  C   UNL A   1      39.973  30.702  34.346  1.00  0.00     0.031 A 
ATOM     52  C   UNL A   1      43.107  26.989  29.954  1.00  0.00     0.049 A 
ATOM     53  C   UNL A   1      41.142  29.761  34.431  1.00  0.00     0.074 A 
ATOM     54  C   UNL A   1      44.234  26.213  30.154  1.00  0.00     0.029 A 
ATOM     55  N   UNL A   1      42.786  27.556  31.179  1.00  0.00    -0.354 N 
ATOM     56  N   UNL A   1      41.713  29.065  33.478  1.00  0.00    -0.248 NA
ATOM     57  C   UNL A   1      41.747  29.576  35.757  1.00  0.00     0.031 C 
ATOM     58  C   UNL A   1      44.566  26.272  31.511  1.00  0.00     0.029 A 
ATOM     59  C   UNL A   1      43.683  27.133  32.143  1.00  0.00     0.049 A 
ATOM     60  H   UNL A   1      42.033  28.168  31.338  1.00  0.00     0.167 HD
ATOM     61  C   UNL A   1      42.763  28.385  34.081  1.00  0.00     0.074 A 
ATOM     62  C   UNL A   1      42.752  28.757  35.481  1.00  0.00     0.031 C 
ATOM     63  C   UNL A   1      43.659  27.531  33.527  1.00  0.00     0.031 A 
BRANCH  50  64
ATOM     64  C   UNL A   1      42.811  26.499  27.490  1.00  0.00    -0.014 A 
ATOM     65  C   UNL A   1      43.775  27.046  26.630  1.00  0.00     0.009 A 
ATOM     66  C   UNL A   1      42.256  25.248  27.180  1.00  0.00     0.009 A 
ATOM     67  C   UNL A   1      44.150  26.368  25.468  1.00  0.00     0.001 A 
ATOM     68  C   UNL A   1      42.653  24.558  26.033  1.00  0.00     0.001 A 
ATOM     69  C   UNL A   1      43.593  25.122  25.173  1.00  0.00     0.000 A 
ENDBRANCH  50  64
BRANCH  51  70
ATOM     70  C   UNL A   1      39.456  31.395  35.555  1.00  0.00    -0.014 A 
ATOM     71  C   UNL A   1      38.356  30.881  36.258  1.00  0.00     0.009 A 
ATOM     72  C   UNL A   1      40.061  32.577  36.011  1.00  0.00     0.009 A 
ATOM     73  C   UNL A   1      37.861  31.550  37.381  1.00  0.00     0.001 A 
ATOM     74  C   UNL A   1      39.582  33.226  37.151  1.00  0.00     0.001 A 
ATOM     75  C   UNL A   1      38.478  32.717  37.829  1.00  0.00     0.000 A 
ENDBRANCH  51  70
BRANCH  63  76
ATOM     76  C   UNL A   1      44.738  26.991  34.421  1.00  0.00    -0.014 A 
ATOM     77  C   UNL A   1      44.594  25.763  35.082  1.00  0.00     0.009 A 
ATOM     78  C   UNL A   1      45.941  27.702  34.551  1.00  0.00     0.009 A 
ATOM     79  C   UNL A   1      45.629  25.270  35.880  1.00  0.00     0.001 A 
ATOM     80  C   UNL A   1      46.983  27.193  35.325  1.00  0.00     0.001 A 
ATOM     81  C   UNL A   1      46.824  25.981  35.994  1.00  0.00     0.000 A 
ENDBRANCH  63  76
ENDBRANCH  37  38
ENDBRANCH  30  32
ENDBRANCH  29  30
ENDBRANCH  28  29
ENDBRANCH   1  28
TORSDOF 15
ENDMDL
MODEL 3
REMARK VINA RESULT:     -10.8      1.733      7.790
REMARK SMILES CC1(C)[C@H](C(=O)OCCOC(=O)c2ccc(-c3c4nc(c(-c5ccccc5)c5ccc([nH]5)c(-c5ccccc5)c5nc(c(-c6ccccc6)c6ccc3[nH]6)C=C5)C=C4)cc2)[C@@H]1C(=O)Nc1ccc(NC(=O)C2CCC2)cc1
REMARK SMILES IDX 8 1 7 2 5 3 6 4 4 5 1 6 2 7 3 8 61 9 62 10 63 11 64 12 65 14
REMARK SMILES IDX 66 15 77 16 67 17 76 18 68 19 69 20 70 21 71 23 72 24 73 25
REMARK SMILES IDX 75 26 74 27 9 28 10 29 11 30 12 31 13 32 14 33 60 34 15 35
REMARK SMILES IDX 59 36 16 37 17 38 18 39 53 40 19 41 58 42 52 43 54 44 20 45
REMARK SMILES IDX 57 46 51 47 50 48 21 50 43 51 28 52 42 53 29 54 32 55 41 56
REMARK SMILES IDX 55 57 30 58 31 59 40 61 56 62 33 63 22 64 23 65 27 66 24 67
REMARK SMILES IDX 26 68 25 69 44 70 45 71 49 72 46 73 48 74 47 75 34 76 35 77
REMARK SMILES IDX 39 78 36 79 38 80 37 81
REMARK H PARENT 64 13 69 22 54 49 32 60
REMARK Flexibility Score: inf
ROOT
ATOM      1  C   UNL A   1      37.742  19.767  24.929  1.00  0.00     0.274 C 
ENDROOT
BRANCH   1   2
ATOM      2  O   UNL A   1      36.861  20.849  24.555  1.00  0.00    -0.462 OA
BRANCH   2   3
ATOM      3  C   UNL A   1      35.554  20.643  24.869  1.00  0.00     0.310 C 
ATOM      4  O   UNL A   1      35.036  19.545  24.928  1.00  0.00    -0.252 OA
BRANCH   3   5
ATOM      5  C   UNL A   1      34.774  21.818  25.317  1.00  0.00     0.118 C 
ATOM      6  C   UNL A   1      34.823  24.327  25.654  1.00  0.00     0.013 C 
ATOM      7  C   UNL A   1      34.676  23.174  24.685  1.00  0.00    -0.009 C 
ATOM      8  C   UNL A   1      35.346  23.431  23.359  1.00  0.00     0.013 C 
ATOM      9  C   UNL A   1      33.434  22.261  24.805  1.00  0.00     0.100 C 
BRANCH   9  10
ATOM     10  C   UNL A   1      32.715  21.801  23.598  1.00  0.00     0.228 C 
ATOM     11  O   UNL A   1      32.745  20.611  23.294  1.00  0.00    -0.274 OA
ATOM     12  N   UNL A   1      32.060  22.679  22.767  1.00  0.00    -0.326 N 
ATOM     13  H   UNL A   1      31.853  22.350  21.863  1.00  0.00     0.169 HD
BRANCH  12  14
ATOM     14  C   UNL A   1      31.654  23.982  23.055  1.00  0.00     0.041 A 
ATOM     15  C   UNL A   1      32.281  24.974  22.316  1.00  0.00     0.028 A 
ATOM     16  C   UNL A   1      30.641  24.319  23.950  1.00  0.00     0.028 A 
ATOM     17  C   UNL A   1      31.790  26.273  22.358  1.00  0.00     0.028 A 
ATOM     18  C   UNL A   1      30.248  25.667  24.074  1.00  0.00     0.028 A 
ATOM     19  C   UNL A   1      30.805  26.660  23.248  1.00  0.00     0.041 A 
BRANCH  19  20
ATOM     20  N   UNL A   1      30.277  27.958  23.307  1.00  0.00    -0.326 N 
ATOM     21  C   UNL A   1      30.641  29.142  23.914  1.00  0.00     0.227 C 
ATOM     22  H   UNL A   1      29.444  28.045  22.789  1.00  0.00     0.169 HD
ATOM     23  O   UNL A   1      29.897  30.102  23.624  1.00  0.00    -0.274 OA
BRANCH  21  24
ATOM     24  C   UNL A   1      31.845  29.379  24.862  1.00  0.00     0.079 C 
ATOM     25  C   UNL A   1      31.817  28.444  26.129  1.00  0.00     0.013 C 
ATOM     26  C   UNL A   1      33.295  28.835  24.684  1.00  0.00     0.013 C 
ATOM     27  C   UNL A   1      33.341  28.563  26.188  1.00  0.00     0.002 C 
ENDBRANCH  21  24
ENDBRANCH  19  20
ENDBRANCH  12  14
ENDBRANCH   9  10
ENDBRANCH   3   5
ENDBRANCH   2   3
ENDBRANCH   1   2
BRANCH   1  28
ATOM     28  C   UNL A   1      39.072  20.208  25.566  1.00  0.00     0.275 C 
BRANCH  28  29
ATOM     29  O   UNL A   1      40.055  19.158  25.649  1.00  0.00    -0.458 OA
BRANCH  29  30
ATOM     30  C   UNL A   1      41.311  19.584  25.916  1.00  0.00     0.338 C 
ATOM     31  O   UNL A   1      42.353  19.011  25.639  1.00  0.00    -0.246 OA
BRANCH  30  32
ATOM     32  C   UNL A   1      41.309  20.938  26.497  1.00  0.00     0.060 A 
ATOM     33  C   UNL A   1      41.768  21.986  25.695  1.00  0.00     0.016 A 
ATOM     34  C   UNL A   1      41.056  21.154  27.847  1.00  0.00     0.016 A 
ATOM     35  C   UNL A   1      42.031  23.238  26.227  1.00  0.00     0.010 A 
ATOM     36  C   UNL A   1      41.314  22.419  28.391  1.00  0.00     0.010 A 
ATOM     37  C   UNL A   1      41.837  23.452  27.589  1.00  0.00    -0.014 A 
BRANCH  37  38
ATOM     38  C   UNL A   1      42.322  24.710  28.193  1.00  0.00     0.031 A 
ATOM     39  C   UNL A   1      41.336  25.808  28.466  1.00  0.00     0.074 A 
ATOM     40  C   UNL A   1      43.614  24.848  28.540  1.00  0.00     0.049 A 
ATOM     41  N   UNL A   1      41.555  27.047  28.818  1.00  0.00    -0.248 NA
ATOM     42  C   UNL A   1      39.912  25.461  28.321  1.00  0.00     0.031 C 
ATOM     43  C   UNL A   1      44.636  23.806  28.437  1.00  0.00     0.029 A 
ATOM     44  N   UNL A   1      44.284  25.933  29.039  1.00  0.00    -0.354 N 
ATOM     45  C   UNL A   1      40.302  27.640  28.889  1.00  0.00     0.074 A 
ATOM     46  C   UNL A   1      39.327  26.628  28.549  1.00  0.00     0.031 C 
ATOM     47  C   UNL A   1      45.813  24.311  28.844  1.00  0.00     0.029 A 
ATOM     48  C   UNL A   1      45.635  25.722  29.168  1.00  0.00     0.049 A 
ATOM     49  H   UNL A   1      43.843  26.777  29.283  1.00  0.00     0.167 HD
ATOM     50  C   UNL A   1      39.998  28.923  29.197  1.00  0.00     0.031 A 
ATOM     51  C   UNL A   1      46.622  26.591  29.456  1.00  0.00     0.031 A 
ATOM     52  C   UNL A   1      40.980  29.916  29.538  1.00  0.00     0.049 A 
ATOM     53  C   UNL A   1      46.273  28.033  29.696  1.00  0.00     0.074 A 
ATOM     54  C   UNL A   1      40.789  31.250  29.851  1.00  0.00     0.029 A 
ATOM     55  N   UNL A   1      42.344  29.675  29.615  1.00  0.00    -0.354 N 
ATOM     56  N   UNL A   1      45.095  28.607  29.706  1.00  0.00    -0.248 NA
ATOM     57  C   UNL A   1      47.392  28.950  29.957  1.00  0.00     0.031 C 
ATOM     58  C   UNL A   1      42.044  31.828  30.069  1.00  0.00     0.029 A 
ATOM     59  C   UNL A   1      43.009  30.840  29.953  1.00  0.00     0.049 A 
ATOM     60  H   UNL A   1      42.775  28.806  29.453  1.00  0.00     0.167 HD
ATOM     61  C   UNL A   1      45.326  29.944  30.005  1.00  0.00     0.074 A 
ATOM     62  C   UNL A   1      46.757  30.093  30.175  1.00  0.00     0.031 C 
ATOM     63  C   UNL A   1      44.433  30.957  30.131  1.00  0.00     0.031 A 
BRANCH  50  64
ATOM     64  C   UNL A   1      38.555  29.334  29.114  1.00  0.00    -0.014 A 
ATOM     65  C   UNL A   1      37.714  29.308  30.237  1.00  0.00     0.009 A 
ATOM     66  C   UNL A   1      38.035  29.770  27.886  1.00  0.00     0.009 A 
ATOM     67  C   UNL A   1      36.373  29.681  30.123  1.00  0.00     0.001 A 
ATOM     68  C   UNL A   1      36.701  30.169  27.780  1.00  0.00     0.001 A 
ATOM     69  C   UNL A   1      35.869  30.116  28.896  1.00  0.00     0.000 A 
ENDBRANCH  50  64
BRANCH  51  70
ATOM     70  C   UNL A   1      48.036  26.131  29.471  1.00  0.00    -0.014 A 
ATOM     71  C   UNL A   1      48.634  25.698  30.664  1.00  0.00     0.009 A 
ATOM     72  C   UNL A   1      48.794  26.123  28.289  1.00  0.00     0.009 A 
ATOM     73  C   UNL A   1      49.970  25.288  30.674  1.00  0.00     0.001 A 
ATOM     74  C   UNL A   1      50.119  25.684  28.299  1.00  0.00     0.001 A 
ATOM     75  C   UNL A   1      50.709  25.276  29.492  1.00  0.00     0.000 A 
ENDBRANCH  51  70
BRANCH  63  76
ATOM     76  C   UNL A   1      44.972  32.300  30.531  1.00  0.00    -0.014 A 
ATOM     77  C   UNL A   1      45.133  32.653  31.879  1.00  0.00     0.009 A 
ATOM     78  C   UNL A   1      45.381  33.201  29.535  1.00  0.00     0.009 A 
ATOM     79  C   UNL A   1      45.670  33.897  32.220  1.00  0.00     0.001 A 
ATOM     80  C   UNL A   1      45.943  34.430  29.879  1.00  0.00     0.001 A 
ATOM     81  C   UNL A   1      46.080  34.779  31.221  1.00  0.00     0.000 A 
ENDBRANCH  63  76
ENDBRANCH  37  38
ENDBRANCH  30  32
ENDBRANCH  29  30
ENDBRANCH  28  29
ENDBRANCH   1  28
TORSDOF 15
ENDMDL
