MODEL 1
REMARK VINA RESULT:     -10.8      0.000      0.000
REMARK SMILES CCC(CC)(NC(=O)c1ccc(NC(C)=O)cc1)C(=O)OCCOC(=O)c1ccc(-c2c3nc(c(-c4ccccc4)c4ccc([nH]4)c(-c4ccccc4)c4nc(c(-c5ccccc5)c5ccc2[nH]5)C=C4)C=C3)cc1
REMARK SMILES IDX 22 1 21 2 19 3 20 4 3 5 2 6 1 7 4 8 5 9 6 10 7 11 8 13 9 14
REMARK SMILES IDX 10 15 18 16 11 17 17 18 12 19 13 20 14 21 15 23 16 24 23 25
REMARK SMILES IDX 24 26 25 27 26 28 27 29 28 30 74 31 29 32 73 33 30 34 31 35
REMARK SMILES IDX 32 36 67 37 33 38 72 39 66 40 68 41 34 42 71 43 65 44 64 45
REMARK SMILES IDX 35 47 57 48 42 49 56 50 43 51 46 52 55 53 69 54 44 55 45 56
REMARK SMILES IDX 54 58 70 59 47 60 36 61 37 62 41 63 38 64 40 65 39 66 58 67
REMARK SMILES IDX 59 68 63 69 60 70 62 71 61 72 48 73 49 74 53 75 50 76 52 77
REMARK SMILES IDX 51 78
REMARK H PARENT 6 12 13 22 68 46 46 57
REMARK Flexibility Score: inf
ROOT
ATOM      1  C   UNL A   1      31.870  28.289  26.628  1.00  0.00     0.274 C 
ENDROOT
BRANCH   1   2
ATOM      2  O   UNL A   1      32.207  27.075  25.919  1.00  0.00    -0.460 OA
BRANCH   2   3
ATOM      3  C   UNL A   1      31.286  26.088  25.943  1.00  0.00     0.331 C 
ATOM      4  O   UNL A   1      30.222  26.195  26.547  1.00  0.00    -0.249 OA
BRANCH   3   5
ATOM      5  C   UNL A   1      31.745  24.746  25.284  1.00  0.00     0.137 C 
BRANCH   5   6
ATOM      6  C   UNL A   1      30.754  24.453  24.093  1.00  0.00     0.037 C 
ATOM      7  C   UNL A   1      30.848  25.285  22.818  1.00  0.00     0.007 C 
ENDBRANCH   5   6
BRANCH   5   8
ATOM      8  C   UNL A   1      31.615  23.690  26.423  1.00  0.00     0.037 C 
ATOM      9  C   UNL A   1      30.584  22.588  26.201  1.00  0.00     0.007 C 
ENDBRANCH   5   8
BRANCH   5  10
ATOM     10  N   UNL A   1      33.097  24.585  24.628  1.00  0.00    -0.336 N 
ATOM     11  C   UNL A   1      33.734  23.699  23.804  1.00  0.00     0.252 C 
ATOM     12  H   UNL A   1      33.690  25.336  24.860  1.00  0.00     0.165 HD
ATOM     13  O   UNL A   1      34.514  24.140  22.961  1.00  0.00    -0.269 OA
BRANCH  11  14
ATOM     14  C   UNL A   1      33.736  22.254  24.044  1.00  0.00     0.039 A 
ATOM     15  C   UNL A   1      34.856  21.706  24.679  1.00  0.00     0.016 A 
ATOM     16  C   UNL A   1      32.729  21.420  23.568  1.00  0.00     0.016 A 
ATOM     17  C   UNL A   1      34.899  20.340  24.973  1.00  0.00     0.027 A 
ATOM     18  C   UNL A   1      32.773  20.051  23.875  1.00  0.00     0.027 A 
ATOM     19  C   UNL A   1      33.824  19.516  24.642  1.00  0.00     0.041 A 
BRANCH  19  20
ATOM     20  N   UNL A   1      33.657  18.209  25.155  1.00  0.00    -0.326 N 
ATOM     21  C   UNL A   1      33.798  17.020  24.456  1.00  0.00     0.221 C 
ATOM     22  H   UNL A   1      33.416  18.137  26.107  1.00  0.00     0.169 HD
ATOM     23  C   UNL A   1      33.963  15.830  25.370  1.00  0.00     0.114 C 
ATOM     24  O   UNL A   1      33.820  16.870  23.240  1.00  0.00    -0.275 OA
ENDBRANCH  19  20
ENDBRANCH  11  14
ENDBRANCH   5  10
ENDBRANCH   3   5
ENDBRANCH   2   3
ENDBRANCH   1   2
BRANCH   1  25
ATOM     25  C   UNL A   1      31.932  29.490  25.695  1.00  0.00     0.275 C 
BRANCH  25  26
ATOM     26  O   UNL A   1      33.210  30.117  25.838  1.00  0.00    -0.458 OA
BRANCH  26  27
ATOM     27  C   UNL A   1      33.312  30.979  26.875  1.00  0.00     0.338 C 
ATOM     28  O   UNL A   1      32.530  31.829  27.249  1.00  0.00    -0.246 OA
BRANCH  27  29
ATOM     29  C   UNL A   1      34.582  30.729  27.543  1.00  0.00     0.060 A 
ATOM     30  C   UNL A   1      35.360  31.812  27.948  1.00  0.00     0.016 A 
ATOM     31  C   UNL A   1      35.010  29.418  27.720  1.00  0.00     0.016 A 
ATOM     32  C   UNL A   1      36.602  31.587  28.516  1.00  0.00     0.010 A 
ATOM     33  C   UNL A   1      36.212  29.191  28.380  1.00  0.00     0.010 A 
ATOM     34  C   UNL A   1      37.011  30.275  28.785  1.00  0.00    -0.014 A 
BRANCH  34  35
ATOM     35  C   UNL A   1      38.239  30.029  29.565  1.00  0.00     0.031 A 
ATOM     36  C   UNL A   1      39.346  29.207  28.984  1.00  0.00     0.074 A 
ATOM     37  C   UNL A   1      38.314  30.517  30.817  1.00  0.00     0.049 A 
ATOM     38  N   UNL A   1      40.401  28.715  29.576  1.00  0.00    -0.248 NA
ATOM     39  C   UNL A   1      39.248  28.882  27.551  1.00  0.00     0.031 C 
ATOM     40  C   UNL A   1      37.299  31.356  31.463  1.00  0.00     0.029 A 
ATOM     41  N   UNL A   1      39.285  30.379  31.773  1.00  0.00    -0.354 N 
ATOM     42  C   UNL A   1      41.068  27.980  28.605  1.00  0.00     0.074 A 
ATOM     43  C   UNL A   1      40.302  28.095  27.382  1.00  0.00     0.031 C 
ATOM     44  C   UNL A   1      37.717  31.686  32.693  1.00  0.00     0.029 A 
ATOM     45  C   UNL A   1      38.981  31.010  32.954  1.00  0.00     0.049 A 
ATOM     46  H   UNL A   1      40.120  29.877  31.627  1.00  0.00     0.167 HD
ATOM     47  C   UNL A   1      42.207  27.263  28.737  1.00  0.00     0.031 A 
ATOM     48  C   UNL A   1      39.626  31.006  34.132  1.00  0.00     0.031 A 
ATOM     49  C   UNL A   1      42.951  27.166  29.965  1.00  0.00     0.049 A 
ATOM     50  C   UNL A   1      40.872  30.184  34.257  1.00  0.00     0.074 A 
ATOM     51  C   UNL A   1      44.108  26.454  30.224  1.00  0.00     0.029 A 
ATOM     52  N   UNL A   1      42.608  27.818  31.142  1.00  0.00    -0.354 N 
ATOM     53  N   UNL A   1      41.467  29.451  33.347  1.00  0.00    -0.248 NA
ATOM     54  C   UNL A   1      41.525  30.173  35.571  1.00  0.00     0.031 C 
ATOM     55  C   UNL A   1      44.447  26.650  31.568  1.00  0.00     0.029 A 
ATOM     56  C   UNL A   1      43.526  27.519  32.133  1.00  0.00     0.049 A 
ATOM     57  H   UNL A   1      41.826  28.406  31.255  1.00  0.00     0.167 HD
ATOM     58  C   UNL A   1      42.569  28.893  33.975  1.00  0.00     0.074 A 
ATOM     59  C   UNL A   1      42.571  29.393  35.337  1.00  0.00     0.031 C 
ATOM     60  C   UNL A   1      43.492  28.035  33.477  1.00  0.00     0.031 A 
BRANCH  47  61
ATOM     61  C   UNL A   1      42.676  26.489  27.538  1.00  0.00    -0.014 A 
ATOM     62  C   UNL A   1      42.246  25.175  27.300  1.00  0.00     0.009 A 
ATOM     63  C   UNL A   1      43.562  27.090  26.630  1.00  0.00     0.009 A 
ATOM     64  C   UNL A   1      42.720  24.468  26.191  1.00  0.00     0.001 A 
ATOM     65  C   UNL A   1      44.016  26.389  25.511  1.00  0.00     0.001 A 
ATOM     66  C   UNL A   1      43.602  25.075  25.298  1.00  0.00     0.000 A 
ENDBRANCH  47  61
BRANCH  48  67
ATOM     67  C   UNL A   1      39.072  31.767  35.281  1.00  0.00    -0.014 A 
ATOM     68  C   UNL A   1      38.256  31.132  36.228  1.00  0.00     0.009 A 
ATOM     69  C   UNL A   1      39.390  33.123  35.459  1.00  0.00     0.009 A 
ATOM     70  C   UNL A   1      37.760  31.843  37.324  1.00  0.00     0.001 A 
ATOM     71  C   UNL A   1      38.917  33.823  36.571  1.00  0.00     0.001 A 
ATOM     72  C   UNL A   1      38.096  33.184  37.498  1.00  0.00     0.000 A 
ENDBRANCH  48  67
BRANCH  60  73
ATOM     73  C   UNL A   1      44.587  27.616  34.412  1.00  0.00    -0.014 A 
ATOM     74  C   UNL A   1      44.457  26.468  35.207  1.00  0.00     0.009 A 
ATOM     75  C   UNL A   1      45.768  28.370  34.477  1.00  0.00     0.009 A 
ATOM     76  C   UNL A   1      45.483  26.099  36.076  1.00  0.00     0.001 A 
ATOM     77  C   UNL A   1      46.801  27.986  35.331  1.00  0.00     0.001 A 
ATOM     78  C   UNL A   1      46.654  26.856  36.135  1.00  0.00     0.000 A 
ENDBRANCH  60  73
ENDBRANCH  34  35
ENDBRANCH  27  29
ENDBRANCH  26  27
ENDBRANCH  25  26
ENDBRANCH   1  25
TORSDOF 16
ENDMDL
MODEL 2
REMARK VINA RESULT:     -10.8      2.879      6.951
REMARK SMILES CCC(CC)(NC(=O)c1ccc(NC(C)=O)cc1)C(=O)OCCOC(=O)c1ccc(-c2c3nc(c(-c4ccccc4)c4ccc([nH]4)c(-c4ccccc4)c4nc(c(-c5ccccc5)c5ccc2[nH]5)C=C4)C=C3)cc1
REMARK SMILES IDX 22 1 21 2 19 3 20 4 3 5 2 6 1 7 4 8 5 9 6 10 7 11 8 13 9 14
REMARK SMILES IDX 10 15 18 16 11 17 17 18 12 19 13 20 14 21 15 23 16 24 23 25
REMARK SMILES IDX 24 26 25 27 26 28 27 29 28 30 74 31 29 32 73 33 30 34 31 35
REMARK SMILES IDX 32 36 67 37 33 38 72 39 66 40 68 41 34 42 71 43 65 44 64 45
REMARK SMILES IDX 35 47 57 48 42 49 56 50 43 51 46 52 55 53 69 54 44 55 45 56
REMARK SMILES IDX 54 58 70 59 47 60 36 61 37 62 41 63 38 64 40 65 39 66 58 67
REMARK SMILES IDX 59 68 63 69 60 70 62 71 61 72 48 73 49 74 53 75 50 76 52 77
REMARK SMILES IDX 51 78
REMARK H PARENT 6 12 13 22 68 46 46 57
REMARK Flexibility Score: inf
ROOT
ATOM      1  C   UNL A   1      35.910  24.080  25.305  1.00  0.00     0.274 C 
ENDROOT
BRANCH   1   2
ATOM      2  O   UNL A   1      34.680  23.484  24.835  1.00  0.00    -0.460 OA
BRANCH   2   3
ATOM      3  C   UNL A   1      34.561  23.319  23.500  1.00  0.00     0.331 C 
ATOM      4  O   UNL A   1      35.536  23.284  22.752  1.00  0.00    -0.249 OA
BRANCH   3   5
ATOM      5  C   UNL A   1      33.092  23.340  22.963  1.00  0.00     0.137 C 
BRANCH   5   6
ATOM      6  C   UNL A   1      32.201  24.000  24.084  1.00  0.00     0.037 C 
ATOM      7  C   UNL A   1      30.681  23.959  23.953  1.00  0.00     0.007 C 
ENDBRANCH   5   6
BRANCH   5   8
ATOM      8  C   UNL A   1      32.738  21.838  22.745  1.00  0.00     0.037 C 
ATOM      9  C   UNL A   1      32.746  20.960  23.992  1.00  0.00     0.007 C 
ENDBRANCH   5   8
BRANCH   5  10
ATOM     10  N   UNL A   1      32.691  24.116  21.730  1.00  0.00    -0.336 N 
ATOM     11  C   UNL A   1      32.861  25.369  21.212  1.00  0.00     0.252 C 
ATOM     12  H   UNL A   1      32.151  23.557  21.125  1.00  0.00     0.165 HD
ATOM     13  O   UNL A   1      32.997  25.487  19.994  1.00  0.00    -0.269 OA
BRANCH  11  14
ATOM     14  C   UNL A   1      32.630  26.589  21.991  1.00  0.00     0.039 A 
ATOM     15  C   UNL A   1      31.309  27.030  22.124  1.00  0.00     0.016 A 
ATOM     16  C   UNL A   1      33.674  27.358  22.494  1.00  0.00     0.016 A 
ATOM     17  C   UNL A   1      31.020  28.163  22.891  1.00  0.00     0.027 A 
ATOM     18  C   UNL A   1      33.377  28.489  23.270  1.00  0.00     0.027 A 
ATOM     19  C   UNL A   1      32.045  28.856  23.533  1.00  0.00     0.041 A 
BRANCH  19  20
ATOM     20  N   UNL A   1      31.821  29.816  24.546  1.00  0.00    -0.326 N 
ATOM     21  C   UNL A   1      31.807  29.589  25.914  1.00  0.00     0.221 C 
ATOM     22  H   UNL A   1      31.657  30.740  24.250  1.00  0.00     0.169 HD
ATOM     23  C   UNL A   1      31.956  30.862  26.712  1.00  0.00     0.114 C 
ATOM     24  O   UNL A   1      31.713  28.510  26.488  1.00  0.00    -0.275 OA
ENDBRANCH  19  20
ENDBRANCH  11  14
ENDBRANCH   5  10
ENDBRANCH   3   5
ENDBRANCH   2   3
ENDBRANCH   1   2
BRANCH   1  25
ATOM     25  C   UNL A   1      36.778  23.040  25.999  1.00  0.00     0.275 C 
BRANCH  25  26
ATOM     26  O   UNL A   1      38.102  23.115  25.462  1.00  0.00    -0.458 OA
BRANCH  26  27
ATOM     27  C   UNL A   1      39.096  22.945  26.363  1.00  0.00     0.338 C 
ATOM     28  O   UNL A   1      39.681  21.929  26.681  1.00  0.00    -0.246 OA
BRANCH  27  29
ATOM     29  C   UNL A   1      39.403  24.245  26.944  1.00  0.00     0.060 A 
ATOM     30  C   UNL A   1      39.012  24.512  28.255  1.00  0.00     0.016 A 
ATOM     31  C   UNL A   1      40.037  25.205  26.164  1.00  0.00     0.016 A 
ATOM     32  C   UNL A   1      39.232  25.768  28.792  1.00  0.00     0.010 A 
ATOM     33  C   UNL A   1      40.346  26.433  26.737  1.00  0.00     0.010 A 
ATOM     34  C   UNL A   1      39.949  26.718  28.054  1.00  0.00    -0.014 A 
BRANCH  34  35
ATOM     35  C   UNL A   1      40.359  27.987  28.685  1.00  0.00     0.031 A 
ATOM     36  C   UNL A   1      41.730  28.129  29.267  1.00  0.00     0.074 A 
ATOM     37  C   UNL A   1      39.459  28.985  28.766  1.00  0.00     0.049 A 
ATOM     38  N   UNL A   1      42.204  29.077  30.032  1.00  0.00    -0.248 NA
ATOM     39  C   UNL A   1      42.693  27.057  28.962  1.00  0.00     0.031 C 
ATOM     40  C   UNL A   1      38.105  28.955  28.202  1.00  0.00     0.029 A 
ATOM     41  N   UNL A   1      39.544  30.219  29.354  1.00  0.00    -0.354 N 
ATOM     42  C   UNL A   1      43.501  28.694  30.343  1.00  0.00     0.074 A 
ATOM     43  C   UNL A   1      43.745  27.431  29.679  1.00  0.00     0.031 C 
ATOM     44  C   UNL A   1      37.501  30.127  28.440  1.00  0.00     0.029 A 
ATOM     45  C   UNL A   1      38.387  30.953  29.249  1.00  0.00     0.049 A 
ATOM     46  H   UNL A   1      40.354  30.547  29.807  1.00  0.00     0.167 HD
ATOM     47  C   UNL A   1      44.396  29.338  31.127  1.00  0.00     0.031 A 
ATOM     48  C   UNL A   1      38.061  32.141  29.786  1.00  0.00     0.031 A 
ATOM     49  C   UNL A   1      44.129  30.595  31.775  1.00  0.00     0.049 A 
ATOM     50  C   UNL A   1      39.061  32.820  30.669  1.00  0.00     0.074 A 
ATOM     51  C   UNL A   1      44.951  31.333  32.609  1.00  0.00     0.029 A 
ATOM     52  N   UNL A   1      42.944  31.306  31.647  1.00  0.00    -0.354 N 
ATOM     53  N   UNL A   1      40.268  32.426  30.999  1.00  0.00    -0.248 NA
ATOM     54  C   UNL A   1      38.653  34.095  31.269  1.00  0.00     0.031 C 
ATOM     55  C   UNL A   1      44.249  32.475  33.010  1.00  0.00     0.029 A 
ATOM     56  C   UNL A   1      43.008  32.470  32.392  1.00  0.00     0.049 A 
ATOM     57  H   UNL A   1      42.171  31.023  31.106  1.00  0.00     0.167 HD
ATOM     58  C   UNL A   1      40.767  33.406  31.842  1.00  0.00     0.074 A 
ATOM     59  C   UNL A   1      39.740  34.424  31.952  1.00  0.00     0.031 C 
ATOM     60  C   UNL A   1      41.963  33.457  32.478  1.00  0.00     0.031 A 
BRANCH  47  61
ATOM     61  C   UNL A   1      45.715  28.661  31.365  1.00  0.00    -0.014 A 
ATOM     62  C   UNL A   1      45.895  27.758  32.424  1.00  0.00     0.009 A 
ATOM     63  C   UNL A   1      46.796  28.931  30.511  1.00  0.00     0.009 A 
ATOM     64  C   UNL A   1      47.141  27.163  32.640  1.00  0.00     0.001 A 
ATOM     65  C   UNL A   1      48.033  28.318  30.715  1.00  0.00     0.001 A 
ATOM     66  C   UNL A   1      48.207  27.442  31.785  1.00  0.00     0.000 A 
ENDBRANCH  47  61
BRANCH  48  67
ATOM     67  C   UNL A   1      36.718  32.722  29.532  1.00  0.00    -0.014 A 
ATOM     68  C   UNL A   1      35.690  32.576  30.474  1.00  0.00     0.009 A 
ATOM     69  C   UNL A   1      36.469  33.462  28.365  1.00  0.00     0.009 A 
ATOM     70  C   UNL A   1      34.437  33.148  30.247  1.00  0.00     0.001 A 
ATOM     71  C   UNL A   1      35.224  34.058  28.155  1.00  0.00     0.001 A 
ATOM     72  C   UNL A   1      34.207  33.895  29.093  1.00  0.00     0.000 A 
ENDBRANCH  48  67
BRANCH  60  73
ATOM     73  C   UNL A   1      42.218  34.671  33.320  1.00  0.00    -0.014 A 
ATOM     74  C   UNL A   1      42.900  35.780  32.799  1.00  0.00     0.009 A 
ATOM     75  C   UNL A   1      41.748  34.708  34.641  1.00  0.00     0.009 A 
ATOM     76  C   UNL A   1      43.134  36.897  33.600  1.00  0.00     0.001 A 
ATOM     77  C   UNL A   1      41.965  35.836  35.432  1.00  0.00     0.001 A 
ATOM     78  C   UNL A   1      42.664  36.925  34.914  1.00  0.00     0.000 A 
ENDBRANCH  60  73
ENDBRANCH  34  35
ENDBRANCH  27  29
ENDBRANCH  26  27
ENDBRANCH  25  26
ENDBRANCH   1  25
TORSDOF 16
ENDMDL
MODEL 3
REMARK VINA RESULT:     -10.7      2.907      6.382
REMARK SMILES CCC(CC)(NC(=O)c1ccc(NC(C)=O)cc1)C(=O)OCCOC(=O)c1ccc(-c2c3nc(c(-c4ccccc4)c4ccc([nH]4)c(-c4ccccc4)c4nc(c(-c5ccccc5)c5ccc2[nH]5)C=C4)C=C3)cc1
REMARK SMILES IDX 22 1 21 2 19 3 20 4 3 5 2 6 1 7 4 8 5 9 6 10 7 11 8 13 9 14
REMARK SMILES IDX 10 15 18 16 11 17 17 18 12 19 13 20 14 21 15 23 16 24 23 25
REMARK SMILES IDX 24 26 25 27 26 28 27 29 28 30 74 31 29 32 73 33 30 34 31 35
REMARK SMILES IDX 32 36 67 37 33 38 72 39 66 40 68 41 34 42 71 43 65 44 64 45
REMARK SMILES IDX 35 47 57 48 42 49 56 50 43 51 46 52 55 53 69 54 44 55 45 56
REMARK SMILES IDX 54 58 70 59 47 60 36 61 37 62 41 63 38 64 40 65 39 66 58 67
REMARK SMILES IDX 59 68 63 69 60 70 62 71 61 72 48 73 49 74 53 75 50 76 52 77
REMARK SMILES IDX 51 78
REMARK H PARENT 6 12 13 22 68 46 46 57
REMARK Flexibility Score: inf
ROOT
ATOM      1  C   UNL A   1      32.038  28.140  27.155  1.00  0.00     0.274 C 
ENDROOT
BRANCH   1   2
ATOM      2  O   UNL A   1      32.382  26.971  26.377  1.00  0.00    -0.460 OA
BRANCH   2   3
ATOM      3  C   UNL A   1      31.390  26.081  26.156  1.00  0.00     0.331 C 
ATOM      4  O   UNL A   1      30.250  26.247  26.583  1.00  0.00    -0.249 OA
BRANCH   3   5
ATOM      5  C   UNL A   1      31.841  24.754  25.462  1.00  0.00     0.137 C 
BRANCH   5   6
ATOM      6  C   UNL A   1      30.831  24.484  24.282  1.00  0.00     0.037 C 
ATOM      7  C   UNL A   1      30.726  25.490  23.140  1.00  0.00     0.007 C 
ENDBRANCH   5   6
BRANCH   5   8
ATOM      8  C   UNL A   1      31.732  23.675  26.581  1.00  0.00     0.037 C 
ATOM      9  C   UNL A   1      30.570  22.695  26.457  1.00  0.00     0.007 C 
ENDBRANCH   5   8
BRANCH   5  10
ATOM     10  N   UNL A   1      33.182  24.611  24.780  1.00  0.00    -0.336 N 
ATOM     11  C   UNL A   1      33.799  23.755  23.910  1.00  0.00     0.252 C 
ATOM     12  H   UNL A   1      33.785  25.346  25.035  1.00  0.00     0.165 HD
ATOM     13  O   UNL A   1      34.571  24.225  23.075  1.00  0.00    -0.269 OA
BRANCH  11  14
ATOM     14  C   UNL A   1      33.792  22.301  24.088  1.00  0.00     0.039 A 
ATOM     15  C   UNL A   1      34.940  21.710  24.628  1.00  0.00     0.016 A 
ATOM     16  C   UNL A   1      32.743  21.503  23.643  1.00  0.00     0.016 A 
ATOM     17  C   UNL A   1      34.978  20.332  24.861  1.00  0.00     0.027 A 
ATOM     18  C   UNL A   1      32.784  20.121  23.888  1.00  0.00     0.027 A 
ATOM     19  C   UNL A   1      33.871  19.539  24.563  1.00  0.00     0.041 A 
BRANCH  19  20
ATOM     20  N   UNL A   1      33.714  18.214  25.030  1.00  0.00    -0.326 N 
ATOM     21  C   UNL A   1      33.851  17.051  24.287  1.00  0.00     0.221 C 
ATOM     22  H   UNL A   1      33.485  18.106  25.982  1.00  0.00     0.169 HD
ATOM     23  C   UNL A   1      34.030  15.829  25.155  1.00  0.00     0.114 C 
ATOM     24  O   UNL A   1      33.859  16.946  23.066  1.00  0.00    -0.275 OA
ENDBRANCH  19  20
ENDBRANCH  11  14
ENDBRANCH   5  10
ENDBRANCH   3   5
ENDBRANCH   2   3
ENDBRANCH   1   2
BRANCH   1  25
ATOM     25  C   UNL A   1      32.948  29.307  26.798  1.00  0.00     0.275 C 
BRANCH  25  26
ATOM     26  O   UNL A   1      34.236  29.079  27.378  1.00  0.00    -0.458 OA
BRANCH  26  27
ATOM     27  C   UNL A   1      34.811  30.165  27.941  1.00  0.00     0.338 C 
ATOM     28  O   UNL A   1      34.337  31.262  28.157  1.00  0.00    -0.246 OA
BRANCH  27  29
ATOM     29  C   UNL A   1      36.183  29.819  28.289  1.00  0.00     0.060 A 
ATOM     30  C   UNL A   1      36.460  29.358  29.575  1.00  0.00     0.016 A 
ATOM     31  C   UNL A   1      37.188  29.999  27.347  1.00  0.00     0.016 A 
ATOM     32  C   UNL A   1      37.769  29.097  29.940  1.00  0.00     0.010 A 
ATOM     33  C   UNL A   1      38.490  29.643  27.682  1.00  0.00     0.010 A 
ATOM     34  C   UNL A   1      38.784  29.186  28.979  1.00  0.00    -0.014 A 
BRANCH  34  35
ATOM     35  C   UNL A   1      40.148  28.724  29.300  1.00  0.00     0.031 A 
ATOM     36  C   UNL A   1      41.104  29.635  30.004  1.00  0.00     0.074 A 
ATOM     37  C   UNL A   1      40.520  27.493  28.903  1.00  0.00     0.049 A 
ATOM     38  N   UNL A   1      42.389  29.490  30.191  1.00  0.00    -0.248 NA
ATOM     39  C   UNL A   1      40.546  30.879  30.559  1.00  0.00     0.031 C 
ATOM     40  C   UNL A   1      39.651  26.517  28.236  1.00  0.00     0.029 A 
ATOM     41  N   UNL A   1      41.725  26.849  28.999  1.00  0.00    -0.354 N 
ATOM     42  C   UNL A   1      42.805  30.646  30.838  1.00  0.00     0.074 A 
ATOM     43  C   UNL A   1      41.636  31.479  31.020  1.00  0.00     0.031 C 
ATOM     44  C   UNL A   1      40.340  25.389  28.016  1.00  0.00     0.029 A 
ATOM     45  C   UNL A   1      41.718  25.594  28.442  1.00  0.00     0.049 A 
ATOM     46  H   UNL A   1      42.518  27.247  29.426  1.00  0.00     0.167 HD
ATOM     47  C   UNL A   1      44.057  30.979  31.228  1.00  0.00     0.031 A 
ATOM     48  C   UNL A   1      42.723  24.722  28.253  1.00  0.00     0.031 A 
ATOM     49  C   UNL A   1      45.205  30.130  31.038  1.00  0.00     0.049 A 
ATOM     50  C   UNL A   1      44.102  25.126  28.672  1.00  0.00     0.074 A 
ATOM     51  C   UNL A   1      46.525  30.369  31.373  1.00  0.00     0.029 A 
ATOM     52  N   UNL A   1      45.157  28.866  30.466  1.00  0.00    -0.354 N 
ATOM     53  N   UNL A   1      44.496  26.242  29.238  1.00  0.00    -0.248 NA
ATOM     54  C   UNL A   1      45.179  24.164  28.412  1.00  0.00     0.031 C 
ATOM     55  C   UNL A   1      47.281  29.261  30.974  1.00  0.00     0.029 A 
ATOM     56  C   UNL A   1      46.425  28.315  30.431  1.00  0.00     0.049 A 
ATOM     57  H   UNL A   1      44.341  28.427  30.133  1.00  0.00     0.167 HD
ATOM     58  C   UNL A   1      45.865  26.117  29.407  1.00  0.00     0.074 A 
ATOM     59  C   UNL A   1      46.229  24.805  28.905  1.00  0.00     0.031 C 
ATOM     60  C   UNL A   1      46.747  27.008  29.921  1.00  0.00     0.031 A 
BRANCH  47  61
ATOM     61  C   UNL A   1      44.249  32.335  31.843  1.00  0.00    -0.014 A 
ATOM     62  C   UNL A   1      44.101  32.541  33.223  1.00  0.00     0.009 A 
ATOM     63  C   UNL A   1      44.589  33.425  31.026  1.00  0.00     0.009 A 
ATOM     64  C   UNL A   1      44.258  33.820  33.767  1.00  0.00     0.001 A 
ATOM     65  C   UNL A   1      44.767  34.696  31.574  1.00  0.00     0.001 A 
ATOM     66  C   UNL A   1      44.592  34.894  32.943  1.00  0.00     0.000 A 
ENDBRANCH  47  61
BRANCH  48  67
ATOM     67  C   UNL A   1      42.455  23.415  27.600  1.00  0.00    -0.014 A 
ATOM     68  C   UNL A   1      41.932  22.344  28.339  1.00  0.00     0.009 A 
ATOM     69  C   UNL A   1      42.683  23.244  26.225  1.00  0.00     0.009 A 
ATOM     70  C   UNL A   1      41.654  21.125  27.716  1.00  0.00     0.001 A 
ATOM     71  C   UNL A   1      42.376  22.034  25.599  1.00  0.00     0.001 A 
ATOM     72  C   UNL A   1      41.868  20.973  26.347  1.00  0.00     0.000 A 
ENDBRANCH  48  67
BRANCH  60  73
ATOM     73  C   UNL A   1      48.179  26.568  29.984  1.00  0.00    -0.014 A 
ATOM     74  C   UNL A   1      48.656  25.816  31.067  1.00  0.00     0.009 A 
ATOM     75  C   UNL A   1      49.050  26.892  28.933  1.00  0.00     0.009 A 
ATOM     76  C   UNL A   1      49.993  25.422  31.112  1.00  0.00     0.001 A 
ATOM     77  C   UNL A   1      50.381  26.477  28.971  1.00  0.00     0.001 A 
ATOM     78  C   UNL A   1      50.852  25.750  30.063  1.00  0.00     0.000 A 
ENDBRANCH  60  73
ENDBRANCH  34  35
ENDBRANCH  27  29
ENDBRANCH  26  27
ENDBRANCH  25  26
ENDBRANCH   1  25
TORSDOF 16
ENDMDL
