MODEL 1
REMARK VINA RESULT:     -13.0      0.000      0.000
REMARK SMILES Cc1c(NC(=O)c2cccc(-c3cc4ccccc4oc3=O)c2)cccc1C(=O)OCCOC(=O)c1ccc(-c2c3nc(c(-c4ccccc4)c4ccc([nH]4)c(-c4ccccc4)c4nc(c(-c5ccccc5)c5ccc2[nH]5)C=C4)C=C3)cc1
REMARK SMILES IDX 31 1 30 2 28 3 29 4 27 5 1 6 2 7 3 8 24 9 26 10 25 11 4 12
REMARK SMILES IDX 5 13 6 15 7 16 8 17 23 18 9 19 11 20 10 21 12 22 13 23 21 24
REMARK SMILES IDX 14 25 20 26 22 27 15 28 19 29 16 30 18 31 17 32 32 33 33 34
REMARK SMILES IDX 34 35 35 36 36 37 37 38 83 39 38 40 82 41 39 42 40 43 41 44
REMARK SMILES IDX 76 45 42 46 81 47 75 48 77 49 43 50 80 51 74 52 73 53 44 55
REMARK SMILES IDX 66 56 51 57 65 58 52 59 55 60 64 61 78 62 53 63 54 64 63 66
REMARK SMILES IDX 79 67 56 68 45 69 46 70 50 71 47 72 49 73 48 74 67 75 68 76
REMARK SMILES IDX 72 77 69 78 71 79 70 80 57 81 58 82 62 83 59 84 61 85 60 86
REMARK H PARENT 4 14 77 54 55 65
REMARK Flexibility Score: inf
ROOT
ATOM      1  C   UNL A   1      32.929  29.803  25.860  1.00  0.00     0.275 C 
ENDROOT
BRANCH   1   2
ATOM      2  O   UNL A   1      33.442  28.457  25.604  1.00  0.00    -0.458 OA
BRANCH   2   3
ATOM      3  C   UNL A   1      33.622  28.037  24.340  1.00  0.00     0.338 C 
ATOM      4  O   UNL A   1      34.345  28.617  23.548  1.00  0.00    -0.246 OA
BRANCH   3   5
ATOM      5  C   UNL A   1      32.804  26.881  23.860  1.00  0.00     0.065 A 
ATOM      6  C   UNL A   1      31.016  26.922  25.680  1.00  0.00     0.047 C 
ATOM      7  C   UNL A   1      31.677  26.307  24.478  1.00  0.00    -0.013 A 
ATOM      8  C   UNL A   1      31.277  25.028  24.006  1.00  0.00     0.045 A 
ATOM      9  C   UNL A   1      31.727  24.536  22.773  1.00  0.00     0.026 A 
ATOM     10  C   UNL A   1      33.364  26.248  22.727  1.00  0.00     0.016 A 
ATOM     11  C   UNL A   1      32.785  25.142  22.131  1.00  0.00     0.003 A 
BRANCH   8  12
ATOM     12  N   UNL A   1      30.513  24.179  24.827  1.00  0.00    -0.322 N 
ATOM     13  C   UNL A   1      30.913  23.151  25.668  1.00  0.00     0.255 C 
ATOM     14  H   UNL A   1      29.542  24.341  24.801  1.00  0.00     0.170 HD
ATOM     15  O   UNL A   1      30.039  22.413  26.127  1.00  0.00    -0.269 OA
BRANCH  13  16
ATOM     16  C   UNL A   1      32.327  22.954  26.141  1.00  0.00     0.040 A 
ATOM     17  C   UNL A   1      32.525  22.669  27.499  1.00  0.00     0.014 A 
ATOM     18  C   UNL A   1      33.457  23.188  25.342  1.00  0.00     0.022 A 
ATOM     19  C   UNL A   1      33.815  22.568  28.029  1.00  0.00     0.001 A 
ATOM     20  C   UNL A   1      34.766  23.083  25.858  1.00  0.00    -0.010 A 
ATOM     21  C   UNL A   1      34.928  22.761  27.210  1.00  0.00     0.009 A 
BRANCH  20  22
ATOM     22  C   UNL A   1      35.984  23.545  25.121  1.00  0.00     0.068 A 
ATOM     23  C   UNL A   1      37.198  23.607  25.712  1.00  0.00     0.028 A 
ATOM     24  C   UNL A   1      36.105  22.821  23.810  1.00  0.00     0.344 A 
ATOM     25  C   UNL A   1      38.028  22.389  25.601  1.00  0.00     0.018 A 
ATOM     26  O   UNL A   1      36.455  21.488  23.978  1.00  0.00    -0.422 OA
ATOM     27  O   UNL A   1      35.793  23.326  22.741  1.00  0.00    -0.246 OA
ATOM     28  C   UNL A   1      39.263  22.252  26.214  1.00  0.00     0.012 A 
ATOM     29  C   UNL A   1      37.509  21.301  24.887  1.00  0.00     0.138 A 
ATOM     30  C   UNL A   1      39.894  21.006  26.190  1.00  0.00     0.001 A 
ATOM     31  C   UNL A   1      38.050  20.028  24.998  1.00  0.00     0.048 A 
ATOM     32  C   UNL A   1      39.247  19.877  25.683  1.00  0.00     0.004 A 
ENDBRANCH  20  22
ENDBRANCH  13  16
ENDBRANCH   8  12
ENDBRANCH   3   5
ENDBRANCH   2   3
ENDBRANCH   1   2
BRANCH   1  33
ATOM     33  C   UNL A   1      33.267  30.646  27.141  1.00  0.00     0.275 C 
BRANCH  33  34
ATOM     34  O   UNL A   1      34.579  31.186  27.526  1.00  0.00    -0.458 OA
BRANCH  34  35
ATOM     35  C   UNL A   1      35.034  31.441  28.795  1.00  0.00     0.338 C 
ATOM     36  O   UNL A   1      34.608  32.275  29.536  1.00  0.00    -0.246 OA
BRANCH  35  37
ATOM     37  C   UNL A   1      36.274  30.693  29.062  1.00  0.00     0.060 A 
ATOM     38  C   UNL A   1      36.408  29.893  30.205  1.00  0.00     0.016 A 
ATOM     39  C   UNL A   1      37.220  30.692  28.050  1.00  0.00     0.016 A 
ATOM     40  C   UNL A   1      37.442  28.967  30.260  1.00  0.00     0.010 A 
ATOM     41  C   UNL A   1      38.114  29.667  28.006  1.00  0.00     0.010 A 
ATOM     42  C   UNL A   1      38.266  28.862  29.140  1.00  0.00    -0.014 A 
BRANCH  42  43
ATOM     43  C   UNL A   1      39.625  28.376  29.204  1.00  0.00     0.031 A 
ATOM     44  C   UNL A   1      39.969  27.015  28.804  1.00  0.00     0.074 A 
ATOM     45  C   UNL A   1      40.459  29.428  29.362  1.00  0.00     0.049 A 
ATOM     46  N   UNL A   1      41.023  26.401  29.201  1.00  0.00    -0.248 NA
ATOM     47  C   UNL A   1      39.120  26.195  27.939  1.00  0.00     0.031 C 
ATOM     48  C   UNL A   1      41.867  29.618  29.093  1.00  0.00     0.029 A 
ATOM     49  N   UNL A   1      40.085  30.648  29.916  1.00  0.00    -0.354 N 
ATOM     50  C   UNL A   1      41.191  25.329  28.352  1.00  0.00     0.074 A 
ATOM     51  C   UNL A   1      39.904  25.128  27.730  1.00  0.00     0.031 C 
ATOM     52  C   UNL A   1      42.274  30.728  29.753  1.00  0.00     0.029 A 
ATOM     53  C   UNL A   1      41.155  31.216  30.567  1.00  0.00     0.049 A 
ATOM     54  H   UNL A   1      39.186  31.047  29.852  1.00  0.00     0.167 HD
ATOM     55  C   UNL A   1      42.459  24.904  28.087  1.00  0.00     0.031 A 
ATOM     56  C   UNL A   1      41.081  31.200  31.933  1.00  0.00     0.031 A 
ATOM     57  C   UNL A   1      43.425  25.760  28.787  1.00  0.00     0.049 A 
ATOM     58  C   UNL A   1      42.022  30.145  32.473  1.00  0.00     0.074 A 
ATOM     59  C   UNL A   1      44.163  26.848  28.349  1.00  0.00     0.029 A 
ATOM     60  N   UNL A   1      43.407  25.831  30.177  1.00  0.00    -0.354 N 
ATOM     61  N   UNL A   1      42.346  29.049  31.838  1.00  0.00    -0.248 NA
ATOM     62  C   UNL A   1      42.726  30.294  33.740  1.00  0.00     0.031 C 
ATOM     63  C   UNL A   1      44.483  27.640  29.487  1.00  0.00     0.029 A 
ATOM     64  C   UNL A   1      43.952  27.027  30.610  1.00  0.00     0.049 A 
ATOM     65  H   UNL A   1      43.054  25.127  30.770  1.00  0.00     0.167 HD
ATOM     66  C   UNL A   1      43.357  28.424  32.509  1.00  0.00     0.074 A 
ATOM     67  C   UNL A   1      43.532  29.220  33.715  1.00  0.00     0.031 C 
ATOM     68  C   UNL A   1      44.018  27.328  32.035  1.00  0.00     0.031 A 
BRANCH  55  69
ATOM     69  C   UNL A   1      42.852  23.986  26.949  1.00  0.00    -0.014 A 
ATOM     70  C   UNL A   1      43.074  22.620  27.216  1.00  0.00     0.009 A 
ATOM     71  C   UNL A   1      43.037  24.384  25.613  1.00  0.00     0.009 A 
ATOM     72  C   UNL A   1      43.516  21.724  26.234  1.00  0.00     0.001 A 
ATOM     73  C   UNL A   1      43.500  23.496  24.626  1.00  0.00     0.001 A 
ATOM     74  C   UNL A   1      43.746  22.166  24.939  1.00  0.00     0.000 A 
ENDBRANCH  55  69
BRANCH  56  75
ATOM     75  C   UNL A   1      39.716  31.518  32.505  1.00  0.00    -0.014 A 
ATOM     76  C   UNL A   1      39.020  32.647  32.006  1.00  0.00     0.009 A 
ATOM     77  C   UNL A   1      38.997  30.642  33.332  1.00  0.00     0.009 A 
ATOM     78  C   UNL A   1      37.652  32.844  32.249  1.00  0.00     0.001 A 
ATOM     79  C   UNL A   1      37.630  30.857  33.599  1.00  0.00     0.001 A 
ATOM     80  C   UNL A   1      36.954  31.942  33.039  1.00  0.00     0.000 A 
ENDBRANCH  56  75
BRANCH  68  81
ATOM     81  C   UNL A   1      44.877  26.443  32.891  1.00  0.00    -0.014 A 
ATOM     82  C   UNL A   1      44.350  25.552  33.833  1.00  0.00     0.009 A 
ATOM     83  C   UNL A   1      46.259  26.358  32.620  1.00  0.00     0.009 A 
ATOM     84  C   UNL A   1      45.175  24.656  34.516  1.00  0.00     0.001 A 
ATOM     85  C   UNL A   1      47.073  25.422  33.254  1.00  0.00     0.001 A 
ATOM     86  C   UNL A   1      46.531  24.581  34.216  1.00  0.00     0.000 A 
ENDBRANCH  68  81
ENDBRANCH  42  43
ENDBRANCH  35  37
ENDBRANCH  34  35
ENDBRANCH  33  34
ENDBRANCH   1  33
TORSDOF 14
ENDMDL
MODEL 2
REMARK VINA RESULT:     -13.0      1.870      2.273
REMARK SMILES Cc1c(NC(=O)c2cccc(-c3cc4ccccc4oc3=O)c2)cccc1C(=O)OCCOC(=O)c1ccc(-c2c3nc(c(-c4ccccc4)c4ccc([nH]4)c(-c4ccccc4)c4nc(c(-c5ccccc5)c5ccc2[nH]5)C=C4)C=C3)cc1
REMARK SMILES IDX 31 1 30 2 28 3 29 4 27 5 1 6 2 7 3 8 24 9 26 10 25 11 4 12
REMARK SMILES IDX 5 13 6 15 7 16 8 17 23 18 9 19 11 20 10 21 12 22 13 23 21 24
REMARK SMILES IDX 14 25 20 26 22 27 15 28 19 29 16 30 18 31 17 32 32 33 33 34
REMARK SMILES IDX 34 35 35 36 36 37 37 38 83 39 38 40 82 41 39 42 40 43 41 44
REMARK SMILES IDX 76 45 42 46 81 47 75 48 77 49 43 50 80 51 74 52 73 53 44 55
REMARK SMILES IDX 66 56 51 57 65 58 52 59 55 60 64 61 78 62 53 63 54 64 63 66
REMARK SMILES IDX 79 67 56 68 45 69 46 70 50 71 47 72 49 73 48 74 67 75 68 76
REMARK SMILES IDX 72 77 69 78 71 79 70 80 57 81 58 82 62 83 59 84 61 85 60 86
REMARK H PARENT 4 14 77 54 55 65
REMARK Flexibility Score: inf
ROOT
ATOM      1  C   UNL A   1      34.306  28.303  26.634  1.00  0.00     0.275 C 
ENDROOT
BRANCH   1   2
ATOM      2  O   UNL A   1      34.258  27.535  25.390  1.00  0.00    -0.458 OA
BRANCH   2   3
ATOM      3  C   UNL A   1      33.264  27.744  24.511  1.00  0.00     0.338 C 
ATOM      4  O   UNL A   1      33.156  28.775  23.868  1.00  0.00    -0.246 OA
BRANCH   3   5
ATOM      5  C   UNL A   1      32.184  26.715  24.412  1.00  0.00     0.065 A 
ATOM      6  C   UNL A   1      31.035  27.181  26.642  1.00  0.00     0.047 C 
ATOM      7  C   UNL A   1      31.218  26.384  25.381  1.00  0.00    -0.013 A 
ATOM      8  C   UNL A   1      30.517  25.163  25.187  1.00  0.00     0.045 A 
ATOM      9  C   UNL A   1      30.509  24.520  23.942  1.00  0.00     0.026 A 
ATOM     10  C   UNL A   1      32.288  25.921  23.247  1.00  0.00     0.016 A 
ATOM     11  C   UNL A   1      31.407  24.893  22.965  1.00  0.00     0.003 A 
BRANCH   8  12
ATOM     12  N   UNL A   1      29.914  24.513  26.280  1.00  0.00    -0.322 N 
ATOM     13  C   UNL A   1      30.260  23.332  26.918  1.00  0.00     0.255 C 
ATOM     14  H   UNL A   1      29.124  24.969  26.649  1.00  0.00     0.170 HD
ATOM     15  O   UNL A   1      29.454  22.858  27.722  1.00  0.00    -0.269 OA
BRANCH  13  16
ATOM     16  C   UNL A   1      31.598  22.659  26.777  1.00  0.00     0.040 A 
ATOM     17  C   UNL A   1      32.618  23.048  27.655  1.00  0.00     0.014 A 
ATOM     18  C   UNL A   1      31.924  21.785  25.728  1.00  0.00     0.022 A 
ATOM     19  C   UNL A   1      33.912  22.536  27.521  1.00  0.00     0.001 A 
ATOM     20  C   UNL A   1      33.223  21.253  25.583  1.00  0.00    -0.010 A 
ATOM     21  C   UNL A   1      34.209  21.634  26.499  1.00  0.00     0.009 A 
BRANCH  20  22
ATOM     22  C   UNL A   1      33.679  20.512  24.365  1.00  0.00     0.068 A 
ATOM     23  C   UNL A   1      34.660  19.582  24.417  1.00  0.00     0.028 A 
ATOM     24  C   UNL A   1      32.499  19.948  23.625  1.00  0.00     0.344 A 
ATOM     25  C   UNL A   1      34.214  18.194  24.661  1.00  0.00     0.018 A 
ATOM     26  O   UNL A   1      31.910  18.890  24.305  1.00  0.00    -0.422 OA
ATOM     27  O   UNL A   1      32.042  20.462  22.614  1.00  0.00    -0.246 OA
ATOM     28  C   UNL A   1      35.090  17.133  24.822  1.00  0.00     0.012 A 
ATOM     29  C   UNL A   1      32.840  17.956  24.790  1.00  0.00     0.138 A 
ATOM     30  C   UNL A   1      34.581  15.891  25.214  1.00  0.00     0.001 A 
ATOM     31  C   UNL A   1      32.349  16.777  25.333  1.00  0.00     0.048 A 
ATOM     32  C   UNL A   1      33.240  15.740  25.572  1.00  0.00     0.004 A 
ENDBRANCH  20  22
ENDBRANCH  13  16
ENDBRANCH   8  12
ENDBRANCH   3   5
ENDBRANCH   2   3
ENDBRANCH   1   2
BRANCH   1  33
ATOM     33  C   UNL A   1      33.923  29.821  26.749  1.00  0.00     0.275 C 
BRANCH  33  34
ATOM     34  O   UNL A   1      34.122  30.701  27.911  1.00  0.00    -0.458 OA
BRANCH  34  35
ATOM     35  C   UNL A   1      35.180  31.542  28.146  1.00  0.00     0.338 C 
ATOM     36  O   UNL A   1      35.202  32.716  27.923  1.00  0.00    -0.246 OA
BRANCH  35  37
ATOM     37  C   UNL A   1      36.382  30.775  28.513  1.00  0.00     0.060 A 
ATOM     38  C   UNL A   1      36.415  29.990  29.674  1.00  0.00     0.016 A 
ATOM     39  C   UNL A   1      37.399  30.742  27.575  1.00  0.00     0.016 A 
ATOM     40  C   UNL A   1      37.423  29.046  29.818  1.00  0.00     0.010 A 
ATOM     41  C   UNL A   1      38.273  29.699  27.610  1.00  0.00     0.010 A 
ATOM     42  C   UNL A   1      38.325  28.908  28.764  1.00  0.00    -0.014 A 
BRANCH  42  43
ATOM     43  C   UNL A   1      39.666  28.398  28.934  1.00  0.00     0.031 A 
ATOM     44  C   UNL A   1      40.032  27.054  28.498  1.00  0.00     0.074 A 
ATOM     45  C   UNL A   1      40.492  29.426  29.228  1.00  0.00     0.049 A 
ATOM     46  N   UNL A   1      41.035  26.404  28.963  1.00  0.00    -0.248 NA
ATOM     47  C   UNL A   1      39.264  26.294  27.512  1.00  0.00     0.031 C 
ATOM     48  C   UNL A   1      41.922  29.608  29.109  1.00  0.00     0.029 A 
ATOM     49  N   UNL A   1      40.078  30.623  29.807  1.00  0.00    -0.354 N 
ATOM     50  C   UNL A   1      41.274  25.374  28.078  1.00  0.00     0.074 A 
ATOM     51  C   UNL A   1      40.053  25.227  27.324  1.00  0.00     0.031 C 
ATOM     52  C   UNL A   1      42.273  30.675  29.864  1.00  0.00     0.029 A 
ATOM     53  C   UNL A   1      41.085  31.138  30.589  1.00  0.00     0.049 A 
ATOM     54  H   UNL A   1      39.195  31.039  29.677  1.00  0.00     0.167 HD
ATOM     55  C   UNL A   1      42.558  24.943  27.916  1.00  0.00     0.031 A 
ATOM     56  C   UNL A   1      40.877  31.052  31.939  1.00  0.00     0.031 A 
ATOM     57  C   UNL A   1      43.459  25.746  28.752  1.00  0.00     0.049 A 
ATOM     58  C   UNL A   1      41.749  29.956  32.511  1.00  0.00     0.074 A 
ATOM     59  C   UNL A   1      44.249  26.842  28.446  1.00  0.00     0.029 A 
ATOM     60  N   UNL A   1      43.305  25.745  30.135  1.00  0.00    -0.354 N 
ATOM     61  N   UNL A   1      42.122  28.890  31.853  1.00  0.00    -0.248 NA
ATOM     62  C   UNL A   1      42.326  30.028  33.846  1.00  0.00     0.031 C 
ATOM     63  C   UNL A   1      44.464  27.570  29.651  1.00  0.00     0.029 A 
ATOM     64  C   UNL A   1      43.818  26.908  30.683  1.00  0.00     0.049 A 
ATOM     65  H   UNL A   1      42.888  25.017  30.653  1.00  0.00     0.167 HD
ATOM     66  C   UNL A   1      43.054  28.214  32.586  1.00  0.00     0.074 A 
ATOM     67  C   UNL A   1      43.118  28.943  33.843  1.00  0.00     0.031 C 
ATOM     68  C   UNL A   1      43.747  27.133  32.121  1.00  0.00     0.031 A 
BRANCH  55  69
ATOM     69  C   UNL A   1      43.051  24.079  26.775  1.00  0.00    -0.014 A 
ATOM     70  C   UNL A   1      42.960  22.677  26.889  1.00  0.00     0.009 A 
ATOM     71  C   UNL A   1      43.622  24.558  25.583  1.00  0.00     0.009 A 
ATOM     72  C   UNL A   1      43.465  21.809  25.911  1.00  0.00     0.001 A 
ATOM     73  C   UNL A   1      44.150  23.695  24.607  1.00  0.00     0.001 A 
ATOM     74  C   UNL A   1      44.077  22.319  24.775  1.00  0.00     0.000 A 
ENDBRANCH  55  69
BRANCH  56  75
ATOM     75  C   UNL A   1      39.466  31.363  32.390  1.00  0.00    -0.014 A 
ATOM     76  C   UNL A   1      38.848  32.546  31.915  1.00  0.00     0.009 A 
ATOM     77  C   UNL A   1      38.648  30.445  33.066  1.00  0.00     0.009 A 
ATOM     78  C   UNL A   1      37.467  32.761  32.030  1.00  0.00     0.001 A 
ATOM     79  C   UNL A   1      37.264  30.676  33.206  1.00  0.00     0.001 A 
ATOM     80  C   UNL A   1      36.672  31.820  32.670  1.00  0.00     0.000 A 
ENDBRANCH  56  75
BRANCH  68  81
ATOM     81  C   UNL A   1      44.507  26.192  33.009  1.00  0.00    -0.014 A 
ATOM     82  C   UNL A   1      43.891  25.402  33.987  1.00  0.00     0.009 A 
ATOM     83  C   UNL A   1      45.869  25.941  32.737  1.00  0.00     0.009 A 
ATOM     84  C   UNL A   1      44.615  24.447  34.702  1.00  0.00     0.001 A 
ATOM     85  C   UNL A   1      46.578  24.945  33.405  1.00  0.00     0.001 A 
ATOM     86  C   UNL A   1      45.952  24.209  34.401  1.00  0.00     0.000 A 
ENDBRANCH  68  81
ENDBRANCH  42  43
ENDBRANCH  35  37
ENDBRANCH  34  35
ENDBRANCH  33  34
ENDBRANCH   1  33
TORSDOF 14
ENDMDL
MODEL 3
REMARK VINA RESULT:     -12.8      2.319      8.326
REMARK SMILES Cc1c(NC(=O)c2cccc(-c3cc4ccccc4oc3=O)c2)cccc1C(=O)OCCOC(=O)c1ccc(-c2c3nc(c(-c4ccccc4)c4ccc([nH]4)c(-c4ccccc4)c4nc(c(-c5ccccc5)c5ccc2[nH]5)C=C4)C=C3)cc1
REMARK SMILES IDX 31 1 30 2 28 3 29 4 27 5 1 6 2 7 3 8 24 9 26 10 25 11 4 12
REMARK SMILES IDX 5 13 6 15 7 16 8 17 23 18 9 19 11 20 10 21 12 22 13 23 21 24
REMARK SMILES IDX 14 25 20 26 22 27 15 28 19 29 16 30 18 31 17 32 32 33 33 34
REMARK SMILES IDX 34 35 35 36 36 37 37 38 83 39 38 40 82 41 39 42 40 43 41 44
REMARK SMILES IDX 76 45 42 46 81 47 75 48 77 49 43 50 80 51 74 52 73 53 44 55
REMARK SMILES IDX 66 56 51 57 65 58 52 59 55 60 64 61 78 62 53 63 54 64 63 66
REMARK SMILES IDX 79 67 56 68 45 69 46 70 50 71 47 72 49 73 48 74 67 75 68 76
REMARK SMILES IDX 72 77 69 78 71 79 70 80 57 81 58 82 62 83 59 84 61 85 60 86
REMARK H PARENT 4 14 77 54 55 65
REMARK Flexibility Score: inf
ROOT
ATOM      1  C   UNL A   1      35.790  20.823  24.926  1.00  0.00     0.275 C 
ENDROOT
BRANCH   1   2
ATOM      2  O   UNL A   1      34.937  21.450  25.934  1.00  0.00    -0.458 OA
BRANCH   2   3
ATOM      3  C   UNL A   1      34.645  22.758  25.846  1.00  0.00     0.338 C 
ATOM      4  O   UNL A   1      35.395  23.631  26.247  1.00  0.00    -0.246 OA
BRANCH   3   5
ATOM      5  C   UNL A   1      33.290  23.144  25.344  1.00  0.00     0.065 A 
ATOM      6  C   UNL A   1      33.769  22.980  22.844  1.00  0.00     0.047 C 
ATOM      7  C   UNL A   1      32.886  23.328  24.009  1.00  0.00    -0.013 A 
ATOM      8  C   UNL A   1      31.653  24.007  23.807  1.00  0.00     0.045 A 
ATOM      9  C   UNL A   1      30.724  24.149  24.845  1.00  0.00     0.026 A 
ATOM     10  C   UNL A   1      32.397  23.487  26.386  1.00  0.00     0.016 A 
ATOM     11  C   UNL A   1      31.098  23.898  26.148  1.00  0.00     0.003 A 
BRANCH   8  12
ATOM     12  N   UNL A   1      31.396  24.654  22.584  1.00  0.00    -0.322 N 
ATOM     13  C   UNL A   1      31.558  25.983  22.226  1.00  0.00     0.255 C 
ATOM     14  H   UNL A   1      31.046  24.071  21.872  1.00  0.00     0.170 HD
ATOM     15  O   UNL A   1      31.067  26.353  21.158  1.00  0.00    -0.269 OA
BRANCH  13  16
ATOM     16  C   UNL A   1      32.390  26.968  23.001  1.00  0.00     0.040 A 
ATOM     17  C   UNL A   1      33.301  27.757  22.285  1.00  0.00     0.014 A 
ATOM     18  C   UNL A   1      32.417  27.034  24.404  1.00  0.00     0.022 A 
ATOM     19  C   UNL A   1      34.173  28.625  22.949  1.00  0.00     0.001 A 
ATOM     20  C   UNL A   1      33.285  27.909  25.089  1.00  0.00    -0.010 A 
ATOM     21  C   UNL A   1      34.156  28.709  24.342  1.00  0.00     0.009 A 
BRANCH  20  22
ATOM     22  C   UNL A   1      33.518  27.851  26.566  1.00  0.00     0.068 A 
ATOM     23  C   UNL A   1      34.648  28.331  27.133  1.00  0.00     0.028 A 
ATOM     24  C   UNL A   1      32.324  28.391  27.303  1.00  0.00     0.344 A 
ATOM     25  C   UNL A   1      34.603  29.747  27.554  1.00  0.00     0.018 A 
ATOM     26  O   UNL A   1      32.201  29.767  27.165  1.00  0.00    -0.422 OA
ATOM     27  O   UNL A   1      31.494  27.671  27.840  1.00  0.00    -0.246 OA
ATOM     28  C   UNL A   1      35.696  30.419  28.077  1.00  0.00     0.012 A 
ATOM     29  C   UNL A   1      33.410  30.454  27.358  1.00  0.00     0.138 A 
ATOM     30  C   UNL A   1      35.603  31.797  28.288  1.00  0.00     0.001 A 
ATOM     31  C   UNL A   1      33.365  31.841  27.411  1.00  0.00     0.048 A 
ATOM     32  C   UNL A   1      34.488  32.521  27.859  1.00  0.00     0.004 A 
ENDBRANCH  20  22
ENDBRANCH  13  16
ENDBRANCH   8  12
ENDBRANCH   3   5
ENDBRANCH   2   3
ENDBRANCH   1   2
BRANCH   1  33
ATOM     33  C   UNL A   1      37.356  20.741  25.022  1.00  0.00     0.275 C 
BRANCH  33  34
ATOM     34  O   UNL A   1      38.241  21.600  25.822  1.00  0.00    -0.458 OA
BRANCH  34  35
ATOM     35  C   UNL A   1      39.542  21.352  26.179  1.00  0.00     0.338 C 
ATOM     36  O   UNL A   1      40.095  20.295  26.114  1.00  0.00    -0.246 OA
BRANCH  35  37
ATOM     37  C   UNL A   1      40.124  22.517  26.865  1.00  0.00     0.060 A 
ATOM     38  C   UNL A   1      40.888  22.366  28.031  1.00  0.00     0.016 A 
ATOM     39  C   UNL A   1      40.016  23.732  26.210  1.00  0.00     0.016 A 
ATOM     40  C   UNL A   1      41.675  23.427  28.460  1.00  0.00     0.010 A 
ATOM     41  C   UNL A   1      40.921  24.705  26.505  1.00  0.00     0.010 A 
ATOM     42  C   UNL A   1      41.688  24.575  27.669  1.00  0.00    -0.014 A 
BRANCH  42  43
ATOM     43  C   UNL A   1      41.997  25.887  28.188  1.00  0.00     0.031 A 
ATOM     44  C   UNL A   1      40.947  26.831  28.555  1.00  0.00     0.074 A 
ATOM     45  C   UNL A   1      43.301  25.921  28.544  1.00  0.00     0.049 A 
ATOM     46  N   UNL A   1      41.122  28.100  28.625  1.00  0.00    -0.248 NA
ATOM     47  C   UNL A   1      39.569  26.426  28.839  1.00  0.00     0.031 C 
ATOM     48  C   UNL A   1      44.055  26.760  29.449  1.00  0.00     0.029 A 
ATOM     49  N   UNL A   1      44.280  25.087  28.012  1.00  0.00    -0.354 N 
ATOM     50  C   UNL A   1      40.054  28.600  29.338  1.00  0.00     0.074 A 
ATOM     51  C   UNL A   1      39.037  27.578  29.273  1.00  0.00     0.031 C 
ATOM     52  C   UNL A   1      45.370  26.601  29.171  1.00  0.00     0.029 A 
ATOM     53  C   UNL A   1      45.491  25.739  27.990  1.00  0.00     0.049 A 
ATOM     54  H   UNL A   1      44.129  24.166  27.697  1.00  0.00     0.167 HD
ATOM     55  C   UNL A   1      40.251  29.706  30.111  1.00  0.00     0.031 A 
ATOM     56  C   UNL A   1      45.925  26.122  26.750  1.00  0.00     0.031 A 
ATOM     57  C   UNL A   1      41.656  30.124  30.029  1.00  0.00     0.049 A 
ATOM     58  C   UNL A   1      45.744  27.617  26.596  1.00  0.00     0.074 A 
ATOM     59  C   UNL A   1      42.729  29.879  30.870  1.00  0.00     0.029 A 
ATOM     60  N   UNL A   1      42.195  30.503  28.803  1.00  0.00    -0.354 N 
ATOM     61  N   UNL A   1      44.811  28.313  27.190  1.00  0.00    -0.248 NA
ATOM     62  C   UNL A   1      46.659  28.442  25.820  1.00  0.00     0.031 C 
ATOM     63  C   UNL A   1      43.920  29.996  30.098  1.00  0.00     0.029 A 
ATOM     64  C   UNL A   1      43.568  30.324  28.798  1.00  0.00     0.049 A 
ATOM     65  H   UNL A   1      41.672  30.851  28.043  1.00  0.00     0.167 HD
ATOM     66  C   UNL A   1      45.053  29.642  26.998  1.00  0.00     0.074 A 
ATOM     67  C   UNL A   1      46.197  29.672  26.100  1.00  0.00     0.031 C 
ATOM     68  C   UNL A   1      44.343  30.638  27.604  1.00  0.00     0.031 A 
BRANCH  55  69
ATOM     69  C   UNL A   1      39.315  30.190  31.198  1.00  0.00    -0.014 A 
ATOM     70  C   UNL A   1      39.310  29.526  32.442  1.00  0.00     0.009 A 
ATOM     71  C   UNL A   1      38.413  31.261  31.075  1.00  0.00     0.009 A 
ATOM     72  C   UNL A   1      38.419  29.864  33.471  1.00  0.00     0.001 A 
ATOM     73  C   UNL A   1      37.503  31.592  32.093  1.00  0.00     0.001 A 
ATOM     74  C   UNL A   1      37.501  30.889  33.290  1.00  0.00     0.000 A 
ENDBRANCH  55  69
BRANCH  56  75
ATOM     75  C   UNL A   1      45.703  25.105  25.652  1.00  0.00    -0.014 A 
ATOM     76  C   UNL A   1      46.793  24.292  25.252  1.00  0.00     0.009 A 
ATOM     77  C   UNL A   1      44.436  24.756  25.160  1.00  0.00     0.009 A 
ATOM     78  C   UNL A   1      46.615  23.138  24.474  1.00  0.00     0.001 A 
ATOM     79  C   UNL A   1      44.262  23.613  24.354  1.00  0.00     0.001 A 
ATOM     80  C   UNL A   1      45.345  22.793  24.032  1.00  0.00     0.000 A 
ENDBRANCH  56  75
BRANCH  68  81
ATOM     81  C   UNL A   1      44.369  32.069  27.152  1.00  0.00    -0.014 A 
ATOM     82  C   UNL A   1      44.107  32.455  25.832  1.00  0.00     0.009 A 
ATOM     83  C   UNL A   1      44.476  33.093  28.117  1.00  0.00     0.009 A 
ATOM     84  C   UNL A   1      44.015  33.803  25.481  1.00  0.00     0.001 A 
ATOM     85  C   UNL A   1      44.320  34.436  27.781  1.00  0.00     0.001 A 
ATOM     86  C   UNL A   1      44.107  34.791  26.457  1.00  0.00     0.000 A 
ENDBRANCH  68  81
ENDBRANCH  42  43
ENDBRANCH  35  37
ENDBRANCH  34  35
ENDBRANCH  33  34
ENDBRANCH   1  33
TORSDOF 14
ENDMDL
