MODEL 1
REMARK VINA RESULT:     -10.2      0.000      0.000
REMARK SMILES O=C(C[C@@H](NC(=O)C1CCC1)c1ccc(Cl)cc1)OCCOC(=O)c1ccc(-c2c3nc(c(-c4ccccc4)c4ccc([nH]4)c(-c4ccccc4)c4nc(c(-c5ccccc5)c5ccc2[nH]5)C=C4)C=C3)cc1
REMARK SMILES IDX 20 1 19 2 2 3 1 4 3 5 4 6 5 7 6 8 7 10 8 11 9 12 11 13 10 14
REMARK SMILES IDX 12 15 13 16 18 17 14 18 17 19 15 20 16 21 21 22 22 23 23 24
REMARK SMILES IDX 24 25 25 26 26 27 72 28 27 29 71 30 28 31 29 32 30 33 65 34
REMARK SMILES IDX 31 35 70 36 64 37 66 38 32 39 69 40 63 41 62 42 33 44 55 45
REMARK SMILES IDX 40 46 54 47 41 48 44 49 53 50 67 51 42 52 43 53 52 55 68 56
REMARK SMILES IDX 45 57 34 58 35 59 39 60 36 61 38 62 37 63 56 64 57 65 61 66
REMARK SMILES IDX 58 67 60 68 59 69 46 70 47 71 51 72 48 73 50 74 49 75
REMARK H PARENT 5 9 66 43 44 54
REMARK Flexibility Score: inf
ROOT
ATOM      1  C   UNL A   1      31.445  29.515  25.197  1.00  0.00     0.274 C 
ENDROOT
BRANCH   1   2
ATOM      2  O   UNL A   1      32.516  28.596  25.495  1.00  0.00    -0.462 OA
BRANCH   2   3
ATOM      3  C   UNL A   1      32.251  27.402  26.084  1.00  0.00     0.308 C 
ATOM      4  O   UNL A   1      31.698  27.339  27.178  1.00  0.00    -0.252 OA
BRANCH   3   5
ATOM      5  C   UNL A   1      32.829  26.178  25.422  1.00  0.00     0.152 C 
BRANCH   5   6
ATOM      6  C   UNL A   1      33.175  25.055  26.402  1.00  0.00     0.123 C 
BRANCH   6   7
ATOM      7  N   UNL A   1      31.963  24.414  26.932  1.00  0.00    -0.348 N 
ATOM      8  C   UNL A   1      30.937  23.639  26.453  1.00  0.00     0.223 C 
ATOM      9  H   UNL A   1      31.859  24.587  27.895  1.00  0.00     0.164 HD
ATOM     10  O   UNL A   1      29.877  23.779  27.091  1.00  0.00    -0.275 OA
BRANCH   8  11
ATOM     11  C   UNL A   1      30.991  22.645  25.294  1.00  0.00     0.078 C 
ATOM     12  C   UNL A   1      31.449  22.990  23.872  1.00  0.00     0.013 C 
ATOM     13  C   UNL A   1      31.960  21.453  25.303  1.00  0.00     0.013 C 
ATOM     14  C   UNL A   1      32.132  21.613  23.785  1.00  0.00     0.002 C 
ENDBRANCH   8  11
ENDBRANCH   6   7
BRANCH   6  15
ATOM     15  C   UNL A   1      34.251  24.105  25.899  1.00  0.00    -0.025 A 
ATOM     16  C   UNL A   1      34.665  23.033  26.706  1.00  0.00     0.007 A 
ATOM     17  C   UNL A   1      34.898  24.278  24.662  1.00  0.00     0.007 A 
ATOM     18  C   UNL A   1      35.641  22.134  26.259  1.00  0.00     0.021 A 
ATOM     19  C   UNL A   1      35.878  23.389  24.217  1.00  0.00     0.021 A 
ATOM     20  C   UNL A   1      36.235  22.310  25.012  1.00  0.00     0.041 A 
ATOM     21  Cl  UNL A   1      37.402  21.184  24.441  1.00  0.00    -0.084 Cl
ENDBRANCH   6  15
ENDBRANCH   5   6
ENDBRANCH   3   5
ENDBRANCH   2   3
ENDBRANCH   1   2
BRANCH   1  22
ATOM     22  C   UNL A   1      31.537  30.818  25.999  1.00  0.00     0.275 C 
BRANCH  22  23
ATOM     23  O   UNL A   1      32.476  30.711  27.087  1.00  0.00    -0.458 OA
BRANCH  23  24
ATOM     24  C   UNL A   1      33.197  31.834  27.332  1.00  0.00     0.338 C 
ATOM     25  O   UNL A   1      32.789  32.983  27.300  1.00  0.00    -0.246 OA
BRANCH  24  26
ATOM     26  C   UNL A   1      34.542  31.472  27.837  1.00  0.00     0.060 A 
ATOM     27  C   UNL A   1      34.786  30.119  28.104  1.00  0.00     0.016 A 
ATOM     28  C   UNL A   1      35.556  32.415  28.038  1.00  0.00     0.016 A 
ATOM     29  C   UNL A   1      36.028  29.711  28.595  1.00  0.00     0.010 A 
ATOM     30  C   UNL A   1      36.804  32.002  28.525  1.00  0.00     0.010 A 
ATOM     31  C   UNL A   1      37.041  30.649  28.834  1.00  0.00    -0.014 A 
BRANCH  31  32
ATOM     32  C   UNL A   1      38.282  30.214  29.530  1.00  0.00     0.031 A 
ATOM     33  C   UNL A   1      38.492  30.602  30.970  1.00  0.00     0.074 A 
ATOM     34  C   UNL A   1      39.183  29.421  28.921  1.00  0.00     0.049 A 
ATOM     35  N   UNL A   1      39.434  30.227  31.800  1.00  0.00    -0.248 NA
ATOM     36  C   UNL A   1      37.512  31.532  31.553  1.00  0.00     0.031 C 
ATOM     37  C   UNL A   1      39.115  28.958  27.536  1.00  0.00     0.029 A 
ATOM     38  N   UNL A   1      40.337  28.852  29.407  1.00  0.00    -0.354 N 
ATOM     39  C   UNL A   1      39.144  30.854  33.005  1.00  0.00     0.074 A 
ATOM     40  C   UNL A   1      37.981  31.684  32.782  1.00  0.00     0.031 C 
ATOM     41  C   UNL A   1      40.178  28.175  27.283  1.00  0.00     0.029 A 
ATOM     42  C   UNL A   1      41.003  28.079  28.486  1.00  0.00     0.049 A 
ATOM     43  H   UNL A   1      40.657  28.986  30.328  1.00  0.00     0.167 HD
ATOM     44  C   UNL A   1      39.768  30.735  34.203  1.00  0.00     0.031 A 
ATOM     45  C   UNL A   1      42.141  27.365  28.601  1.00  0.00     0.031 A 
ATOM     46  C   UNL A   1      40.941  29.937  34.438  1.00  0.00     0.049 A 
ATOM     47  C   UNL A   1      42.852  27.296  29.928  1.00  0.00     0.074 A 
ATOM     48  C   UNL A   1      41.635  29.754  35.622  1.00  0.00     0.029 A 
ATOM     49  N   UNL A   1      41.600  29.197  33.471  1.00  0.00    -0.354 N 
ATOM     50  N   UNL A   1      42.524  27.840  31.075  1.00  0.00    -0.248 NA
ATOM     51  C   UNL A   1      44.080  26.487  29.979  1.00  0.00     0.031 C 
ATOM     52  C   UNL A   1      42.743  28.941  35.360  1.00  0.00     0.029 A 
ATOM     53  C   UNL A   1      42.705  28.574  34.025  1.00  0.00     0.049 A 
ATOM     54  H   UNL A   1      41.323  29.125  32.529  1.00  0.00     0.167 HD
ATOM     55  C   UNL A   1      43.487  27.418  31.985  1.00  0.00     0.074 A 
ATOM     56  C   UNL A   1      44.396  26.553  31.264  1.00  0.00     0.031 C 
ATOM     57  C   UNL A   1      43.609  27.719  33.301  1.00  0.00     0.031 A 
BRANCH  44  58
ATOM     58  C   UNL A   1      39.183  31.498  35.356  1.00  0.00    -0.014 A 
ATOM     59  C   UNL A   1      38.260  30.892  36.225  1.00  0.00     0.009 A 
ATOM     60  C   UNL A   1      39.574  32.823  35.595  1.00  0.00     0.009 A 
ATOM     61  C   UNL A   1      37.717  31.610  37.292  1.00  0.00     0.001 A 
ATOM     62  C   UNL A   1      39.049  33.530  36.678  1.00  0.00     0.001 A 
ATOM     63  C   UNL A   1      38.117  32.927  37.521  1.00  0.00     0.000 A 
ENDBRANCH  44  58
BRANCH  45  64
ATOM     64  C   UNL A   1      42.693  26.639  27.426  1.00  0.00    -0.014 A 
ATOM     65  C   UNL A   1      43.679  27.223  26.615  1.00  0.00     0.009 A 
ATOM     66  C   UNL A   1      42.189  25.376  27.076  1.00  0.00     0.009 A 
ATOM     67  C   UNL A   1      44.118  26.577  25.457  1.00  0.00     0.001 A 
ATOM     68  C   UNL A   1      42.652  24.719  25.934  1.00  0.00     0.001 A 
ATOM     69  C   UNL A   1      43.606  25.325  25.119  1.00  0.00     0.000 A 
ENDBRANCH  45  64
BRANCH  57  70
ATOM     70  C   UNL A   1      44.750  27.089  34.053  1.00  0.00    -0.014 A 
ATOM     71  C   UNL A   1      45.996  27.726  34.158  1.00  0.00     0.009 A 
ATOM     72  C   UNL A   1      44.569  25.847  34.683  1.00  0.00     0.009 A 
ATOM     73  C   UNL A   1      47.050  27.112  34.841  1.00  0.00     0.001 A 
ATOM     74  C   UNL A   1      45.614  25.251  35.392  1.00  0.00     0.001 A 
ATOM     75  C   UNL A   1      46.857  25.878  35.460  1.00  0.00     0.000 A 
ENDBRANCH  57  70
ENDBRANCH  31  32
ENDBRANCH  24  26
ENDBRANCH  23  24
ENDBRANCH  22  23
ENDBRANCH   1  22
TORSDOF 15
ENDMDL
MODEL 2
REMARK VINA RESULT:     -10.2      5.989     11.010
REMARK SMILES O=C(C[C@@H](NC(=O)C1CCC1)c1ccc(Cl)cc1)OCCOC(=O)c1ccc(-c2c3nc(c(-c4ccccc4)c4ccc([nH]4)c(-c4ccccc4)c4nc(c(-c5ccccc5)c5ccc2[nH]5)C=C4)C=C3)cc1
REMARK SMILES IDX 20 1 19 2 2 3 1 4 3 5 4 6 5 7 6 8 7 10 8 11 9 12 11 13 10 14
REMARK SMILES IDX 12 15 13 16 18 17 14 18 17 19 15 20 16 21 21 22 22 23 23 24
REMARK SMILES IDX 24 25 25 26 26 27 72 28 27 29 71 30 28 31 29 32 30 33 65 34
REMARK SMILES IDX 31 35 70 36 64 37 66 38 32 39 69 40 63 41 62 42 33 44 55 45
REMARK SMILES IDX 40 46 54 47 41 48 44 49 53 50 67 51 42 52 43 53 52 55 68 56
REMARK SMILES IDX 45 57 34 58 35 59 39 60 36 61 38 62 37 63 56 64 57 65 61 66
REMARK SMILES IDX 58 67 60 68 59 69 46 70 47 71 51 72 48 73 50 74 49 75
REMARK H PARENT 5 9 66 43 44 54
REMARK Flexibility Score: inf
ROOT
ATOM      1  C   UNL A   1      45.421  20.040  24.364  1.00  0.00     0.274 C 
ENDROOT
BRANCH   1   2
ATOM      2  O   UNL A   1      45.206  21.451  24.159  1.00  0.00    -0.462 OA
BRANCH   2   3
ATOM      3  C   UNL A   1      45.776  22.360  24.990  1.00  0.00     0.308 C 
ATOM      4  O   UNL A   1      46.146  22.049  26.119  1.00  0.00    -0.252 OA
BRANCH   3   5
ATOM      5  C   UNL A   1      45.764  23.795  24.533  1.00  0.00     0.152 C 
BRANCH   5   6
ATOM      6  C   UNL A   1      45.939  24.804  25.671  1.00  0.00     0.123 C 
BRANCH   6   7
ATOM      7  N   UNL A   1      47.327  25.283  25.754  1.00  0.00    -0.348 N 
ATOM      8  C   UNL A   1      48.302  25.711  24.889  1.00  0.00     0.223 C 
ATOM      9  H   UNL A   1      47.643  25.303  26.685  1.00  0.00     0.164 HD
ATOM     10  O   UNL A   1      49.455  25.498  25.306  1.00  0.00    -0.275 OA
BRANCH   8  11
ATOM     11  C   UNL A   1      48.107  26.421  23.551  1.00  0.00     0.078 C 
ATOM     12  C   UNL A   1      47.410  27.776  23.379  1.00  0.00     0.013 C 
ATOM     13  C   UNL A   1      49.300  26.946  22.739  1.00  0.00     0.013 C 
ATOM     14  C   UNL A   1      48.442  28.140  22.296  1.00  0.00     0.002 C 
ENDBRANCH   8  11
ENDBRANCH   6   7
BRANCH   6  15
ATOM     15  C   UNL A   1      44.870  25.885  25.708  1.00  0.00    -0.025 A 
ATOM     16  C   UNL A   1      43.621  25.650  25.111  1.00  0.00     0.007 A 
ATOM     17  C   UNL A   1      45.090  27.151  26.280  1.00  0.00     0.007 A 
ATOM     18  C   UNL A   1      42.614  26.622  25.146  1.00  0.00     0.021 A 
ATOM     19  C   UNL A   1      44.092  28.126  26.310  1.00  0.00     0.021 A 
ATOM     20  C   UNL A   1      42.851  27.852  25.755  1.00  0.00     0.041 A 
ATOM     21  Cl  UNL A   1      41.604  29.032  25.840  1.00  0.00    -0.084 Cl
ENDBRANCH   6  15
ENDBRANCH   5   6
ENDBRANCH   3   5
ENDBRANCH   2   3
ENDBRANCH   1   2
BRANCH   1  22
ATOM     22  C   UNL A   1      44.114  19.240  24.423  1.00  0.00     0.275 C 
BRANCH  22  23
ATOM     23  O   UNL A   1      43.589  19.175  25.763  1.00  0.00    -0.458 OA
BRANCH  23  24
ATOM     24  C   UNL A   1      42.313  19.617  25.898  1.00  0.00     0.338 C 
ATOM     25  O   UNL A   1      41.297  19.004  25.617  1.00  0.00    -0.246 OA
BRANCH  24  26
ATOM     26  C   UNL A   1      42.299  20.910  26.623  1.00  0.00     0.060 A 
ATOM     27  C   UNL A   1      42.320  22.079  25.852  1.00  0.00     0.016 A 
ATOM     28  C   UNL A   1      42.253  20.995  28.018  1.00  0.00     0.016 A 
ATOM     29  C   UNL A   1      42.322  23.330  26.471  1.00  0.00     0.010 A 
ATOM     30  C   UNL A   1      42.249  22.254  28.637  1.00  0.00     0.010 A 
ATOM     31  C   UNL A   1      42.312  23.431  27.869  1.00  0.00    -0.014 A 
BRANCH  31  32
ATOM     32  C   UNL A   1      42.503  24.765  28.499  1.00  0.00     0.031 A 
ATOM     33  C   UNL A   1      43.864  25.141  29.025  1.00  0.00     0.074 A 
ATOM     34  C   UNL A   1      41.506  25.668  28.544  1.00  0.00     0.049 A 
ATOM     35  N   UNL A   1      44.282  26.291  29.494  1.00  0.00    -0.248 NA
ATOM     36  C   UNL A   1      44.889  24.086  29.019  1.00  0.00     0.031 C 
ATOM     37  C   UNL A   1      40.139  25.452  28.071  1.00  0.00     0.029 A 
ATOM     38  N   UNL A   1      41.499  26.963  29.003  1.00  0.00    -0.354 N 
ATOM     39  C   UNL A   1      45.621  26.103  29.814  1.00  0.00     0.074 A 
ATOM     40  C   UNL A   1      45.928  24.714  29.548  1.00  0.00     0.031 C 
ATOM     41  C   UNL A   1      39.427  26.576  28.263  1.00  0.00     0.029 A 
ATOM     42  C   UNL A   1      40.284  27.591  28.871  1.00  0.00     0.049 A 
ATOM     43  H   UNL A   1      42.291  27.400  29.392  1.00  0.00     0.167 HD
ATOM     44  C   UNL A   1      46.528  27.004  30.262  1.00  0.00     0.031 A 
ATOM     45  C   UNL A   1      39.908  28.846  29.192  1.00  0.00     0.031 A 
ATOM     46  C   UNL A   1      46.236  28.380  30.557  1.00  0.00     0.049 A 
ATOM     47  C   UNL A   1      40.920  29.814  29.747  1.00  0.00     0.074 A 
ATOM     48  C   UNL A   1      47.097  29.366  31.010  1.00  0.00     0.029 A 
ATOM     49  N   UNL A   1      44.986  28.966  30.440  1.00  0.00    -0.354 N 
ATOM     50  N   UNL A   1      42.199  29.638  29.977  1.00  0.00    -0.248 NA
ATOM     51  C   UNL A   1      40.437  31.168  30.061  1.00  0.00     0.031 C 
ATOM     52  C   UNL A   1      46.357  30.536  31.213  1.00  0.00     0.029 A 
ATOM     53  C   UNL A   1      45.048  30.292  30.833  1.00  0.00     0.049 A 
ATOM     54  H   UNL A   1      44.175  28.506  30.124  1.00  0.00     0.167 HD
ATOM     55  C   UNL A   1      42.676  30.862  30.434  1.00  0.00     0.074 A 
ATOM     56  C   UNL A   1      41.556  31.779  30.425  1.00  0.00     0.031 C 
ATOM     57  C   UNL A   1      43.929  31.198  30.827  1.00  0.00     0.031 A 
BRANCH  44  58
ATOM     58  C   UNL A   1      47.934  26.515  30.462  1.00  0.00    -0.014 A 
ATOM     59  C   UNL A   1      48.866  26.558  29.411  1.00  0.00     0.009 A 
ATOM     60  C   UNL A   1      48.341  26.036  31.714  1.00  0.00     0.009 A 
ATOM     61  C   UNL A   1      50.170  26.097  29.604  1.00  0.00     0.001 A 
ATOM     62  C   UNL A   1      49.653  25.600  31.911  1.00  0.00     0.001 A 
ATOM     63  C   UNL A   1      50.563  25.624  30.855  1.00  0.00     0.000 A 
ENDBRANCH  44  58
BRANCH  45  64
ATOM     64  C   UNL A   1      38.499  29.280  28.993  1.00  0.00    -0.014 A 
ATOM     65  C   UNL A   1      37.570  29.218  30.043  1.00  0.00     0.009 A 
ATOM     66  C   UNL A   1      38.063  29.704  27.727  1.00  0.00     0.009 A 
ATOM     67  C   UNL A   1      36.227  29.532  29.821  1.00  0.00     0.001 A 
ATOM     68  C   UNL A   1      36.727  30.046  27.515  1.00  0.00     0.001 A 
ATOM     69  C   UNL A   1      35.807  29.947  28.558  1.00  0.00     0.000 A 
ENDBRANCH  45  64
BRANCH  57  70
ATOM     70  C   UNL A   1      44.162  32.622  31.254  1.00  0.00    -0.014 A 
ATOM     71  C   UNL A   1      44.769  33.552  30.397  1.00  0.00     0.009 A 
ATOM     72  C   UNL A   1      43.748  33.043  32.528  1.00  0.00     0.009 A 
ATOM     73  C   UNL A   1      44.997  34.864  30.824  1.00  0.00     0.001 A 
ATOM     74  C   UNL A   1      43.948  34.362  32.940  1.00  0.00     0.001 A 
ATOM     75  C   UNL A   1      44.583  35.268  32.092  1.00  0.00     0.000 A 
ENDBRANCH  57  70
ENDBRANCH  31  32
ENDBRANCH  24  26
ENDBRANCH  23  24
ENDBRANCH  22  23
ENDBRANCH   1  22
TORSDOF 15
ENDMDL
MODEL 3
REMARK VINA RESULT:     -10.2      2.993      5.089
REMARK SMILES O=C(C[C@@H](NC(=O)C1CCC1)c1ccc(Cl)cc1)OCCOC(=O)c1ccc(-c2c3nc(c(-c4ccccc4)c4ccc([nH]4)c(-c4ccccc4)c4nc(c(-c5ccccc5)c5ccc2[nH]5)C=C4)C=C3)cc1
REMARK SMILES IDX 20 1 19 2 2 3 1 4 3 5 4 6 5 7 6 8 7 10 8 11 9 12 11 13 10 14
REMARK SMILES IDX 12 15 13 16 18 17 14 18 17 19 15 20 16 21 21 22 22 23 23 24
REMARK SMILES IDX 24 25 25 26 26 27 72 28 27 29 71 30 28 31 29 32 30 33 65 34
REMARK SMILES IDX 31 35 70 36 64 37 66 38 32 39 69 40 63 41 62 42 33 44 55 45
REMARK SMILES IDX 40 46 54 47 41 48 44 49 53 50 67 51 42 52 43 53 52 55 68 56
REMARK SMILES IDX 45 57 34 58 35 59 39 60 36 61 38 62 37 63 56 64 57 65 61 66
REMARK SMILES IDX 58 67 60 68 59 69 46 70 47 71 51 72 48 73 50 74 49 75
REMARK H PARENT 5 9 66 43 44 54
REMARK Flexibility Score: inf
ROOT
ATOM      1  C   UNL A   1      31.198  26.934  21.932  1.00  0.00     0.274 C 
ENDROOT
BRANCH   1   2
ATOM      2  O   UNL A   1      31.664  25.601  22.223  1.00  0.00    -0.462 OA
BRANCH   2   3
ATOM      3  C   UNL A   1      32.780  25.118  21.622  1.00  0.00     0.308 C 
ATOM      4  O   UNL A   1      33.098  25.467  20.488  1.00  0.00    -0.252 OA
BRANCH   3   5
ATOM      5  C   UNL A   1      33.503  24.003  22.333  1.00  0.00     0.152 C 
BRANCH   5   6
ATOM      6  C   UNL A   1      33.807  24.306  23.802  1.00  0.00     0.123 C 
BRANCH   6   7
ATOM      7  N   UNL A   1      32.627  24.078  24.650  1.00  0.00    -0.348 N 
ATOM      8  C   UNL A   1      31.814  23.026  24.990  1.00  0.00     0.223 C 
ATOM      9  H   UNL A   1      32.344  24.907  25.098  1.00  0.00     0.164 HD
ATOM     10  O   UNL A   1      30.655  23.377  25.281  1.00  0.00    -0.275 OA
BRANCH   8  11
ATOM     11  C   UNL A   1      32.197  21.550  25.076  1.00  0.00     0.078 C 
ATOM     12  C   UNL A   1      32.754  20.727  23.909  1.00  0.00     0.013 C 
ATOM     13  C   UNL A   1      33.364  21.073  25.953  1.00  0.00     0.013 C 
ATOM     14  C   UNL A   1      33.689  20.006  24.897  1.00  0.00     0.002 C 
ENDBRANCH   8  11
ENDBRANCH   6   7
BRANCH   6  15
ATOM     15  C   UNL A   1      35.103  23.691  24.305  1.00  0.00    -0.025 A 
ATOM     16  C   UNL A   1      35.622  24.084  25.549  1.00  0.00     0.007 A 
ATOM     17  C   UNL A   1      35.847  22.765  23.552  1.00  0.00     0.007 A 
ATOM     18  C   UNL A   1      36.805  23.520  26.043  1.00  0.00     0.021 A 
ATOM     19  C   UNL A   1      37.031  22.208  24.037  1.00  0.00     0.021 A 
ATOM     20  C   UNL A   1      37.498  22.577  25.289  1.00  0.00     0.041 A 
ATOM     21  Cl  UNL A   1      38.927  21.850  25.911  1.00  0.00    -0.084 Cl
ENDBRANCH   6  15
ENDBRANCH   5   6
ENDBRANCH   3   5
ENDBRANCH   2   3
ENDBRANCH   1   2
BRANCH   1  22
ATOM     22  C   UNL A   1      31.957  28.015  22.712  1.00  0.00     0.275 C 
BRANCH  22  23
ATOM     23  O   UNL A   1      31.243  28.418  23.896  1.00  0.00    -0.458 OA
BRANCH  23  24
ATOM     24  C   UNL A   1      31.523  27.691  25.008  1.00  0.00     0.338 C 
ATOM     25  O   UNL A   1      31.012  26.633  25.334  1.00  0.00    -0.246 OA
BRANCH  24  26
ATOM     26  C   UNL A   1      32.695  28.269  25.708  1.00  0.00     0.060 A 
ATOM     27  C   UNL A   1      32.810  28.022  27.081  1.00  0.00     0.016 A 
ATOM     28  C   UNL A   1      33.673  29.024  25.051  1.00  0.00     0.016 A 
ATOM     29  C   UNL A   1      33.882  28.548  27.804  1.00  0.00     0.010 A 
ATOM     30  C   UNL A   1      34.753  29.546  25.779  1.00  0.00     0.010 A 
ATOM     31  C   UNL A   1      34.850  29.335  27.167  1.00  0.00    -0.014 A 
BRANCH  31  32
ATOM     32  C   UNL A   1      35.872  30.035  27.991  1.00  0.00     0.031 A 
ATOM     33  C   UNL A   1      35.469  31.244  28.793  1.00  0.00     0.074 A 
ATOM     34  C   UNL A   1      37.130  29.565  28.093  1.00  0.00     0.049 A 
ATOM     35  N   UNL A   1      36.162  31.926  29.671  1.00  0.00    -0.248 NA
ATOM     36  C   UNL A   1      34.105  31.753  28.579  1.00  0.00     0.031 C 
ATOM     37  C   UNL A   1      37.666  28.404  27.384  1.00  0.00     0.029 A 
ATOM     38  N   UNL A   1      38.186  30.010  28.851  1.00  0.00    -0.354 N 
ATOM     39  C   UNL A   1      35.312  32.923  30.131  1.00  0.00     0.074 A 
ATOM     40  C   UNL A   1      34.076  32.800  29.389  1.00  0.00     0.031 C 
ATOM     41  C   UNL A   1      38.951  28.227  27.742  1.00  0.00     0.029 A 
ATOM     42  C   UNL A   1      39.328  29.260  28.705  1.00  0.00     0.049 A 
ATOM     43  H   UNL A   1      38.130  30.795  29.443  1.00  0.00     0.167 HD
ATOM     44  C   UNL A   1      35.521  33.844  31.102  1.00  0.00     0.031 A 
ATOM     45  C   UNL A   1      40.537  29.383  29.289  1.00  0.00     0.031 A 
ATOM     46  C   UNL A   1      36.749  33.999  31.832  1.00  0.00     0.049 A 
ATOM     47  C   UNL A   1      40.766  30.455  30.323  1.00  0.00     0.074 A 
ATOM     48  C   UNL A   1      37.046  34.903  32.838  1.00  0.00     0.029 A 
ATOM     49  N   UNL A   1      37.889  33.240  31.629  1.00  0.00    -0.354 N 
ATOM     50  N   UNL A   1      39.927  31.345  30.795  1.00  0.00    -0.248 NA
ATOM     51  C   UNL A   1      42.107  30.518  30.925  1.00  0.00     0.031 C 
ATOM     52  C   UNL A   1      38.383  34.723  33.210  1.00  0.00     0.029 A 
ATOM     53  C   UNL A   1      38.899  33.668  32.475  1.00  0.00     0.049 A 
ATOM     54  H   UNL A   1      37.970  32.504  30.980  1.00  0.00     0.167 HD
ATOM     55  C   UNL A   1      40.630  32.053  31.765  1.00  0.00     0.074 A 
ATOM     56  C   UNL A   1      41.954  31.472  31.832  1.00  0.00     0.031 C 
ATOM     57  C   UNL A   1      40.216  33.090  32.533  1.00  0.00     0.031 A 
BRANCH  44  58
ATOM     58  C   UNL A   1      34.379  34.764  31.427  1.00  0.00    -0.014 A 
ATOM     59  C   UNL A   1      34.038  35.819  30.563  1.00  0.00     0.009 A 
ATOM     60  C   UNL A   1      33.619  34.561  32.587  1.00  0.00     0.009 A 
ATOM     61  C   UNL A   1      32.978  36.673  30.875  1.00  0.00     0.001 A 
ATOM     62  C   UNL A   1      32.542  35.401  32.882  1.00  0.00     0.001 A 
ATOM     63  C   UNL A   1      32.228  36.459  32.031  1.00  0.00     0.000 A 
ENDBRANCH  44  58
BRANCH  45  64
ATOM     64  C   UNL A   1      41.644  28.459  28.922  1.00  0.00    -0.014 A 
ATOM     65  C   UNL A   1      41.868  27.278  29.647  1.00  0.00     0.009 A 
ATOM     66  C   UNL A   1      42.521  28.788  27.876  1.00  0.00     0.009 A 
ATOM     67  C   UNL A   1      42.969  26.468  29.359  1.00  0.00     0.001 A 
ATOM     68  C   UNL A   1      43.604  27.962  27.572  1.00  0.00     0.001 A 
ATOM     69  C   UNL A   1      43.835  26.810  28.321  1.00  0.00     0.000 A 
ENDBRANCH  45  64
BRANCH  57  70
ATOM     70  C   UNL A   1      41.196  33.649  33.528  1.00  0.00    -0.014 A 
ATOM     71  C   UNL A   1      42.036  34.726  33.203  1.00  0.00     0.009 A 
ATOM     72  C   UNL A   1      41.266  33.101  34.820  1.00  0.00     0.009 A 
ATOM     73  C   UNL A   1      42.955  35.214  34.135  1.00  0.00     0.001 A 
ATOM     74  C   UNL A   1      42.164  33.611  35.760  1.00  0.00     0.001 A 
ATOM     75  C   UNL A   1      43.016  34.659  35.413  1.00  0.00     0.000 A 
ENDBRANCH  57  70
ENDBRANCH  31  32
ENDBRANCH  24  26
ENDBRANCH  23  24
ENDBRANCH  22  23
ENDBRANCH   1  22
TORSDOF 15
ENDMDL
