MODEL 1
REMARK VINA RESULT:     -10.8      0.000      0.000
REMARK SMILES Cc1ccccc1-c1nc(CC(=O)OCCOC(=O)c2ccc(-c3c4nc(c(-c5ccccc5)c5ccc([nH]5)c(-c5ccccc5)c5nc(c(-c6ccccc6)c6ccc3[nH]6)C=C5)C=C4)cc2)cs1
REMARK SMILES IDX 15 1 14 2 12 3 13 4 11 5 10 6 8 7 9 8 69 9 68 10 7 11 1 12
REMARK SMILES IDX 2 13 3 14 4 15 6 16 5 17 16 18 17 19 18 20 19 21 20 22 21 23
REMARK SMILES IDX 67 24 22 25 66 26 23 27 24 28 25 29 60 30 26 31 65 32 59 33
REMARK SMILES IDX 61 34 27 35 64 36 58 37 57 38 28 40 50 41 35 42 49 43 36 44
REMARK SMILES IDX 39 45 48 46 62 47 37 48 38 49 47 51 63 52 40 53 29 54 30 55
REMARK SMILES IDX 34 56 31 57 33 58 32 59 51 60 52 61 56 62 53 63 55 64 54 65
REMARK SMILES IDX 41 66 42 67 46 68 43 69 45 70 44 71
REMARK H PARENT 61 39 39 50
REMARK Flexibility Score: inf
ROOT
ATOM      1  C   UNL A   1      32.366  29.995  26.995  1.00  0.00     0.274 C 
ENDROOT
BRANCH   1   2
ATOM      2  O   UNL A   1      32.802  28.802  26.356  1.00  0.00    -0.462 OA
BRANCH   2   3
ATOM      3  C   UNL A   1      32.500  28.710  25.027  1.00  0.00     0.312 C 
ATOM      4  O   UNL A   1      33.061  29.327  24.151  1.00  0.00    -0.252 OA
BRANCH   3   5
ATOM      5  C   UNL A   1      31.426  27.666  24.805  1.00  0.00     0.179 C 
BRANCH   5   6
ATOM      6  C   UNL A   1      31.921  26.343  25.227  1.00  0.00     0.063 A 
ATOM      7  C   UNL A   1      33.460  24.800  25.042  1.00  0.00     0.123 A 
ATOM      8  N   UNL A   1      33.133  26.019  24.707  1.00  0.00    -0.240 NA
ATOM      9  S   UNL A   1      32.332  23.952  25.996  1.00  0.00    -0.122 S 
ATOM     10  C   UNL A   1      31.328  25.357  25.997  1.00  0.00     0.091 A 
BRANCH   7  11
ATOM     11  C   UNL A   1      34.755  24.302  24.636  1.00  0.00     0.013 A 
ATOM     12  C   UNL A   1      33.698  23.353  22.505  1.00  0.00     0.045 C 
ATOM     13  C   UNL A   1      34.834  23.481  23.490  1.00  0.00    -0.041 A 
ATOM     14  C   UNL A   1      35.957  22.662  23.331  1.00  0.00     0.004 A 
ATOM     15  C   UNL A   1      36.971  22.654  24.292  1.00  0.00     0.000 A 
ATOM     16  C   UNL A   1      35.797  24.320  25.575  1.00  0.00     0.011 A 
ATOM     17  C   UNL A   1      36.899  23.491  25.405  1.00  0.00     0.001 A 
ENDBRANCH   7  11
ENDBRANCH   5   6
ENDBRANCH   3   5
ENDBRANCH   2   3
ENDBRANCH   1   2
BRANCH   1  18
ATOM     18  C   UNL A   1      33.575  30.851  27.395  1.00  0.00     0.275 C 
BRANCH  18  19
ATOM     19  O   UNL A   1      34.871  30.192  27.601  1.00  0.00    -0.458 OA
BRANCH  19  20
ATOM     20  C   UNL A   1      36.051  30.645  28.102  1.00  0.00     0.338 C 
ATOM     21  O   UNL A   1      36.154  31.743  28.635  1.00  0.00    -0.246 OA
BRANCH  20  22
ATOM     22  C   UNL A   1      37.208  29.740  28.085  1.00  0.00     0.060 A 
ATOM     23  C   UNL A   1      38.097  29.751  26.996  1.00  0.00     0.016 A 
ATOM     24  C   UNL A   1      37.476  28.982  29.210  1.00  0.00     0.016 A 
ATOM     25  C   UNL A   1      39.330  29.109  27.101  1.00  0.00     0.010 A 
ATOM     26  C   UNL A   1      38.754  28.530  29.395  1.00  0.00     0.010 A 
ATOM     27  C   UNL A   1      39.665  28.544  28.327  1.00  0.00    -0.014 A 
BRANCH  27  28
ATOM     28  C   UNL A   1      40.786  27.643  28.534  1.00  0.00     0.031 A 
ATOM     29  C   UNL A   1      40.697  26.184  28.410  1.00  0.00     0.074 A 
ATOM     30  C   UNL A   1      41.936  28.334  28.702  1.00  0.00     0.049 A 
ATOM     31  N   UNL A   1      41.606  25.386  28.847  1.00  0.00    -0.248 NA
ATOM     32  C   UNL A   1      39.581  25.469  27.801  1.00  0.00     0.031 C 
ATOM     33  C   UNL A   1      43.331  27.943  28.676  1.00  0.00     0.029 A 
ATOM     34  N   UNL A   1      41.978  29.671  29.134  1.00  0.00    -0.354 N 
ATOM     35  C   UNL A   1      41.379  24.149  28.283  1.00  0.00     0.074 A 
ATOM     36  C   UNL A   1      40.052  24.217  27.732  1.00  0.00     0.031 C 
ATOM     37  C   UNL A   1      44.028  28.862  29.381  1.00  0.00     0.029 A 
ATOM     38  C   UNL A   1      43.053  29.754  30.011  1.00  0.00     0.049 A 
ATOM     39  H   UNL A   1      41.370  30.400  28.869  1.00  0.00     0.167 HD
ATOM     40  C   UNL A   1      42.421  23.276  28.212  1.00  0.00     0.031 A 
ATOM     41  C   UNL A   1      42.748  29.810  31.345  1.00  0.00     0.031 A 
ATOM     42  C   UNL A   1      43.584  23.820  28.909  1.00  0.00     0.049 A 
ATOM     43  C   UNL A   1      43.234  28.578  32.083  1.00  0.00     0.074 A 
ATOM     44  C   UNL A   1      44.717  24.496  28.489  1.00  0.00     0.029 A 
ATOM     45  N   UNL A   1      43.461  24.075  30.265  1.00  0.00    -0.354 N 
ATOM     46  N   UNL A   1      43.509  27.436  31.514  1.00  0.00    -0.248 NA
ATOM     47  C   UNL A   1      43.399  28.529  33.531  1.00  0.00     0.031 C 
ATOM     48  C   UNL A   1      45.244  25.204  29.612  1.00  0.00     0.029 A 
ATOM     49  C   UNL A   1      44.445  24.936  30.708  1.00  0.00     0.049 A 
ATOM     50  H   UNL A   1      42.761  23.690  30.839  1.00  0.00     0.167 HD
ATOM     51  C   UNL A   1      43.966  26.549  32.447  1.00  0.00     0.074 A 
ATOM     52  C   UNL A   1      43.807  27.260  33.707  1.00  0.00     0.031 C 
ATOM     53  C   UNL A   1      44.443  25.311  32.115  1.00  0.00     0.031 A 
BRANCH  40  54
ATOM     54  C   UNL A   1      42.478  22.075  27.302  1.00  0.00    -0.014 A 
ATOM     55  C   UNL A   1      41.501  21.071  27.444  1.00  0.00     0.009 A 
ATOM     56  C   UNL A   1      43.463  21.845  26.327  1.00  0.00     0.009 A 
ATOM     57  C   UNL A   1      41.535  19.881  26.708  1.00  0.00     0.001 A 
ATOM     58  C   UNL A   1      43.514  20.646  25.596  1.00  0.00     0.001 A 
ATOM     59  C   UNL A   1      42.553  19.660  25.792  1.00  0.00     0.000 A 
ENDBRANCH  40  54
BRANCH  41  60
ATOM     60  C   UNL A   1      41.478  30.563  31.680  1.00  0.00    -0.014 A 
ATOM     61  C   UNL A   1      41.241  31.827  31.081  1.00  0.00     0.009 A 
ATOM     62  C   UNL A   1      40.405  29.971  32.363  1.00  0.00     0.009 A 
ATOM     63  C   UNL A   1      39.969  32.412  31.066  1.00  0.00     0.001 A 
ATOM     64  C   UNL A   1      39.137  30.580  32.380  1.00  0.00     0.001 A 
ATOM     65  C   UNL A   1      38.911  31.782  31.709  1.00  0.00     0.000 A 
ENDBRANCH  41  60
BRANCH  53  66
ATOM     66  C   UNL A   1      44.923  24.287  33.109  1.00  0.00    -0.014 A 
ATOM     67  C   UNL A   1      46.167  24.344  33.742  1.00  0.00     0.009 A 
ATOM     68  C   UNL A   1      44.124  23.154  33.384  1.00  0.00     0.009 A 
ATOM     69  C   UNL A   1      46.535  23.392  34.699  1.00  0.00     0.001 A 
ATOM     70  C   UNL A   1      44.496  22.187  34.315  1.00  0.00     0.001 A 
ATOM     71  C   UNL A   1      45.693  22.322  34.995  1.00  0.00     0.000 A 
ENDBRANCH  53  66
ENDBRANCH  27  28
ENDBRANCH  20  22
ENDBRANCH  19  20
ENDBRANCH  18  19
ENDBRANCH   1  18
TORSDOF 13
ENDMDL
MODEL 2
REMARK VINA RESULT:     -10.7      3.494      8.948
REMARK SMILES Cc1ccccc1-c1nc(CC(=O)OCCOC(=O)c2ccc(-c3c4nc(c(-c5ccccc5)c5ccc([nH]5)c(-c5ccccc5)c5nc(c(-c6ccccc6)c6ccc3[nH]6)C=C5)C=C4)cc2)cs1
REMARK SMILES IDX 15 1 14 2 12 3 13 4 11 5 10 6 8 7 9 8 69 9 68 10 7 11 1 12
REMARK SMILES IDX 2 13 3 14 4 15 6 16 5 17 16 18 17 19 18 20 19 21 20 22 21 23
REMARK SMILES IDX 67 24 22 25 66 26 23 27 24 28 25 29 60 30 26 31 65 32 59 33
REMARK SMILES IDX 61 34 27 35 64 36 58 37 57 38 28 40 50 41 35 42 49 43 36 44
REMARK SMILES IDX 39 45 48 46 62 47 37 48 38 49 47 51 63 52 40 53 29 54 30 55
REMARK SMILES IDX 34 56 31 57 33 58 32 59 51 60 52 61 56 62 53 63 55 64 54 65
REMARK SMILES IDX 41 66 42 67 46 68 43 69 45 70 44 71
REMARK H PARENT 61 39 39 50
REMARK Flexibility Score: inf
ROOT
ATOM      1  C   UNL A   1      37.585  21.887  25.401  1.00  0.00     0.274 C 
ENDROOT
BRANCH   1   2
ATOM      2  O   UNL A   1      37.068  23.055  24.779  1.00  0.00    -0.462 OA
BRANCH   2   3
ATOM      3  C   UNL A   1      36.264  22.832  23.698  1.00  0.00     0.312 C 
ATOM      4  O   UNL A   1      36.577  23.051  22.551  1.00  0.00    -0.252 OA
BRANCH   3   5
ATOM      5  C   UNL A   1      34.962  22.195  24.137  1.00  0.00     0.179 C 
BRANCH   5   6
ATOM      6  C   UNL A   1      33.846  23.130  23.906  1.00  0.00     0.063 A 
ATOM      7  C   UNL A   1      32.959  25.088  24.315  1.00  0.00     0.123 A 
ATOM      8  N   UNL A   1      34.026  24.350  24.475  1.00  0.00    -0.240 NA
ATOM      9  S   UNL A   1      31.662  24.366  23.480  1.00  0.00    -0.122 S 
ATOM     10  C   UNL A   1      32.626  22.948  23.277  1.00  0.00     0.091 A 
BRANCH   7  11
ATOM     11  C   UNL A   1      32.991  26.451  24.795  1.00  0.00     0.013 A 
ATOM     12  C   UNL A   1      33.740  27.228  22.472  1.00  0.00     0.045 C 
ATOM     13  C   UNL A   1      33.509  27.453  23.947  1.00  0.00    -0.041 A 
ATOM     14  C   UNL A   1      33.941  28.655  24.518  1.00  0.00     0.004 A 
ATOM     15  C   UNL A   1      33.866  28.851  25.900  1.00  0.00     0.000 A 
ATOM     16  C   UNL A   1      32.881  26.670  26.176  1.00  0.00     0.011 A 
ATOM     17  C   UNL A   1      33.326  27.867  26.726  1.00  0.00     0.001 A 
ENDBRANCH   7  11
ENDBRANCH   5   6
ENDBRANCH   3   5
ENDBRANCH   2   3
ENDBRANCH   1   2
BRANCH   1  18
ATOM     18  C   UNL A   1      38.843  22.232  26.209  1.00  0.00     0.275 C 
BRANCH  18  19
ATOM     19  O   UNL A   1      39.177  23.644  26.428  1.00  0.00    -0.458 OA
BRANCH  19  20
ATOM     20  C   UNL A   1      40.162  24.245  27.149  1.00  0.00     0.338 C 
ATOM     21  O   UNL A   1      41.273  23.746  27.272  1.00  0.00    -0.246 OA
BRANCH  20  22
ATOM     22  C   UNL A   1      39.902  25.577  27.708  1.00  0.00     0.060 A 
ATOM     23  C   UNL A   1      39.219  25.709  28.930  1.00  0.00     0.016 A 
ATOM     24  C   UNL A   1      40.454  26.680  27.083  1.00  0.00     0.016 A 
ATOM     25  C   UNL A   1      39.219  26.934  29.595  1.00  0.00     0.010 A 
ATOM     26  C   UNL A   1      40.631  27.819  27.821  1.00  0.00     0.010 A 
ATOM     27  C   UNL A   1      39.973  27.969  29.051  1.00  0.00    -0.014 A 
BRANCH  27  28
ATOM     28  C   UNL A   1      39.888  29.355  29.478  1.00  0.00     0.031 A 
ATOM     29  C   UNL A   1      38.849  30.288  29.026  1.00  0.00     0.074 A 
ATOM     30  C   UNL A   1      40.792  29.618  30.448  1.00  0.00     0.049 A 
ATOM     31  N   UNL A   1      38.930  31.561  29.192  1.00  0.00    -0.248 NA
ATOM     32  C   UNL A   1      37.626  29.897  28.334  1.00  0.00     0.031 C 
ATOM     33  C   UNL A   1      40.946  30.720  31.375  1.00  0.00     0.029 A 
ATOM     34  N   UNL A   1      41.958  28.858  30.643  1.00  0.00    -0.354 N 
ATOM     35  C   UNL A   1      37.676  32.089  28.969  1.00  0.00     0.074 A 
ATOM     36  C   UNL A   1      36.926  31.040  28.332  1.00  0.00     0.031 C 
ATOM     37  C   UNL A   1      42.241  30.751  31.764  1.00  0.00     0.029 A 
ATOM     38  C   UNL A   1      42.961  29.772  30.947  1.00  0.00     0.049 A 
ATOM     39  H   UNL A   1      42.048  27.879  30.577  1.00  0.00     0.167 HD
ATOM     40  C   UNL A   1      37.388  33.305  29.510  1.00  0.00     0.031 A 
ATOM     41  C   UNL A   1      43.856  30.050  29.949  1.00  0.00     0.031 A 
ATOM     42  C   UNL A   1      38.580  33.877  30.131  1.00  0.00     0.049 A 
ATOM     43  C   UNL A   1      43.749  31.489  29.485  1.00  0.00     0.074 A 
ATOM     44  C   UNL A   1      39.050  33.919  31.432  1.00  0.00     0.029 A 
ATOM     45  N   UNL A   1      39.671  34.131  29.317  1.00  0.00    -0.354 N 
ATOM     46  N   UNL A   1      42.704  32.250  29.668  1.00  0.00    -0.248 NA
ATOM     47  C   UNL A   1      44.800  32.166  28.734  1.00  0.00     0.031 C 
ATOM     48  C   UNL A   1      40.458  34.155  31.381  1.00  0.00     0.029 A 
ATOM     49  C   UNL A   1      40.829  34.277  30.054  1.00  0.00     0.049 A 
ATOM     50  H   UNL A   1      39.626  34.200  28.336  1.00  0.00     0.167 HD
ATOM     51  C   UNL A   1      42.945  33.500  29.175  1.00  0.00     0.074 A 
ATOM     52  C   UNL A   1      44.246  33.374  28.534  1.00  0.00     0.031 C 
ATOM     53  C   UNL A   1      42.069  34.538  29.337  1.00  0.00     0.031 A 
BRANCH  40  54
ATOM     54  C   UNL A   1      35.996  33.847  29.714  1.00  0.00    -0.014 A 
ATOM     55  C   UNL A   1      35.265  34.277  28.589  1.00  0.00     0.009 A 
ATOM     56  C   UNL A   1      35.362  34.002  30.958  1.00  0.00     0.009 A 
ATOM     57  C   UNL A   1      34.007  34.881  28.698  1.00  0.00     0.001 A 
ATOM     58  C   UNL A   1      34.108  34.623  31.077  1.00  0.00     0.001 A 
ATOM     59  C   UNL A   1      33.433  35.070  29.946  1.00  0.00     0.000 A 
ENDBRANCH  40  54
BRANCH  41  60
ATOM     60  C   UNL A   1      44.188  28.882  29.044  1.00  0.00    -0.014 A 
ATOM     61  C   UNL A   1      43.830  28.940  27.674  1.00  0.00     0.009 A 
ATOM     62  C   UNL A   1      45.049  27.845  29.434  1.00  0.00     0.009 A 
ATOM     63  C   UNL A   1      44.394  28.078  26.724  1.00  0.00     0.001 A 
ATOM     64  C   UNL A   1      45.585  26.956  28.484  1.00  0.00     0.001 A 
ATOM     65  C   UNL A   1      45.281  27.090  27.129  1.00  0.00     0.000 A 
ENDBRANCH  41  60
BRANCH  53  66
ATOM     66  C   UNL A   1      42.275  35.922  28.783  1.00  0.00    -0.014 A 
ATOM     67  C   UNL A   1      41.779  36.346  27.549  1.00  0.00     0.009 A 
ATOM     68  C   UNL A   1      43.073  36.847  29.496  1.00  0.00     0.009 A 
ATOM     69  C   UNL A   1      41.957  37.663  27.112  1.00  0.00     0.001 A 
ATOM     70  C   UNL A   1      43.278  38.152  29.054  1.00  0.00     0.001 A 
ATOM     71  C   UNL A   1      42.693  38.569  27.871  1.00  0.00     0.000 A 
ENDBRANCH  53  66
ENDBRANCH  27  28
ENDBRANCH  20  22
ENDBRANCH  19  20
ENDBRANCH  18  19
ENDBRANCH   1  18
TORSDOF 13
ENDMDL
MODEL 3
REMARK VINA RESULT:     -10.7      2.981      5.071
REMARK SMILES Cc1ccccc1-c1nc(CC(=O)OCCOC(=O)c2ccc(-c3c4nc(c(-c5ccccc5)c5ccc([nH]5)c(-c5ccccc5)c5nc(c(-c6ccccc6)c6ccc3[nH]6)C=C5)C=C4)cc2)cs1
REMARK SMILES IDX 15 1 14 2 12 3 13 4 11 5 10 6 8 7 9 8 69 9 68 10 7 11 1 12
REMARK SMILES IDX 2 13 3 14 4 15 6 16 5 17 16 18 17 19 18 20 19 21 20 22 21 23
REMARK SMILES IDX 67 24 22 25 66 26 23 27 24 28 25 29 60 30 26 31 65 32 59 33
REMARK SMILES IDX 61 34 27 35 64 36 58 37 57 38 28 40 50 41 35 42 49 43 36 44
REMARK SMILES IDX 39 45 48 46 62 47 37 48 38 49 47 51 63 52 40 53 29 54 30 55
REMARK SMILES IDX 34 56 31 57 33 58 32 59 51 60 52 61 56 62 53 63 55 64 54 65
REMARK SMILES IDX 41 66 42 67 46 68 43 69 45 70 44 71
REMARK H PARENT 61 39 39 50
REMARK Flexibility Score: inf
ROOT
ATOM      1  C   UNL A   1      32.348  30.671  26.873  1.00  0.00     0.274 C 
ENDROOT
BRANCH   1   2
ATOM      2  O   UNL A   1      32.392  30.171  25.544  1.00  0.00    -0.462 OA
BRANCH   2   3
ATOM      3  C   UNL A   1      32.483  28.812  25.436  1.00  0.00     0.312 C 
ATOM      4  O   UNL A   1      31.630  28.035  25.799  1.00  0.00    -0.252 OA
BRANCH   3   5
ATOM      5  C   UNL A   1      33.761  28.428  24.721  1.00  0.00     0.179 C 
BRANCH   5   6
ATOM      6  C   UNL A   1      33.477  27.388  23.716  1.00  0.00     0.063 A 
ATOM      7  C   UNL A   1      33.660  25.290  23.124  1.00  0.00     0.123 A 
ATOM      8  N   UNL A   1      33.849  26.139  24.099  1.00  0.00    -0.240 NA
ATOM      9  S   UNL A   1      33.033  25.931  21.675  1.00  0.00    -0.122 S 
ATOM     10  C   UNL A   1      32.970  27.484  22.431  1.00  0.00     0.091 A 
BRANCH   7  11
ATOM     11  C   UNL A   1      33.933  23.892  23.371  1.00  0.00     0.013 A 
ATOM     12  C   UNL A   1      31.454  23.522  23.895  1.00  0.00     0.045 C 
ATOM     13  C   UNL A   1      32.898  23.082  23.884  1.00  0.00    -0.041 A 
ATOM     14  C   UNL A   1      33.239  21.883  24.519  1.00  0.00     0.004 A 
ATOM     15  C   UNL A   1      34.578  21.504  24.646  1.00  0.00     0.000 A 
ATOM     16  C   UNL A   1      35.272  23.485  23.465  1.00  0.00     0.011 A 
ATOM     17  C   UNL A   1      35.592  22.295  24.109  1.00  0.00     0.001 A 
ENDBRANCH   7  11
ENDBRANCH   5   6
ENDBRANCH   3   5
ENDBRANCH   2   3
ENDBRANCH   1   2
BRANCH   1  18
ATOM     18  C   UNL A   1      31.553  31.983  26.917  1.00  0.00     0.275 C 
BRANCH  18  19
ATOM     19  O   UNL A   1      32.278  33.241  27.134  1.00  0.00    -0.458 OA
BRANCH  19  20
ATOM     20  C   UNL A   1      32.972  33.718  28.201  1.00  0.00     0.338 C 
ATOM     21  O   UNL A   1      32.472  34.490  29.010  1.00  0.00    -0.246 OA
BRANCH  20  22
ATOM     22  C   UNL A   1      34.328  33.207  28.436  1.00  0.00     0.060 A 
ATOM     23  C   UNL A   1      35.434  33.839  27.841  1.00  0.00     0.016 A 
ATOM     24  C   UNL A   1      34.505  32.184  29.350  1.00  0.00     0.016 A 
ATOM     25  C   UNL A   1      36.723  33.537  28.278  1.00  0.00     0.010 A 
ATOM     26  C   UNL A   1      35.739  32.035  29.921  1.00  0.00     0.010 A 
ATOM     27  C   UNL A   1      36.857  32.669  29.355  1.00  0.00    -0.014 A 
BRANCH  27  28
ATOM     28  C   UNL A   1      38.113  32.070  29.773  1.00  0.00     0.031 A 
ATOM     29  C   UNL A   1      38.605  30.777  29.284  1.00  0.00     0.074 A 
ATOM     30  C   UNL A   1      38.823  32.925  30.542  1.00  0.00     0.049 A 
ATOM     31  N   UNL A   1      39.569  30.136  29.845  1.00  0.00    -0.248 NA
ATOM     32  C   UNL A   1      38.065  30.065  28.131  1.00  0.00     0.031 C 
ATOM     33  C   UNL A   1      40.203  32.936  30.982  1.00  0.00     0.029 A 
ATOM     34  N   UNL A   1      38.241  33.986  31.256  1.00  0.00    -0.354 N 
ATOM     35  C   UNL A   1      39.990  29.163  28.963  1.00  0.00     0.074 A 
ATOM     36  C   UNL A   1      38.959  29.082  27.963  1.00  0.00     0.031 C 
ATOM     37  C   UNL A   1      40.271  33.692  32.101  1.00  0.00     0.029 A 
ATOM     38  C   UNL A   1      38.897  34.025  32.482  1.00  0.00     0.049 A 
ATOM     39  H   UNL A   1      37.517  34.582  30.951  1.00  0.00     0.167 HD
ATOM     40  C   UNL A   1      41.249  28.667  29.110  1.00  0.00     0.031 A 
ATOM     41  C   UNL A   1      38.210  33.526  33.556  1.00  0.00     0.031 A 
ATOM     42  C   UNL A   1      41.867  29.207  30.319  1.00  0.00     0.049 A 
ATOM     43  C   UNL A   1      38.868  32.280  34.114  1.00  0.00     0.074 A 
ATOM     44  C   UNL A   1      42.743  30.252  30.556  1.00  0.00     0.029 A 
ATOM     45  N   UNL A   1      41.261  28.926  31.532  1.00  0.00    -0.354 N 
ATOM     46  N   UNL A   1      39.699  31.523  33.450  1.00  0.00    -0.248 NA
ATOM     47  C   UNL A   1      38.600  31.767  35.452  1.00  0.00     0.031 C 
ATOM     48  C   UNL A   1      42.613  30.627  31.929  1.00  0.00     0.029 A 
ATOM     49  C   UNL A   1      41.680  29.795  32.519  1.00  0.00     0.049 A 
ATOM     50  H   UNL A   1      40.613  28.198  31.672  1.00  0.00     0.167 HD
ATOM     51  C   UNL A   1      40.148  30.511  34.250  1.00  0.00     0.074 A 
ATOM     52  C   UNL A   1      39.371  30.666  35.471  1.00  0.00     0.031 C 
ATOM     53  C   UNL A   1      41.121  29.635  33.854  1.00  0.00     0.031 A 
BRANCH  40  54
ATOM     54  C   UNL A   1      42.011  27.923  28.043  1.00  0.00    -0.014 A 
ATOM     55  C   UNL A   1      41.785  26.540  27.891  1.00  0.00     0.009 A 
ATOM     56  C   UNL A   1      42.974  28.489  27.192  1.00  0.00     0.009 A 
ATOM     57  C   UNL A   1      42.517  25.755  26.992  1.00  0.00     0.001 A 
ATOM     58  C   UNL A   1      43.725  27.704  26.300  1.00  0.00     0.001 A 
ATOM     59  C   UNL A   1      43.501  26.336  26.206  1.00  0.00     0.000 A 
ENDBRANCH  40  54
BRANCH  41  60
ATOM     60  C   UNL A   1      36.714  33.763  33.525  1.00  0.00    -0.014 A 
ATOM     61  C   UNL A   1      36.223  35.082  33.349  1.00  0.00     0.009 A 
ATOM     62  C   UNL A   1      35.785  32.718  33.416  1.00  0.00     0.009 A 
ATOM     63  C   UNL A   1      34.898  35.334  32.970  1.00  0.00     0.001 A 
ATOM     64  C   UNL A   1      34.445  32.976  33.073  1.00  0.00     0.001 A 
ATOM     65  C   UNL A   1      34.010  34.278  32.822  1.00  0.00     0.000 A 
ENDBRANCH  41  60
BRANCH  53  66
ATOM     66  C   UNL A   1      41.623  28.485  34.686  1.00  0.00    -0.014 A 
ATOM     67  C   UNL A   1      41.306  27.149  34.433  1.00  0.00     0.009 A 
ATOM     68  C   UNL A   1      42.400  28.744  35.838  1.00  0.00     0.009 A 
ATOM     69  C   UNL A   1      41.847  26.118  35.210  1.00  0.00     0.001 A 
ATOM     70  C   UNL A   1      42.920  27.725  36.632  1.00  0.00     0.001 A 
ATOM     71  C   UNL A   1      42.666  26.406  36.299  1.00  0.00     0.000 A 
ENDBRANCH  53  66
ENDBRANCH  27  28
ENDBRANCH  20  22
ENDBRANCH  19  20
ENDBRANCH  18  19
ENDBRANCH   1  18
TORSDOF 13
ENDMDL
