MODEL 1
REMARK VINA RESULT:     -10.8      0.000      0.000
REMARK SMILES CN(C(=O)N[C@@](C)(C(=O)OCCOC(=O)c1ccc(-c2c3nc(c(-c4ccccc4)c4ccc([nH]4)c(-c4ccccc4)c4nc(c(-c5ccccc5)c5ccc2[nH]5)C=C4)C=C3)cc1)C(F)(F)F)c1ccc(F)cc1
REMARK SMILES IDX 11 1 10 2 8 3 9 4 6 5 7 6 5 7 3 8 4 9 2 11 1 12 68 13 69 14
REMARK SMILES IDX 74 15 70 16 73 17 71 18 72 19 64 20 65 21 66 22 67 23 12 24
REMARK SMILES IDX 13 25 14 26 15 27 16 28 17 29 63 30 18 31 62 32 19 33 20 34
REMARK SMILES IDX 21 35 56 36 22 37 61 38 55 39 57 40 23 41 60 42 54 43 53 44
REMARK SMILES IDX 24 46 46 47 31 48 45 49 32 50 35 51 44 52 58 53 33 54 34 55
REMARK SMILES IDX 43 57 59 58 36 59 25 60 26 61 30 62 27 63 29 64 28 65 47 66
REMARK SMILES IDX 48 67 52 68 49 69 51 70 50 71 37 72 38 73 42 74 39 75 41 76
REMARK SMILES IDX 40 77
REMARK H PARENT 5 10 57 45 35 56
REMARK Flexibility Score: inf
ROOT
ATOM      1  C   UNL A   1      31.978  29.992  25.792  1.00  0.00     0.274 C 
ENDROOT
BRANCH   1   2
ATOM      2  O   UNL A   1      32.797  29.040  25.074  1.00  0.00    -0.460 OA
BRANCH   2   3
ATOM      3  C   UNL A   1      32.127  27.975  24.532  1.00  0.00     0.341 C 
ATOM      4  O   UNL A   1      31.090  28.092  23.891  1.00  0.00    -0.249 OA
BRANCH   3   5
ATOM      5  C   UNL A   1      32.707  26.638  25.013  1.00  0.00     0.232 C 
ATOM      6  C   UNL A   1      33.859  27.023  25.979  1.00  0.00     0.058 C 
BRANCH   5   7
ATOM      7  N   UNL A   1      33.390  25.897  23.877  1.00  0.00    -0.314 N 
ATOM      8  C   UNL A   1      33.808  24.729  23.375  1.00  0.00     0.322 C 
ATOM      9  O   UNL A   1      34.055  24.823  22.164  1.00  0.00    -0.248 OA
ATOM     10  H   UNL A   1      33.634  26.583  23.213  1.00  0.00     0.166 HD
BRANCH   8  11
ATOM     11  N   UNL A   1      33.953  23.555  24.054  1.00  0.00    -0.298 N 
ATOM     12  C   UNL A   1      32.905  22.701  24.578  1.00  0.00     0.155 C 
BRANCH  11  13
ATOM     13  C   UNL A   1      35.256  23.154  24.515  1.00  0.00     0.045 A 
ATOM     14  C   UNL A   1      36.110  24.074  25.142  1.00  0.00     0.029 A 
ATOM     15  C   UNL A   1      35.620  21.797  24.487  1.00  0.00     0.029 A 
ATOM     16  C   UNL A   1      37.283  23.636  25.764  1.00  0.00     0.041 A 
ATOM     17  C   UNL A   1      36.806  21.366  25.085  1.00  0.00     0.041 A 
ATOM     18  C   UNL A   1      37.618  22.288  25.731  1.00  0.00     0.123 A 
ATOM     19  F   UNL A   1      38.731  21.867  26.348  1.00  0.00    -0.207 F 
ENDBRANCH  11  13
ENDBRANCH   8  11
ENDBRANCH   5   7
BRANCH   5  20
ATOM     20  C   UNL A   1      31.627  25.994  25.887  1.00  0.00     0.422 C 
ATOM     21  F   UNL A   1      30.969  26.883  26.658  1.00  0.00    -0.168 F 
ATOM     22  F   UNL A   1      30.711  25.342  25.129  1.00  0.00    -0.168 F 
ATOM     23  F   UNL A   1      32.129  25.050  26.722  1.00  0.00    -0.168 F 
ENDBRANCH   5  20
ENDBRANCH   3   5
ENDBRANCH   2   3
ENDBRANCH   1   2
BRANCH   1  24
ATOM     24  C   UNL A   1      32.588  30.349  27.141  1.00  0.00     0.275 C 
BRANCH  24  25
ATOM     25  O   UNL A   1      33.990  30.608  26.977  1.00  0.00    -0.458 OA
BRANCH  25  26
ATOM     26  C   UNL A   1      34.627  31.039  28.086  1.00  0.00     0.338 C 
ATOM     27  O   UNL A   1      34.290  31.940  28.839  1.00  0.00    -0.246 OA
BRANCH  26  28
ATOM     28  C   UNL A   1      35.851  30.254  28.288  1.00  0.00     0.060 A 
ATOM     29  C   UNL A   1      36.095  29.642  29.516  1.00  0.00     0.016 A 
ATOM     30  C   UNL A   1      36.820  30.239  27.286  1.00  0.00     0.016 A 
ATOM     31  C   UNL A   1      37.346  29.084  29.774  1.00  0.00     0.010 A 
ATOM     32  C   UNL A   1      38.048  29.617  27.525  1.00  0.00     0.010 A 
ATOM     33  C   UNL A   1      38.344  29.078  28.790  1.00  0.00    -0.014 A 
BRANCH  33  34
ATOM     34  C   UNL A   1      39.719  28.603  29.103  1.00  0.00     0.031 A 
ATOM     35  C   UNL A   1      40.663  29.494  29.874  1.00  0.00     0.074 A 
ATOM     36  C   UNL A   1      40.129  27.372  28.738  1.00  0.00     0.049 A 
ATOM     37  N   UNL A   1      41.941  29.335  30.115  1.00  0.00    -0.248 NA
ATOM     38  C   UNL A   1      40.096  30.725  30.448  1.00  0.00     0.031 C 
ATOM     39  C   UNL A   1      39.315  26.371  28.048  1.00  0.00     0.029 A 
ATOM     40  N   UNL A   1      41.344  26.752  28.908  1.00  0.00    -0.354 N 
ATOM     41  C   UNL A   1      42.336  30.464  30.822  1.00  0.00     0.074 A 
ATOM     42  C   UNL A   1      41.167  31.300  30.976  1.00  0.00     0.031 C 
ATOM     43  C   UNL A   1      40.039  25.253  27.885  1.00  0.00     0.029 A 
ATOM     44  C   UNL A   1      41.392  25.485  28.381  1.00  0.00     0.049 A 
ATOM     45  H   UNL A   1      42.107  27.175  29.364  1.00  0.00     0.167 HD
ATOM     46  C   UNL A   1      43.565  30.783  31.295  1.00  0.00     0.031 A 
ATOM     47  C   UNL A   1      42.417  24.620  28.265  1.00  0.00     0.031 A 
ATOM     48  C   UNL A   1      44.730  29.954  31.163  1.00  0.00     0.049 A 
ATOM     49  C   UNL A   1      43.784  25.021  28.742  1.00  0.00     0.074 A 
ATOM     50  C   UNL A   1      46.025  30.212  31.583  1.00  0.00     0.029 A 
ATOM     51  N   UNL A   1      44.741  28.700  30.577  1.00  0.00    -0.354 N 
ATOM     52  N   UNL A   1      44.158  26.126  29.338  1.00  0.00    -0.248 NA
ATOM     53  C   UNL A   1      44.874  24.062  28.507  1.00  0.00     0.031 C 
ATOM     54  C   UNL A   1      46.826  29.122  31.223  1.00  0.00     0.029 A 
ATOM     55  C   UNL A   1      46.020  28.173  30.617  1.00  0.00     0.049 A 
ATOM     56  H   UNL A   1      43.956  28.250  30.190  1.00  0.00     0.167 HD
ATOM     57  C   UNL A   1      45.524  25.995  29.549  1.00  0.00     0.074 A 
ATOM     58  C   UNL A   1      45.908  24.694  29.043  1.00  0.00     0.031 C 
ATOM     59  C   UNL A   1      46.386  26.880  30.106  1.00  0.00     0.031 A 
BRANCH  46  60
ATOM     60  C   UNL A   1      43.717  32.117  31.966  1.00  0.00    -0.014 A 
ATOM     61  C   UNL A   1      44.012  33.275  31.231  1.00  0.00     0.009 A 
ATOM     62  C   UNL A   1      43.529  32.218  33.354  1.00  0.00     0.009 A 
ATOM     63  C   UNL A   1      44.138  34.506  31.879  1.00  0.00     0.001 A 
ATOM     64  C   UNL A   1      43.635  33.453  33.995  1.00  0.00     0.001 A 
ATOM     65  C   UNL A   1      43.945  34.595  33.257  1.00  0.00     0.000 A 
ENDBRANCH  46  60
BRANCH  47  66
ATOM     66  C   UNL A   1      42.205  23.305  27.607  1.00  0.00    -0.014 A 
ATOM     67  C   UNL A   1      41.749  22.201  28.343  1.00  0.00     0.009 A 
ATOM     68  C   UNL A   1      42.465  23.148  26.236  1.00  0.00     0.009 A 
ATOM     69  C   UNL A   1      41.572  20.963  27.721  1.00  0.00     0.001 A 
ATOM     70  C   UNL A   1      42.259  21.917  25.612  1.00  0.00     0.001 A 
ATOM     71  C   UNL A   1      41.821  20.824  26.355  1.00  0.00     0.000 A 
ENDBRANCH  47  66
BRANCH  59  72
ATOM     72  C   UNL A   1      47.822  26.460  30.212  1.00  0.00    -0.014 A 
ATOM     73  C   UNL A   1      48.732  26.733  29.179  1.00  0.00     0.009 A 
ATOM     74  C   UNL A   1      48.276  25.814  31.373  1.00  0.00     0.009 A 
ATOM     75  C   UNL A   1      50.066  26.340  29.296  1.00  0.00     0.001 A 
ATOM     76  C   UNL A   1      49.615  25.441  31.494  1.00  0.00     0.001 A 
ATOM     77  C   UNL A   1      50.507  25.698  30.453  1.00  0.00     0.000 A 
ENDBRANCH  59  72
ENDBRANCH  33  34
ENDBRANCH  26  28
ENDBRANCH  25  26
ENDBRANCH  24  25
ENDBRANCH   1  24
TORSDOF 15
ENDMDL
MODEL 2
REMARK VINA RESULT:     -10.8      3.147      6.802
REMARK SMILES CN(C(=O)N[C@@](C)(C(=O)OCCOC(=O)c1ccc(-c2c3nc(c(-c4ccccc4)c4ccc([nH]4)c(-c4ccccc4)c4nc(c(-c5ccccc5)c5ccc2[nH]5)C=C4)C=C3)cc1)C(F)(F)F)c1ccc(F)cc1
REMARK SMILES IDX 11 1 10 2 8 3 9 4 6 5 7 6 5 7 3 8 4 9 2 11 1 12 68 13 69 14
REMARK SMILES IDX 74 15 70 16 73 17 71 18 72 19 64 20 65 21 66 22 67 23 12 24
REMARK SMILES IDX 13 25 14 26 15 27 16 28 17 29 63 30 18 31 62 32 19 33 20 34
REMARK SMILES IDX 21 35 56 36 22 37 61 38 55 39 57 40 23 41 60 42 54 43 53 44
REMARK SMILES IDX 24 46 46 47 31 48 45 49 32 50 35 51 44 52 58 53 33 54 34 55
REMARK SMILES IDX 43 57 59 58 36 59 25 60 26 61 30 62 27 63 29 64 28 65 47 66
REMARK SMILES IDX 48 67 52 68 49 69 51 70 50 71 37 72 38 73 42 74 39 75 41 76
REMARK SMILES IDX 40 77
REMARK H PARENT 5 10 57 45 35 56
REMARK Flexibility Score: inf
ROOT
ATOM      1  C   UNL A   1      35.292  20.312  25.036  1.00  0.00     0.274 C 
ENDROOT
BRANCH   1   2
ATOM      2  O   UNL A   1      34.911  21.509  24.321  1.00  0.00    -0.460 OA
BRANCH   2   3
ATOM      3  C   UNL A   1      33.586  21.852  24.408  1.00  0.00     0.341 C 
ATOM      4  O   UNL A   1      32.675  21.056  24.220  1.00  0.00    -0.249 OA
BRANCH   3   5
ATOM      5  C   UNL A   1      33.404  23.370  24.543  1.00  0.00     0.232 C 
ATOM      6  C   UNL A   1      34.823  23.923  24.835  1.00  0.00     0.058 C 
BRANCH   5   7
ATOM      7  N   UNL A   1      32.595  23.716  25.780  1.00  0.00    -0.314 N 
ATOM      8  C   UNL A   1      31.710  24.533  26.364  1.00  0.00     0.322 C 
ATOM      9  O   UNL A   1      31.232  24.020  27.387  1.00  0.00    -0.248 OA
ATOM     10  H   UNL A   1      32.823  23.035  26.454  1.00  0.00     0.166 HD
BRANCH   8  11
ATOM     11  N   UNL A   1      31.336  25.771  25.933  1.00  0.00    -0.298 N 
ATOM     12  C   UNL A   1      30.317  26.097  24.953  1.00  0.00     0.155 C 
BRANCH  11  13
ATOM     13  C   UNL A   1      32.125  26.920  26.293  1.00  0.00     0.045 A 
ATOM     14  C   UNL A   1      33.366  27.158  25.683  1.00  0.00     0.029 A 
ATOM     15  C   UNL A   1      31.583  27.903  27.139  1.00  0.00     0.029 A 
ATOM     16  C   UNL A   1      34.030  28.372  25.886  1.00  0.00     0.041 A 
ATOM     17  C   UNL A   1      32.261  29.102  27.362  1.00  0.00     0.041 A 
ATOM     18  C   UNL A   1      33.471  29.332  26.721  1.00  0.00     0.123 A 
ATOM     19  F   UNL A   1      34.097  30.503  26.895  1.00  0.00    -0.207 F 
ENDBRANCH  11  13
ENDBRANCH   8  11
ENDBRANCH   5   7
BRANCH   5  20
ATOM     20  C   UNL A   1      33.036  23.881  23.147  1.00  0.00     0.422 C 
ATOM     21  F   UNL A   1      31.752  23.636  22.814  1.00  0.00    -0.168 F 
ATOM     22  F   UNL A   1      33.245  25.217  23.046  1.00  0.00    -0.168 F 
ATOM     23  F   UNL A   1      33.802  23.329  22.174  1.00  0.00    -0.168 F 
ENDBRANCH   5  20
ENDBRANCH   3   5
ENDBRANCH   2   3
ENDBRANCH   1   2
BRANCH   1  24
ATOM     24  C   UNL A   1      36.792  20.061  24.946  1.00  0.00     0.275 C 
BRANCH  24  25
ATOM     25  O   UNL A   1      37.498  21.241  25.360  1.00  0.00    -0.458 OA
BRANCH  25  26
ATOM     26  C   UNL A   1      38.747  21.029  25.825  1.00  0.00     0.338 C 
ATOM     27  O   UNL A   1      39.395  19.993  25.784  1.00  0.00    -0.246 OA
BRANCH  26  28
ATOM     28  C   UNL A   1      39.265  22.263  26.429  1.00  0.00     0.060 A 
ATOM     29  C   UNL A   1      38.714  23.495  26.083  1.00  0.00     0.016 A 
ATOM     30  C   UNL A   1      40.392  22.197  27.247  1.00  0.00     0.016 A 
ATOM     31  C   UNL A   1      39.343  24.671  26.488  1.00  0.00     0.010 A 
ATOM     32  C   UNL A   1      40.978  23.378  27.708  1.00  0.00     0.010 A 
ATOM     33  C   UNL A   1      40.491  24.630  27.291  1.00  0.00    -0.014 A 
BRANCH  33  34
ATOM     34  C   UNL A   1      41.239  25.875  27.615  1.00  0.00     0.031 A 
ATOM     35  C   UNL A   1      40.618  26.907  28.526  1.00  0.00     0.074 A 
ATOM     36  C   UNL A   1      42.481  26.084  27.135  1.00  0.00     0.049 A 
ATOM     37  N   UNL A   1      41.032  28.116  28.809  1.00  0.00    -0.248 NA
ATOM     38  C   UNL A   1      39.369  26.528  29.206  1.00  0.00     0.031 C 
ATOM     39  C   UNL A   1      43.241  25.155  26.300  1.00  0.00     0.029 A 
ATOM     40  N   UNL A   1      43.327  27.155  27.294  1.00  0.00    -0.354 N 
ATOM     41  C   UNL A   1      40.072  28.657  29.656  1.00  0.00     0.074 A 
ATOM     42  C   UNL A   1      39.056  27.646  29.846  1.00  0.00     0.031 C 
ATOM     43  C   UNL A   1      44.451  25.679  26.048  1.00  0.00     0.029 A 
ATOM     44  C   UNL A   1      44.522  27.015  26.632  1.00  0.00     0.049 A 
ATOM     45  H   UNL A   1      43.099  27.949  27.832  1.00  0.00     0.167 HD
ATOM     46  C   UNL A   1      40.033  29.887  30.222  1.00  0.00     0.031 A 
ATOM     47  C   UNL A   1      45.544  27.876  26.471  1.00  0.00     0.031 A 
ATOM     48  C   UNL A   1      41.044  30.894  30.054  1.00  0.00     0.049 A 
ATOM     49  C   UNL A   1      45.450  29.257  27.055  1.00  0.00     0.074 A 
ATOM     50  C   UNL A   1      41.071  32.182  30.563  1.00  0.00     0.029 A 
ATOM     51  N   UNL A   1      42.213  30.723  29.333  1.00  0.00    -0.354 N 
ATOM     52  N   UNL A   1      44.498  29.779  27.788  1.00  0.00    -0.248 NA
ATOM     53  C   UNL A   1      46.563  30.173  26.767  1.00  0.00     0.031 C 
ATOM     54  C   UNL A   1      42.247  32.800  30.123  1.00  0.00     0.029 A 
ATOM     55  C   UNL A   1      42.967  31.882  29.376  1.00  0.00     0.049 A 
ATOM     56  H   UNL A   1      42.470  29.898  28.861  1.00  0.00     0.167 HD
ATOM     57  C   UNL A   1      44.897  31.082  28.050  1.00  0.00     0.074 A 
ATOM     58  C   UNL A   1      46.189  31.264  27.420  1.00  0.00     0.031 C 
ATOM     59  C   UNL A   1      44.247  32.047  28.742  1.00  0.00     0.031 A 
BRANCH  46  60
ATOM     60  C   UNL A   1      38.824  30.227  31.044  1.00  0.00    -0.014 A 
ATOM     61  C   UNL A   1      37.602  30.564  30.442  1.00  0.00     0.009 A 
ATOM     62  C   UNL A   1      38.906  30.177  32.445  1.00  0.00     0.009 A 
ATOM     63  C   UNL A   1      36.490  30.865  31.231  1.00  0.00     0.001 A 
ATOM     64  C   UNL A   1      37.786  30.459  33.229  1.00  0.00     0.001 A 
ATOM     65  C   UNL A   1      36.581  30.808  32.621  1.00  0.00     0.000 A 
ENDBRANCH  46  60
BRANCH  47  66
ATOM     66  C   UNL A   1      46.724  27.480  25.660  1.00  0.00    -0.014 A 
ATOM     67  C   UNL A   1      47.796  26.790  26.246  1.00  0.00     0.009 A 
ATOM     68  C   UNL A   1      46.785  27.798  24.293  1.00  0.00     0.009 A 
ATOM     69  C   UNL A   1      48.911  26.439  25.482  1.00  0.00     0.001 A 
ATOM     70  C   UNL A   1      47.888  27.420  23.527  1.00  0.00     0.001 A 
ATOM     71  C   UNL A   1      48.953  26.749  24.122  1.00  0.00     0.000 A 
ENDBRANCH  47  66
BRANCH  59  72
ATOM     72  C   UNL A   1      44.931  33.376  28.871  1.00  0.00    -0.014 A 
ATOM     73  C   UNL A   1      45.823  33.629  29.925  1.00  0.00     0.009 A 
ATOM     74  C   UNL A   1      44.705  34.373  27.910  1.00  0.00     0.009 A 
ATOM     75  C   UNL A   1      46.456  34.869  30.028  1.00  0.00     0.001 A 
ATOM     76  C   UNL A   1      45.355  35.604  28.006  1.00  0.00     0.001 A 
ATOM     77  C   UNL A   1      46.224  35.854  29.068  1.00  0.00     0.000 A 
ENDBRANCH  59  72
ENDBRANCH  33  34
ENDBRANCH  26  28
ENDBRANCH  25  26
ENDBRANCH  24  25
ENDBRANCH   1  24
TORSDOF 15
ENDMDL
MODEL 3
REMARK VINA RESULT:     -10.7      3.495      6.926
REMARK SMILES CN(C(=O)N[C@@](C)(C(=O)OCCOC(=O)c1ccc(-c2c3nc(c(-c4ccccc4)c4ccc([nH]4)c(-c4ccccc4)c4nc(c(-c5ccccc5)c5ccc2[nH]5)C=C4)C=C3)cc1)C(F)(F)F)c1ccc(F)cc1
REMARK SMILES IDX 11 1 10 2 8 3 9 4 6 5 7 6 5 7 3 8 4 9 2 11 1 12 68 13 69 14
REMARK SMILES IDX 74 15 70 16 73 17 71 18 72 19 64 20 65 21 66 22 67 23 12 24
REMARK SMILES IDX 13 25 14 26 15 27 16 28 17 29 63 30 18 31 62 32 19 33 20 34
REMARK SMILES IDX 21 35 56 36 22 37 61 38 55 39 57 40 23 41 60 42 54 43 53 44
REMARK SMILES IDX 24 46 46 47 31 48 45 49 32 50 35 51 44 52 58 53 33 54 34 55
REMARK SMILES IDX 43 57 59 58 36 59 25 60 26 61 30 62 27 63 29 64 28 65 47 66
REMARK SMILES IDX 48 67 52 68 49 69 51 70 50 71 37 72 38 73 42 74 39 75 41 76
REMARK SMILES IDX 40 77
REMARK H PARENT 5 10 57 45 35 56
REMARK Flexibility Score: inf
ROOT
ATOM      1  C   UNL A   1      36.114  22.069  24.395  1.00  0.00     0.274 C 
ENDROOT
BRANCH   1   2
ATOM      2  O   UNL A   1      34.947  21.224  24.276  1.00  0.00    -0.460 OA
BRANCH   2   3
ATOM      3  C   UNL A   1      34.147  21.161  25.388  1.00  0.00     0.341 C 
ATOM      4  O   UNL A   1      34.560  21.370  26.522  1.00  0.00    -0.249 OA
BRANCH   3   5
ATOM      5  C   UNL A   1      32.763  20.587  25.056  1.00  0.00     0.232 C 
ATOM      6  C   UNL A   1      32.570  20.850  23.539  1.00  0.00     0.058 C 
BRANCH   5   7
ATOM      7  N   UNL A   1      31.663  21.389  25.728  1.00  0.00    -0.314 N 
ATOM      8  C   UNL A   1      30.888  22.481  25.718  1.00  0.00     0.322 C 
ATOM      9  O   UNL A   1      29.922  22.353  26.483  1.00  0.00    -0.248 OA
ATOM     10  H   UNL A   1      31.404  20.879  26.530  1.00  0.00     0.166 HD
BRANCH   8  11
ATOM     11  N   UNL A   1      31.080  23.610  24.977  1.00  0.00    -0.298 N 
ATOM     12  C   UNL A   1      30.687  23.843  23.601  1.00  0.00     0.155 C 
BRANCH  11  13
ATOM     13  C   UNL A   1      31.934  24.655  25.478  1.00  0.00     0.045 A 
ATOM     14  C   UNL A   1      33.307  24.660  25.192  1.00  0.00     0.029 A 
ATOM     15  C   UNL A   1      31.369  25.769  26.123  1.00  0.00     0.029 A 
ATOM     16  C   UNL A   1      34.089  25.775  25.507  1.00  0.00     0.041 A 
ATOM     17  C   UNL A   1      32.158  26.870  26.462  1.00  0.00     0.041 A 
ATOM     18  C   UNL A   1      33.507  26.869  26.137  1.00  0.00     0.123 A 
ATOM     19  F   UNL A   1      34.254  27.945  26.417  1.00  0.00    -0.207 F 
ENDBRANCH  11  13
ENDBRANCH   8  11
ENDBRANCH   5   7
BRANCH   5  20
ATOM     20  C   UNL A   1      32.884  19.068  25.204  1.00  0.00     0.422 C 
ATOM     21  F   UNL A   1      34.097  18.596  24.851  1.00  0.00    -0.168 F 
ATOM     22  F   UNL A   1      32.642  18.682  26.481  1.00  0.00    -0.168 F 
ATOM     23  F   UNL A   1      31.973  18.398  24.455  1.00  0.00    -0.168 F 
ENDBRANCH   5  20
ENDBRANCH   3   5
ENDBRANCH   2   3
ENDBRANCH   1   2
BRANCH   1  24
ATOM     24  C   UNL A   1      37.386  21.246  24.551  1.00  0.00     0.275 C 
BRANCH  24  25
ATOM     25  O   UNL A   1      37.792  21.250  25.927  1.00  0.00    -0.458 OA
BRANCH  25  26
ATOM     26  C   UNL A   1      39.125  21.188  26.133  1.00  0.00     0.338 C 
ATOM     27  O   UNL A   1      39.871  20.245  25.919  1.00  0.00    -0.246 OA
BRANCH  26  28
ATOM     28  C   UNL A   1      39.598  22.464  26.684  1.00  0.00     0.060 A 
ATOM     29  C   UNL A   1      39.056  23.666  26.232  1.00  0.00     0.016 A 
ATOM     30  C   UNL A   1      40.680  22.463  27.563  1.00  0.00     0.016 A 
ATOM     31  C   UNL A   1      39.651  24.873  26.595  1.00  0.00     0.010 A 
ATOM     32  C   UNL A   1      41.231  23.678  27.978  1.00  0.00     0.010 A 
ATOM     33  C   UNL A   1      40.755  24.895  27.458  1.00  0.00    -0.014 A 
BRANCH  33  34
ATOM     34  C   UNL A   1      41.474  26.168  27.742  1.00  0.00     0.031 A 
ATOM     35  C   UNL A   1      40.850  27.193  28.658  1.00  0.00     0.074 A 
ATOM     36  C   UNL A   1      42.693  26.409  27.219  1.00  0.00     0.049 A 
ATOM     37  N   UNL A   1      41.235  28.419  28.912  1.00  0.00    -0.248 NA
ATOM     38  C   UNL A   1      39.635  26.785  29.382  1.00  0.00     0.031 C 
ATOM     39  C   UNL A   1      43.455  25.492  26.372  1.00  0.00     0.029 A 
ATOM     40  N   UNL A   1      43.509  27.508  27.337  1.00  0.00    -0.354 N 
ATOM     41  C   UNL A   1      40.286  28.941  29.782  1.00  0.00     0.074 A 
ATOM     42  C   UNL A   1      39.308  27.902  30.017  1.00  0.00     0.031 C 
ATOM     43  C   UNL A   1      44.639  26.049  26.075  1.00  0.00     0.029 A 
ATOM     44  C   UNL A   1      44.686  27.394  26.639  1.00  0.00     0.049 A 
ATOM     45  H   UNL A   1      43.274  28.301  27.871  1.00  0.00     0.167 HD
ATOM     46  C   UNL A   1      40.226  30.177  30.332  1.00  0.00     0.031 A 
ATOM     47  C   UNL A   1      45.675  28.284  26.433  1.00  0.00     0.031 A 
ATOM     48  C   UNL A   1      41.198  31.213  30.119  1.00  0.00     0.049 A 
ATOM     49  C   UNL A   1      45.557  29.670  27.002  1.00  0.00     0.074 A 
ATOM     50  C   UNL A   1      41.201  32.508  30.610  1.00  0.00     0.029 A 
ATOM     51  N   UNL A   1      42.349  31.067  29.363  1.00  0.00    -0.354 N 
ATOM     52  N   UNL A   1      44.613  30.173  27.758  1.00  0.00    -0.248 NA
ATOM     53  C   UNL A   1      46.631  30.616  26.667  1.00  0.00     0.031 C 
ATOM     54  C   UNL A   1      42.343  33.156  30.124  1.00  0.00     0.029 A 
ATOM     55  C   UNL A   1      43.067  32.250  29.367  1.00  0.00     0.049 A 
ATOM     56  H   UNL A   1      42.617  30.244  28.894  1.00  0.00     0.167 HD
ATOM     57  C   UNL A   1      44.979  31.491  27.990  1.00  0.00     0.074 A 
ATOM     58  C   UNL A   1      46.243  31.704  27.317  1.00  0.00     0.031 C 
ATOM     59  C   UNL A   1      44.321  32.446  28.690  1.00  0.00     0.031 A 
BRANCH  46  60
ATOM     60  C   UNL A   1      39.033  30.492  31.188  1.00  0.00    -0.014 A 
ATOM     61  C   UNL A   1      37.816  30.902  30.623  1.00  0.00     0.009 A 
ATOM     62  C   UNL A   1      39.125  30.342  32.581  1.00  0.00     0.009 A 
ATOM     63  C   UNL A   1      36.719  31.177  31.442  1.00  0.00     0.001 A 
ATOM     64  C   UNL A   1      38.020  30.598  33.394  1.00  0.00     0.001 A 
ATOM     65  C   UNL A   1      36.820  31.021  32.824  1.00  0.00     0.000 A 
ENDBRANCH  46  60
BRANCH  47  66
ATOM     66  C   UNL A   1      46.841  27.913  25.591  1.00  0.00    -0.014 A 
ATOM     67  C   UNL A   1      46.773  28.007  24.192  1.00  0.00     0.009 A 
ATOM     68  C   UNL A   1      48.029  27.456  26.185  1.00  0.00     0.009 A 
ATOM     69  C   UNL A   1      47.867  27.637  23.407  1.00  0.00     0.001 A 
ATOM     70  C   UNL A   1      49.129  27.114  25.398  1.00  0.00     0.001 A 
ATOM     71  C   UNL A   1      49.045  27.197  24.010  1.00  0.00     0.000 A 
ENDBRANCH  47  66
BRANCH  59  72
ATOM     72  C   UNL A   1      44.966  33.796  28.779  1.00  0.00    -0.014 A 
ATOM     73  C   UNL A   1      44.670  34.802  27.845  1.00  0.00     0.009 A 
ATOM     74  C   UNL A   1      45.856  34.077  29.828  1.00  0.00     0.009 A 
ATOM     75  C   UNL A   1      45.275  36.055  27.945  1.00  0.00     0.001 A 
ATOM     76  C   UNL A   1      46.444  35.337  29.935  1.00  0.00     0.001 A 
ATOM     77  C   UNL A   1      46.159  36.323  28.991  1.00  0.00     0.000 A 
ENDBRANCH  59  72
ENDBRANCH  33  34
ENDBRANCH  26  28
ENDBRANCH  25  26
ENDBRANCH  24  25
ENDBRANCH   1  24
TORSDOF 15
ENDMDL
