MODEL 1
REMARK VINA RESULT:     -12.1      0.000      0.000
REMARK SMILES CC(C)[C@H](NC(=O)[C@H](Cc1ccccc1)n1c(=O)[nH]c2ccccc2c1=O)C(=O)OCCOC(=O)c1ccc(-c2c3nc(c(-c4ccccc4)c4ccc([nH]4)c(-c4ccccc4)c4nc(c(-c5ccccc5)c5ccc2[nH]5)C=C4)C=C3)cc1
REMARK SMILES IDX 31 1 30 2 28 3 29 4 4 5 2 6 1 7 3 8 5 9 6 10 7 12 8 13 16 14
REMARK SMILES IDX 17 15 26 16 18 17 19 18 25 19 27 20 20 21 24 23 21 24 23 25
REMARK SMILES IDX 22 26 9 27 10 28 11 29 15 30 12 31 14 32 13 33 32 34 33 35
REMARK SMILES IDX 34 36 35 37 36 38 37 39 83 40 38 41 82 42 39 43 40 44 41 45
REMARK SMILES IDX 76 46 42 47 81 48 75 49 77 50 43 51 80 52 74 53 73 54 44 56
REMARK SMILES IDX 66 57 51 58 65 59 52 60 55 61 64 62 78 63 53 64 54 65 63 67
REMARK SMILES IDX 79 68 56 69 45 70 46 71 50 72 47 73 49 74 48 75 67 76 68 77
REMARK SMILES IDX 72 78 69 79 71 80 70 81 57 82 58 83 62 84 59 85 61 86 60 87
REMARK H PARENT 5 11 19 22 77 55 55 66
REMARK Flexibility Score: inf
ROOT
ATOM      1  C   UNL A   1      32.898  29.672  25.375  1.00  0.00     0.274 C 
ENDROOT
BRANCH   1   2
ATOM      2  O   UNL A   1      33.237  28.268  25.384  1.00  0.00    -0.461 OA
BRANCH   2   3
ATOM      3  C   UNL A   1      33.232  27.555  24.226  1.00  0.00     0.329 C 
ATOM      4  O   UNL A   1      33.982  27.750  23.278  1.00  0.00    -0.250 OA
BRANCH   3   5
ATOM      5  C   UNL A   1      32.263  26.343  24.337  1.00  0.00     0.194 C 
BRANCH   5   6
ATOM      6  C   UNL A   1      31.219  26.142  23.204  1.00  0.00     0.017 C 
ATOM      7  C   UNL A   1      30.510  27.451  22.820  1.00  0.00     0.010 C 
ATOM      8  C   UNL A   1      31.792  25.569  21.925  1.00  0.00     0.010 C 
ENDBRANCH   5   6
BRANCH   5   9
ATOM      9  N   UNL A   1      31.909  25.882  25.670  1.00  0.00    -0.341 N 
ATOM     10  C   UNL A   1      32.230  24.808  26.426  1.00  0.00     0.244 C 
ATOM     11  H   UNL A   1      31.292  26.497  26.130  1.00  0.00     0.164 HD
ATOM     12  O   UNL A   1      31.289  24.516  27.179  1.00  0.00    -0.273 OA
BRANCH  10  13
ATOM     13  C   UNL A   1      33.427  23.827  26.228  1.00  0.00     0.189 C 
BRANCH  13  14
ATOM     14  N   UNL A   1      33.131  22.390  25.982  1.00  0.00    -0.247 N 
ATOM     15  C   UNL A   1      33.614  21.423  26.840  1.00  0.00     0.329 A 
ATOM     16  C   UNL A   1      32.328  22.043  24.896  1.00  0.00     0.264 A 
ATOM     17  O   UNL A   1      34.462  21.610  27.705  1.00  0.00    -0.248 OA
ATOM     18  N   UNL A   1      33.219  20.128  26.623  1.00  0.00    -0.307 N 
ATOM     19  C   UNL A   1      32.401  20.644  24.440  1.00  0.00     0.064 A 
ATOM     20  O   UNL A   1      31.580  22.808  24.296  1.00  0.00    -0.268 OA
ATOM     21  C   UNL A   1      32.766  19.692  25.379  1.00  0.00     0.055 A 
ATOM     22  H   UNL A   1      33.255  19.486  27.370  1.00  0.00     0.171 HD
ATOM     23  C   UNL A   1      32.224  20.285  23.102  1.00  0.00     0.016 A 
ATOM     24  C   UNL A   1      32.880  18.352  25.020  1.00  0.00     0.027 A 
ATOM     25  C   UNL A   1      32.414  18.955  22.719  1.00  0.00     0.001 A 
ATOM     26  C   UNL A   1      32.719  17.988  23.681  1.00  0.00     0.002 A 
ENDBRANCH  13  14
BRANCH  13  27
ATOM     27  C   UNL A   1      34.564  24.449  25.337  1.00  0.00     0.071 C 
BRANCH  27  28
ATOM     28  C   UNL A   1      35.842  23.652  25.146  1.00  0.00    -0.045 A 
ATOM     29  C   UNL A   1      36.869  23.708  26.089  1.00  0.00     0.004 A 
ATOM     30  C   UNL A   1      35.979  22.759  24.073  1.00  0.00     0.004 A 
ATOM     31  C   UNL A   1      37.889  22.751  26.079  1.00  0.00     0.000 A 
ATOM     32  C   UNL A   1      36.992  21.801  24.059  1.00  0.00     0.000 A 
ATOM     33  C   UNL A   1      37.926  21.773  25.086  1.00  0.00     0.000 A 
ENDBRANCH  27  28
ENDBRANCH  13  27
ENDBRANCH  10  13
ENDBRANCH   5   9
ENDBRANCH   3   5
ENDBRANCH   2   3
ENDBRANCH   1   2
BRANCH   1  34
ATOM     34  C   UNL A   1      33.055  30.243  26.785  1.00  0.00     0.275 C 
BRANCH  34  35
ATOM     35  O   UNL A   1      34.260  29.735  27.377  1.00  0.00    -0.458 OA
BRANCH  35  36
ATOM     36  C   UNL A   1      34.883  30.604  28.205  1.00  0.00     0.338 C 
ATOM     37  O   UNL A   1      34.417  31.551  28.808  1.00  0.00    -0.246 OA
BRANCH  36  38
ATOM     38  C   UNL A   1      36.217  30.072  28.469  1.00  0.00     0.060 A 
ATOM     39  C   UNL A   1      37.142  30.114  27.428  1.00  0.00     0.016 A 
ATOM     40  C   UNL A   1      36.550  29.526  29.701  1.00  0.00     0.016 A 
ATOM     41  C   UNL A   1      38.395  29.560  27.570  1.00  0.00     0.010 A 
ATOM     42  C   UNL A   1      37.839  29.029  29.877  1.00  0.00     0.010 A 
ATOM     43  C   UNL A   1      38.759  29.044  28.810  1.00  0.00    -0.014 A 
BRANCH  43  44
ATOM     44  C   UNL A   1      40.124  28.529  28.991  1.00  0.00     0.031 A 
ATOM     45  C   UNL A   1      41.196  29.463  29.442  1.00  0.00     0.074 A 
ATOM     46  C   UNL A   1      40.369  27.232  28.734  1.00  0.00     0.049 A 
ATOM     47  N   UNL A   1      42.486  29.279  29.463  1.00  0.00    -0.248 NA
ATOM     48  C   UNL A   1      40.759  30.785  29.922  1.00  0.00     0.031 C 
ATOM     49  C   UNL A   1      39.361  26.230  28.372  1.00  0.00     0.029 A 
ATOM     50  N   UNL A   1      41.546  26.535  28.727  1.00  0.00    -0.354 N 
ATOM     51  C   UNL A   1      43.023  30.478  29.912  1.00  0.00     0.074 A 
ATOM     52  C   UNL A   1      41.920  31.382  30.150  1.00  0.00     0.031 C 
ATOM     53  C   UNL A   1      39.965  25.049  28.173  1.00  0.00     0.029 A 
ATOM     54  C   UNL A   1      41.403  25.236  28.305  1.00  0.00     0.049 A 
ATOM     55  H   UNL A   1      42.409  26.925  28.996  1.00  0.00     0.167 HD
ATOM     56  C   UNL A   1      44.327  30.783  30.091  1.00  0.00     0.031 A 
ATOM     57  C   UNL A   1      42.337  24.321  27.996  1.00  0.00     0.031 A 
ATOM     58  C   UNL A   1      45.396  29.856  29.839  1.00  0.00     0.049 A 
ATOM     59  C   UNL A   1      43.780  24.722  28.106  1.00  0.00     0.074 A 
ATOM     60  C   UNL A   1      46.757  30.045  29.989  1.00  0.00     0.029 A 
ATOM     61  N   UNL A   1      45.217  28.559  29.375  1.00  0.00    -0.354 N 
ATOM     62  N   UNL A   1      44.290  25.859  28.517  1.00  0.00    -0.248 NA
ATOM     63  C   UNL A   1      44.774  23.723  27.700  1.00  0.00     0.031 C 
ATOM     64  C   UNL A   1      47.405  28.885  29.554  1.00  0.00     0.029 A 
ATOM     65  C   UNL A   1      46.445  27.949  29.195  1.00  0.00     0.049 A 
ATOM     66  H   UNL A   1      44.345  28.138  29.199  1.00  0.00     0.167 HD
ATOM     67  C   UNL A   1      45.665  25.710  28.431  1.00  0.00     0.074 A 
ATOM     68  C   UNL A   1      45.907  24.362  27.954  1.00  0.00     0.031 C 
ATOM     69  C   UNL A   1      46.644  26.606  28.712  1.00  0.00     0.031 A 
BRANCH  56  70
ATOM     70  C   UNL A   1      44.659  32.186  30.512  1.00  0.00    -0.014 A 
ATOM     71  C   UNL A   1      45.058  33.162  29.585  1.00  0.00     0.009 A 
ATOM     72  C   UNL A   1      44.554  32.541  31.867  1.00  0.00     0.009 A 
ATOM     73  C   UNL A   1      45.376  34.454  30.011  1.00  0.00     0.001 A 
ATOM     74  C   UNL A   1      44.844  33.840  32.285  1.00  0.00     0.001 A 
ATOM     75  C   UNL A   1      45.263  34.793  31.359  1.00  0.00     0.000 A 
ENDBRANCH  56  70
BRANCH  57  76
ATOM     76  C   UNL A   1      41.936  22.984  27.486  1.00  0.00    -0.014 A 
ATOM     77  C   UNL A   1      41.559  21.966  28.372  1.00  0.00     0.009 A 
ATOM     78  C   UNL A   1      41.919  22.721  26.106  1.00  0.00     0.009 A 
ATOM     79  C   UNL A   1      41.196  20.706  27.888  1.00  0.00     0.001 A 
ATOM     80  C   UNL A   1      41.524  21.473  25.624  1.00  0.00     0.001 A 
ATOM     81  C   UNL A   1      41.173  20.462  26.515  1.00  0.00     0.000 A 
ENDBRANCH  57  76
BRANCH  69  82
ATOM     82  C   UNL A   1      48.059  26.138  28.532  1.00  0.00    -0.014 A 
ATOM     83  C   UNL A   1      48.689  26.203  27.280  1.00  0.00     0.009 A 
ATOM     84  C   UNL A   1      48.783  25.676  29.641  1.00  0.00     0.009 A 
ATOM     85  C   UNL A   1      50.012  25.785  27.138  1.00  0.00     0.001 A 
ATOM     86  C   UNL A   1      50.116  25.292  29.502  1.00  0.00     0.001 A 
ATOM     87  C   UNL A   1      50.726  25.338  28.250  1.00  0.00     0.000 A 
ENDBRANCH  69  82
ENDBRANCH  43  44
ENDBRANCH  36  38
ENDBRANCH  35  36
ENDBRANCH  34  35
ENDBRANCH   1  34
TORSDOF 17
ENDMDL
MODEL 2
REMARK VINA RESULT:     -11.9      3.321      8.615
REMARK SMILES CC(C)[C@H](NC(=O)[C@H](Cc1ccccc1)n1c(=O)[nH]c2ccccc2c1=O)C(=O)OCCOC(=O)c1ccc(-c2c3nc(c(-c4ccccc4)c4ccc([nH]4)c(-c4ccccc4)c4nc(c(-c5ccccc5)c5ccc2[nH]5)C=C4)C=C3)cc1
REMARK SMILES IDX 31 1 30 2 28 3 29 4 4 5 2 6 1 7 3 8 5 9 6 10 7 12 8 13 16 14
REMARK SMILES IDX 17 15 26 16 18 17 19 18 25 19 27 20 20 21 24 23 21 24 23 25
REMARK SMILES IDX 22 26 9 27 10 28 11 29 15 30 12 31 14 32 13 33 32 34 33 35
REMARK SMILES IDX 34 36 35 37 36 38 37 39 83 40 38 41 82 42 39 43 40 44 41 45
REMARK SMILES IDX 76 46 42 47 81 48 75 49 77 50 43 51 80 52 74 53 73 54 44 56
REMARK SMILES IDX 66 57 51 58 65 59 52 60 55 61 64 62 78 63 53 64 54 65 63 67
REMARK SMILES IDX 79 68 56 69 45 70 46 71 50 72 47 73 49 74 48 75 67 76 68 77
REMARK SMILES IDX 72 78 69 79 71 80 70 81 57 82 58 83 62 84 59 85 61 86 60 87
REMARK H PARENT 5 11 19 22 77 55 55 66
REMARK Flexibility Score: inf
ROOT
ATOM      1  C   UNL A   1      36.688  22.283  24.408  1.00  0.00     0.274 C 
ENDROOT
BRANCH   1   2
ATOM      2  O   UNL A   1      35.409  21.967  25.001  1.00  0.00    -0.461 OA
BRANCH   2   3
ATOM      3  C   UNL A   1      34.658  22.948  25.570  1.00  0.00     0.329 C 
ATOM      4  O   UNL A   1      34.915  23.504  26.630  1.00  0.00    -0.250 OA
BRANCH   3   5
ATOM      5  C   UNL A   1      33.523  23.394  24.603  1.00  0.00     0.194 C 
BRANCH   5   6
ATOM      6  C   UNL A   1      32.223  22.543  24.569  1.00  0.00     0.017 C 
ATOM      7  C   UNL A   1      31.056  23.224  25.303  1.00  0.00     0.010 C 
ATOM      8  C   UNL A   1      31.728  22.220  23.175  1.00  0.00     0.010 C 
ENDBRANCH   5   6
BRANCH   5   9
ATOM      9  N   UNL A   1      33.909  24.087  23.385  1.00  0.00    -0.341 N 
ATOM     10  C   UNL A   1      33.722  25.334  22.895  1.00  0.00     0.244 C 
ATOM     11  H   UNL A   1      34.427  23.515  22.773  1.00  0.00     0.164 HD
ATOM     12  O   UNL A   1      33.672  25.306  21.656  1.00  0.00    -0.273 OA
BRANCH  10  13
ATOM     13  C   UNL A   1      33.296  26.612  23.682  1.00  0.00     0.189 C 
BRANCH  13  14
ATOM     14  N   UNL A   1      32.258  27.497  23.087  1.00  0.00    -0.247 N 
ATOM     15  C   UNL A   1      32.592  28.757  22.636  1.00  0.00     0.329 A 
ATOM     16  C   UNL A   1      30.955  27.015  22.959  1.00  0.00     0.264 A 
ATOM     17  O   UNL A   1      33.652  29.327  22.864  1.00  0.00    -0.248 OA
ATOM     18  N   UNL A   1      31.617  29.483  22.001  1.00  0.00    -0.307 N 
ATOM     19  C   UNL A   1      29.894  28.021  22.773  1.00  0.00     0.064 A 
ATOM     20  O   UNL A   1      30.631  25.833  22.996  1.00  0.00    -0.268 OA
ATOM     21  C   UNL A   1      30.261  29.225  22.194  1.00  0.00     0.055 A 
ATOM     22  H   UNL A   1      31.883  30.208  21.389  1.00  0.00     0.171 HD
ATOM     23  C   UNL A   1      28.596  27.833  23.253  1.00  0.00     0.016 A 
ATOM     24  C   UNL A   1      29.320  30.235  22.005  1.00  0.00     0.027 A 
ATOM     25  C   UNL A   1      27.668  28.871  23.139  1.00  0.00     0.001 A 
ATOM     26  C   UNL A   1      28.024  30.060  22.496  1.00  0.00     0.002 A 
ENDBRANCH  13  14
BRANCH  13  27
ATOM     27  C   UNL A   1      33.156  26.342  25.225  1.00  0.00     0.071 C 
BRANCH  27  28
ATOM     28  C   UNL A   1      33.107  27.536  26.160  1.00  0.00    -0.045 A 
ATOM     29  C   UNL A   1      34.267  28.248  26.475  1.00  0.00     0.004 A 
ATOM     30  C   UNL A   1      31.884  28.020  26.647  1.00  0.00     0.004 A 
ATOM     31  C   UNL A   1      34.179  29.512  27.066  1.00  0.00     0.000 A 
ATOM     32  C   UNL A   1      31.791  29.280  27.235  1.00  0.00     0.000 A 
ATOM     33  C   UNL A   1      32.938  30.044  27.409  1.00  0.00     0.000 A 
ENDBRANCH  27  28
ENDBRANCH  13  27
ENDBRANCH  10  13
ENDBRANCH   5   9
ENDBRANCH   3   5
ENDBRANCH   2   3
ENDBRANCH   1   2
BRANCH   1  34
ATOM     34  C   UNL A   1      37.799  22.013  25.422  1.00  0.00     0.275 C 
BRANCH  34  35
ATOM     35  O   UNL A   1      38.240  23.254  25.992  1.00  0.00    -0.458 OA
BRANCH  35  36
ATOM     36  C   UNL A   1      39.531  23.255  26.396  1.00  0.00     0.338 C 
ATOM     37  O   UNL A   1      40.425  22.489  26.095  1.00  0.00    -0.246 OA
BRANCH  36  38
ATOM     38  C   UNL A   1      39.766  24.514  27.099  1.00  0.00     0.060 A 
ATOM     39  C   UNL A   1      39.191  24.661  28.360  1.00  0.00     0.016 A 
ATOM     40  C   UNL A   1      40.513  25.535  26.529  1.00  0.00     0.016 A 
ATOM     41  C   UNL A   1      39.297  25.846  29.053  1.00  0.00     0.010 A 
ATOM     42  C   UNL A   1      40.687  26.710  27.255  1.00  0.00     0.010 A 
ATOM     43  C   UNL A   1      40.076  26.866  28.514  1.00  0.00    -0.014 A 
BRANCH  43  44
ATOM     44  C   UNL A   1      40.262  28.101  29.290  1.00  0.00     0.031 A 
ATOM     45  C   UNL A   1      41.415  28.198  30.231  1.00  0.00     0.074 A 
ATOM     46  C   UNL A   1      39.380  29.105  29.135  1.00  0.00     0.049 A 
ATOM     47  N   UNL A   1      41.647  29.091  31.152  1.00  0.00    -0.248 NA
ATOM     48  C   UNL A   1      42.438  27.143  30.131  1.00  0.00     0.031 C 
ATOM     49  C   UNL A   1      38.273  29.126  28.173  1.00  0.00     0.029 A 
ATOM     50  N   UNL A   1      39.269  30.298  29.795  1.00  0.00    -0.354 N 
ATOM     51  C   UNL A   1      42.816  28.681  31.777  1.00  0.00     0.074 A 
ATOM     52  C   UNL A   1      43.246  27.460  31.132  1.00  0.00     0.031 C 
ATOM     53  C   UNL A   1      37.593  30.273  28.310  1.00  0.00     0.029 A 
ATOM     54  C   UNL A   1      38.160  31.019  29.424  1.00  0.00     0.049 A 
ATOM     55  H   UNL A   1      39.917  30.608  30.468  1.00  0.00     0.167 HD
ATOM     56  C   UNL A   1      43.456  29.279  32.808  1.00  0.00     0.031 A 
ATOM     57  C   UNL A   1      37.627  32.125  29.971  1.00  0.00     0.031 A 
ATOM     58  C   UNL A   1      42.994  30.492  33.425  1.00  0.00     0.049 A 
ATOM     59  C   UNL A   1      38.301  32.709  31.180  1.00  0.00     0.074 A 
ATOM     60  C   UNL A   1      43.557  31.197  34.471  1.00  0.00     0.029 A 
ATOM     61  N   UNL A   1      41.844  31.176  33.049  1.00  0.00    -0.354 N 
ATOM     62  N   UNL A   1      39.399  32.315  31.781  1.00  0.00    -0.248 NA
ATOM     63  C   UNL A   1      37.659  33.876  31.792  1.00  0.00     0.031 C 
ATOM     64  C   UNL A   1      42.714  32.272  34.771  1.00  0.00     0.029 A 
ATOM     65  C   UNL A   1      41.660  32.274  33.868  1.00  0.00     0.049 A 
ATOM     66  H   UNL A   1      41.250  30.916  32.309  1.00  0.00     0.167 HD
ATOM     67  C   UNL A   1      39.588  33.194  32.836  1.00  0.00     0.074 A 
ATOM     68  C   UNL A   1      38.505  34.156  32.773  1.00  0.00     0.031 C 
ATOM     69  C   UNL A   1      40.564  33.205  33.778  1.00  0.00     0.031 A 
BRANCH  56  70
ATOM     70  C   UNL A   1      44.670  28.591  33.363  1.00  0.00    -0.014 A 
ATOM     71  C   UNL A   1      45.962  28.882  32.898  1.00  0.00     0.009 A 
ATOM     72  C   UNL A   1      44.515  27.640  34.384  1.00  0.00     0.009 A 
ATOM     73  C   UNL A   1      47.069  28.212  33.422  1.00  0.00     0.001 A 
ATOM     74  C   UNL A   1      45.625  26.993  34.926  1.00  0.00     0.001 A 
ATOM     75  C   UNL A   1      46.901  27.272  34.440  1.00  0.00     0.000 A 
ENDBRANCH  56  70
BRANCH  57  76
ATOM     76  C   UNL A   1      36.365  32.693  29.432  1.00  0.00    -0.014 A 
ATOM     77  C   UNL A   1      35.124  32.288  29.943  1.00  0.00     0.009 A 
ATOM     78  C   UNL A   1      36.394  33.654  28.407  1.00  0.00     0.009 A 
ATOM     79  C   UNL A   1      33.939  32.815  29.422  1.00  0.00     0.001 A 
ATOM     80  C   UNL A   1      35.210  34.203  27.912  1.00  0.00     0.001 A 
ATOM     81  C   UNL A   1      33.983  33.776  28.413  1.00  0.00     0.000 A 
ENDBRANCH  57  76
BRANCH  69  82
ATOM     82  C   UNL A   1      40.507  34.307  34.795  1.00  0.00    -0.014 A 
ATOM     83  C   UNL A   1      39.744  34.174  35.966  1.00  0.00     0.009 A 
ATOM     84  C   UNL A   1      41.267  35.470  34.600  1.00  0.00     0.009 A 
ATOM     85  C   UNL A   1      39.723  35.201  36.910  1.00  0.00     0.001 A 
ATOM     86  C   UNL A   1      41.270  36.480  35.562  1.00  0.00     0.001 A 
ATOM     87  C   UNL A   1      40.492  36.348  36.712  1.00  0.00     0.000 A 
ENDBRANCH  69  82
ENDBRANCH  43  44
ENDBRANCH  36  38
ENDBRANCH  35  36
ENDBRANCH  34  35
ENDBRANCH   1  34
TORSDOF 17
ENDMDL
MODEL 3
REMARK VINA RESULT:     -11.4      1.701      5.893
REMARK SMILES CC(C)[C@H](NC(=O)[C@H](Cc1ccccc1)n1c(=O)[nH]c2ccccc2c1=O)C(=O)OCCOC(=O)c1ccc(-c2c3nc(c(-c4ccccc4)c4ccc([nH]4)c(-c4ccccc4)c4nc(c(-c5ccccc5)c5ccc2[nH]5)C=C4)C=C3)cc1
REMARK SMILES IDX 31 1 30 2 28 3 29 4 4 5 2 6 1 7 3 8 5 9 6 10 7 12 8 13 16 14
REMARK SMILES IDX 17 15 26 16 18 17 19 18 25 19 27 20 20 21 24 23 21 24 23 25
REMARK SMILES IDX 22 26 9 27 10 28 11 29 15 30 12 31 14 32 13 33 32 34 33 35
REMARK SMILES IDX 34 36 35 37 36 38 37 39 83 40 38 41 82 42 39 43 40 44 41 45
REMARK SMILES IDX 76 46 42 47 81 48 75 49 77 50 43 51 80 52 74 53 73 54 44 56
REMARK SMILES IDX 66 57 51 58 65 59 52 60 55 61 64 62 78 63 53 64 54 65 63 67
REMARK SMILES IDX 79 68 56 69 45 70 46 71 50 72 47 73 49 74 48 75 67 76 68 77
REMARK SMILES IDX 72 78 69 79 71 80 70 81 57 82 58 83 62 84 59 85 61 86 60 87
REMARK H PARENT 5 11 19 22 77 55 55 66
REMARK Flexibility Score: inf
ROOT
ATOM      1  C   UNL A   1      32.068  29.012  26.982  1.00  0.00     0.274 C 
ENDROOT
BRANCH   1   2
ATOM      2  O   UNL A   1      32.856  27.887  26.536  1.00  0.00    -0.461 OA
BRANCH   2   3
ATOM      3  C   UNL A   1      32.830  27.509  25.229  1.00  0.00     0.329 C 
ATOM      4  O   UNL A   1      33.607  27.902  24.368  1.00  0.00    -0.250 OA
BRANCH   3   5
ATOM      5  C   UNL A   1      31.792  26.371  25.013  1.00  0.00     0.194 C 
BRANCH   5   6
ATOM      6  C   UNL A   1      30.732  26.560  23.892  1.00  0.00     0.017 C 
ATOM      7  C   UNL A   1      30.267  28.021  23.764  1.00  0.00     0.010 C 
ATOM      8  C   UNL A   1      31.197  26.132  22.517  1.00  0.00     0.010 C 
ENDBRANCH   5   6
BRANCH   5   9
ATOM      9  N   UNL A   1      31.417  25.571  26.168  1.00  0.00    -0.341 N 
ATOM     10  C   UNL A   1      31.786  24.364  26.653  1.00  0.00     0.244 C 
ATOM     11  H   UNL A   1      30.736  26.011  26.727  1.00  0.00     0.164 HD
ATOM     12  O   UNL A   1      30.839  23.834  27.253  1.00  0.00    -0.273 OA
BRANCH  10  13
ATOM     13  C   UNL A   1      33.062  23.541  26.291  1.00  0.00     0.189 C 
BRANCH  13  14
ATOM     14  N   UNL A   1      32.909  22.092  25.996  1.00  0.00    -0.247 N 
ATOM     15  C   UNL A   1      33.481  21.148  26.824  1.00  0.00     0.329 A 
ATOM     16  C   UNL A   1      32.146  21.705  24.894  1.00  0.00     0.264 A 
ATOM     17  O   UNL A   1      34.304  21.387  27.699  1.00  0.00    -0.248 OA
ATOM     18  N   UNL A   1      33.215  19.828  26.561  1.00  0.00    -0.307 N 
ATOM     19  C   UNL A   1      32.357  20.336  24.391  1.00  0.00     0.064 A 
ATOM     20  O   UNL A   1      31.328  22.413  24.316  1.00  0.00    -0.268 OA
ATOM     21  C   UNL A   1      32.811  19.393  25.301  1.00  0.00     0.055 A 
ATOM     22  H   UNL A   1      33.312  19.168  27.286  1.00  0.00     0.171 HD
ATOM     23  C   UNL A   1      32.220  20.007  23.041  1.00  0.00     0.016 A 
ATOM     24  C   UNL A   1      33.057  18.083  24.897  1.00  0.00     0.027 A 
ATOM     25  C   UNL A   1      32.540  18.716  22.615  1.00  0.00     0.001 A 
ATOM     26  C   UNL A   1      32.935  17.751  23.546  1.00  0.00     0.002 A 
ENDBRANCH  13  14
BRANCH  13  27
ATOM     27  C   UNL A   1      34.028  24.331  25.334  1.00  0.00     0.071 C 
BRANCH  27  28
ATOM     28  C   UNL A   1      35.405  23.753  25.068  1.00  0.00    -0.045 A 
ATOM     29  C   UNL A   1      36.446  23.931  25.981  1.00  0.00     0.004 A 
ATOM     30  C   UNL A   1      35.640  22.936  23.952  1.00  0.00     0.004 A 
ATOM     31  C   UNL A   1      37.600  23.147  25.897  1.00  0.00     0.000 A 
ATOM     32  C   UNL A   1      36.787  22.150  23.865  1.00  0.00     0.000 A 
ATOM     33  C   UNL A   1      37.753  22.228  24.860  1.00  0.00     0.000 A 
ENDBRANCH  27  28
ENDBRANCH  13  27
ENDBRANCH  10  13
ENDBRANCH   5   9
ENDBRANCH   3   5
ENDBRANCH   2   3
ENDBRANCH   1   2
BRANCH   1  34
ATOM     34  C   UNL A   1      32.842  30.306  26.735  1.00  0.00     0.275 C 
BRANCH  34  35
ATOM     35  O   UNL A   1      34.223  30.112  27.072  1.00  0.00    -0.458 OA
BRANCH  35  36
ATOM     36  C   UNL A   1      34.676  30.921  28.057  1.00  0.00     0.338 C 
ATOM     37  O   UNL A   1      34.078  31.780  28.675  1.00  0.00    -0.246 OA
BRANCH  36  38
ATOM     38  C   UNL A   1      35.992  30.429  28.454  1.00  0.00     0.060 A 
ATOM     39  C   UNL A   1      37.047  30.630  27.566  1.00  0.00     0.016 A 
ATOM     40  C   UNL A   1      36.186  29.765  29.657  1.00  0.00     0.016 A 
ATOM     41  C   UNL A   1      38.301  30.125  27.829  1.00  0.00     0.010 A 
ATOM     42  C   UNL A   1      37.468  29.315  29.964  1.00  0.00     0.010 A 
ATOM     43  C   UNL A   1      38.523  29.493  29.048  1.00  0.00    -0.014 A 
BRANCH  43  44
ATOM     44  C   UNL A   1      39.880  29.028  29.369  1.00  0.00     0.031 A 
ATOM     45  C   UNL A   1      40.327  27.697  28.864  1.00  0.00     0.074 A 
ATOM     46  C   UNL A   1      40.677  29.811  30.117  1.00  0.00     0.049 A 
ATOM     47  N   UNL A   1      41.383  27.008  29.195  1.00  0.00    -0.248 NA
ATOM     48  C   UNL A   1      39.464  27.049  27.862  1.00  0.00     0.031 C 
ATOM     49  C   UNL A   1      40.349  31.164  30.580  1.00  0.00     0.029 A 
ATOM     50  N   UNL A   1      41.923  29.578  30.631  1.00  0.00    -0.354 N 
ATOM     51  C   UNL A   1      41.290  25.823  28.480  1.00  0.00     0.074 A 
ATOM     52  C   UNL A   1      40.074  25.884  27.699  1.00  0.00     0.031 C 
ATOM     53  C   UNL A   1      41.368  31.637  31.313  1.00  0.00     0.029 A 
ATOM     54  C   UNL A   1      42.371  30.590  31.444  1.00  0.00     0.049 A 
ATOM     55  H   UNL A   1      42.446  28.766  30.438  1.00  0.00     0.167 HD
ATOM     56  C   UNL A   1      42.148  24.778  28.497  1.00  0.00     0.031 A 
ATOM     57  C   UNL A   1      43.440  30.635  32.256  1.00  0.00     0.031 A 
ATOM     58  C   UNL A   1      43.345  24.754  29.291  1.00  0.00     0.049 A 
ATOM     59  C   UNL A   1      44.320  29.420  32.332  1.00  0.00     0.074 A 
ATOM     60  C   UNL A   1      44.297  23.757  29.388  1.00  0.00     0.029 A 
ATOM     61  N   UNL A   1      43.749  25.782  30.134  1.00  0.00    -0.354 N 
ATOM     62  N   UNL A   1      44.225  28.293  31.668  1.00  0.00    -0.248 NA
ATOM     63  C   UNL A   1      45.441  29.477  33.276  1.00  0.00     0.031 C 
ATOM     64  C   UNL A   1      45.243  24.154  30.339  1.00  0.00     0.029 A 
ATOM     65  C   UNL A   1      44.916  25.427  30.785  1.00  0.00     0.049 A 
ATOM     66  H   UNL A   1      43.274  26.635  30.251  1.00  0.00     0.167 HD
ATOM     67  C   UNL A   1      45.282  27.508  32.103  1.00  0.00     0.074 A 
ATOM     68  C   UNL A   1      46.018  28.302  33.068  1.00  0.00     0.031 C 
ATOM     69  C   UNL A   1      45.615  26.243  31.745  1.00  0.00     0.031 A 
BRANCH  56  70
ATOM     70  C   UNL A   1      41.780  23.566  27.689  1.00  0.00    -0.014 A 
ATOM     71  C   UNL A   1      40.863  22.614  28.160  1.00  0.00     0.009 A 
ATOM     72  C   UNL A   1      42.355  23.384  26.421  1.00  0.00     0.009 A 
ATOM     73  C   UNL A   1      40.555  21.489  27.392  1.00  0.00     0.001 A 
ATOM     74  C   UNL A   1      42.023  22.275  25.644  1.00  0.00     0.001 A 
ATOM     75  C   UNL A   1      41.130  21.323  26.132  1.00  0.00     0.000 A 
ENDBRANCH  56  70
BRANCH  57  76
ATOM     76  C   UNL A   1      43.685  31.829  33.106  1.00  0.00    -0.014 A 
ATOM     77  C   UNL A   1      43.067  31.955  34.357  1.00  0.00     0.009 A 
ATOM     78  C   UNL A   1      44.549  32.849  32.672  1.00  0.00     0.009 A 
ATOM     79  C   UNL A   1      43.290  33.087  35.145  1.00  0.00     0.001 A 
ATOM     80  C   UNL A   1      44.796  33.963  33.477  1.00  0.00     0.001 A 
ATOM     81  C   UNL A   1      44.158  34.086  34.708  1.00  0.00     0.000 A 
ENDBRANCH  57  76
BRANCH  69  82
ATOM     82  C   UNL A   1      46.840  25.660  32.387  1.00  0.00    -0.014 A 
ATOM     83  C   UNL A   1      48.116  25.879  31.845  1.00  0.00     0.009 A 
ATOM     84  C   UNL A   1      46.717  24.928  33.578  1.00  0.00     0.009 A 
ATOM     85  C   UNL A   1      49.244  25.348  32.470  1.00  0.00     0.001 A 
ATOM     86  C   UNL A   1      47.850  24.429  34.218  1.00  0.00     0.001 A 
ATOM     87  C   UNL A   1      49.111  24.631  33.659  1.00  0.00     0.000 A 
ENDBRANCH  69  82
ENDBRANCH  43  44
ENDBRANCH  36  38
ENDBRANCH  35  36
ENDBRANCH  34  35
ENDBRANCH   1  34
TORSDOF 17
ENDMDL
