MODEL 1
REMARK VINA RESULT:      -9.6      0.000      0.000
REMARK SMILES O=C(CCCCCn1cc(Cl)c(I)n1)OCCOC(=O)c1ccc(-c2c3nc(c(-c4ccccc4)c4ccc([nH]4)c(-c4ccccc4)c4nc(c(-c5ccccc5)c5ccc2[nH]5)C=C4)C=C3)cc1
REMARK SMILES IDX 15 1 2 2 1 3 3 4 4 5 5 6 6 7 7 8 8 9 9 10 14 11 10 12 12 13
REMARK SMILES IDX 11 14 13 15 16 16 17 17 18 18 19 19 20 20 21 21 22 22 68 23
REMARK SMILES IDX 23 24 67 25 24 26 25 27 26 28 61 29 27 30 66 31 60 32 62 33
REMARK SMILES IDX 28 34 65 35 59 36 58 37 29 39 51 40 36 41 50 42 37 43 40 44
REMARK SMILES IDX 49 45 63 46 38 47 39 48 48 50 64 51 41 52 30 53 31 54 35 55
REMARK SMILES IDX 32 56 34 57 33 58 52 59 53 60 57 61 54 62 56 63 55 64 42 65
REMARK SMILES IDX 43 66 47 67 44 68 46 69 45 70
REMARK H PARENT 62 38 40 49
REMARK Flexibility Score: inf
ROOT
ATOM      1  O   UNL A   1      34.016  34.040  29.033  1.00  0.00    -0.462 OA
ENDROOT
BRANCH   1   2
ATOM      2  C   UNL A   1      33.622  33.016  28.241  1.00  0.00     0.305 C 
ATOM      3  O   UNL A   1      32.753  33.206  27.392  1.00  0.00    -0.252 OA
BRANCH   2   4
ATOM      4  C   UNL A   1      34.165  31.617  28.452  1.00  0.00     0.123 C 
BRANCH   4   5
ATOM      5  C   UNL A   1      34.593  30.861  27.200  1.00  0.00     0.012 C 
BRANCH   5   6
ATOM      6  C   UNL A   1      34.703  29.346  27.366  1.00  0.00     0.002 C 
BRANCH   6   7
ATOM      7  C   UNL A   1      33.944  28.504  26.319  1.00  0.00     0.024 C 
BRANCH   7   8
ATOM      8  C   UNL A   1      33.078  29.293  25.343  1.00  0.00     0.144 C 
BRANCH   8   9
ATOM      9  N   UNL A   1      32.113  28.467  24.648  1.00  0.00    -0.270 N 
ATOM     10  C   UNL A   1      30.905  28.862  24.150  1.00  0.00     0.130 A 
ATOM     11  N   UNL A   1      32.328  27.144  24.554  1.00  0.00    -0.165 NA
ATOM     12  C   UNL A   1      30.239  27.706  23.820  1.00  0.00     0.092 A 
ATOM     13  C   UNL A   1      31.173  26.679  24.068  1.00  0.00     0.141 A 
ATOM     14  Cl  UNL A   1      28.642  27.594  23.270  1.00  0.00    -0.080 Cl
ATOM     15  I   UNL A   1      30.867  24.683  23.777  1.00  0.00    -0.018 I 
ENDBRANCH   8   9
ENDBRANCH   7   8
ENDBRANCH   6   7
ENDBRANCH   5   6
ENDBRANCH   4   5
ENDBRANCH   2   4
ENDBRANCH   1   2
BRANCH   1  16
ATOM     16  C   UNL A   1      33.770  35.447  28.847  1.00  0.00     0.274 C 
BRANCH  16  17
ATOM     17  C   UNL A   1      32.946  36.089  29.950  1.00  0.00     0.275 C 
BRANCH  17  18
ATOM     18  O   UNL A   1      32.600  35.142  30.949  1.00  0.00    -0.458 OA
BRANCH  18  19
ATOM     19  C   UNL A   1      32.812  35.532  32.233  1.00  0.00     0.338 C 
ATOM     20  O   UNL A   1      32.245  36.401  32.845  1.00  0.00    -0.246 OA
BRANCH  19  21
ATOM     21  C   UNL A   1      33.986  34.781  32.706  1.00  0.00     0.060 A 
ATOM     22  C   UNL A   1      35.133  35.523  32.981  1.00  0.00     0.016 A 
ATOM     23  C   UNL A   1      34.011  33.381  32.600  1.00  0.00     0.016 A 
ATOM     24  C   UNL A   1      36.348  34.884  32.888  1.00  0.00     0.010 A 
ATOM     25  C   UNL A   1      35.220  32.752  32.474  1.00  0.00     0.010 A 
ATOM     26  C   UNL A   1      36.369  33.532  32.527  1.00  0.00    -0.014 A 
BRANCH  26  27
ATOM     27  C   UNL A   1      37.647  32.891  32.328  1.00  0.00     0.031 A 
ATOM     28  C   UNL A   1      38.417  32.836  33.585  1.00  0.00     0.074 A 
ATOM     29  C   UNL A   1      38.008  32.334  31.158  1.00  0.00     0.049 A 
ATOM     30  N   UNL A   1      39.411  33.591  33.911  1.00  0.00    -0.248 NA
ATOM     31  C   UNL A   1      37.878  32.030  34.695  1.00  0.00     0.031 C 
ATOM     32  C   UNL A   1      37.185  32.121  29.963  1.00  0.00     0.029 A 
ATOM     33  N   UNL A   1      39.182  31.738  30.823  1.00  0.00    -0.354 N 
ATOM     34  C   UNL A   1      39.794  33.151  35.170  1.00  0.00     0.074 A 
ATOM     35  C   UNL A   1      38.675  32.411  35.694  1.00  0.00     0.031 C 
ATOM     36  C   UNL A   1      37.807  31.237  29.146  1.00  0.00     0.029 A 
ATOM     37  C   UNL A   1      39.116  30.926  29.695  1.00  0.00     0.049 A 
ATOM     38  H   UNL A   1      40.012  31.870  31.335  1.00  0.00     0.167 HD
ATOM     39  C   UNL A   1      41.116  33.078  35.485  1.00  0.00     0.031 A 
ATOM     40  C   UNL A   1      40.048  30.021  29.296  1.00  0.00     0.031 A 
ATOM     41  C   UNL A   1      41.910  33.894  34.591  1.00  0.00     0.049 A 
ATOM     42  C   UNL A   1      41.318  30.359  29.980  1.00  0.00     0.074 A 
ATOM     43  C   UNL A   1      41.906  35.222  34.209  1.00  0.00     0.029 A 
ATOM     44  N   UNL A   1      42.629  33.227  33.629  1.00  0.00    -0.354 N 
ATOM     45  N   UNL A   1      42.013  31.424  29.709  1.00  0.00    -0.248 NA
ATOM     46  C   UNL A   1      41.566  29.765  31.285  1.00  0.00     0.031 C 
ATOM     47  C   UNL A   1      42.237  35.212  32.820  1.00  0.00     0.029 A 
ATOM     48  C   UNL A   1      42.505  33.897  32.444  1.00  0.00     0.049 A 
ATOM     49  H   UNL A   1      43.148  32.403  33.769  1.00  0.00     0.167 HD
ATOM     50  C   UNL A   1      42.406  31.906  30.950  1.00  0.00     0.074 A 
ATOM     51  C   UNL A   1      42.194  30.788  31.872  1.00  0.00     0.031 C 
ATOM     52  C   UNL A   1      42.573  33.246  31.155  1.00  0.00     0.031 A 
BRANCH  39  53
ATOM     53  C   UNL A   1      41.703  31.864  36.181  1.00  0.00    -0.014 A 
ATOM     54  C   UNL A   1      42.675  32.084  37.173  1.00  0.00     0.009 A 
ATOM     55  C   UNL A   1      41.599  30.547  35.688  1.00  0.00     0.009 A 
ATOM     56  C   UNL A   1      43.576  31.080  37.542  1.00  0.00     0.001 A 
ATOM     57  C   UNL A   1      42.468  29.531  36.088  1.00  0.00     0.001 A 
ATOM     58  C   UNL A   1      43.483  29.808  36.987  1.00  0.00     0.000 A 
ENDBRANCH  39  53
BRANCH  40  59
ATOM     59  C   UNL A   1      39.863  28.719  28.611  1.00  0.00    -0.014 A 
ATOM     60  C   UNL A   1      40.480  28.466  27.372  1.00  0.00     0.009 A 
ATOM     61  C   UNL A   1      39.325  27.619  29.302  1.00  0.00     0.009 A 
ATOM     62  C   UNL A   1      40.592  27.160  26.871  1.00  0.00     0.001 A 
ATOM     63  C   UNL A   1      39.432  26.318  28.801  1.00  0.00     0.001 A 
ATOM     64  C   UNL A   1      40.081  26.085  27.593  1.00  0.00     0.000 A 
ENDBRANCH  40  59
BRANCH  52  65
ATOM     65  C   UNL A   1      42.621  34.145  29.946  1.00  0.00    -0.014 A 
ATOM     66  C   UNL A   1      41.495  34.796  29.407  1.00  0.00     0.009 A 
ATOM     67  C   UNL A   1      43.881  34.439  29.404  1.00  0.00     0.009 A 
ATOM     68  C   UNL A   1      41.630  35.682  28.333  1.00  0.00     0.001 A 
ATOM     69  C   UNL A   1      44.016  35.339  28.348  1.00  0.00     0.001 A 
ATOM     70  C   UNL A   1      42.891  35.954  27.805  1.00  0.00     0.000 A 
ENDBRANCH  52  65
ENDBRANCH  26  27
ENDBRANCH  19  21
ENDBRANCH  18  19
ENDBRANCH  17  18
ENDBRANCH  16  17
ENDBRANCH   1  16
TORSDOF 16
ENDMDL
MODEL 2
REMARK VINA RESULT:      -9.1      1.838      2.600
REMARK SMILES O=C(CCCCCn1cc(Cl)c(I)n1)OCCOC(=O)c1ccc(-c2c3nc(c(-c4ccccc4)c4ccc([nH]4)c(-c4ccccc4)c4nc(c(-c5ccccc5)c5ccc2[nH]5)C=C4)C=C3)cc1
REMARK SMILES IDX 15 1 2 2 1 3 3 4 4 5 5 6 6 7 7 8 8 9 9 10 14 11 10 12 12 13
REMARK SMILES IDX 11 14 13 15 16 16 17 17 18 18 19 19 20 20 21 21 22 22 68 23
REMARK SMILES IDX 23 24 67 25 24 26 25 27 26 28 61 29 27 30 66 31 60 32 62 33
REMARK SMILES IDX 28 34 65 35 59 36 58 37 29 39 51 40 36 41 50 42 37 43 40 44
REMARK SMILES IDX 49 45 63 46 38 47 39 48 48 50 64 51 41 52 30 53 31 54 35 55
REMARK SMILES IDX 32 56 34 57 33 58 52 59 53 60 57 61 54 62 56 63 55 64 42 65
REMARK SMILES IDX 43 66 47 67 44 68 46 69 45 70
REMARK H PARENT 62 38 40 49
REMARK Flexibility Score: inf
ROOT
ATOM      1  O   UNL A   1      33.647  35.980  30.254  1.00  0.00    -0.462 OA
ENDROOT
BRANCH   1   2
ATOM      2  C   UNL A   1      33.049  35.509  29.136  1.00  0.00     0.305 C 
ATOM      3  O   UNL A   1      32.091  36.118  28.660  1.00  0.00    -0.252 OA
BRANCH   2   4
ATOM      4  C   UNL A   1      33.477  34.194  28.519  1.00  0.00     0.123 C 
BRANCH   4   5
ATOM      5  C   UNL A   1      34.947  33.821  28.673  1.00  0.00     0.012 C 
BRANCH   5   6
ATOM      6  C   UNL A   1      35.255  32.332  28.521  1.00  0.00     0.002 C 
BRANCH   6   7
ATOM      7  C   UNL A   1      34.068  31.446  28.091  1.00  0.00     0.024 C 
BRANCH   7   8
ATOM      8  C   UNL A   1      34.425  30.247  27.219  1.00  0.00     0.144 C 
BRANCH   8   9
ATOM      9  N   UNL A   1      33.261  29.552  26.710  1.00  0.00    -0.270 N 
ATOM     10  C   UNL A   1      32.634  28.480  27.277  1.00  0.00     0.130 A 
ATOM     11  N   UNL A   1      32.772  29.885  25.503  1.00  0.00    -0.165 NA
ATOM     12  C   UNL A   1      31.762  28.008  26.326  1.00  0.00     0.092 A 
ATOM     13  C   UNL A   1      31.872  28.926  25.261  1.00  0.00     0.141 A 
ATOM     14  Cl  UNL A   1      30.811  26.612  26.445  1.00  0.00    -0.080 Cl
ATOM     15  I   UNL A   1      30.838  28.857  23.505  1.00  0.00    -0.018 I 
ENDBRANCH   8   9
ENDBRANCH   7   8
ENDBRANCH   6   7
ENDBRANCH   5   6
ENDBRANCH   4   5
ENDBRANCH   2   4
ENDBRANCH   1   2
BRANCH   1  16
ATOM     16  C   UNL A   1      33.089  36.850  31.258  1.00  0.00     0.274 C 
BRANCH  16  17
ATOM     17  C   UNL A   1      33.103  36.274  32.664  1.00  0.00     0.275 C 
BRANCH  17  18
ATOM     18  O   UNL A   1      33.472  34.903  32.652  1.00  0.00    -0.458 OA
BRANCH  18  19
ATOM     19  C   UNL A   1      34.534  34.570  33.430  1.00  0.00     0.338 C 
ATOM     20  O   UNL A   1      34.744  34.888  34.573  1.00  0.00    -0.246 OA
BRANCH  19  21
ATOM     21  C   UNL A   1      35.478  33.852  32.557  1.00  0.00     0.060 A 
ATOM     22  C   UNL A   1      35.260  32.486  32.392  1.00  0.00     0.016 A 
ATOM     23  C   UNL A   1      36.677  34.470  32.164  1.00  0.00     0.016 A 
ATOM     24  C   UNL A   1      36.343  31.698  32.076  1.00  0.00     0.010 A 
ATOM     25  C   UNL A   1      37.761  33.684  31.884  1.00  0.00     0.010 A 
ATOM     26  C   UNL A   1      37.597  32.304  31.937  1.00  0.00    -0.014 A 
BRANCH  26  27
ATOM     27  C   UNL A   1      38.749  31.465  31.710  1.00  0.00     0.031 A 
ATOM     28  C   UNL A   1      39.430  31.138  32.976  1.00  0.00     0.074 A 
ATOM     29  C   UNL A   1      39.065  30.977  30.496  1.00  0.00     0.049 A 
ATOM     30  N   UNL A   1      40.524  31.660  33.417  1.00  0.00    -0.248 NA
ATOM     31  C   UNL A   1      38.699  30.333  33.970  1.00  0.00     0.031 C 
ATOM     32  C   UNL A   1      38.282  31.045  29.259  1.00  0.00     0.029 A 
ATOM     33  N   UNL A   1      40.131  30.215  30.134  1.00  0.00    -0.354 N 
ATOM     34  C   UNL A   1      40.757  31.028  34.630  1.00  0.00     0.074 A 
ATOM     35  C   UNL A   1      39.498  30.455  35.031  1.00  0.00     0.031 C 
ATOM     36  C   UNL A   1      38.778  30.153  28.368  1.00  0.00     0.029 A 
ATOM     37  C   UNL A   1      39.980  29.552  28.921  1.00  0.00     0.049 A 
ATOM     38  H   UNL A   1      40.943  30.139  30.685  1.00  0.00     0.167 HD
ATOM     39  C   UNL A   1      42.026  30.682  34.978  1.00  0.00     0.031 A 
ATOM     40  C   UNL A   1      40.755  28.538  28.452  1.00  0.00     0.031 A 
ATOM     41  C   UNL A   1      42.998  31.427  34.208  1.00  0.00     0.049 A 
ATOM     42  C   UNL A   1      42.028  28.564  29.211  1.00  0.00     0.074 A 
ATOM     43  C   UNL A   1      43.252  32.767  33.979  1.00  0.00     0.029 A 
ATOM     44  N   UNL A   1      43.637  30.746  33.200  1.00  0.00    -0.354 N 
ATOM     45  N   UNL A   1      42.914  29.507  29.085  1.00  0.00    -0.248 NA
ATOM     46  C   UNL A   1      42.098  27.802  30.448  1.00  0.00     0.031 C 
ATOM     47  C   UNL A   1      43.648  32.843  32.608  1.00  0.00     0.029 A 
ATOM     48  C   UNL A   1      43.696  31.547  32.095  1.00  0.00     0.049 A 
ATOM     49  H   UNL A   1      43.992  29.830  33.264  1.00  0.00     0.167 HD
ATOM     50  C   UNL A   1      43.322  29.776  30.384  1.00  0.00     0.074 A 
ATOM     51  C   UNL A   1      42.866  28.626  31.167  1.00  0.00     0.031 C 
ATOM     52  C   UNL A   1      43.714  31.034  30.744  1.00  0.00     0.031 A 
BRANCH  39  53
ATOM     53  C   UNL A   1      42.350  29.315  35.551  1.00  0.00    -0.014 A 
ATOM     54  C   UNL A   1      43.347  29.239  36.540  1.00  0.00     0.009 A 
ATOM     55  C   UNL A   1      41.976  28.098  34.945  1.00  0.00     0.009 A 
ATOM     56  C   UNL A   1      44.021  28.041  36.801  1.00  0.00     0.001 A 
ATOM     57  C   UNL A   1      42.616  26.892  35.235  1.00  0.00     0.001 A 
ATOM     58  C   UNL A   1      43.667  26.872  36.136  1.00  0.00     0.000 A 
ENDBRANCH  39  53
BRANCH  40  59
ATOM     59  C   UNL A   1      40.377  27.371  27.619  1.00  0.00    -0.014 A 
ATOM     60  C   UNL A   1      41.130  27.029  26.481  1.00  0.00     0.009 A 
ATOM     61  C   UNL A   1      39.458  26.421  28.098  1.00  0.00     0.009 A 
ATOM     62  C   UNL A   1      40.999  25.769  25.877  1.00  0.00     0.001 A 
ATOM     63  C   UNL A   1      39.323  25.167  27.493  1.00  0.00     0.001 A 
ATOM     64  C   UNL A   1      40.106  24.833  26.393  1.00  0.00     0.000 A 
ENDBRANCH  40  59
BRANCH  52  65
ATOM     65  C   UNL A   1      43.984  32.031  29.646  1.00  0.00    -0.014 A 
ATOM     66  C   UNL A   1      43.080  33.037  29.260  1.00  0.00     0.009 A 
ATOM     67  C   UNL A   1      45.259  32.024  29.062  1.00  0.00     0.009 A 
ATOM     68  C   UNL A   1      43.433  33.980  28.288  1.00  0.00     0.001 A 
ATOM     69  C   UNL A   1      45.619  32.977  28.110  1.00  0.00     0.001 A 
ATOM     70  C   UNL A   1      44.703  33.950  27.716  1.00  0.00     0.000 A 
ENDBRANCH  52  65
ENDBRANCH  26  27
ENDBRANCH  19  21
ENDBRANCH  18  19
ENDBRANCH  17  18
ENDBRANCH  16  17
ENDBRANCH   1  16
TORSDOF 16
ENDMDL
MODEL 3
REMARK VINA RESULT:      -9.0      7.518     12.786
REMARK SMILES O=C(CCCCCn1cc(Cl)c(I)n1)OCCOC(=O)c1ccc(-c2c3nc(c(-c4ccccc4)c4ccc([nH]4)c(-c4ccccc4)c4nc(c(-c5ccccc5)c5ccc2[nH]5)C=C4)C=C3)cc1
REMARK SMILES IDX 15 1 2 2 1 3 3 4 4 5 5 6 6 7 7 8 8 9 9 10 14 11 10 12 12 13
REMARK SMILES IDX 11 14 13 15 16 16 17 17 18 18 19 19 20 20 21 21 22 22 68 23
REMARK SMILES IDX 23 24 67 25 24 26 25 27 26 28 61 29 27 30 66 31 60 32 62 33
REMARK SMILES IDX 28 34 65 35 59 36 58 37 29 39 51 40 36 41 50 42 37 43 40 44
REMARK SMILES IDX 49 45 63 46 38 47 39 48 48 50 64 51 41 52 30 53 31 54 35 55
REMARK SMILES IDX 32 56 34 57 33 58 52 59 53 60 57 61 54 62 56 63 55 64 42 65
REMARK SMILES IDX 43 66 47 67 44 68 46 69 45 70
REMARK H PARENT 62 38 40 49
REMARK Flexibility Score: inf
ROOT
ATOM      1  O   UNL A   1      46.523  22.873  25.683  1.00  0.00    -0.462 OA
ENDROOT
BRANCH   1   2
ATOM      2  C   UNL A   1      46.509  24.222  25.776  1.00  0.00     0.305 C 
ATOM      3  O   UNL A   1      45.930  24.758  26.720  1.00  0.00    -0.252 OA
BRANCH   2   4
ATOM      4  C   UNL A   1      47.112  25.084  24.685  1.00  0.00     0.123 C 
BRANCH   4   5
ATOM      5  C   UNL A   1      47.976  26.251  25.144  1.00  0.00     0.012 C 
BRANCH   5   6
ATOM      6  C   UNL A   1      49.470  25.946  25.255  1.00  0.00     0.002 C 
BRANCH   6   7
ATOM      7  C   UNL A   1      50.080  26.106  26.662  1.00  0.00     0.024 C 
BRANCH   7   8
ATOM      8  C   UNL A   1      49.959  24.889  27.573  1.00  0.00     0.144 C 
BRANCH   8   9
ATOM      9  N   UNL A   1      49.658  25.239  28.946  1.00  0.00    -0.270 N 
ATOM     10  C   UNL A   1      48.440  25.594  29.452  1.00  0.00     0.130 A 
ATOM     11  N   UNL A   1      50.662  25.350  29.832  1.00  0.00    -0.165 NA
ATOM     12  C   UNL A   1      48.687  26.083  30.713  1.00  0.00     0.092 A 
ATOM     13  C   UNL A   1      50.070  25.887  30.903  1.00  0.00     0.141 A 
ATOM     14  Cl  UNL A   1      47.549  26.783  31.754  1.00  0.00    -0.080 Cl
ATOM     15  I   UNL A   1      51.131  26.368  32.577  1.00  0.00    -0.018 I 
ENDBRANCH   8   9
ENDBRANCH   7   8
ENDBRANCH   6   7
ENDBRANCH   5   6
ENDBRANCH   4   5
ENDBRANCH   2   4
ENDBRANCH   1   2
BRANCH   1  16
ATOM     16  C   UNL A   1      46.046  22.055  24.596  1.00  0.00     0.274 C 
BRANCH  16  17
ATOM     17  C   UNL A   1      45.531  20.690  25.020  1.00  0.00     0.275 C 
BRANCH  17  18
ATOM     18  O   UNL A   1      44.247  20.433  24.472  1.00  0.00    -0.458 OA
BRANCH  18  19
ATOM     19  C   UNL A   1      43.337  19.893  25.322  1.00  0.00     0.338 C 
ATOM     20  O   UNL A   1      43.041  18.732  25.448  1.00  0.00    -0.246 OA
BRANCH  19  21
ATOM     21  C   UNL A   1      42.657  21.024  25.976  1.00  0.00     0.060 A 
ATOM     22  C   UNL A   1      42.757  22.262  25.344  1.00  0.00     0.016 A 
ATOM     23  C   UNL A   1      42.194  20.894  27.295  1.00  0.00     0.016 A 
ATOM     24  C   UNL A   1      42.643  23.390  26.124  1.00  0.00     0.010 A 
ATOM     25  C   UNL A   1      42.113  22.014  28.078  1.00  0.00     0.010 A 
ATOM     26  C   UNL A   1      42.432  23.237  27.499  1.00  0.00    -0.014 A 
BRANCH  26  27
ATOM     27  C   UNL A   1      42.416  24.417  28.330  1.00  0.00     0.031 A 
ATOM     28  C   UNL A   1      41.252  25.269  28.024  1.00  0.00     0.074 A 
ATOM     29  C   UNL A   1      43.306  24.624  29.318  1.00  0.00     0.049 A 
ATOM     30  N   UNL A   1      41.259  26.363  27.340  1.00  0.00    -0.248 NA
ATOM     31  C   UNL A   1      39.907  24.730  28.292  1.00  0.00     0.031 C 
ATOM     32  C   UNL A   1      44.311  23.694  29.842  1.00  0.00     0.029 A 
ATOM     33  N   UNL A   1      43.430  25.696  30.143  1.00  0.00    -0.354 N 
ATOM     34  C   UNL A   1      39.939  26.789  27.336  1.00  0.00     0.074 A 
ATOM     35  C   UNL A   1      39.145  25.638  27.681  1.00  0.00     0.031 C 
ATOM     36  C   UNL A   1      44.760  24.150  31.036  1.00  0.00     0.029 A 
ATOM     37  C   UNL A   1      44.174  25.455  31.294  1.00  0.00     0.049 A 
ATOM     38  H   UNL A   1      43.028  26.572  29.944  1.00  0.00     0.167 HD
ATOM     39  C   UNL A   1      39.658  28.115  27.462  1.00  0.00     0.031 A 
ATOM     40  C   UNL A   1      44.235  26.247  32.397  1.00  0.00     0.031 A 
ATOM     41  C   UNL A   1      40.813  28.924  27.140  1.00  0.00     0.049 A 
ATOM     42  C   UNL A   1      43.763  27.596  32.002  1.00  0.00     0.074 A 
ATOM     43  C   UNL A   1      41.660  29.039  26.054  1.00  0.00     0.029 A 
ATOM     44  N   UNL A   1      41.481  29.490  28.200  1.00  0.00    -0.354 N 
ATOM     45  N   UNL A   1      44.431  28.382  31.210  1.00  0.00    -0.248 NA
ATOM     46  C   UNL A   1      42.339  27.875  32.106  1.00  0.00     0.031 C 
ATOM     47  C   UNL A   1      42.956  29.261  26.613  1.00  0.00     0.029 A 
ATOM     48  C   UNL A   1      42.825  29.352  27.998  1.00  0.00     0.049 A 
ATOM     49  H   UNL A   1      41.060  29.924  28.977  1.00  0.00     0.167 HD
ATOM     50  C   UNL A   1      43.470  28.919  30.365  1.00  0.00     0.074 A 
ATOM     51  C   UNL A   1      42.193  28.655  31.031  1.00  0.00     0.031 C 
ATOM     52  C   UNL A   1      43.782  29.249  29.077  1.00  0.00     0.031 A 
BRANCH  39  53
ATOM     53  C   UNL A   1      38.578  28.614  28.405  1.00  0.00    -0.014 A 
ATOM     54  C   UNL A   1      37.773  29.682  27.971  1.00  0.00     0.009 A 
ATOM     55  C   UNL A   1      38.540  28.323  29.784  1.00  0.00     0.009 A 
ATOM     56  C   UNL A   1      37.085  30.490  28.882  1.00  0.00     0.001 A 
ATOM     57  C   UNL A   1      37.819  29.100  30.691  1.00  0.00     0.001 A 
ATOM     58  C   UNL A   1      37.122  30.209  30.244  1.00  0.00     0.000 A 
ENDBRANCH  39  53
BRANCH  40  59
ATOM     59  C   UNL A   1      44.383  25.868  33.822  1.00  0.00    -0.014 A 
ATOM     60  C   UNL A   1      45.211  26.613  34.682  1.00  0.00     0.009 A 
ATOM     61  C   UNL A   1      43.491  24.956  34.413  1.00  0.00     0.009 A 
ATOM     62  C   UNL A   1      45.115  26.482  36.075  1.00  0.00     0.001 A 
ATOM     63  C   UNL A   1      43.398  24.821  35.803  1.00  0.00     0.001 A 
ATOM     64  C   UNL A   1      44.198  25.597  36.635  1.00  0.00     0.000 A 
ENDBRANCH  40  59
BRANCH  52  65
ATOM     65  C   UNL A   1      45.239  29.304  28.695  1.00  0.00    -0.014 A 
ATOM     66  C   UNL A   1      45.959  28.207  28.186  1.00  0.00     0.009 A 
ATOM     67  C   UNL A   1      45.875  30.553  28.740  1.00  0.00     0.009 A 
ATOM     68  C   UNL A   1      47.288  28.355  27.775  1.00  0.00     0.001 A 
ATOM     69  C   UNL A   1      47.193  30.704  28.310  1.00  0.00     0.001 A 
ATOM     70  C   UNL A   1      47.903  29.604  27.835  1.00  0.00     0.000 A 
ENDBRANCH  52  65
ENDBRANCH  26  27
ENDBRANCH  19  21
ENDBRANCH  18  19
ENDBRANCH  17  18
ENDBRANCH  16  17
ENDBRANCH   1  16
TORSDOF 16
ENDMDL
