MODEL 1
REMARK VINA RESULT:     -11.0      0.000      0.000
REMARK SMILES O=C(OCCOC(=O)[C@@H]1CCCN(C(=O)Nc2ccccc2)C1)c1ccc(-c2c3nc(c(-c4ccccc4)c4ccc([nH]4)c(-c4ccccc4)c4nc(c(-c5ccccc5)c5ccc2[nH]5)C=C4)C=C3)cc1
REMARK SMILES IDX 4 1 3 2 2 3 1 4 24 5 25 6 71 7 26 8 70 9 27 10 28 11 29 12
REMARK SMILES IDX 64 13 30 14 69 15 63 16 65 17 31 18 68 19 62 20 61 21 32 23
REMARK SMILES IDX 54 24 39 25 53 26 40 27 43 28 52 29 66 30 41 31 42 32 51 34
REMARK SMILES IDX 67 35 44 36 33 37 34 38 38 39 35 40 37 41 36 42 55 43 56 44
REMARK SMILES IDX 60 45 57 46 59 47 58 48 45 49 46 50 50 51 47 52 49 53 48 54
REMARK SMILES IDX 5 55 6 56 7 57 8 58 9 59 10 60 23 61 11 62 13 63 12 64 14 65
REMARK SMILES IDX 15 66 16 67 17 69 18 70 22 71 19 72 21 73 20 74
REMARK H PARENT 65 22 43 33 16 68
REMARK Flexibility Score: inf
ROOT
ATOM      1  C   UNL A   1      31.620  32.249  27.258  1.00  0.00     0.275 C 
ENDROOT
BRANCH   1   2
ATOM      2  O   UNL A   1      32.114  33.601  27.278  1.00  0.00    -0.458 OA
BRANCH   2   3
ATOM      3  C   UNL A   1      32.830  34.257  28.220  1.00  0.00     0.338 C 
ATOM      4  O   UNL A   1      32.561  35.430  28.474  1.00  0.00    -0.246 OA
BRANCH   3   5
ATOM      5  C   UNL A   1      34.030  33.663  28.875  1.00  0.00     0.060 A 
ATOM      6  C   UNL A   1      34.047  33.102  30.154  1.00  0.00     0.016 A 
ATOM      7  C   UNL A   1      35.227  33.685  28.137  1.00  0.00     0.016 A 
ATOM      8  C   UNL A   1      35.196  32.484  30.650  1.00  0.00     0.010 A 
ATOM      9  C   UNL A   1      36.388  33.092  28.639  1.00  0.00     0.010 A 
ATOM     10  C   UNL A   1      36.372  32.476  29.898  1.00  0.00    -0.014 A 
BRANCH  10  11
ATOM     11  C   UNL A   1      37.623  31.991  30.512  1.00  0.00     0.031 A 
ATOM     12  C   UNL A   1      38.159  30.667  30.060  1.00  0.00     0.074 A 
ATOM     13  C   UNL A   1      38.317  32.736  31.392  1.00  0.00     0.049 A 
ATOM     14  N   UNL A   1      39.252  30.056  30.429  1.00  0.00    -0.248 NA
ATOM     15  C   UNL A   1      37.397  29.972  29.008  1.00  0.00     0.031 C 
ATOM     16  C   UNL A   1      37.988  34.097  31.809  1.00  0.00     0.029 A 
ATOM     17  N   UNL A   1      39.433  32.424  32.129  1.00  0.00    -0.354 N 
ATOM     18  C   UNL A   1      39.356  28.957  29.591  1.00  0.00     0.074 A 
ATOM     19  C   UNL A   1      38.169  28.924  28.768  1.00  0.00     0.031 C 
ATOM     20  C   UNL A   1      38.812  34.456  32.809  1.00  0.00     0.029 A 
ATOM     21  C   UNL A   1      39.698  33.344  33.115  1.00  0.00     0.049 A 
ATOM     22  H   UNL A   1      39.988  31.626  31.967  1.00  0.00     0.167 HD
ATOM     23  C   UNL A   1      40.384  28.087  29.479  1.00  0.00     0.031 A 
ATOM     24  C   UNL A   1      40.515  33.251  34.179  1.00  0.00     0.031 A 
ATOM     25  C   UNL A   1      41.523  28.083  30.351  1.00  0.00     0.049 A 
ATOM     26  C   UNL A   1      41.458  32.089  34.260  1.00  0.00     0.074 A 
ATOM     27  C   UNL A   1      42.629  27.255  30.333  1.00  0.00     0.029 A 
ATOM     28  N   UNL A   1      41.677  28.940  31.431  1.00  0.00    -0.354 N 
ATOM     29  N   UNL A   1      41.584  31.078  33.438  1.00  0.00    -0.248 NA
ATOM     30  C   UNL A   1      42.420  32.098  35.370  1.00  0.00     0.031 C 
ATOM     31  C   UNL A   1      43.423  27.572  31.442  1.00  0.00     0.029 A 
ATOM     32  C   UNL A   1      42.841  28.635  32.114  1.00  0.00     0.049 A 
ATOM     33  H   UNL A   1      41.051  29.660  31.676  1.00  0.00     0.167 HD
ATOM     34  C   UNL A   1      42.696  30.377  33.875  1.00  0.00     0.074 A 
ATOM     35  C   UNL A   1      43.175  31.050  35.067  1.00  0.00     0.031 C 
ATOM     36  C   UNL A   1      43.300  29.310  33.299  1.00  0.00     0.031 A 
BRANCH  23  37
ATOM     37  C   UNL A   1      40.294  27.088  28.366  1.00  0.00    -0.014 A 
ATOM     38  C   UNL A   1      39.647  25.855  28.565  1.00  0.00     0.009 A 
ATOM     39  C   UNL A   1      40.883  27.356  27.125  1.00  0.00     0.009 A 
ATOM     40  C   UNL A   1      39.630  24.894  27.554  1.00  0.00     0.001 A 
ATOM     41  C   UNL A   1      40.845  26.401  26.108  1.00  0.00     0.001 A 
ATOM     42  C   UNL A   1      40.229  25.169  26.326  1.00  0.00     0.000 A 
ENDBRANCH  23  37
BRANCH  24  43
ATOM     43  C   UNL A   1      40.463  34.239  35.285  1.00  0.00    -0.014 A 
ATOM     44  C   UNL A   1      39.616  34.066  36.387  1.00  0.00     0.009 A 
ATOM     45  C   UNL A   1      41.209  35.424  35.178  1.00  0.00     0.009 A 
ATOM     46  C   UNL A   1      39.508  35.069  37.356  1.00  0.00     0.001 A 
ATOM     47  C   UNL A   1      41.111  36.417  36.156  1.00  0.00     0.001 A 
ATOM     48  C   UNL A   1      40.256  36.242  37.241  1.00  0.00     0.000 A 
ENDBRANCH  24  43
BRANCH  36  49
ATOM     49  C   UNL A   1      44.599  28.865  33.898  1.00  0.00    -0.014 A 
ATOM     50  C   UNL A   1      44.660  27.865  34.878  1.00  0.00     0.009 A 
ATOM     51  C   UNL A   1      45.791  29.453  33.442  1.00  0.00     0.009 A 
ATOM     52  C   UNL A   1      45.892  27.480  35.409  1.00  0.00     0.001 A 
ATOM     53  C   UNL A   1      47.021  29.044  33.952  1.00  0.00     0.001 A 
ATOM     54  C   UNL A   1      47.070  28.065  34.941  1.00  0.00     0.000 A 
ENDBRANCH  36  49
ENDBRANCH  10  11
ENDBRANCH   3   5
ENDBRANCH   2   3
ENDBRANCH   1   2
BRANCH   1  55
ATOM     55  C   UNL A   1      32.433  31.223  26.458  1.00  0.00     0.274 C 
BRANCH  55  56
ATOM     56  O   UNL A   1      32.168  29.852  26.787  1.00  0.00    -0.462 OA
BRANCH  56  57
ATOM     57  C   UNL A   1      33.124  28.982  26.372  1.00  0.00     0.310 C 
ATOM     58  O   UNL A   1      34.308  29.094  26.676  1.00  0.00    -0.252 OA
BRANCH  57  59
ATOM     59  C   UNL A   1      32.616  27.857  25.472  1.00  0.00     0.119 C 
ATOM     60  C   UNL A   1      33.487  27.846  24.221  1.00  0.00     0.019 C 
ATOM     61  C   UNL A   1      31.119  27.852  25.116  1.00  0.00     0.136 C 
ATOM     62  C   UNL A   1      33.029  28.982  23.327  1.00  0.00     0.023 C 
ATOM     63  N   UNL A   1      30.726  28.013  23.703  1.00  0.00    -0.324 N 
ATOM     64  C   UNL A   1      31.649  28.668  22.787  1.00  0.00     0.121 C 
BRANCH  63  65
ATOM     65  C   UNL A   1      29.418  27.653  23.395  1.00  0.00     0.321 C 
ATOM     66  O   UNL A   1      29.037  26.482  23.494  1.00  0.00    -0.248 OA
ATOM     67  N   UNL A   1      28.458  28.588  23.133  1.00  0.00    -0.308 N 
ATOM     68  H   UNL A   1      27.538  28.258  23.247  1.00  0.00     0.171 HD
BRANCH  67  69
ATOM     69  C   UNL A   1      28.535  29.923  22.734  1.00  0.00     0.042 A 
ATOM     70  C   UNL A   1      28.311  30.256  21.398  1.00  0.00     0.026 A 
ATOM     71  C   UNL A   1      28.816  30.922  23.665  1.00  0.00     0.026 A 
ATOM     72  C   UNL A   1      28.219  31.596  21.023  1.00  0.00     0.002 A 
ATOM     73  C   UNL A   1      28.742  32.262  23.285  1.00  0.00     0.002 A 
ATOM     74  C   UNL A   1      28.414  32.598  21.972  1.00  0.00     0.000 A 
ENDBRANCH  67  69
ENDBRANCH  63  65
ENDBRANCH  57  59
ENDBRANCH  56  57
ENDBRANCH  55  56
ENDBRANCH   1  55
TORSDOF 13
ENDMDL
MODEL 2
REMARK VINA RESULT:     -10.9      1.184      6.056
REMARK SMILES O=C(OCCOC(=O)[C@@H]1CCCN(C(=O)Nc2ccccc2)C1)c1ccc(-c2c3nc(c(-c4ccccc4)c4ccc([nH]4)c(-c4ccccc4)c4nc(c(-c5ccccc5)c5ccc2[nH]5)C=C4)C=C3)cc1
REMARK SMILES IDX 4 1 3 2 2 3 1 4 24 5 25 6 71 7 26 8 70 9 27 10 28 11 29 12
REMARK SMILES IDX 64 13 30 14 69 15 63 16 65 17 31 18 68 19 62 20 61 21 32 23
REMARK SMILES IDX 54 24 39 25 53 26 40 27 43 28 52 29 66 30 41 31 42 32 51 34
REMARK SMILES IDX 67 35 44 36 33 37 34 38 38 39 35 40 37 41 36 42 55 43 56 44
REMARK SMILES IDX 60 45 57 46 59 47 58 48 45 49 46 50 50 51 47 52 49 53 48 54
REMARK SMILES IDX 5 55 6 56 7 57 8 58 9 59 10 60 23 61 11 62 13 63 12 64 14 65
REMARK SMILES IDX 15 66 16 67 17 69 18 70 22 71 19 72 21 73 20 74
REMARK H PARENT 65 22 43 33 16 68
REMARK Flexibility Score: inf
ROOT
ATOM      1  C   UNL A   1      32.080  33.092  26.859  1.00  0.00     0.275 C 
ENDROOT
BRANCH   1   2
ATOM      2  O   UNL A   1      32.216  34.001  27.966  1.00  0.00    -0.458 OA
BRANCH   2   3
ATOM      3  C   UNL A   1      33.311  34.632  28.450  1.00  0.00     0.338 C 
ATOM      4  O   UNL A   1      33.397  35.855  28.351  1.00  0.00    -0.246 OA
BRANCH   3   5
ATOM      5  C   UNL A   1      34.493  33.895  28.982  1.00  0.00     0.060 A 
ATOM      6  C   UNL A   1      35.809  34.077  28.549  1.00  0.00     0.016 A 
ATOM      7  C   UNL A   1      34.244  32.945  29.988  1.00  0.00     0.016 A 
ATOM      8  C   UNL A   1      36.866  33.410  29.171  1.00  0.00     0.010 A 
ATOM      9  C   UNL A   1      35.295  32.254  30.596  1.00  0.00     0.010 A 
ATOM     10  C   UNL A   1      36.616  32.495  30.195  1.00  0.00    -0.014 A 
BRANCH  10  11
ATOM     11  C   UNL A   1      37.719  31.659  30.707  1.00  0.00     0.031 A 
ATOM     12  C   UNL A   1      38.267  31.977  32.065  1.00  0.00     0.074 A 
ATOM     13  C   UNL A   1      38.178  30.594  30.026  1.00  0.00     0.049 A 
ATOM     14  N   UNL A   1      39.207  31.366  32.734  1.00  0.00    -0.248 NA
ATOM     15  C   UNL A   1      37.627  33.089  32.790  1.00  0.00     0.031 C 
ATOM     16  C   UNL A   1      37.642  30.087  28.765  1.00  0.00     0.029 A 
ATOM     17  N   UNL A   1      39.241  29.765  30.291  1.00  0.00    -0.354 N 
ATOM     18  C   UNL A   1      39.206  31.956  33.988  1.00  0.00     0.074 A 
ATOM     19  C   UNL A   1      38.250  33.039  33.957  1.00  0.00     0.031 C 
ATOM     20  C   UNL A   1      38.448  29.112  28.311  1.00  0.00     0.029 A 
ATOM     21  C   UNL A   1      39.563  28.952  29.230  1.00  0.00     0.049 A 
ATOM     22  H   UNL A   1      39.722  29.754  31.150  1.00  0.00     0.167 HD
ATOM     23  C   UNL A   1      39.900  31.584  35.086  1.00  0.00     0.031 A 
ATOM     24  C   UNL A   1      40.672  28.223  29.012  1.00  0.00     0.031 A 
ATOM     25  C   UNL A   1      40.901  30.557  35.085  1.00  0.00     0.049 A 
ATOM     26  C   UNL A   1      41.657  28.063  30.131  1.00  0.00     0.074 A 
ATOM     27  C   UNL A   1      41.667  30.089  36.136  1.00  0.00     0.029 A 
ATOM     28  N   UNL A   1      41.299  29.861  33.953  1.00  0.00    -0.354 N 
ATOM     29  N   UNL A   1      41.624  28.586  31.331  1.00  0.00    -0.248 NA
ATOM     30  C   UNL A   1      42.784  27.154  29.891  1.00  0.00     0.031 C 
ATOM     31  C   UNL A   1      42.573  29.151  35.625  1.00  0.00     0.029 A 
ATOM     32  C   UNL A   1      42.330  28.994  34.270  1.00  0.00     0.049 A 
ATOM     33  H   UNL A   1      40.906  29.967  33.057  1.00  0.00     0.167 HD
ATOM     34  C   UNL A   1      42.673  28.001  32.022  1.00  0.00     0.074 A 
ATOM     35  C   UNL A   1      43.354  27.124  31.088  1.00  0.00     0.031 C 
ATOM     36  C   UNL A   1      42.999  28.133  33.330  1.00  0.00     0.031 A 
BRANCH  23  37
ATOM     37  C   UNL A   1      39.575  32.308  36.357  1.00  0.00    -0.014 A 
ATOM     38  C   UNL A   1      40.437  33.303  36.852  1.00  0.00     0.009 A 
ATOM     39  C   UNL A   1      38.426  31.977  37.085  1.00  0.00     0.009 A 
ATOM     40  C   UNL A   1      40.173  33.922  38.074  1.00  0.00     0.001 A 
ATOM     41  C   UNL A   1      38.154  32.614  38.297  1.00  0.00     0.001 A 
ATOM     42  C   UNL A   1      39.031  33.577  38.795  1.00  0.00     0.000 A 
ENDBRANCH  23  37
BRANCH  24  43
ATOM     43  C   UNL A   1      40.957  27.625  27.685  1.00  0.00    -0.014 A 
ATOM     44  C   UNL A   1      40.597  26.307  27.378  1.00  0.00     0.009 A 
ATOM     45  C   UNL A   1      41.692  28.367  26.746  1.00  0.00     0.009 A 
ATOM     46  C   UNL A   1      40.979  25.738  26.159  1.00  0.00     0.001 A 
ATOM     47  C   UNL A   1      42.060  27.801  25.522  1.00  0.00     0.001 A 
ATOM     48  C   UNL A   1      41.708  26.485  25.232  1.00  0.00     0.000 A 
ENDBRANCH  24  43
BRANCH  36  49
ATOM     49  C   UNL A   1      44.082  27.238  33.850  1.00  0.00    -0.014 A 
ATOM     50  C   UNL A   1      43.808  25.954  34.342  1.00  0.00     0.009 A 
ATOM     51  C   UNL A   1      45.410  27.692  33.814  1.00  0.00     0.009 A 
ATOM     52  C   UNL A   1      44.847  25.152  34.816  1.00  0.00     0.001 A 
ATOM     53  C   UNL A   1      46.449  26.876  34.259  1.00  0.00     0.001 A 
ATOM     54  C   UNL A   1      46.165  25.610  34.767  1.00  0.00     0.000 A 
ENDBRANCH  36  49
ENDBRANCH  10  11
ENDBRANCH   3   5
ENDBRANCH   2   3
ENDBRANCH   1   2
BRANCH   1  55
ATOM     55  C   UNL A   1      32.162  31.593  27.176  1.00  0.00     0.274 C 
BRANCH  55  56
ATOM     56  O   UNL A   1      32.282  30.738  26.030  1.00  0.00    -0.462 OA
BRANCH  56  57
ATOM     57  C   UNL A   1      33.148  29.705  26.191  1.00  0.00     0.310 C 
ATOM     58  O   UNL A   1      34.210  29.810  26.797  1.00  0.00    -0.252 OA
BRANCH  57  59
ATOM     59  C   UNL A   1      32.709  28.396  25.536  1.00  0.00     0.119 C 
ATOM     60  C   UNL A   1      33.666  28.121  24.382  1.00  0.00     0.019 C 
ATOM     61  C   UNL A   1      31.241  28.283  25.087  1.00  0.00     0.136 C 
ATOM     62  C   UNL A   1      33.270  29.017  23.225  1.00  0.00     0.023 C 
ATOM     63  N   UNL A   1      30.949  28.114  23.651  1.00  0.00    -0.324 N 
ATOM     64  C   UNL A   1      31.933  28.564  22.676  1.00  0.00     0.121 C 
BRANCH  63  65
ATOM     65  C   UNL A   1      29.667  27.669  23.343  1.00  0.00     0.321 C 
ATOM     66  O   UNL A   1      29.365  26.475  23.441  1.00  0.00    -0.248 OA
ATOM     67  N   UNL A   1      28.648  28.539  23.083  1.00  0.00    -0.308 N 
ATOM     68  H   UNL A   1      27.751  28.149  23.198  1.00  0.00     0.171 HD
BRANCH  67  69
ATOM     69  C   UNL A   1      28.636  29.877  22.687  1.00  0.00     0.042 A 
ATOM     70  C   UNL A   1      28.327  30.200  21.366  1.00  0.00     0.026 A 
ATOM     71  C   UNL A   1      28.914  30.888  23.606  1.00  0.00     0.026 A 
ATOM     72  C   UNL A   1      28.148  31.534  21.002  1.00  0.00     0.002 A 
ATOM     73  C   UNL A   1      28.753  32.222  23.237  1.00  0.00     0.002 A 
ATOM     74  C   UNL A   1      28.340  32.543  21.943  1.00  0.00     0.000 A 
ENDBRANCH  67  69
ENDBRANCH  63  65
ENDBRANCH  57  59
ENDBRANCH  56  57
ENDBRANCH  55  56
ENDBRANCH   1  55
TORSDOF 13
ENDMDL
MODEL 3
REMARK VINA RESULT:     -10.9      6.272      9.867
REMARK SMILES O=C(OCCOC(=O)[C@@H]1CCCN(C(=O)Nc2ccccc2)C1)c1ccc(-c2c3nc(c(-c4ccccc4)c4ccc([nH]4)c(-c4ccccc4)c4nc(c(-c5ccccc5)c5ccc2[nH]5)C=C4)C=C3)cc1
REMARK SMILES IDX 4 1 3 2 2 3 1 4 24 5 25 6 71 7 26 8 70 9 27 10 28 11 29 12
REMARK SMILES IDX 64 13 30 14 69 15 63 16 65 17 31 18 68 19 62 20 61 21 32 23
REMARK SMILES IDX 54 24 39 25 53 26 40 27 43 28 52 29 66 30 41 31 42 32 51 34
REMARK SMILES IDX 67 35 44 36 33 37 34 38 38 39 35 40 37 41 36 42 55 43 56 44
REMARK SMILES IDX 60 45 57 46 59 47 58 48 45 49 46 50 50 51 47 52 49 53 48 54
REMARK SMILES IDX 5 55 6 56 7 57 8 58 9 59 10 60 23 61 11 62 13 63 12 64 14 65
REMARK SMILES IDX 15 66 16 67 17 69 18 70 22 71 19 72 21 73 20 74
REMARK H PARENT 65 22 43 33 16 68
REMARK Flexibility Score: inf
ROOT
ATOM      1  C   UNL A   1      39.187  19.153  25.825  1.00  0.00     0.275 C 
ENDROOT
BRANCH   1   2
ATOM      2  O   UNL A   1      40.620  19.064  25.723  1.00  0.00    -0.458 OA
BRANCH   2   3
ATOM      3  C   UNL A   1      41.587  19.588  26.511  1.00  0.00     0.338 C 
ATOM      4  O   UNL A   1      42.282  18.837  27.194  1.00  0.00    -0.246 OA
BRANCH   3   5
ATOM      5  C   UNL A   1      41.765  21.056  26.696  1.00  0.00     0.060 A 
ATOM      6  C   UNL A   1      41.606  22.013  25.691  1.00  0.00     0.016 A 
ATOM      7  C   UNL A   1      42.126  21.490  27.984  1.00  0.00     0.016 A 
ATOM      8  C   UNL A   1      41.699  23.376  25.979  1.00  0.00     0.010 A 
ATOM      9  C   UNL A   1      42.249  22.852  28.271  1.00  0.00     0.010 A 
ATOM     10  C   UNL A   1      42.023  23.803  27.268  1.00  0.00    -0.014 A 
BRANCH  10  11
ATOM     11  C   UNL A   1      42.306  25.231  27.510  1.00  0.00     0.031 A 
ATOM     12  C   UNL A   1      43.670  25.744  27.163  1.00  0.00     0.074 A 
ATOM     13  C   UNL A   1      41.359  26.077  27.952  1.00  0.00     0.049 A 
ATOM     14  N   UNL A   1      44.138  26.959  27.255  1.00  0.00    -0.248 NA
ATOM     15  C   UNL A   1      44.610  24.773  26.575  1.00  0.00     0.031 C 
ATOM     16  C   UNL A   1      39.957  25.745  28.192  1.00  0.00     0.029 A 
ATOM     17  N   UNL A   1      41.454  27.398  28.320  1.00  0.00    -0.354 N 
ATOM     18  C   UNL A   1      45.385  26.917  26.653  1.00  0.00     0.074 A 
ATOM     19  C   UNL A   1      45.648  25.543  26.293  1.00  0.00     0.031 C 
ATOM     20  C   UNL A   1      39.354  26.796  28.773  1.00  0.00     0.029 A 
ATOM     21  C   UNL A   1      40.332  27.854  28.971  1.00  0.00     0.049 A 
ATOM     22  H   UNL A   1      42.242  27.959  28.136  1.00  0.00     0.167 HD
ATOM     23  C   UNL A   1      46.211  27.950  26.371  1.00  0.00     0.031 A 
ATOM     24  C   UNL A   1      40.156  28.970  29.700  1.00  0.00     0.031 A 
ATOM     25  C   UNL A   1      45.975  29.298  26.799  1.00  0.00     0.049 A 
ATOM     26  C   UNL A   1      41.230  30.016  29.680  1.00  0.00     0.074 A 
ATOM     27  C   UNL A   1      46.737  30.428  26.570  1.00  0.00     0.029 A 
ATOM     28  N   UNL A   1      44.900  29.687  27.584  1.00  0.00    -0.354 N 
ATOM     29  N   UNL A   1      42.387  29.990  29.068  1.00  0.00    -0.248 NA
ATOM     30  C   UNL A   1      40.939  31.272  30.383  1.00  0.00     0.031 C 
ATOM     31  C   UNL A   1      46.153  31.491  27.271  1.00  0.00     0.029 A 
ATOM     32  C   UNL A   1      44.998  31.034  27.886  1.00  0.00     0.049 A 
ATOM     33  H   UNL A   1      44.174  29.093  27.884  1.00  0.00     0.167 HD
ATOM     34  C   UNL A   1      42.926  31.256  29.234  1.00  0.00     0.074 A 
ATOM     35  C   UNL A   1      41.991  32.007  30.050  1.00  0.00     0.031 C 
ATOM     36  C   UNL A   1      44.064  31.764  28.702  1.00  0.00     0.031 A 
BRANCH  23  37
ATOM     37  C   UNL A   1      47.429  27.626  25.561  1.00  0.00    -0.014 A 
ATOM     38  C   UNL A   1      47.370  27.616  24.156  1.00  0.00     0.009 A 
ATOM     39  C   UNL A   1      48.633  27.296  26.195  1.00  0.00     0.009 A 
ATOM     40  C   UNL A   1      48.483  27.240  23.404  1.00  0.00     0.001 A 
ATOM     41  C   UNL A   1      49.752  26.942  25.439  1.00  0.00     0.001 A 
ATOM     42  C   UNL A   1      49.673  26.903  24.047  1.00  0.00     0.000 A 
ENDBRANCH  23  37
BRANCH  24  43
ATOM     43  C   UNL A   1      38.958  29.158  30.553  1.00  0.00    -0.014 A 
ATOM     44  C   UNL A   1      37.819  29.825  30.086  1.00  0.00     0.009 A 
ATOM     45  C   UNL A   1      39.001  28.740  31.894  1.00  0.00     0.009 A 
ATOM     46  C   UNL A   1      36.749  30.083  30.950  1.00  0.00     0.001 A 
ATOM     47  C   UNL A   1      37.925  28.985  32.750  1.00  0.00     0.001 A 
ATOM     48  C   UNL A   1      36.802  29.662  32.280  1.00  0.00     0.000 A 
ENDBRANCH  24  43
BRANCH  36  49
ATOM     49  C   UNL A   1      44.309  33.227  28.907  1.00  0.00    -0.014 A 
ATOM     50  C   UNL A   1      45.073  33.708  29.980  1.00  0.00     0.009 A 
ATOM     51  C   UNL A   1      43.778  34.139  27.979  1.00  0.00     0.009 A 
ATOM     52  C   UNL A   1      45.277  35.080  30.133  1.00  0.00     0.001 A 
ATOM     53  C   UNL A   1      44.011  35.506  28.117  1.00  0.00     0.001 A 
ATOM     54  C   UNL A   1      44.752  35.975  29.199  1.00  0.00     0.000 A 
ENDBRANCH  36  49
ENDBRANCH  10  11
ENDBRANCH   3   5
ENDBRANCH   2   3
ENDBRANCH   1   2
BRANCH   1  55
ATOM     55  C   UNL A   1      38.470  20.023  24.785  1.00  0.00     0.274 C 
BRANCH  55  56
ATOM     56  O   UNL A   1      37.171  20.490  25.178  1.00  0.00    -0.462 OA
BRANCH  56  57
ATOM     57  C   UNL A   1      37.120  21.812  25.482  1.00  0.00     0.310 C 
ATOM     58  O   UNL A   1      38.045  22.410  26.023  1.00  0.00    -0.252 OA
BRANCH  57  59
ATOM     59  C   UNL A   1      35.805  22.500  25.120  1.00  0.00     0.119 C 
ATOM     60  C   UNL A   1      35.162  22.968  26.420  1.00  0.00     0.019 C 
ATOM     61  C   UNL A   1      34.808  21.715  24.250  1.00  0.00     0.136 C 
ATOM     62  C   UNL A   1      34.530  21.761  27.086  1.00  0.00     0.023 C 
ATOM     63  N   UNL A   1      33.490  21.371  24.817  1.00  0.00    -0.324 N 
ATOM     64  C   UNL A   1      33.344  21.300  26.264  1.00  0.00     0.121 C 
BRANCH  63  65
ATOM     65  C   UNL A   1      32.519  20.987  23.898  1.00  0.00     0.321 C 
ATOM     66  O   UNL A   1      31.802  21.824  23.339  1.00  0.00    -0.248 OA
ATOM     67  N   UNL A   1      32.422  19.702  23.449  1.00  0.00    -0.308 N 
ATOM     68  H   UNL A   1      31.939  19.612  22.596  1.00  0.00     0.171 HD
BRANCH  67  69
ATOM     69  C   UNL A   1      32.879  18.491  23.970  1.00  0.00     0.042 A 
ATOM     70  C   UNL A   1      32.493  18.105  25.254  1.00  0.00     0.026 A 
ATOM     71  C   UNL A   1      33.702  17.661  23.209  1.00  0.00     0.026 A 
ATOM     72  C   UNL A   1      32.805  16.827  25.717  1.00  0.00     0.002 A 
ATOM     73  C   UNL A   1      34.029  16.390  23.680  1.00  0.00     0.002 A 
ATOM     74  C   UNL A   1      33.555  15.963  24.921  1.00  0.00     0.000 A 
ENDBRANCH  67  69
ENDBRANCH  63  65
ENDBRANCH  57  59
ENDBRANCH  56  57
ENDBRANCH  55  56
ENDBRANCH   1  55
TORSDOF 13
ENDMDL
